MODEL 1
REMARK VINA RESULT:      -8.2      0.000      0.000
REMARK SMILES CCC(C)(C)c1cccc(C(=O)OCCOCCOC(=O)c2ccc(-c3c4nc(c(-c5ccccc5)c5ccc([nH]5)c(-c5ccccc5)c5nc(c(-c6ccccc6)c6ccc3[nH]6)C=C5)C=C4)cc2)c1
REMARK SMILES IDX 16 1 15 2 14 3 13 4 11 5 12 6 10 7 6 8 7 9 70 10 8 11 9 12
REMARK SMILES IDX 3 13 4 14 5 15 2 16 1 17 17 18 18 19 19 20 20 21 21 22 22 23
REMARK SMILES IDX 23 24 69 25 24 26 68 27 25 28 26 29 27 30 62 31 28 32 67 33
REMARK SMILES IDX 61 34 63 35 29 36 66 37 60 38 59 39 30 41 52 42 37 43 51 44
REMARK SMILES IDX 38 45 41 46 50 47 64 48 39 49 40 50 49 52 65 53 42 54 31 55
REMARK SMILES IDX 32 56 36 57 33 58 35 59 34 60 53 61 54 62 58 63 55 64 57 65
REMARK SMILES IDX 56 66 43 67 44 68 48 69 45 70 47 71 46 72
REMARK H PARENT 63 40 41 51
REMARK Flexibility Score: inf
ROOT
ATOM      1  O   UNL A   1      43.555  20.305  25.234  1.00  0.00    -0.374 OA
ENDROOT
BRANCH   1   2
ATOM      2  C   UNL A   1      44.193  21.546  24.925  1.00  0.00     0.202 C 
BRANCH   2   3
ATOM      3  C   UNL A   1      44.600  22.406  26.127  1.00  0.00     0.261 C 
BRANCH   3   4
ATOM      4  O   UNL A   1      46.027  22.581  26.167  1.00  0.00    -0.460 OA
BRANCH   4   5
ATOM      5  C   UNL A   1      46.469  23.808  25.802  1.00  0.00     0.338 C 
ATOM      6  O   UNL A   1      46.276  24.367  24.732  1.00  0.00    -0.246 OA
BRANCH   5   7
ATOM      7  C   UNL A   1      47.076  24.489  26.970  1.00  0.00     0.060 A 
ATOM      8  C   UNL A   1      46.928  25.726  29.082  1.00  0.00    -0.042 A 
ATOM      9  C   UNL A   1      48.332  25.822  29.065  1.00  0.00     0.004 A 
ATOM     10  C   UNL A   1      46.312  25.047  28.007  1.00  0.00     0.020 A 
ATOM     11  C   UNL A   1      49.093  25.274  28.030  1.00  0.00     0.001 A 
ATOM     12  C   UNL A   1      48.469  24.604  26.987  1.00  0.00     0.016 A 
BRANCH   8  13
ATOM     13  C   UNL A   1      46.087  26.285  30.249  1.00  0.00    -0.011 C 
ATOM     14  C   UNL A   1      46.053  27.833  30.304  1.00  0.00     0.016 C 
ATOM     15  C   UNL A   1      46.746  25.808  31.566  1.00  0.00     0.016 C 
BRANCH  13  16
ATOM     16  C   UNL A   1      44.616  25.765  30.228  1.00  0.00     0.008 C 
ATOM     17  C   UNL A   1      44.375  24.460  30.979  1.00  0.00     0.005 C 
ENDBRANCH  13  16
ENDBRANCH   8  13
ENDBRANCH   5   7
ENDBRANCH   4   5
ENDBRANCH   3   4
ENDBRANCH   2   3
ENDBRANCH   1   2
BRANCH   1  18
ATOM     18  C   UNL A   1      42.702  20.288  26.381  1.00  0.00     0.202 C 
BRANCH  18  19
ATOM     19  C   UNL A   1      41.239  19.908  26.126  1.00  0.00     0.261 C 
BRANCH  19  20
ATOM     20  O   UNL A   1      40.347  20.572  27.039  1.00  0.00    -0.460 OA
BRANCH  20  21
ATOM     21  C   UNL A   1      39.547  21.506  26.475  1.00  0.00     0.338 C 
ATOM     22  O   UNL A   1      38.602  21.320  25.721  1.00  0.00    -0.246 OA
BRANCH  21  23
ATOM     23  C   UNL A   1      39.860  22.835  27.031  1.00  0.00     0.060 A 
ATOM     24  C   UNL A   1      39.165  23.934  26.511  1.00  0.00     0.016 A 
ATOM     25  C   UNL A   1      40.857  23.015  27.994  1.00  0.00     0.016 A 
ATOM     26  C   UNL A   1      39.498  25.224  26.914  1.00  0.00     0.010 A 
ATOM     27  C   UNL A   1      41.193  24.312  28.392  1.00  0.00     0.010 A 
ATOM     28  C   UNL A   1      40.540  25.424  27.829  1.00  0.00    -0.014 A 
BRANCH  28  29
ATOM     29  C   UNL A   1      41.036  26.796  28.089  1.00  0.00     0.031 A 
ATOM     30  C   UNL A   1      42.399  27.190  27.589  1.00  0.00     0.074 A 
ATOM     31  C   UNL A   1      40.273  27.691  28.742  1.00  0.00     0.049 A 
ATOM     32  N   UNL A   1      43.037  28.325  27.729  1.00  0.00    -0.248 NA
ATOM     33  C   UNL A   1      43.140  26.169  26.833  1.00  0.00     0.031 C 
ATOM     34  C   UNL A   1      38.920  27.447  29.238  1.00  0.00     0.029 A 
ATOM     35  N   UNL A   1      40.537  28.989  29.100  1.00  0.00    -0.354 N 
ATOM     36  C   UNL A   1      44.256  28.151  27.087  1.00  0.00     0.074 A 
ATOM     37  C   UNL A   1      44.281  26.794  26.585  1.00  0.00     0.031 C 
ATOM     38  C   UNL A   1      38.472  28.559  29.845  1.00  0.00     0.029 A 
ATOM     39  C   UNL A   1      39.519  29.579  29.808  1.00  0.00     0.049 A 
ATOM     40  H   UNL A   1      41.375  29.451  28.874  1.00  0.00     0.167 HD
ATOM     41  C   UNL A   1      45.263  29.042  26.923  1.00  0.00     0.031 A 
ATOM     42  C   UNL A   1      39.447  30.797  30.379  1.00  0.00     0.031 A 
ATOM     43  C   UNL A   1      45.247  30.386  27.436  1.00  0.00     0.049 A 
ATOM     44  C   UNL A   1      40.611  31.743  30.253  1.00  0.00     0.074 A 
ATOM     45  C   UNL A   1      46.213  31.370  27.309  1.00  0.00     0.029 A 
ATOM     46  N   UNL A   1      44.214  30.933  28.181  1.00  0.00    -0.354 N 
ATOM     47  N   UNL A   1      41.748  31.577  29.622  1.00  0.00    -0.248 NA
ATOM     48  C   UNL A   1      40.477  33.049  30.914  1.00  0.00     0.031 C 
ATOM     49  C   UNL A   1      45.789  32.493  28.028  1.00  0.00     0.029 A 
ATOM     50  C   UNL A   1      44.531  32.230  28.548  1.00  0.00     0.049 A 
ATOM     51  H   UNL A   1      43.379  30.468  28.415  1.00  0.00     0.167 HD
ATOM     52  C   UNL A   1      42.451  32.765  29.784  1.00  0.00     0.074 A 
ATOM     53  C   UNL A   1      41.607  33.647  30.562  1.00  0.00     0.031 C 
ATOM     54  C   UNL A   1      43.683  33.096  29.326  1.00  0.00     0.031 A 
BRANCH  41  55
ATOM     55  C   UNL A   1      46.487  28.571  26.188  1.00  0.00    -0.014 A 
ATOM     56  C   UNL A   1      47.758  28.607  26.784  1.00  0.00     0.009 A 
ATOM     57  C   UNL A   1      46.363  28.061  24.886  1.00  0.00     0.009 A 
ATOM     58  C   UNL A   1      48.883  28.178  26.077  1.00  0.00     0.001 A 
ATOM     59  C   UNL A   1      47.486  27.605  24.193  1.00  0.00     0.001 A 
ATOM     60  C   UNL A   1      48.746  27.673  24.784  1.00  0.00     0.000 A 
ENDBRANCH  41  55
BRANCH  42  61
ATOM     61  C   UNL A   1      38.234  31.189  31.142  1.00  0.00    -0.014 A 
ATOM     62  C   UNL A   1      37.145  31.794  30.496  1.00  0.00     0.009 A 
ATOM     63  C   UNL A   1      38.164  30.966  32.526  1.00  0.00     0.009 A 
ATOM     64  C   UNL A   1      36.021  32.189  31.225  1.00  0.00     0.001 A 
ATOM     65  C   UNL A   1      37.027  31.335  33.248  1.00  0.00     0.001 A 
ATOM     66  C   UNL A   1      35.960  31.954  32.599  1.00  0.00     0.000 A 
ENDBRANCH  42  61
BRANCH  54  67
ATOM     67  C   UNL A   1      44.180  34.485  29.622  1.00  0.00    -0.014 A 
ATOM     68  C   UNL A   1      43.902  35.560  28.763  1.00  0.00     0.009 A 
ATOM     69  C   UNL A   1      44.903  34.725  30.801  1.00  0.00     0.009 A 
ATOM     70  C   UNL A   1      44.368  36.841  29.065  1.00  0.00     0.001 A 
ATOM     71  C   UNL A   1      45.339  36.013  31.116  1.00  0.00     0.001 A 
ATOM     72  C   UNL A   1      45.080  37.067  30.242  1.00  0.00     0.000 A 
ENDBRANCH  54  67
ENDBRANCH  28  29
ENDBRANCH  21  23
ENDBRANCH  20  21
ENDBRANCH  19  20
ENDBRANCH  18  19
ENDBRANCH   1  18
TORSDOF 16
ENDMDL
MODEL 2
REMARK VINA RESULT:      -8.0      4.781     10.270
REMARK SMILES CCC(C)(C)c1cccc(C(=O)OCCOCCOC(=O)c2ccc(-c3c4nc(c(-c5ccccc5)c5ccc([nH]5)c(-c5ccccc5)c5nc(c(-c6ccccc6)c6ccc3[nH]6)C=C5)C=C4)cc2)c1
REMARK SMILES IDX 16 1 15 2 14 3 13 4 11 5 12 6 10 7 6 8 7 9 70 10 8 11 9 12
REMARK SMILES IDX 3 13 4 14 5 15 2 16 1 17 17 18 18 19 19 20 20 21 21 22 22 23
REMARK SMILES IDX 23 24 69 25 24 26 68 27 25 28 26 29 27 30 62 31 28 32 67 33
REMARK SMILES IDX 61 34 63 35 29 36 66 37 60 38 59 39 30 41 52 42 37 43 51 44
REMARK SMILES IDX 38 45 41 46 50 47 64 48 39 49 40 50 49 52 65 53 42 54 31 55
REMARK SMILES IDX 32 56 36 57 33 58 35 59 34 60 53 61 54 62 58 63 55 64 57 65
REMARK SMILES IDX 56 66 43 67 44 68 48 69 45 70 47 71 46 72
REMARK H PARENT 63 40 41 51
REMARK Flexibility Score: inf
ROOT
ATOM      1  O   UNL A   1      33.918  35.566  29.103  1.00  0.00    -0.374 OA
ENDROOT
BRANCH   1   2
ATOM      2  C   UNL A   1      33.072  36.586  29.636  1.00  0.00     0.202 C 
BRANCH   2   3
ATOM      3  C   UNL A   1      33.027  36.686  31.165  1.00  0.00     0.261 C 
BRANCH   3   4
ATOM      4  O   UNL A   1      34.060  35.881  31.758  1.00  0.00    -0.460 OA
BRANCH   4   5
ATOM      5  C   UNL A   1      33.622  34.846  32.516  1.00  0.00     0.338 C 
ATOM      6  O   UNL A   1      32.473  34.638  32.878  1.00  0.00    -0.246 OA
BRANCH   5   7
ATOM      7  C   UNL A   1      34.716  33.862  32.698  1.00  0.00     0.060 A 
ATOM      8  C   UNL A   1      36.789  33.089  33.756  1.00  0.00    -0.042 A 
ATOM      9  C   UNL A   1      36.764  31.987  32.880  1.00  0.00     0.004 A 
ATOM     10  C   UNL A   1      35.740  34.030  33.643  1.00  0.00     0.020 A 
ATOM     11  C   UNL A   1      35.750  31.823  31.934  1.00  0.00     0.001 A 
ATOM     12  C   UNL A   1      34.724  32.755  31.845  1.00  0.00     0.016 A 
BRANCH   8  13
ATOM     13  C   UNL A   1      37.879  33.247  34.836  1.00  0.00    -0.011 C 
ATOM     14  C   UNL A   1      37.312  33.498  36.257  1.00  0.00     0.016 C 
ATOM     15  C   UNL A   1      38.720  34.493  34.468  1.00  0.00     0.016 C 
BRANCH  13  16
ATOM     16  C   UNL A   1      38.837  32.017  34.903  1.00  0.00     0.008 C 
ATOM     17  C   UNL A   1      39.071  31.448  36.298  1.00  0.00     0.005 C 
ENDBRANCH  13  16
ENDBRANCH   8  13
ENDBRANCH   5   7
ENDBRANCH   4   5
ENDBRANCH   3   4
ENDBRANCH   2   3
ENDBRANCH   1   2
BRANCH   1  18
ATOM     18  C   UNL A   1      33.293  34.332  28.745  1.00  0.00     0.202 C 
BRANCH  18  19
ATOM     19  C   UNL A   1      34.173  33.325  27.994  1.00  0.00     0.261 C 
BRANCH  19  20
ATOM     20  O   UNL A   1      34.208  32.048  28.656  1.00  0.00    -0.460 OA
BRANCH  20  21
ATOM     21  C   UNL A   1      34.377  30.986  27.835  1.00  0.00     0.338 C 
ATOM     22  O   UNL A   1      33.684  30.667  26.879  1.00  0.00    -0.246 OA
BRANCH  21  23
ATOM     23  C   UNL A   1      35.654  30.316  28.140  1.00  0.00     0.060 A 
ATOM     24  C   UNL A   1      35.779  29.705  29.394  1.00  0.00     0.016 A 
ATOM     25  C   UNL A   1      36.730  30.338  27.250  1.00  0.00     0.016 A 
ATOM     26  C   UNL A   1      36.998  29.156  29.785  1.00  0.00     0.010 A 
ATOM     27  C   UNL A   1      37.955  29.792  27.647  1.00  0.00     0.010 A 
ATOM     28  C   UNL A   1      38.104  29.231  28.928  1.00  0.00    -0.014 A 
BRANCH  28  29
ATOM     29  C   UNL A   1      39.446  28.846  29.427  1.00  0.00     0.031 A 
ATOM     30  C   UNL A   1      40.058  27.554  28.959  1.00  0.00     0.074 A 
ATOM     31  C   UNL A   1      40.123  29.648  30.267  1.00  0.00     0.049 A 
ATOM     32  N   UNL A   1      41.204  27.014  29.288  1.00  0.00    -0.248 NA
ATOM     33  C   UNL A   1      39.274  26.769  27.993  1.00  0.00     0.031 C 
ATOM     34  C   UNL A   1      39.659  30.943  30.760  1.00  0.00     0.029 A 
ATOM     35  N   UNL A   1      41.351  29.481  30.857  1.00  0.00    -0.354 N 
ATOM     36  C   UNL A   1      41.275  25.822  28.578  1.00  0.00     0.074 A 
ATOM     37  C   UNL A   1      40.044  25.704  27.825  1.00  0.00     0.031 C 
ATOM     38  C   UNL A   1      40.589  31.454  31.584  1.00  0.00     0.029 A 
ATOM     39  C   UNL A   1      41.696  30.507  31.702  1.00  0.00     0.049 A 
ATOM     40  H   UNL A   1      41.928  28.702  30.690  1.00  0.00     0.167 HD
ATOM     41  C   UNL A   1      42.275  24.910  28.548  1.00  0.00     0.031 A 
ATOM     42  C   UNL A   1      42.773  30.654  32.498  1.00  0.00     0.031 A 
ATOM     43  C   UNL A   1      43.492  25.017  29.308  1.00  0.00     0.049 A 
ATOM     44  C   UNL A   1      43.835  29.588  32.510  1.00  0.00     0.074 A 
ATOM     45  C   UNL A   1      44.573  24.152  29.335  1.00  0.00     0.029 A 
ATOM     46  N   UNL A   1      43.786  26.051  30.184  1.00  0.00    -0.354 N 
ATOM     47  N   UNL A   1      43.903  28.479  31.815  1.00  0.00    -0.248 NA
ATOM     48  C   UNL A   1      44.976  29.802  33.413  1.00  0.00     0.031 C 
ATOM     49  C   UNL A   1      45.494  24.634  30.271  1.00  0.00     0.029 A 
ATOM     50  C   UNL A   1      45.016  25.831  30.779  1.00  0.00     0.049 A 
ATOM     51  H   UNL A   1      43.205  26.827  30.357  1.00  0.00     0.167 HD
ATOM     52  C   UNL A   1      45.104  27.877  32.174  1.00  0.00     0.074 A 
ATOM     53  C   UNL A   1      45.737  28.752  33.138  1.00  0.00     0.031 C 
ATOM     54  C   UNL A   1      45.634  26.708  31.740  1.00  0.00     0.031 A 
BRANCH  41  55
ATOM     55  C   UNL A   1      42.073  23.692  27.690  1.00  0.00    -0.014 A 
ATOM     56  C   UNL A   1      42.536  23.645  26.365  1.00  0.00     0.009 A 
ATOM     57  C   UNL A   1      41.429  22.565  28.224  1.00  0.00     0.009 A 
ATOM     58  C   UNL A   1      42.324  22.508  25.582  1.00  0.00     0.001 A 
ATOM     59  C   UNL A   1      41.245  21.419  27.448  1.00  0.00     0.001 A 
ATOM     60  C   UNL A   1      41.683  21.395  26.125  1.00  0.00     0.000 A 
ENDBRANCH  41  55
BRANCH  42  61
ATOM     61  C   UNL A   1      42.894  31.852  33.368  1.00  0.00    -0.014 A 
ATOM     62  C   UNL A   1      42.385  31.844  34.676  1.00  0.00     0.009 A 
ATOM     63  C   UNL A   1      43.512  33.018  32.888  1.00  0.00     0.009 A 
ATOM     64  C   UNL A   1      42.474  32.985  35.476  1.00  0.00     0.001 A 
ATOM     65  C   UNL A   1      43.626  34.148  33.701  1.00  0.00     0.001 A 
ATOM     66  C   UNL A   1      43.099  34.134  34.990  1.00  0.00     0.000 A 
ENDBRANCH  42  61
BRANCH  54  67
ATOM     67  C   UNL A   1      46.986  26.321  32.277  1.00  0.00    -0.014 A 
ATOM     68  C   UNL A   1      48.169  26.725  31.639  1.00  0.00     0.009 A 
ATOM     69  C   UNL A   1      47.073  25.575  33.463  1.00  0.00     0.009 A 
ATOM     70  C   UNL A   1      49.411  26.361  32.162  1.00  0.00     0.001 A 
ATOM     71  C   UNL A   1      48.316  25.239  34.000  1.00  0.00     0.001 A 
ATOM     72  C   UNL A   1      49.484  25.624  33.344  1.00  0.00     0.000 A 
ENDBRANCH  54  67
ENDBRANCH  28  29
ENDBRANCH  21  23
ENDBRANCH  20  21
ENDBRANCH  19  20
ENDBRANCH  18  19
ENDBRANCH   1  18
TORSDOF 16
ENDMDL
MODEL 3
REMARK VINA RESULT:      -8.0      4.714     10.999
REMARK SMILES CCC(C)(C)c1cccc(C(=O)OCCOCCOC(=O)c2ccc(-c3c4nc(c(-c5ccccc5)c5ccc([nH]5)c(-c5ccccc5)c5nc(c(-c6ccccc6)c6ccc3[nH]6)C=C5)C=C4)cc2)c1
REMARK SMILES IDX 16 1 15 2 14 3 13 4 11 5 12 6 10 7 6 8 7 9 70 10 8 11 9 12
REMARK SMILES IDX 3 13 4 14 5 15 2 16 1 17 17 18 18 19 19 20 20 21 21 22 22 23
REMARK SMILES IDX 23 24 69 25 24 26 68 27 25 28 26 29 27 30 62 31 28 32 67 33
REMARK SMILES IDX 61 34 63 35 29 36 66 37 60 38 59 39 30 41 52 42 37 43 51 44
REMARK SMILES IDX 38 45 41 46 50 47 64 48 39 49 40 50 49 52 65 53 42 54 31 55
REMARK SMILES IDX 32 56 36 57 33 58 35 59 34 60 53 61 54 62 58 63 55 64 57 65
REMARK SMILES IDX 56 66 43 67 44 68 48 69 45 70 47 71 46 72
REMARK H PARENT 63 40 41 51
REMARK Flexibility Score: inf
ROOT
ATOM      1  O   UNL A   1      33.738  35.645  29.028  1.00  0.00    -0.374 OA
ENDROOT
BRANCH   1   2
ATOM      2  C   UNL A   1      32.773  36.261  29.882  1.00  0.00     0.202 C 
BRANCH   2   3
ATOM      3  C   UNL A   1      33.011  36.097  31.387  1.00  0.00     0.261 C 
BRANCH   3   4
ATOM      4  O   UNL A   1      34.322  35.565  31.640  1.00  0.00    -0.460 OA
BRANCH   4   5
ATOM      5  C   UNL A   1      34.709  35.573  32.939  1.00  0.00     0.338 C 
ATOM      6  O   UNL A   1      34.367  36.371  33.799  1.00  0.00    -0.246 OA
BRANCH   5   7
ATOM      7  C   UNL A   1      35.473  34.340  33.241  1.00  0.00     0.060 A 
ATOM      8  C   UNL A   1      37.234  33.110  34.424  1.00  0.00    -0.042 A 
ATOM      9  C   UNL A   1      36.896  31.983  33.652  1.00  0.00     0.004 A 
ATOM     10  C   UNL A   1      36.500  34.296  34.197  1.00  0.00     0.020 A 
ATOM     11  C   UNL A   1      35.879  32.027  32.695  1.00  0.00     0.001 A 
ATOM     12  C   UNL A   1      35.164  33.201  32.492  1.00  0.00     0.016 A 
BRANCH   8  13
ATOM     13  C   UNL A   1      38.321  33.051  35.518  1.00  0.00    -0.011 C 
ATOM     14  C   UNL A   1      39.284  34.265  35.502  1.00  0.00     0.016 C 
ATOM     15  C   UNL A   1      39.185  31.796  35.246  1.00  0.00     0.016 C 
BRANCH  13  16
ATOM     16  C   UNL A   1      37.719  32.924  36.952  1.00  0.00     0.008 C 
ATOM     17  C   UNL A   1      38.734  32.961  38.090  1.00  0.00     0.005 C 
ENDBRANCH  13  16
ENDBRANCH   8  13
ENDBRANCH   5   7
ENDBRANCH   4   5
ENDBRANCH   3   4
ENDBRANCH   2   3
ENDBRANCH   1   2
BRANCH   1  18
ATOM     18  C   UNL A   1      33.376  34.391  28.446  1.00  0.00     0.202 C 
BRANCH  18  19
ATOM     19  C   UNL A   1      34.536  33.456  28.085  1.00  0.00     0.261 C 
BRANCH  19  20
ATOM     20  O   UNL A   1      34.549  32.276  28.910  1.00  0.00    -0.460 OA
BRANCH  20  21
ATOM     21  C   UNL A   1      34.507  31.107  28.230  1.00  0.00     0.338 C 
ATOM     22  O   UNL A   1      33.651  30.736  27.439  1.00  0.00    -0.246 OA
BRANCH  21  23
ATOM     23  C   UNL A   1      35.763  30.363  28.438  1.00  0.00     0.060 A 
ATOM     24  C   UNL A   1      35.971  29.788  29.698  1.00  0.00     0.016 A 
ATOM     25  C   UNL A   1      36.745  30.282  27.449  1.00  0.00     0.016 A 
ATOM     26  C   UNL A   1      37.184  29.172  29.992  1.00  0.00     0.010 A 
ATOM     27  C   UNL A   1      37.966  29.669  27.748  1.00  0.00     0.010 A 
ATOM     28  C   UNL A   1      38.203  29.142  29.032  1.00  0.00    -0.014 A 
BRANCH  28  29
ATOM     29  C   UNL A   1      39.561  28.685  29.414  1.00  0.00     0.031 A 
ATOM     30  C   UNL A   1      40.395  29.546  30.321  1.00  0.00     0.074 A 
ATOM     31  C   UNL A   1      40.036  27.504  28.980  1.00  0.00     0.049 A 
ATOM     32  N   UNL A   1      41.614  29.352  30.759  1.00  0.00    -0.248 NA
ATOM     33  C   UNL A   1      39.773  30.792  30.798  1.00  0.00     0.031 C 
ATOM     34  C   UNL A   1      39.311  26.559  28.133  1.00  0.00     0.029 A 
ATOM     35  N   UNL A   1      41.251  26.904  29.194  1.00  0.00    -0.354 N 
ATOM     36  C   UNL A   1      41.908  30.453  31.553  1.00  0.00     0.074 A 
ATOM     37  C   UNL A   1      40.753  31.325  31.512  1.00  0.00     0.031 C 
ATOM     38  C   UNL A   1      40.098  25.497  27.893  1.00  0.00     0.029 A 
ATOM     39  C   UNL A   1      41.393  25.705  28.540  1.00  0.00     0.049 A 
ATOM     40  H   UNL A   1      41.954  27.295  29.760  1.00  0.00     0.167 HD
ATOM     41  C   UNL A   1      43.034  30.714  32.258  1.00  0.00     0.031 A 
ATOM     42  C   UNL A   1      42.453  24.878  28.456  1.00  0.00     0.031 A 
ATOM     43  C   UNL A   1      44.189  29.857  32.286  1.00  0.00     0.049 A 
ATOM     44  C   UNL A   1      43.723  25.228  29.183  1.00  0.00     0.074 A 
ATOM     45  C   UNL A   1      45.374  30.027  32.982  1.00  0.00     0.029 A 
ATOM     46  N   UNL A   1      44.308  28.671  31.578  1.00  0.00    -0.354 N 
ATOM     47  N   UNL A   1      43.981  26.259  29.952  1.00  0.00    -0.248 NA
ATOM     48  C   UNL A   1      44.848  24.294  29.037  1.00  0.00     0.031 C 
ATOM     49  C   UNL A   1      46.231  28.972  32.650  1.00  0.00     0.029 A 
ATOM     50  C   UNL A   1      45.556  28.113  31.797  1.00  0.00     0.049 A 
ATOM     51  H   UNL A   1      43.608  28.282  31.006  1.00  0.00     0.167 HD
ATOM     52  C   UNL A   1      45.283  26.082  30.403  1.00  0.00     0.074 A 
ATOM     53  C   UNL A   1      45.758  24.839  29.832  1.00  0.00     0.031 C 
ATOM     54  C   UNL A   1      46.017  26.877  31.220  1.00  0.00     0.031 A 
BRANCH  41  55
ATOM     55  C   UNL A   1      43.082  32.005  33.028  1.00  0.00    -0.014 A 
ATOM     56  C   UNL A   1      42.750  32.057  34.391  1.00  0.00     0.009 A 
ATOM     57  C   UNL A   1      43.489  33.184  32.383  1.00  0.00     0.009 A 
ATOM     58  C   UNL A   1      42.787  33.270  35.082  1.00  0.00     0.001 A 
ATOM     59  C   UNL A   1      43.554  34.389  33.085  1.00  0.00     0.001 A 
ATOM     60  C   UNL A   1      43.194  34.433  34.430  1.00  0.00     0.000 A 
ENDBRANCH  41  55
BRANCH  42  61
ATOM     61  C   UNL A   1      42.368  23.643  27.635  1.00  0.00    -0.014 A 
ATOM     62  C   UNL A   1      41.904  22.442  28.192  1.00  0.00     0.009 A 
ATOM     63  C   UNL A   1      42.760  23.659  26.287  1.00  0.00     0.009 A 
ATOM     64  C   UNL A   1      41.857  21.277  27.422  1.00  0.00     0.001 A 
ATOM     65  C   UNL A   1      42.684  22.500  25.512  1.00  0.00     0.001 A 
ATOM     66  C   UNL A   1      42.241  21.309  26.082  1.00  0.00     0.000 A 
ENDBRANCH  42  61
BRANCH  54  67
ATOM     67  C   UNL A   1      47.402  26.408  31.577  1.00  0.00    -0.014 A 
ATOM     68  C   UNL A   1      47.640  25.637  32.725  1.00  0.00     0.009 A 
ATOM     69  C   UNL A   1      48.477  26.712  30.726  1.00  0.00     0.009 A 
ATOM     70  C   UNL A   1      48.934  25.207  33.029  1.00  0.00     0.001 A 
ATOM     71  C   UNL A   1      49.763  26.254  31.016  1.00  0.00     0.001 A 
ATOM     72  C   UNL A   1      49.991  25.511  32.173  1.00  0.00     0.000 A 
ENDBRANCH  54  67
ENDBRANCH  28  29
ENDBRANCH  21  23
ENDBRANCH  20  21
ENDBRANCH  19  20
ENDBRANCH  18  19
ENDBRANCH   1  18
TORSDOF 16
ENDMDL
