MODEL 1
REMARK VINA RESULT:     -10.0      0.000      0.000
REMARK SMILES CC(=O)N1[C@@H](c2c(F)cccc2Cl)SC[C@H]1C(=O)OCCOCCOC(=O)c1ccc(-c2c3nc(c(-c4ccccc4)c4ccc([nH]4)c(-c4ccccc4)c4nc(c(-c5ccccc5)c5ccc2[nH]5)C=C4)C=C3)cc1
REMARK SMILES IDX 23 1 22 2 21 3 20 4 19 5 17 6 18 7 16 8 4 9 5 10 14 11 15 12
REMARK SMILES IDX 2 13 1 14 3 15 6 16 7 17 12 18 8 19 9 20 11 21 13 22 10 23
REMARK SMILES IDX 24 24 25 25 26 26 27 27 28 28 29 29 75 30 30 31 74 32 31 33
REMARK SMILES IDX 32 34 33 35 68 36 34 37 73 38 67 39 69 40 35 41 72 42 66 43
REMARK SMILES IDX 65 44 36 46 58 47 43 48 57 49 44 50 47 51 56 52 70 53 45 54
REMARK SMILES IDX 46 55 55 57 71 58 48 59 37 60 38 61 42 62 39 63 41 64 40 65
REMARK SMILES IDX 59 66 60 67 64 68 61 69 63 70 62 71 49 72 50 73 54 74 51 75
REMARK SMILES IDX 53 76 52 77
REMARK H PARENT 69 45 47 56
REMARK Flexibility Score: inf
ROOT
ATOM      1  C   UNL A   1      33.445  28.877  26.065  1.00  0.00     0.202 C 
ENDROOT
BRANCH   1   2
ATOM      2  O   UNL A   1      33.169  29.397  24.766  1.00  0.00    -0.374 OA
BRANCH   2   3
ATOM      3  C   UNL A   1      32.954  28.451  23.719  1.00  0.00     0.202 C 
BRANCH   3   4
ATOM      4  C   UNL A   1      33.644  27.095  23.876  1.00  0.00     0.261 C 
BRANCH   4   5
ATOM      5  O   UNL A   1      32.745  26.008  23.583  1.00  0.00    -0.462 OA
BRANCH   5   6
ATOM      6  C   UNL A   1      33.342  24.788  23.495  1.00  0.00     0.329 C 
ATOM      7  O   UNL A   1      34.392  24.576  22.893  1.00  0.00    -0.250 OA
BRANCH   6   8
ATOM      8  C   UNL A   1      32.593  23.673  24.241  1.00  0.00     0.206 C 
ATOM      9  N   UNL A   1      33.144  22.306  24.298  1.00  0.00    -0.312 N 
ATOM     10  C   UNL A   1      33.838  21.979  25.543  1.00  0.00     0.179 C 
ATOM     11  S   UNL A   1      32.992  22.948  26.830  1.00  0.00    -0.129 SA
ATOM     12  C   UNL A   1      32.258  24.132  25.663  1.00  0.00     0.109 C 
BRANCH   9  13
ATOM     13  C   UNL A   1      32.700  21.398  23.354  1.00  0.00     0.221 C 
ATOM     14  C   UNL A   1      32.504  19.962  23.762  1.00  0.00     0.114 C 
ATOM     15  O   UNL A   1      32.386  21.745  22.213  1.00  0.00    -0.275 OA
ENDBRANCH   9  13
BRANCH  10  16
ATOM     16  C   UNL A   1      35.343  22.194  25.520  1.00  0.00     0.039 A 
ATOM     17  C   UNL A   1      35.920  23.435  25.846  1.00  0.00     0.130 A 
ATOM     18  C   UNL A   1      36.251  21.161  25.213  1.00  0.00     0.050 A 
ATOM     19  F   UNL A   1      35.153  24.465  26.228  1.00  0.00    -0.207 F 
ATOM     20  C   UNL A   1      37.296  23.664  25.833  1.00  0.00     0.040 A 
ATOM     21  C   UNL A   1      37.637  21.382  25.205  1.00  0.00     0.021 A 
ATOM     22  Cl  UNL A   1      35.766  19.533  24.888  1.00  0.00    -0.084 Cl
ATOM     23  C   UNL A   1      38.159  22.633  25.511  1.00  0.00     0.005 A 
ENDBRANCH  10  16
ENDBRANCH   6   8
ENDBRANCH   5   6
ENDBRANCH   4   5
ENDBRANCH   3   4
ENDBRANCH   2   3
ENDBRANCH   1   2
BRANCH   1  24
ATOM     24  C   UNL A   1      33.253  29.837  27.248  1.00  0.00     0.261 C 
BRANCH  24  25
ATOM     25  O   UNL A   1      34.088  31.009  27.202  1.00  0.00    -0.460 OA
BRANCH  25  26
ATOM     26  C   UNL A   1      34.743  31.274  28.359  1.00  0.00     0.338 C 
ATOM     27  O   UNL A   1      34.377  31.996  29.275  1.00  0.00    -0.246 OA
BRANCH  26  28
ATOM     28  C   UNL A   1      35.969  30.463  28.457  1.00  0.00     0.060 A 
ATOM     29  C   UNL A   1      36.282  29.886  29.694  1.00  0.00     0.016 A 
ATOM     30  C   UNL A   1      36.859  30.367  27.386  1.00  0.00     0.016 A 
ATOM     31  C   UNL A   1      37.504  29.239  29.877  1.00  0.00     0.010 A 
ATOM     32  C   UNL A   1      38.086  29.720  27.575  1.00  0.00     0.010 A 
ATOM     33  C   UNL A   1      38.429  29.175  28.827  1.00  0.00    -0.014 A 
BRANCH  33  34
ATOM     34  C   UNL A   1      39.804  28.664  29.066  1.00  0.00     0.031 A 
ATOM     35  C   UNL A   1      40.831  29.583  29.674  1.00  0.00     0.074 A 
ATOM     36  C   UNL A   1      40.145  27.403  28.745  1.00  0.00     0.049 A 
ATOM     37  N   UNL A   1      42.096  29.361  29.925  1.00  0.00    -0.248 NA
ATOM     38  C   UNL A   1      40.368  30.930  30.048  1.00  0.00     0.031 C 
ATOM     39  C   UNL A   1      39.245  26.391  28.196  1.00  0.00     0.029 A 
ATOM     40  N   UNL A   1      41.358  26.762  28.823  1.00  0.00    -0.354 N 
ATOM     41  C   UNL A   1      42.580  30.537  30.485  1.00  0.00     0.074 A 
ATOM     42  C   UNL A   1      41.487  31.485  30.491  1.00  0.00     0.031 C 
ATOM     43  C   UNL A   1      39.944  25.269  27.947  1.00  0.00     0.029 A 
ATOM     44  C   UNL A   1      41.339  25.485  28.320  1.00  0.00     0.049 A 
ATOM     45  H   UNL A   1      42.164  27.181  29.203  1.00  0.00     0.167 HD
ATOM     46  C   UNL A   1      43.815  30.802  30.974  1.00  0.00     0.031 A 
ATOM     47  C   UNL A   1      42.334  24.589  28.170  1.00  0.00     0.031 A 
ATOM     48  C   UNL A   1      44.906  29.866  30.976  1.00  0.00     0.049 A 
ATOM     49  C   UNL A   1      43.719  24.932  28.649  1.00  0.00     0.074 A 
ATOM     50  C   UNL A   1      46.183  30.030  31.483  1.00  0.00     0.029 A 
ATOM     51  N   UNL A   1      44.850  28.590  30.437  1.00  0.00    -0.354 N 
ATOM     52  N   UNL A   1      44.147  26.030  29.221  1.00  0.00    -0.248 NA
ATOM     53  C   UNL A   1      44.751  23.896  28.484  1.00  0.00     0.031 C 
ATOM     54  C   UNL A   1      46.915  28.870  31.208  1.00  0.00     0.029 A 
ATOM     55  C   UNL A   1      46.076  27.965  30.576  1.00  0.00     0.049 A 
ATOM     56  H   UNL A   1      44.054  28.189  30.018  1.00  0.00     0.167 HD
ATOM     57  C   UNL A   1      45.485  25.804  29.520  1.00  0.00     0.074 A 
ATOM     58  C   UNL A   1      45.797  24.464  29.069  1.00  0.00     0.031 C 
ATOM     59  C   UNL A   1      46.374  26.631  30.126  1.00  0.00     0.031 A 
BRANCH  46  60
ATOM     60  C   UNL A   1      44.050  32.175  31.539  1.00  0.00    -0.014 A 
ATOM     61  C   UNL A   1      44.534  33.218  30.734  1.00  0.00     0.009 A 
ATOM     62  C   UNL A   1      43.763  32.433  32.888  1.00  0.00     0.009 A 
ATOM     63  C   UNL A   1      44.764  34.483  31.280  1.00  0.00     0.001 A 
ATOM     64  C   UNL A   1      43.968  33.706  33.424  1.00  0.00     0.001 A 
ATOM     65  C   UNL A   1      44.477  34.726  32.623  1.00  0.00     0.000 A 
ENDBRANCH  46  60
BRANCH  47  66
ATOM     66  C   UNL A   1      42.059  23.270  27.545  1.00  0.00    -0.014 A 
ATOM     67  C   UNL A   1      41.462  22.238  28.285  1.00  0.00     0.009 A 
ATOM     68  C   UNL A   1      42.410  23.032  26.207  1.00  0.00     0.009 A 
ATOM     69  C   UNL A   1      41.245  20.986  27.704  1.00  0.00     0.001 A 
ATOM     70  C   UNL A   1      42.169  21.788  25.621  1.00  0.00     0.001 A 
ATOM     71  C   UNL A   1      41.595  20.763  26.372  1.00  0.00     0.000 A 
ENDBRANCH  47  66
BRANCH  59  72
ATOM     72  C   UNL A   1      47.755  26.096  30.375  1.00  0.00    -0.014 A 
ATOM     73  C   UNL A   1      48.718  26.057  29.355  1.00  0.00     0.009 A 
ATOM     74  C   UNL A   1      48.110  25.668  31.664  1.00  0.00     0.009 A 
ATOM     75  C   UNL A   1      50.000  25.570  29.616  1.00  0.00     0.001 A 
ATOM     76  C   UNL A   1      49.400  25.206  31.928  1.00  0.00     0.001 A 
ATOM     77  C   UNL A   1      50.342  25.150  30.901  1.00  0.00     0.000 A 
ENDBRANCH  59  72
ENDBRANCH  33  34
ENDBRANCH  26  28
ENDBRANCH  25  26
ENDBRANCH  24  25
ENDBRANCH   1  24
TORSDOF 16
ENDMDL
MODEL 2
REMARK VINA RESULT:      -9.7      3.893      5.773
REMARK SMILES CC(=O)N1[C@@H](c2c(F)cccc2Cl)SC[C@H]1C(=O)OCCOCCOC(=O)c1ccc(-c2c3nc(c(-c4ccccc4)c4ccc([nH]4)c(-c4ccccc4)c4nc(c(-c5ccccc5)c5ccc2[nH]5)C=C4)C=C3)cc1
REMARK SMILES IDX 23 1 22 2 21 3 20 4 19 5 17 6 18 7 16 8 4 9 5 10 14 11 15 12
REMARK SMILES IDX 2 13 1 14 3 15 6 16 7 17 12 18 8 19 9 20 11 21 13 22 10 23
REMARK SMILES IDX 24 24 25 25 26 26 27 27 28 28 29 29 75 30 30 31 74 32 31 33
REMARK SMILES IDX 32 34 33 35 68 36 34 37 73 38 67 39 69 40 35 41 72 42 66 43
REMARK SMILES IDX 65 44 36 46 58 47 43 48 57 49 44 50 47 51 56 52 70 53 45 54
REMARK SMILES IDX 46 55 55 57 71 58 48 59 37 60 38 61 42 62 39 63 41 64 40 65
REMARK SMILES IDX 59 66 60 67 64 68 61 69 63 70 62 71 49 72 50 73 54 74 51 75
REMARK SMILES IDX 53 76 52 77
REMARK H PARENT 69 45 47 56
REMARK Flexibility Score: inf
ROOT
ATOM      1  C   UNL A   1      31.396  32.248  26.641  1.00  0.00     0.202 C 
ENDROOT
BRANCH   1   2
ATOM      2  O   UNL A   1      31.869  30.914  26.471  1.00  0.00    -0.374 OA
BRANCH   2   3
ATOM      3  C   UNL A   1      32.999  30.519  27.250  1.00  0.00     0.202 C 
BRANCH   3   4
ATOM      4  C   UNL A   1      33.913  29.459  26.634  1.00  0.00     0.261 C 
BRANCH   4   5
ATOM      5  O   UNL A   1      33.168  28.299  26.214  1.00  0.00    -0.462 OA
BRANCH   5   6
ATOM      6  C   UNL A   1      33.217  28.048  24.878  1.00  0.00     0.329 C 
ATOM      7  O   UNL A   1      33.588  28.863  24.037  1.00  0.00    -0.250 OA
BRANCH   6   8
ATOM      8  C   UNL A   1      32.782  26.625  24.495  1.00  0.00     0.206 C 
ATOM      9  N   UNL A   1      31.367  26.220  24.592  1.00  0.00    -0.312 N 
ATOM     10  C   UNL A   1      30.638  26.240  23.325  1.00  0.00     0.179 C 
ATOM     11  S   UNL A   1      31.878  25.842  22.055  1.00  0.00    -0.129 SA
ATOM     12  C   UNL A   1      33.301  26.281  23.095  1.00  0.00     0.109 C 
BRANCH   9  13
ATOM     13  C   UNL A   1      30.963  25.581  25.751  1.00  0.00     0.221 C 
ATOM     14  C   UNL A   1      31.914  24.629  26.425  1.00  0.00     0.114 C 
ATOM     15  O   UNL A   1      29.882  25.829  26.288  1.00  0.00    -0.275 OA
ENDBRANCH   9  13
BRANCH  10  16
ATOM     16  C   UNL A   1      29.873  27.523  23.040  1.00  0.00     0.039 A 
ATOM     17  C   UNL A   1      30.475  28.615  22.389  1.00  0.00     0.130 A 
ATOM     18  C   UNL A   1      28.512  27.682  23.368  1.00  0.00     0.050 A 
ATOM     19  F   UNL A   1      31.743  28.543  21.963  1.00  0.00    -0.207 F 
ATOM     20  C   UNL A   1      29.802  29.806  22.114  1.00  0.00     0.040 A 
ATOM     21  C   UNL A   1      27.826  28.875  23.088  1.00  0.00     0.021 A 
ATOM     22  Cl  UNL A   1      27.551  26.430  24.073  1.00  0.00    -0.084 Cl
ATOM     23  C   UNL A   1      28.471  29.936  22.465  1.00  0.00     0.005 A 
ENDBRANCH  10  16
ENDBRANCH   6   8
ENDBRANCH   5   6
ENDBRANCH   4   5
ENDBRANCH   3   4
ENDBRANCH   2   3
ENDBRANCH   1   2
BRANCH   1  24
ATOM     24  C   UNL A   1      32.457  33.329  26.900  1.00  0.00     0.261 C 
BRANCH  24  25
ATOM     25  O   UNL A   1      32.194  34.152  28.051  1.00  0.00    -0.460 OA
BRANCH  25  26
ATOM     26  C   UNL A   1      33.275  34.829  28.512  1.00  0.00     0.338 C 
ATOM     27  O   UNL A   1      33.357  36.023  28.761  1.00  0.00    -0.246 OA
BRANCH  26  28
ATOM     28  C   UNL A   1      34.380  33.900  28.808  1.00  0.00     0.060 A 
ATOM     29  C   UNL A   1      34.110  32.790  29.618  1.00  0.00     0.016 A 
ATOM     30  C   UNL A   1      35.685  34.175  28.397  1.00  0.00     0.016 A 
ATOM     31  C   UNL A   1      35.151  31.968  30.051  1.00  0.00     0.010 A 
ATOM     32  C   UNL A   1      36.727  33.351  28.837  1.00  0.00     0.010 A 
ATOM     33  C   UNL A   1      36.472  32.257  29.688  1.00  0.00    -0.014 A 
BRANCH  33  34
ATOM     34  C   UNL A   1      37.601  31.510  30.298  1.00  0.00     0.031 A 
ATOM     35  C   UNL A   1      37.981  31.796  31.727  1.00  0.00     0.074 A 
ATOM     36  C   UNL A   1      38.289  30.590  29.598  1.00  0.00     0.049 A 
ATOM     37  N   UNL A   1      38.958  31.296  32.442  1.00  0.00    -0.248 NA
ATOM     38  C   UNL A   1      37.148  32.775  32.446  1.00  0.00     0.031 C 
ATOM     39  C   UNL A   1      38.003  30.176  28.225  1.00  0.00     0.029 A 
ATOM     40  N   UNL A   1      39.389  29.845  29.947  1.00  0.00    -0.354 N 
ATOM     41  C   UNL A   1      38.858  31.899  33.690  1.00  0.00     0.074 A 
ATOM     42  C   UNL A   1      37.757  32.836  33.620  1.00  0.00     0.031 C 
ATOM     43  C   UNL A   1      38.928  29.282  27.834  1.00  0.00     0.029 A 
ATOM     44  C   UNL A   1      39.869  29.061  28.928  1.00  0.00     0.049 A 
ATOM     45  H   UNL A   1      39.793  29.871  30.845  1.00  0.00     0.167 HD
ATOM     46  C   UNL A   1      39.596  31.678  34.803  1.00  0.00     0.031 A 
ATOM     47  C   UNL A   1      40.950  28.258  28.877  1.00  0.00     0.031 A 
ATOM     48  C   UNL A   1      40.687  30.746  34.883  1.00  0.00     0.049 A 
ATOM     49  C   UNL A   1      41.805  28.086  30.103  1.00  0.00     0.074 A 
ATOM     50  C   UNL A   1      41.472  30.426  35.977  1.00  0.00     0.029 A 
ATOM     51  N   UNL A   1      41.155  29.989  33.820  1.00  0.00    -0.354 N 
ATOM     52  N   UNL A   1      41.666  28.626  31.289  1.00  0.00    -0.248 NA
ATOM     53  C   UNL A   1      42.952  27.171  29.987  1.00  0.00     0.031 C 
ATOM     54  C   UNL A   1      42.444  29.509  35.565  1.00  0.00     0.029 A 
ATOM     55  C   UNL A   1      42.232  29.221  34.226  1.00  0.00     0.049 A 
ATOM     56  H   UNL A   1      40.776  29.996  32.912  1.00  0.00     0.167 HD
ATOM     57  C   UNL A   1      42.680  28.086  32.071  1.00  0.00     0.074 A 
ATOM     58  C   UNL A   1      43.425  27.176  31.226  1.00  0.00     0.031 C 
ATOM     59  C   UNL A   1      42.963  28.317  33.377  1.00  0.00     0.031 A 
BRANCH  46  60
ATOM     60  C   UNL A   1      39.247  32.476  36.028  1.00  0.00    -0.014 A 
ATOM     61  C   UNL A   1      38.327  31.993  36.972  1.00  0.00     0.009 A 
ATOM     62  C   UNL A   1      39.862  33.719  36.250  1.00  0.00     0.009 A 
ATOM     63  C   UNL A   1      38.001  32.757  38.095  1.00  0.00     0.001 A 
ATOM     64  C   UNL A   1      39.553  34.467  37.387  1.00  0.00     0.001 A 
ATOM     65  C   UNL A   1      38.616  33.991  38.303  1.00  0.00     0.000 A 
ENDBRANCH  46  60
BRANCH  47  66
ATOM     66  C   UNL A   1      41.286  27.543  27.619  1.00  0.00    -0.014 A 
ATOM     67  C   UNL A   1      40.787  26.255  27.373  1.00  0.00     0.009 A 
ATOM     68  C   UNL A   1      42.124  28.140  26.665  1.00  0.00     0.009 A 
ATOM     69  C   UNL A   1      41.141  25.570  26.208  1.00  0.00     0.001 A 
ATOM     70  C   UNL A   1      42.456  27.463  25.489  1.00  0.00     0.001 A 
ATOM     71  C   UNL A   1      41.972  26.175  25.266  1.00  0.00     0.000 A 
ENDBRANCH  47  66
BRANCH  59  72
ATOM     72  C   UNL A   1      44.097  27.542  33.985  1.00  0.00    -0.014 A 
ATOM     73  C   UNL A   1      45.399  28.064  34.026  1.00  0.00     0.009 A 
ATOM     74  C   UNL A   1      43.846  26.290  34.568  1.00  0.00     0.009 A 
ATOM     75  C   UNL A   1      46.433  27.331  34.612  1.00  0.00     0.001 A 
ATOM     76  C   UNL A   1      44.877  25.572  35.177  1.00  0.00     0.001 A 
ATOM     77  C   UNL A   1      46.171  26.089  35.190  1.00  0.00     0.000 A 
ENDBRANCH  59  72
ENDBRANCH  33  34
ENDBRANCH  26  28
ENDBRANCH  25  26
ENDBRANCH  24  25
ENDBRANCH   1  24
TORSDOF 16
ENDMDL
MODEL 3
REMARK VINA RESULT:      -9.6      2.281      7.342
REMARK SMILES CC(=O)N1[C@@H](c2c(F)cccc2Cl)SC[C@H]1C(=O)OCCOCCOC(=O)c1ccc(-c2c3nc(c(-c4ccccc4)c4ccc([nH]4)c(-c4ccccc4)c4nc(c(-c5ccccc5)c5ccc2[nH]5)C=C4)C=C3)cc1
REMARK SMILES IDX 23 1 22 2 21 3 20 4 19 5 17 6 18 7 16 8 4 9 5 10 14 11 15 12
REMARK SMILES IDX 2 13 1 14 3 15 6 16 7 17 12 18 8 19 9 20 11 21 13 22 10 23
REMARK SMILES IDX 24 24 25 25 26 26 27 27 28 28 29 29 75 30 30 31 74 32 31 33
REMARK SMILES IDX 32 34 33 35 68 36 34 37 73 38 67 39 69 40 35 41 72 42 66 43
REMARK SMILES IDX 65 44 36 46 58 47 43 48 57 49 44 50 47 51 56 52 70 53 45 54
REMARK SMILES IDX 46 55 55 57 71 58 48 59 37 60 38 61 42 62 39 63 41 64 40 65
REMARK SMILES IDX 59 66 60 67 64 68 61 69 63 70 62 71 49 72 50 73 54 74 51 75
REMARK SMILES IDX 53 76 52 77
REMARK H PARENT 69 45 47 56
REMARK Flexibility Score: inf
ROOT
ATOM      1  C   UNL A   1      38.406  19.797  24.957  1.00  0.00     0.202 C 
ENDROOT
BRANCH   1   2
ATOM      2  O   UNL A   1      37.567  20.941  25.103  1.00  0.00    -0.374 OA
BRANCH   2   3
ATOM      3  C   UNL A   1      38.160  22.116  25.657  1.00  0.00     0.202 C 
BRANCH   3   4
ATOM      4  C   UNL A   1      37.344  23.406  25.545  1.00  0.00     0.261 C 
BRANCH   4   5
ATOM      5  O   UNL A   1      36.034  23.155  25.001  1.00  0.00    -0.462 OA
BRANCH   5   6
ATOM      6  C   UNL A   1      35.010  23.362  25.873  1.00  0.00     0.329 C 
ATOM      7  O   UNL A   1      35.055  23.079  27.068  1.00  0.00    -0.250 OA
BRANCH   6   8
ATOM      8  C   UNL A   1      33.771  24.010  25.237  1.00  0.00     0.206 C 
ATOM      9  N   UNL A   1      33.198  23.474  23.989  1.00  0.00    -0.312 N 
ATOM     10  C   UNL A   1      32.029  22.615  24.174  1.00  0.00     0.179 C 
ATOM     11  S   UNL A   1      31.193  23.260  25.655  1.00  0.00    -0.129 SA
ATOM     12  C   UNL A   1      32.657  24.137  26.281  1.00  0.00     0.109 C 
BRANCH   9  13
ATOM     13  C   UNL A   1      33.597  24.057  22.800  1.00  0.00     0.221 C 
ATOM     14  C   UNL A   1      33.292  25.512  22.566  1.00  0.00     0.114 C 
ATOM     15  O   UNL A   1      34.261  23.442  21.963  1.00  0.00    -0.275 OA
ENDBRANCH   9  13
BRANCH  10  16
ATOM     16  C   UNL A   1      32.326  21.126  24.250  1.00  0.00     0.039 A 
ATOM     17  C   UNL A   1      32.647  20.496  25.467  1.00  0.00     0.130 A 
ATOM     18  C   UNL A   1      32.258  20.281  23.124  1.00  0.00     0.050 A 
ATOM     19  F   UNL A   1      32.663  21.190  26.612  1.00  0.00    -0.207 F 
ATOM     20  C   UNL A   1      32.926  19.133  25.569  1.00  0.00     0.040 A 
ATOM     21  C   UNL A   1      32.531  18.908  23.222  1.00  0.00     0.021 A 
ATOM     22  Cl  UNL A   1      31.779  20.825  21.555  1.00  0.00    -0.084 Cl
ATOM     23  C   UNL A   1      32.868  18.334  24.442  1.00  0.00     0.005 A 
ENDBRANCH  10  16
ENDBRANCH   6   8
ENDBRANCH   5   6
ENDBRANCH   4   5
ENDBRANCH   3   4
ENDBRANCH   2   3
ENDBRANCH   1   2
BRANCH   1  24
ATOM     24  C   UNL A   1      39.564  19.657  25.956  1.00  0.00     0.261 C 
BRANCH  24  25
ATOM     25  O   UNL A   1      40.808  19.235  25.367  1.00  0.00    -0.460 OA
BRANCH  25  26
ATOM     26  C   UNL A   1      41.889  19.401  26.167  1.00  0.00     0.338 C 
ATOM     27  O   UNL A   1      42.767  18.586  26.416  1.00  0.00    -0.246 OA
BRANCH  26  28
ATOM     28  C   UNL A   1      41.968  20.791  26.649  1.00  0.00     0.060 A 
ATOM     29  C   UNL A   1      42.280  21.794  25.724  1.00  0.00     0.016 A 
ATOM     30  C   UNL A   1      41.854  21.092  28.007  1.00  0.00     0.016 A 
ATOM     31  C   UNL A   1      42.515  23.100  26.157  1.00  0.00     0.010 A 
ATOM     32  C   UNL A   1      42.095  22.402  28.439  1.00  0.00     0.010 A 
ATOM     33  C   UNL A   1      42.452  23.409  27.521  1.00  0.00    -0.014 A 
BRANCH  33  34
ATOM     34  C   UNL A   1      42.889  24.742  28.011  1.00  0.00     0.031 A 
ATOM     35  C   UNL A   1      41.857  25.817  28.228  1.00  0.00     0.074 A 
ATOM     36  C   UNL A   1      44.186  25.003  28.259  1.00  0.00     0.049 A 
ATOM     37  N   UNL A   1      42.021  27.060  28.605  1.00  0.00    -0.248 NA
ATOM     38  C   UNL A   1      40.454  25.440  27.989  1.00  0.00     0.031 C 
ATOM     39  C   UNL A   1      45.285  24.047  28.139  1.00  0.00     0.029 A 
ATOM     40  N   UNL A   1      44.799  26.169  28.649  1.00  0.00    -0.354 N 
ATOM     41  C   UNL A   1      40.747  27.611  28.648  1.00  0.00     0.074 A 
ATOM     42  C   UNL A   1      39.826  26.584  28.211  1.00  0.00     0.031 C 
ATOM     43  C   UNL A   1      46.443  24.674  28.411  1.00  0.00     0.029 A 
ATOM     44  C   UNL A   1      46.167  26.073  28.722  1.00  0.00     0.049 A 
ATOM     45  H   UNL A   1      44.304  26.994  28.857  1.00  0.00     0.167 HD
ATOM     46  C   UNL A   1      40.368  28.852  29.037  1.00  0.00     0.031 A 
ATOM     47  C   UNL A   1      47.096  27.008  29.002  1.00  0.00     0.031 A 
ATOM     48  C   UNL A   1      41.275  29.877  29.476  1.00  0.00     0.049 A 
ATOM     49  C   UNL A   1      46.659  28.404  29.357  1.00  0.00     0.074 A 
ATOM     50  C   UNL A   1      40.983  31.154  29.925  1.00  0.00     0.029 A 
ATOM     51  N   UNL A   1      42.654  29.745  29.514  1.00  0.00    -0.354 N 
ATOM     52  N   UNL A   1      45.447  28.894  29.440  1.00  0.00    -0.248 NA
ATOM     53  C   UNL A   1      47.723  29.367  29.683  1.00  0.00     0.031 C 
ATOM     54  C   UNL A   1      42.190  31.810  30.191  1.00  0.00     0.029 A 
ATOM     55  C   UNL A   1      43.230  30.924  29.954  1.00  0.00     0.049 A 
ATOM     56  H   UNL A   1      43.151  28.933  29.264  1.00  0.00     0.167 HD
ATOM     57  C   UNL A   1      45.599  30.209  29.866  1.00  0.00     0.074 A 
ATOM     58  C   UNL A   1      47.020  30.438  30.025  1.00  0.00     0.031 C 
ATOM     59  C   UNL A   1      44.644  31.139  30.112  1.00  0.00     0.031 A 
BRANCH  46  60
ATOM     60  C   UNL A   1      38.900  29.168  28.991  1.00  0.00    -0.014 A 
ATOM     61  C   UNL A   1      38.291  29.622  27.810  1.00  0.00     0.009 A 
ATOM     62  C   UNL A   1      38.111  28.990  30.138  1.00  0.00     0.009 A 
ATOM     63  C   UNL A   1      36.929  29.929  27.790  1.00  0.00     0.001 A 
ATOM     64  C   UNL A   1      36.744  29.271  30.107  1.00  0.00     0.001 A 
ATOM     65  C   UNL A   1      36.156  29.750  28.937  1.00  0.00     0.000 A 
ENDBRANCH  46  60
BRANCH  47  66
ATOM     66  C   UNL A   1      48.538  26.657  28.969  1.00  0.00    -0.014 A 
ATOM     67  C   UNL A   1      49.182  26.170  30.117  1.00  0.00     0.009 A 
ATOM     68  C   UNL A   1      49.283  26.824  27.791  1.00  0.00     0.009 A 
ATOM     69  C   UNL A   1      50.550  25.881  30.091  1.00  0.00     0.001 A 
ATOM     70  C   UNL A   1      50.643  26.511  27.762  1.00  0.00     0.001 A 
ATOM     71  C   UNL A   1      51.278  26.049  28.914  1.00  0.00     0.000 A 
ENDBRANCH  47  66
BRANCH  59  72
ATOM     72  C   UNL A   1      45.099  32.477  30.623  1.00  0.00    -0.014 A 
ATOM     73  C   UNL A   1      45.246  32.723  31.997  1.00  0.00     0.009 A 
ATOM     74  C   UNL A   1      45.431  33.490  29.710  1.00  0.00     0.009 A 
ATOM     75  C   UNL A   1      45.687  33.969  32.445  1.00  0.00     0.001 A 
ATOM     76  C   UNL A   1      45.897  34.726  30.161  1.00  0.00     0.001 A 
ATOM     77  C   UNL A   1      46.017  34.967  31.529  1.00  0.00     0.000 A 
ENDBRANCH  59  72
ENDBRANCH  33  34
ENDBRANCH  26  28
ENDBRANCH  25  26
ENDBRANCH  24  25
ENDBRANCH   1  24
TORSDOF 16
ENDMDL
