MODEL 1
REMARK VINA RESULT:     -11.9      0.000      0.000
REMARK SMILES NS(=O)(=O)c1ccc(-n2nc(C(F)(F)F)cc2-c2ccc(C(=O)OCCOCCOC(=O)c3ccc(-c4c5nc(c(-c6ccccc6)c6ccc([nH]6)c(-c6ccccc6)c6nc(c(-c7ccccc7)c7ccc4[nH]7)C=C6)C=C5)cc3)cc2)cc1
REMARK SMILES IDX 26 1 25 2 24 3 22 4 23 5 21 6 18 7 19 8 82 9 20 10 81 11
REMARK SMILES IDX 17 12 9 13 10 14 11 15 16 16 8 17 5 18 6 19 84 20 7 21 83 22
REMARK SMILES IDX 2 23 3 24 4 25 1 26 12 29 13 30 14 31 15 32 27 33 28 34
REMARK SMILES IDX 29 35 30 36 31 37 32 38 33 39 34 40 80 41 35 42 79 43 36 44
REMARK SMILES IDX 37 45 38 46 73 47 39 48 78 49 72 50 74 51 40 52 77 53 71 54
REMARK SMILES IDX 70 55 41 57 63 58 48 59 62 60 49 61 52 62 61 63 75 64 50 65
REMARK SMILES IDX 51 66 60 68 76 69 53 70 42 71 43 72 47 73 44 74 46 75 45 76
REMARK SMILES IDX 64 77 65 78 69 79 66 80 68 81 67 82 54 83 55 84 59 85 56 86
REMARK SMILES IDX 58 87 57 88
REMARK H PARENT 1 27 1 28 74 56 52 67
REMARK Flexibility Score: inf
ROOT
ATOM      1  C   UNL A   1      40.975  19.881  27.264  1.00  0.00     0.202 C 
ENDROOT
BRANCH   1   2
ATOM      2  C   UNL A   1      40.286  19.943  25.899  1.00  0.00     0.261 C 
BRANCH   2   3
ATOM      3  O   UNL A   1      38.976  20.526  25.958  1.00  0.00    -0.460 OA
BRANCH   3   4
ATOM      4  C   UNL A   1      38.974  21.876  25.841  1.00  0.00     0.338 C 
ATOM      5  O   UNL A   1      39.938  22.620  25.918  1.00  0.00    -0.246 OA
BRANCH   4   6
ATOM      6  C   UNL A   1      37.644  22.360  25.424  1.00  0.00     0.060 A 
ATOM      7  C   UNL A   1      35.009  23.126  24.912  1.00  0.00     0.000 A 
ATOM      8  C   UNL A   1      35.682  23.631  26.032  1.00  0.00     0.011 A 
ATOM      9  C   UNL A   1      35.686  22.284  24.017  1.00  0.00     0.011 A 
ATOM     10  C   UNL A   1      36.993  23.246  26.290  1.00  0.00     0.016 A 
ATOM     11  C   UNL A   1      37.011  21.910  24.264  1.00  0.00     0.016 A 
BRANCH   7  12
ATOM     12  C   UNL A   1      33.582  23.388  24.755  1.00  0.00     0.075 A 
ATOM     13  N   UNL A   1      32.614  22.452  24.415  1.00  0.00    -0.233 N 
ATOM     14  N   UNL A   1      31.469  23.043  23.986  1.00  0.00    -0.163 NA
ATOM     15  C   UNL A   1      31.635  24.355  24.247  1.00  0.00     0.167 A 
ATOM     16  C   UNL A   1      32.950  24.613  24.703  1.00  0.00     0.064 A 
BRANCH  13  17
ATOM     17  C   UNL A   1      32.723  21.039  24.482  1.00  0.00     0.065 A 
ATOM     18  C   UNL A   1      33.074  18.280  24.582  1.00  0.00     0.082 A 
ATOM     19  C   UNL A   1      33.312  19.046  25.727  1.00  0.00     0.024 A 
ATOM     20  C   UNL A   1      32.633  18.880  23.397  1.00  0.00     0.024 A 
ATOM     21  C   UNL A   1      33.151  20.429  25.673  1.00  0.00     0.030 A 
ATOM     22  C   UNL A   1      32.427  20.263  23.355  1.00  0.00     0.030 A 
BRANCH  18  23
ATOM     23  S   UNL A   1      33.352  16.535  24.640  1.00  0.00     0.238 S 
ATOM     24  O   UNL A   1      33.765  16.071  23.344  1.00  0.00    -0.207 OA
ATOM     25  O   UNL A   1      32.271  15.928  25.393  1.00  0.00    -0.207 OA
BRANCH  23  26
ATOM     26  N   UNL A   1      34.721  16.409  25.613  1.00  0.00    -0.225 NA
ATOM     27  H   UNL A   1      35.392  17.129  25.349  1.00  0.00     0.137 HD
ATOM     28  H   UNL A   1      35.142  15.489  25.489  1.00  0.00     0.137 HD
ENDBRANCH  23  26
ENDBRANCH  18  23
ENDBRANCH  13  17
BRANCH  15  29
ATOM     29  C   UNL A   1      30.561  25.391  24.045  1.00  0.00     0.435 C 
ATOM     30  F   UNL A   1      29.539  24.958  23.264  1.00  0.00    -0.164 F 
ATOM     31  F   UNL A   1      30.023  25.802  25.224  1.00  0.00    -0.164 F 
ATOM     32  F   UNL A   1      31.057  26.510  23.444  1.00  0.00    -0.164 F 
ENDBRANCH  15  29
ENDBRANCH   7  12
ENDBRANCH   4   6
ENDBRANCH   3   4
ENDBRANCH   2   3
ENDBRANCH   1   2
BRANCH   1  33
ATOM     33  O   UNL A   1      42.187  19.141  27.401  1.00  0.00    -0.374 OA
BRANCH  33  34
ATOM     34  C   UNL A   1      42.590  18.212  26.403  1.00  0.00     0.202 C 
BRANCH  34  35
ATOM     35  C   UNL A   1      43.817  18.532  25.562  1.00  0.00     0.261 C 
BRANCH  35  36
ATOM     36  O   UNL A   1      43.968  19.928  25.375  1.00  0.00    -0.460 OA
BRANCH  36  37
ATOM     37  C   UNL A   1      44.517  20.271  24.188  1.00  0.00     0.338 C 
ATOM     38  O   UNL A   1      44.691  19.558  23.216  1.00  0.00    -0.246 OA
BRANCH  37  39
ATOM     39  C   UNL A   1      45.029  21.641  24.300  1.00  0.00     0.060 A 
ATOM     40  C   UNL A   1      46.051  21.827  25.233  1.00  0.00     0.016 A 
ATOM     41  C   UNL A   1      44.208  22.688  23.864  1.00  0.00     0.016 A 
ATOM     42  C   UNL A   1      46.016  22.972  25.990  1.00  0.00     0.010 A 
ATOM     43  C   UNL A   1      44.160  23.815  24.635  1.00  0.00     0.010 A 
ATOM     44  C   UNL A   1      44.977  23.875  25.761  1.00  0.00    -0.014 A 
BRANCH  44  45
ATOM     45  C   UNL A   1      44.773  24.957  26.691  1.00  0.00     0.031 A 
ATOM     46  C   UNL A   1      45.854  25.953  26.597  1.00  0.00     0.074 A 
ATOM     47  C   UNL A   1      43.647  25.081  27.416  1.00  0.00     0.049 A 
ATOM     48  N   UNL A   1      46.866  26.082  27.387  1.00  0.00    -0.248 NA
ATOM     49  C   UNL A   1      45.967  26.707  25.334  1.00  0.00     0.031 C 
ATOM     50  C   UNL A   1      42.403  24.309  27.335  1.00  0.00     0.029 A 
ATOM     51  N   UNL A   1      43.345  26.031  28.334  1.00  0.00    -0.354 N 
ATOM     52  C   UNL A   1      47.618  27.103  26.826  1.00  0.00     0.074 A 
ATOM     53  C   UNL A   1      47.194  27.211  25.456  1.00  0.00     0.031 C 
ATOM     54  C   UNL A   1      41.418  24.984  27.979  1.00  0.00     0.029 A 
ATOM     55  C   UNL A   1      41.993  26.155  28.621  1.00  0.00     0.049 A 
ATOM     56  H   UNL A   1      44.032  26.590  28.764  1.00  0.00     0.167 HD
ATOM     57  C   UNL A   1      48.246  28.025  27.605  1.00  0.00     0.031 A 
ATOM     58  C   UNL A   1      41.413  27.198  29.271  1.00  0.00     0.031 A 
ATOM     59  C   UNL A   1      48.314  27.595  28.979  1.00  0.00     0.049 A 
ATOM     60  C   UNL A   1      42.497  27.943  29.964  1.00  0.00     0.074 A 
ATOM     61  C   UNL A   1      48.870  26.514  29.633  1.00  0.00     0.029 A 
ATOM     62  N   UNL A   1      47.370  28.117  29.833  1.00  0.00    -0.354 N 
ATOM     63  N   UNL A   1      43.179  27.448  30.958  1.00  0.00    -0.248 NA
ATOM     64  C   UNL A   1      43.156  29.016  29.231  1.00  0.00     0.031 C 
ATOM     65  C   UNL A   1      47.923  26.167  30.640  1.00  0.00     0.029 A 
ATOM     66  C   UNL A   1      46.881  27.096  30.606  1.00  0.00     0.049 A 
ATOM     67  H   UNL A   1      47.093  29.061  29.881  1.00  0.00     0.167 HD
ATOM     68  C   UNL A   1      44.493  27.824  30.711  1.00  0.00     0.074 A 
ATOM     69  C   UNL A   1      44.406  28.856  29.676  1.00  0.00     0.031 C 
ATOM     70  C   UNL A   1      45.537  27.054  31.140  1.00  0.00     0.031 A 
BRANCH  57  71
ATOM     71  C   UNL A   1      48.350  29.479  27.216  1.00  0.00    -0.014 A 
ATOM     72  C   UNL A   1      49.615  30.085  27.241  1.00  0.00     0.009 A 
ATOM     73  C   UNL A   1      47.240  30.341  27.090  1.00  0.00     0.009 A 
ATOM     74  C   UNL A   1      49.752  31.478  27.212  1.00  0.00     0.001 A 
ATOM     75  C   UNL A   1      47.374  31.727  27.017  1.00  0.00     0.001 A 
ATOM     76  C   UNL A   1      48.632  32.296  27.107  1.00  0.00     0.000 A 
ENDBRANCH  57  71
BRANCH  58  77
ATOM     77  C   UNL A   1      40.078  27.801  29.036  1.00  0.00    -0.014 A 
ATOM     78  C   UNL A   1      39.140  27.922  30.075  1.00  0.00     0.009 A 
ATOM     79  C   UNL A   1      39.827  28.513  27.848  1.00  0.00     0.009 A 
ATOM     80  C   UNL A   1      38.010  28.744  29.936  1.00  0.00     0.001 A 
ATOM     81  C   UNL A   1      38.701  29.334  27.711  1.00  0.00     0.001 A 
ATOM     82  C   UNL A   1      37.797  29.459  28.760  1.00  0.00     0.000 A 
ENDBRANCH  58  77
BRANCH  70  83
ATOM     83  C   UNL A   1      45.234  25.912  32.080  1.00  0.00    -0.014 A 
ATOM     84  C   UNL A   1      45.223  26.041  33.481  1.00  0.00     0.009 A 
ATOM     85  C   UNL A   1      44.771  24.713  31.519  1.00  0.00     0.009 A 
ATOM     86  C   UNL A   1      44.775  24.992  34.293  1.00  0.00     0.001 A 
ATOM     87  C   UNL A   1      44.306  23.675  32.328  1.00  0.00     0.001 A 
ATOM     88  C   UNL A   1      44.310  23.813  33.714  1.00  0.00     0.000 A 
ENDBRANCH  70  83
ENDBRANCH  44  45
ENDBRANCH  37  39
ENDBRANCH  36  37
ENDBRANCH  35  36
ENDBRANCH  34  35
ENDBRANCH  33  34
ENDBRANCH   1  33
TORSDOF 19
ENDMDL
MODEL 2
REMARK VINA RESULT:     -11.6      4.923      8.744
REMARK SMILES NS(=O)(=O)c1ccc(-n2nc(C(F)(F)F)cc2-c2ccc(C(=O)OCCOCCOC(=O)c3ccc(-c4c5nc(c(-c6ccccc6)c6ccc([nH]6)c(-c6ccccc6)c6nc(c(-c7ccccc7)c7ccc4[nH]7)C=C6)C=C5)cc3)cc2)cc1
REMARK SMILES IDX 26 1 25 2 24 3 22 4 23 5 21 6 18 7 19 8 82 9 20 10 81 11
REMARK SMILES IDX 17 12 9 13 10 14 11 15 16 16 8 17 5 18 6 19 84 20 7 21 83 22
REMARK SMILES IDX 2 23 3 24 4 25 1 26 12 29 13 30 14 31 15 32 27 33 28 34
REMARK SMILES IDX 29 35 30 36 31 37 32 38 33 39 34 40 80 41 35 42 79 43 36 44
REMARK SMILES IDX 37 45 38 46 73 47 39 48 78 49 72 50 74 51 40 52 77 53 71 54
REMARK SMILES IDX 70 55 41 57 63 58 48 59 62 60 49 61 52 62 61 63 75 64 50 65
REMARK SMILES IDX 51 66 60 68 76 69 53 70 42 71 43 72 47 73 44 74 46 75 45 76
REMARK SMILES IDX 64 77 65 78 69 79 66 80 68 81 67 82 54 83 55 84 59 85 56 86
REMARK SMILES IDX 58 87 57 88
REMARK H PARENT 1 27 1 28 74 56 52 67
REMARK Flexibility Score: inf
ROOT
ATOM      1  C   UNL A   1      33.950  33.879  28.901  1.00  0.00     0.202 C 
ENDROOT
BRANCH   1   2
ATOM      2  C   UNL A   1      33.309  33.065  27.775  1.00  0.00     0.261 C 
BRANCH   2   3
ATOM      3  O   UNL A   1      33.212  31.665  28.079  1.00  0.00    -0.460 OA
BRANCH   3   4
ATOM      4  C   UNL A   1      34.173  30.913  27.490  1.00  0.00     0.338 C 
ATOM      5  O   UNL A   1      35.347  31.211  27.335  1.00  0.00    -0.246 OA
BRANCH   4   6
ATOM      6  C   UNL A   1      33.665  29.559  27.194  1.00  0.00     0.060 A 
ATOM      7  C   UNL A   1      32.739  27.080  26.308  1.00  0.00     0.000 A 
ATOM      8  C   UNL A   1      34.068  27.457  26.076  1.00  0.00     0.011 A 
ATOM      9  C   UNL A   1      31.895  27.926  27.041  1.00  0.00     0.011 A 
ATOM     10  C   UNL A   1      34.528  28.695  26.513  1.00  0.00     0.016 A 
ATOM     11  C   UNL A   1      32.361  29.163  27.499  1.00  0.00     0.016 A 
BRANCH   7  12
ATOM     12  C   UNL A   1      32.220  25.866  25.685  1.00  0.00     0.075 A 
ATOM     13  N   UNL A   1      31.104  25.787  24.862  1.00  0.00    -0.233 N 
ATOM     14  N   UNL A   1      30.655  24.510  24.741  1.00  0.00    -0.163 NA
ATOM     15  C   UNL A   1      31.607  23.751  25.320  1.00  0.00     0.167 A 
ATOM     16  C   UNL A   1      32.586  24.562  25.943  1.00  0.00     0.064 A 
BRANCH  13  17
ATOM     17  C   UNL A   1      30.452  26.854  24.190  1.00  0.00     0.065 A 
ATOM     18  C   UNL A   1      29.166  29.013  22.996  1.00  0.00     0.082 A 
ATOM     19  C   UNL A   1      30.556  29.035  23.141  1.00  0.00     0.024 A 
ATOM     20  C   UNL A   1      28.419  27.906  23.415  1.00  0.00     0.024 A 
ATOM     21  C   UNL A   1      31.198  27.960  23.753  1.00  0.00     0.030 A 
ATOM     22  C   UNL A   1      29.067  26.808  23.988  1.00  0.00     0.030 A 
BRANCH  18  23
ATOM     23  S   UNL A   1      28.352  30.412  22.286  1.00  0.00     0.238 S 
ATOM     24  O   UNL A   1      27.370  30.915  23.205  1.00  0.00    -0.207 OA
ATOM     25  O   UNL A   1      28.059  30.110  20.898  1.00  0.00    -0.207 OA
BRANCH  23  26
ATOM     26  N   UNL A   1      29.570  31.575  22.257  1.00  0.00    -0.225 NA
ATOM     27  H   UNL A   1      29.766  31.839  21.292  1.00  0.00     0.137 HD
ATOM     28  H   UNL A   1      30.415  31.193  22.682  1.00  0.00     0.137 HD
ENDBRANCH  23  26
ENDBRANCH  18  23
ENDBRANCH  13  17
BRANCH  15  29
ATOM     29  C   UNL A   1      31.593  22.245  25.316  1.00  0.00     0.435 C 
ATOM     30  F   UNL A   1      31.738  21.712  24.077  1.00  0.00    -0.164 F 
ATOM     31  F   UNL A   1      32.577  21.725  26.098  1.00  0.00    -0.164 F 
ATOM     32  F   UNL A   1      30.419  21.757  25.811  1.00  0.00    -0.164 F 
ENDBRANCH  15  29
ENDBRANCH   7  12
ENDBRANCH   4   6
ENDBRANCH   3   4
ENDBRANCH   2   3
ENDBRANCH   1   2
BRANCH   1  33
ATOM     33  O   UNL A   1      34.667  33.201  29.931  1.00  0.00    -0.374 OA
BRANCH  33  34
ATOM     34  C   UNL A   1      36.076  33.351  30.059  1.00  0.00     0.202 C 
BRANCH  34  35
ATOM     35  C   UNL A   1      36.854  32.296  30.831  1.00  0.00     0.261 C 
BRANCH  35  36
ATOM     36  O   UNL A   1      37.257  31.230  29.992  1.00  0.00    -0.460 OA
BRANCH  36  37
ATOM     37  C   UNL A   1      36.903  30.005  30.444  1.00  0.00     0.338 C 
ATOM     38  O   UNL A   1      36.189  29.742  31.395  1.00  0.00    -0.246 OA
BRANCH  37  39
ATOM     39  C   UNL A   1      37.655  29.002  29.683  1.00  0.00     0.060 A 
ATOM     40  C   UNL A   1      38.208  27.965  30.438  1.00  0.00     0.016 A 
ATOM     41  C   UNL A   1      38.153  29.365  28.426  1.00  0.00     0.016 A 
ATOM     42  C   UNL A   1      39.468  27.537  30.099  1.00  0.00     0.010 A 
ATOM     43  C   UNL A   1      39.416  28.957  28.104  1.00  0.00     0.010 A 
ATOM     44  C   UNL A   1      40.097  28.153  29.015  1.00  0.00    -0.014 A 
BRANCH  44  45
ATOM     45  C   UNL A   1      41.497  27.901  28.785  1.00  0.00     0.031 A 
ATOM     46  C   UNL A   1      41.704  26.605  28.116  1.00  0.00     0.074 A 
ATOM     47  C   UNL A   1      42.444  28.827  29.018  1.00  0.00     0.049 A 
ATOM     48  N   UNL A   1      42.072  25.496  28.663  1.00  0.00    -0.248 NA
ATOM     49  C   UNL A   1      41.179  26.462  26.745  1.00  0.00     0.031 C 
ATOM     50  C   UNL A   1      42.288  30.239  29.384  1.00  0.00     0.029 A 
ATOM     51  N   UNL A   1      43.785  28.709  28.866  1.00  0.00    -0.354 N 
ATOM     52  C   UNL A   1      42.042  24.571  27.631  1.00  0.00     0.074 A 
ATOM     53  C   UNL A   1      41.210  25.138  26.605  1.00  0.00     0.031 C 
ATOM     54  C   UNL A   1      43.462  30.885  29.170  1.00  0.00     0.029 A 
ATOM     55  C   UNL A   1      44.472  29.912  28.786  1.00  0.00     0.049 A 
ATOM     56  H   UNL A   1      44.237  27.835  28.815  1.00  0.00     0.167 HD
ATOM     57  C   UNL A   1      42.989  23.600  27.529  1.00  0.00     0.031 A 
ATOM     58  C   UNL A   1      45.750  30.068  28.352  1.00  0.00     0.031 A 
ATOM     59  C   UNL A   1      43.737  23.461  28.752  1.00  0.00     0.049 A 
ATOM     60  C   UNL A   1      46.393  28.728  28.385  1.00  0.00     0.074 A 
ATOM     61  C   UNL A   1      43.414  23.152  30.058  1.00  0.00     0.029 A 
ATOM     62  N   UNL A   1      44.963  24.083  28.796  1.00  0.00    -0.354 N 
ATOM     63  N   UNL A   1      46.637  28.081  29.490  1.00  0.00    -0.248 NA
ATOM     64  C   UNL A   1      46.293  27.901  27.190  1.00  0.00     0.031 C 
ATOM     65  C   UNL A   1      44.237  24.003  30.852  1.00  0.00     0.029 A 
ATOM     66  C   UNL A   1      45.074  24.727  30.000  1.00  0.00     0.049 A 
ATOM     67  H   UNL A   1      45.645  24.066  28.085  1.00  0.00     0.167 HD
ATOM     68  C   UNL A   1      46.291  26.764  29.217  1.00  0.00     0.074 A 
ATOM     69  C   UNL A   1      46.161  26.699  27.761  1.00  0.00     0.031 C 
ATOM     70  C   UNL A   1      45.843  25.935  30.206  1.00  0.00     0.031 A 
BRANCH  57  71
ATOM     71  C   UNL A   1      43.537  23.139  26.200  1.00  0.00    -0.014 A 
ATOM     72  C   UNL A   1      43.587  21.761  25.944  1.00  0.00     0.009 A 
ATOM     73  C   UNL A   1      44.248  23.972  25.311  1.00  0.00     0.009 A 
ATOM     74  C   UNL A   1      44.362  21.245  24.898  1.00  0.00     0.001 A 
ATOM     75  C   UNL A   1      44.986  23.467  24.242  1.00  0.00     0.001 A 
ATOM     76  C   UNL A   1      45.066  22.098  24.054  1.00  0.00     0.000 A 
ENDBRANCH  57  71
BRANCH  58  77
ATOM     77  C   UNL A   1      46.328  31.193  27.577  1.00  0.00    -0.014 A 
ATOM     78  C   UNL A   1      45.552  31.923  26.663  1.00  0.00     0.009 A 
ATOM     79  C   UNL A   1      47.577  31.729  27.942  1.00  0.00     0.009 A 
ATOM     80  C   UNL A   1      46.000  33.154  26.154  1.00  0.00     0.001 A 
ATOM     81  C   UNL A   1      48.022  32.957  27.437  1.00  0.00     0.001 A 
ATOM     82  C   UNL A   1      47.228  33.675  26.551  1.00  0.00     0.000 A 
ENDBRANCH  58  77
BRANCH  70  83
ATOM     83  C   UNL A   1      45.951  26.416  31.634  1.00  0.00    -0.014 A 
ATOM     84  C   UNL A   1      44.995  27.244  32.250  1.00  0.00     0.009 A 
ATOM     85  C   UNL A   1      46.964  25.864  32.431  1.00  0.00     0.009 A 
ATOM     86  C   UNL A   1      45.064  27.522  33.621  1.00  0.00     0.001 A 
ATOM     87  C   UNL A   1      47.022  26.124  33.801  1.00  0.00     0.001 A 
ATOM     88  C   UNL A   1      46.074  26.954  34.395  1.00  0.00     0.000 A 
ENDBRANCH  70  83
ENDBRANCH  44  45
ENDBRANCH  37  39
ENDBRANCH  36  37
ENDBRANCH  35  36
ENDBRANCH  34  35
ENDBRANCH  33  34
ENDBRANCH   1  33
TORSDOF 19
ENDMDL
MODEL 3
REMARK VINA RESULT:     -11.2      4.810      9.521
REMARK SMILES NS(=O)(=O)c1ccc(-n2nc(C(F)(F)F)cc2-c2ccc(C(=O)OCCOCCOC(=O)c3ccc(-c4c5nc(c(-c6ccccc6)c6ccc([nH]6)c(-c6ccccc6)c6nc(c(-c7ccccc7)c7ccc4[nH]7)C=C6)C=C5)cc3)cc2)cc1
REMARK SMILES IDX 26 1 25 2 24 3 22 4 23 5 21 6 18 7 19 8 82 9 20 10 81 11
REMARK SMILES IDX 17 12 9 13 10 14 11 15 16 16 8 17 5 18 6 19 84 20 7 21 83 22
REMARK SMILES IDX 2 23 3 24 4 25 1 26 12 29 13 30 14 31 15 32 27 33 28 34
REMARK SMILES IDX 29 35 30 36 31 37 32 38 33 39 34 40 80 41 35 42 79 43 36 44
REMARK SMILES IDX 37 45 38 46 73 47 39 48 78 49 72 50 74 51 40 52 77 53 71 54
REMARK SMILES IDX 70 55 41 57 63 58 48 59 62 60 49 61 52 62 61 63 75 64 50 65
REMARK SMILES IDX 51 66 60 68 76 69 53 70 42 71 43 72 47 73 44 74 46 75 45 76
REMARK SMILES IDX 64 77 65 78 69 79 66 80 68 81 67 82 54 83 55 84 59 85 56 86
REMARK SMILES IDX 58 87 57 88
REMARK H PARENT 1 27 1 28 74 56 52 67
REMARK Flexibility Score: inf
ROOT
ATOM      1  C   UNL A   1      31.593  28.610  26.362  1.00  0.00     0.202 C 
ENDROOT
BRANCH   1   2
ATOM      2  C   UNL A   1      31.919  27.770  25.126  1.00  0.00     0.261 C 
BRANCH   2   3
ATOM      3  O   UNL A   1      32.554  26.523  25.446  1.00  0.00    -0.460 OA
BRANCH   3   4
ATOM      4  C   UNL A   1      33.639  26.252  24.681  1.00  0.00     0.338 C 
ATOM      5  O   UNL A   1      34.324  27.055  24.068  1.00  0.00    -0.246 OA
BRANCH   4   6
ATOM      6  C   UNL A   1      34.024  24.833  24.808  1.00  0.00     0.060 A 
ATOM      7  C   UNL A   1      34.486  22.081  24.853  1.00  0.00     0.000 A 
ATOM      8  C   UNL A   1      34.609  22.794  23.653  1.00  0.00     0.011 A 
ATOM      9  C   UNL A   1      34.193  22.766  26.041  1.00  0.00     0.011 A 
ATOM     10  C   UNL A   1      34.373  24.164  23.629  1.00  0.00     0.016 A 
ATOM     11  C   UNL A   1      33.974  24.147  26.023  1.00  0.00     0.016 A 
BRANCH   7  12
ATOM     12  C   UNL A   1      34.552  20.623  24.829  1.00  0.00     0.075 A 
ATOM     13  N   UNL A   1      35.712  19.860  24.819  1.00  0.00    -0.233 N 
ATOM     14  N   UNL A   1      35.473  18.582  24.426  1.00  0.00    -0.163 NA
ATOM     15  C   UNL A   1      34.130  18.477  24.384  1.00  0.00     0.167 A 
ATOM     16  C   UNL A   1      33.520  19.735  24.604  1.00  0.00     0.064 A 
BRANCH  13  17
ATOM     17  C   UNL A   1      37.023  20.282  25.165  1.00  0.00     0.065 A 
ATOM     18  C   UNL A   1      39.569  21.060  25.973  1.00  0.00     0.082 A 
ATOM     19  C   UNL A   1      39.365  19.762  25.497  1.00  0.00     0.024 A 
ATOM     20  C   UNL A   1      38.516  21.981  26.018  1.00  0.00     0.024 A 
ATOM     21  C   UNL A   1      38.087  19.367  25.107  1.00  0.00     0.030 A 
ATOM     22  C   UNL A   1      37.242  21.600  25.584  1.00  0.00     0.030 A 
BRANCH  18  23
ATOM     23  S   UNL A   1      41.178  21.528  26.535  1.00  0.00     0.238 S 
ATOM     24  O   UNL A   1      41.063  22.272  27.758  1.00  0.00    -0.207 OA
ATOM     25  O   UNL A   1      41.940  21.994  25.392  1.00  0.00    -0.207 OA
BRANCH  23  26
ATOM     26  N   UNL A   1      41.862  20.053  26.975  1.00  0.00    -0.225 NA
ATOM     27  H   UNL A   1      41.678  19.363  26.247  1.00  0.00     0.137 HD
ATOM     28  H   UNL A   1      41.451  19.737  27.854  1.00  0.00     0.137 HD
ENDBRANCH  23  26
ENDBRANCH  18  23
ENDBRANCH  13  17
BRANCH  15  29
ATOM     29  C   UNL A   1      33.399  17.188  24.110  1.00  0.00     0.435 C 
ATOM     30  F   UNL A   1      32.525  16.849  25.091  1.00  0.00    -0.164 F 
ATOM     31  F   UNL A   1      32.701  17.238  22.944  1.00  0.00    -0.164 F 
ATOM     32  F   UNL A   1      34.266  16.142  23.987  1.00  0.00    -0.164 F 
ENDBRANCH  15  29
ENDBRANCH   7  12
ENDBRANCH   4   6
ENDBRANCH   3   4
ENDBRANCH   2   3
ENDBRANCH   1   2
BRANCH   1  33
ATOM     33  O   UNL A   1      32.599  28.813  27.354  1.00  0.00    -0.374 OA
BRANCH  33  34
ATOM     34  C   UNL A   1      33.844  29.412  27.017  1.00  0.00     0.202 C 
BRANCH  34  35
ATOM     35  C   UNL A   1      33.977  30.924  27.122  1.00  0.00     0.261 C 
BRANCH  35  36
ATOM     36  O   UNL A   1      32.987  31.475  27.972  1.00  0.00    -0.460 OA
BRANCH  36  37
ATOM     37  C   UNL A   1      32.964  32.827  27.990  1.00  0.00     0.338 C 
ATOM     38  O   UNL A   1      32.206  33.565  27.387  1.00  0.00    -0.246 OA
BRANCH  37  39
ATOM     39  C   UNL A   1      34.125  33.293  28.755  1.00  0.00     0.060 A 
ATOM     40  C   UNL A   1      35.108  33.952  28.015  1.00  0.00     0.016 A 
ATOM     41  C   UNL A   1      34.394  32.678  29.984  1.00  0.00     0.016 A 
ATOM     42  C   UNL A   1      36.419  33.687  28.325  1.00  0.00     0.010 A 
ATOM     43  C   UNL A   1      35.699  32.394  30.275  1.00  0.00     0.010 A 
ATOM     44  C   UNL A   1      36.676  32.795  29.367  1.00  0.00    -0.014 A 
BRANCH  44  45
ATOM     45  C   UNL A   1      38.020  32.312  29.558  1.00  0.00     0.031 A 
ATOM     46  C   UNL A   1      38.130  30.887  29.200  1.00  0.00     0.074 A 
ATOM     47  C   UNL A   1      39.043  33.128  29.868  1.00  0.00     0.049 A 
ATOM     48  N   UNL A   1      38.151  29.880  30.007  1.00  0.00    -0.248 NA
ATOM     49  C   UNL A   1      37.917  30.529  27.786  1.00  0.00     0.031 C 
ATOM     50  C   UNL A   1      39.072  34.593  29.932  1.00  0.00     0.029 A 
ATOM     51  N   UNL A   1      40.337  32.798  30.095  1.00  0.00    -0.354 N 
ATOM     52  C   UNL A   1      38.188  28.769  29.178  1.00  0.00     0.074 A 
ATOM     53  C   UNL A   1      37.733  29.214  27.888  1.00  0.00     0.031 C 
ATOM     54  C   UNL A   1      40.362  35.013  29.925  1.00  0.00     0.029 A 
ATOM     55  C   UNL A   1      41.234  33.851  29.991  1.00  0.00     0.049 A 
ATOM     56  H   UNL A   1      40.618  31.880  30.315  1.00  0.00     0.167 HD
ATOM     57  C   UNL A   1      38.936  27.679  29.496  1.00  0.00     0.031 A 
ATOM     58  C   UNL A   1      42.585  33.735  29.887  1.00  0.00     0.031 A 
ATOM     59  C   UNL A   1      39.344  27.703  30.877  1.00  0.00     0.049 A 
ATOM     60  C   UNL A   1      42.943  32.358  30.317  1.00  0.00     0.074 A 
ATOM     61  C   UNL A   1      38.679  27.726  32.087  1.00  0.00     0.029 A 
ATOM     62  N   UNL A   1      40.621  28.146  31.133  1.00  0.00    -0.354 N 
ATOM     63  N   UNL A   1      42.803  31.934  31.541  1.00  0.00    -0.248 NA
ATOM     64  C   UNL A   1      42.969  31.317  29.298  1.00  0.00     0.031 C 
ATOM     65  C   UNL A   1      39.441  28.606  32.910  1.00  0.00     0.029 A 
ATOM     66  C   UNL A   1      40.570  29.011  32.194  1.00  0.00     0.049 A 
ATOM     67  H   UNL A   1      41.433  27.886  30.639  1.00  0.00     0.167 HD
ATOM     68  C   UNL A   1      42.290  30.650  31.418  1.00  0.00     0.074 A 
ATOM     69  C   UNL A   1      42.488  30.294  30.012  1.00  0.00     0.031 C 
ATOM     70  C   UNL A   1      41.481  30.119  32.383  1.00  0.00     0.031 A 
BRANCH  57  71
ATOM     71  C   UNL A   1      39.679  26.876  28.456  1.00  0.00    -0.014 A 
ATOM     72  C   UNL A   1      40.717  27.502  27.750  1.00  0.00     0.009 A 
ATOM     73  C   UNL A   1      39.234  25.635  27.955  1.00  0.00     0.009 A 
ATOM     74  C   UNL A   1      41.229  26.947  26.571  1.00  0.00     0.001 A 
ATOM     75  C   UNL A   1      39.771  25.057  26.806  1.00  0.00     0.001 A 
ATOM     76  C   UNL A   1      40.750  25.730  26.096  1.00  0.00     0.000 A 
ENDBRANCH  57  71
BRANCH  58  77
ATOM     77  C   UNL A   1      43.523  34.579  29.109  1.00  0.00    -0.014 A 
ATOM     78  C   UNL A   1      43.479  34.616  27.705  1.00  0.00     0.009 A 
ATOM     79  C   UNL A   1      44.286  35.567  29.760  1.00  0.00     0.009 A 
ATOM     80  C   UNL A   1      44.151  35.618  26.986  1.00  0.00     0.001 A 
ATOM     81  C   UNL A   1      44.954  36.567  29.042  1.00  0.00     0.001 A 
ATOM     82  C   UNL A   1      44.877  36.599  27.655  1.00  0.00     0.000 A 
ENDBRANCH  58  77
BRANCH  70  83
ATOM     83  C   UNL A   1      41.346  30.873  33.685  1.00  0.00    -0.014 A 
ATOM     84  C   UNL A   1      42.146  30.622  34.815  1.00  0.00     0.009 A 
ATOM     85  C   UNL A   1      40.501  31.992  33.704  1.00  0.00     0.009 A 
ATOM     86  C   UNL A   1      42.086  31.461  35.935  1.00  0.00     0.001 A 
ATOM     87  C   UNL A   1      40.457  32.839  34.812  1.00  0.00     0.001 A 
ATOM     88  C   UNL A   1      41.246  32.573  35.927  1.00  0.00     0.000 A 
ENDBRANCH  70  83
ENDBRANCH  44  45
ENDBRANCH  37  39
ENDBRANCH  36  37
ENDBRANCH  35  36
ENDBRANCH  34  35
ENDBRANCH  33  34
ENDBRANCH   1  33
TORSDOF 19
ENDMDL
