MODEL 1
REMARK VINA RESULT:      -9.8      0.000      0.000
REMARK SMILES CS(=O)(=O)CCC(=O)N1[C@@H](C(=O)OCCOCCOC(=O)c2ccc(-c3c4nc(c(-c5ccccc5)c5ccc([nH]5)c(-c5ccccc5)c5nc(c(-c6ccccc6)c6ccc3[nH]6)C=C5)C=C4)cc2)C[C@@H]2CCCC[C@@H]21
REMARK SMILES IDX 15 1 14 2 13 3 11 4 12 5 10 6 9 7 76 8 70 9 71 10 75 11
REMARK SMILES IDX 72 12 74 13 73 14 7 15 8 16 6 17 5 18 2 19 1 20 3 21 4 22
REMARK SMILES IDX 16 23 17 24 18 25 19 26 20 27 21 28 22 29 23 30 69 31 24 32
REMARK SMILES IDX 68 33 25 34 26 35 27 36 62 37 28 38 67 39 61 40 63 41 29 42
REMARK SMILES IDX 66 43 60 44 59 45 30 47 52 48 37 49 51 50 38 51 41 52 50 53
REMARK SMILES IDX 64 54 39 55 40 56 49 58 65 59 42 60 31 61 32 62 36 63 33 64
REMARK SMILES IDX 35 65 34 66 53 67 54 68 58 69 55 70 57 71 56 72 43 73 44 74
REMARK SMILES IDX 48 75 45 76 47 77 46 78
REMARK H PARENT 63 46 41 57
REMARK Flexibility Score: inf
ROOT
ATOM      1  C   UNL A   1      38.010  23.437  25.975  1.00  0.00     0.202 C 
ENDROOT
BRANCH   1   2
ATOM      2  C   UNL A   1      36.677  23.373  25.223  1.00  0.00     0.261 C 
BRANCH   2   3
ATOM      3  O   UNL A   1      35.804  24.495  25.472  1.00  0.00    -0.462 OA
BRANCH   3   4
ATOM      4  C   UNL A   1      34.535  24.182  25.865  1.00  0.00     0.328 C 
ATOM      5  O   UNL A   1      34.265  23.450  26.812  1.00  0.00    -0.250 OA
BRANCH   4   6
ATOM      6  C   UNL A   1      33.440  24.892  25.050  1.00  0.00     0.195 C 
ATOM      7  N   UNL A   1      33.562  24.850  23.589  1.00  0.00    -0.326 N 
ATOM      8  C   UNL A   1      33.158  26.131  23.031  1.00  0.00     0.089 C 
ATOM      9  C   UNL A   1      33.407  26.410  25.387  1.00  0.00     0.043 C 
ATOM     10  C   UNL A   1      33.705  27.114  24.052  1.00  0.00     0.014 C 
ATOM     11  C   UNL A   1      31.629  26.297  22.928  1.00  0.00     0.025 C 
ATOM     12  C   UNL A   1      33.245  28.556  23.874  1.00  0.00     0.006 C 
ATOM     13  C   UNL A   1      31.291  27.718  22.496  1.00  0.00     0.002 C 
ATOM     14  C   UNL A   1      31.770  28.725  23.537  1.00  0.00     0.000 C 
BRANCH   7  15
ATOM     15  C   UNL A   1      33.404  23.671  22.893  1.00  0.00     0.224 C 
ATOM     16  O   UNL A   1      34.135  23.341  21.964  1.00  0.00    -0.275 OA
BRANCH  15  17
ATOM     17  C   UNL A   1      32.150  22.888  23.240  1.00  0.00     0.116 C 
BRANCH  17  18
ATOM     18  C   UNL A   1      32.297  21.380  23.137  1.00  0.00     0.146 C 
BRANCH  18  19
ATOM     19  S   UNL A   1      32.549  20.573  24.712  1.00  0.00     0.147 S 
ATOM     20  C   UNL A   1      34.315  20.517  24.880  1.00  0.00     0.158 C 
ATOM     21  O   UNL A   1      32.091  19.203  24.588  1.00  0.00    -0.229 OA
ATOM     22  O   UNL A   1      32.013  21.423  25.758  1.00  0.00    -0.229 OA
ENDBRANCH  18  19
ENDBRANCH  17  18
ENDBRANCH  15  17
ENDBRANCH   7  15
ENDBRANCH   4   6
ENDBRANCH   3   4
ENDBRANCH   2   3
ENDBRANCH   1   2
BRANCH   1  23
ATOM     23  O   UNL A   1      38.768  22.245  26.144  1.00  0.00    -0.374 OA
BRANCH  23  24
ATOM     24  C   UNL A   1      38.472  21.123  25.330  1.00  0.00     0.202 C 
BRANCH  24  25
ATOM     25  C   UNL A   1      39.243  19.816  25.542  1.00  0.00     0.261 C 
BRANCH  25  26
ATOM     26  O   UNL A   1      40.251  19.821  26.536  1.00  0.00    -0.460 OA
BRANCH  26  27
ATOM     27  C   UNL A   1      41.501  19.939  26.049  1.00  0.00     0.338 C 
ATOM     28  O   UNL A   1      42.085  19.217  25.267  1.00  0.00    -0.246 OA
BRANCH  27  29
ATOM     29  C   UNL A   1      42.025  21.198  26.579  1.00  0.00     0.060 A 
ATOM     30  C   UNL A   1      42.040  21.369  27.963  1.00  0.00     0.016 A 
ATOM     31  C   UNL A   1      42.485  22.190  25.708  1.00  0.00     0.016 A 
ATOM     32  C   UNL A   1      42.466  22.580  28.489  1.00  0.00     0.010 A 
ATOM     33  C   UNL A   1      42.915  23.403  26.238  1.00  0.00     0.010 A 
ATOM     34  C   UNL A   1      42.862  23.614  27.627  1.00  0.00    -0.014 A 
BRANCH  34  35
ATOM     35  C   UNL A   1      43.052  24.969  28.181  1.00  0.00     0.031 A 
ATOM     36  C   UNL A   1      44.444  25.418  28.520  1.00  0.00     0.074 A 
ATOM     37  C   UNL A   1      42.004  25.800  28.309  1.00  0.00     0.049 A 
ATOM     38  N   UNL A   1      44.852  26.575  28.973  1.00  0.00    -0.248 NA
ATOM     39  C   UNL A   1      45.520  24.433  28.321  1.00  0.00     0.031 C 
ATOM     40  C   UNL A   1      40.621  25.479  27.961  1.00  0.00     0.029 A 
ATOM     41  N   UNL A   1      41.951  27.094  28.756  1.00  0.00    -0.354 N 
ATOM     42  C   UNL A   1      46.230  26.455  29.113  1.00  0.00     0.074 A 
ATOM     43  C   UNL A   1      46.581  25.104  28.740  1.00  0.00     0.031 C 
ATOM     44  C   UNL A   1      39.854  26.559  28.191  1.00  0.00     0.029 A 
ATOM     45  C   UNL A   1      40.688  27.628  28.735  1.00  0.00     0.049 A 
ATOM     46  H   UNL A   1      42.743  27.592  29.061  1.00  0.00     0.167 HD
ATOM     47  C   UNL A   1      47.123  27.393  29.505  1.00  0.00     0.031 A 
ATOM     48  C   UNL A   1      40.257  28.843  29.122  1.00  0.00     0.031 A 
ATOM     49  C   UNL A   1      46.759  28.728  29.897  1.00  0.00     0.049 A 
ATOM     50  C   UNL A   1      41.258  29.836  29.647  1.00  0.00     0.074 A 
ATOM     51  C   UNL A   1      47.581  29.760  30.312  1.00  0.00     0.029 A 
ATOM     52  N   UNL A   1      45.460  29.211  29.930  1.00  0.00    -0.354 N 
ATOM     53  N   UNL A   1      42.561  29.723  29.751  1.00  0.00    -0.248 NA
ATOM     54  C   UNL A   1      40.728  31.130  30.097  1.00  0.00     0.031 C 
ATOM     55  C   UNL A   1      46.772  30.847  30.656  1.00  0.00     0.029 A 
ATOM     56  C   UNL A   1      45.453  30.517  30.387  1.00  0.00     0.049 A 
ATOM     57  H   UNL A   1      44.660  28.699  29.668  1.00  0.00     0.167 HD
ATOM     58  C   UNL A   1      43.010  30.941  30.248  1.00  0.00     0.074 A 
ATOM     59  C   UNL A   1      41.839  31.781  30.408  1.00  0.00     0.031 C 
ATOM     60  C   UNL A   1      44.274  31.332  30.540  1.00  0.00     0.031 A 
BRANCH  47  61
ATOM     61  C   UNL A   1      48.568  26.983  29.568  1.00  0.00    -0.014 A 
ATOM     62  C   UNL A   1      49.430  27.160  28.473  1.00  0.00     0.009 A 
ATOM     63  C   UNL A   1      49.079  26.415  30.745  1.00  0.00     0.009 A 
ATOM     64  C   UNL A   1      50.760  26.738  28.541  1.00  0.00     0.001 A 
ATOM     65  C   UNL A   1      50.417  26.025  30.822  1.00  0.00     0.001 A 
ATOM     66  C   UNL A   1      51.253  26.175  29.717  1.00  0.00     0.000 A 
ENDBRANCH  47  61
BRANCH  48  67
ATOM     67  C   UNL A   1      38.814  29.187  29.031  1.00  0.00    -0.014 A 
ATOM     68  C   UNL A   1      38.274  29.694  27.841  1.00  0.00     0.009 A 
ATOM     69  C   UNL A   1      37.971  29.020  30.142  1.00  0.00     0.009 A 
ATOM     70  C   UNL A   1      36.925  30.051  27.771  1.00  0.00     0.001 A 
ATOM     71  C   UNL A   1      36.616  29.348  30.059  1.00  0.00     0.001 A 
ATOM     72  C   UNL A   1      36.097  29.873  28.879  1.00  0.00     0.000 A 
ENDBRANCH  48  67
BRANCH  60  73
ATOM     73  C   UNL A   1      44.462  32.745  31.020  1.00  0.00    -0.014 A 
ATOM     74  C   UNL A   1      44.469  33.062  32.387  1.00  0.00     0.009 A 
ATOM     75  C   UNL A   1      44.674  33.770  30.084  1.00  0.00     0.009 A 
ATOM     76  C   UNL A   1      44.645  34.383  32.804  1.00  0.00     0.001 A 
ATOM     77  C   UNL A   1      44.885  35.084  30.504  1.00  0.00     0.001 A 
ATOM     78  C   UNL A   1      44.859  35.390  31.865  1.00  0.00     0.000 A 
ENDBRANCH  60  73
ENDBRANCH  34  35
ENDBRANCH  27  29
ENDBRANCH  26  27
ENDBRANCH  25  26
ENDBRANCH  24  25
ENDBRANCH  23  24
ENDBRANCH   1  23
TORSDOF 18
ENDMDL
MODEL 2
REMARK VINA RESULT:      -9.7      1.828      3.333
REMARK SMILES CS(=O)(=O)CCC(=O)N1[C@@H](C(=O)OCCOCCOC(=O)c2ccc(-c3c4nc(c(-c5ccccc5)c5ccc([nH]5)c(-c5ccccc5)c5nc(c(-c6ccccc6)c6ccc3[nH]6)C=C5)C=C4)cc2)C[C@@H]2CCCC[C@@H]21
REMARK SMILES IDX 15 1 14 2 13 3 11 4 12 5 10 6 9 7 76 8 70 9 71 10 75 11
REMARK SMILES IDX 72 12 74 13 73 14 7 15 8 16 6 17 5 18 2 19 1 20 3 21 4 22
REMARK SMILES IDX 16 23 17 24 18 25 19 26 20 27 21 28 22 29 23 30 69 31 24 32
REMARK SMILES IDX 68 33 25 34 26 35 27 36 62 37 28 38 67 39 61 40 63 41 29 42
REMARK SMILES IDX 66 43 60 44 59 45 30 47 52 48 37 49 51 50 38 51 41 52 50 53
REMARK SMILES IDX 64 54 39 55 40 56 49 58 65 59 42 60 31 61 32 62 36 63 33 64
REMARK SMILES IDX 35 65 34 66 53 67 54 68 58 69 55 70 57 71 56 72 43 73 44 74
REMARK SMILES IDX 48 75 45 76 47 77 46 78
REMARK H PARENT 63 46 41 57
REMARK Flexibility Score: inf
ROOT
ATOM      1  C   UNL A   1      37.579  23.251  25.699  1.00  0.00     0.202 C 
ENDROOT
BRANCH   1   2
ATOM      2  C   UNL A   1      36.697  23.399  24.455  1.00  0.00     0.261 C 
BRANCH   2   3
ATOM      3  O   UNL A   1      35.328  23.756  24.740  1.00  0.00    -0.462 OA
BRANCH   3   4
ATOM      4  C   UNL A   1      34.590  22.805  25.383  1.00  0.00     0.328 C 
ATOM      5  O   UNL A   1      34.229  22.885  26.554  1.00  0.00    -0.250 OA
BRANCH   4   6
ATOM      6  C   UNL A   1      34.177  21.627  24.485  1.00  0.00     0.195 C 
ATOM      7  N   UNL A   1      32.789  21.602  24.011  1.00  0.00    -0.326 N 
ATOM      8  C   UNL A   1      32.296  20.234  24.023  1.00  0.00     0.089 C 
ATOM      9  C   UNL A   1      34.345  20.279  25.244  1.00  0.00     0.043 C 
ATOM     10  C   UNL A   1      32.931  19.673  25.283  1.00  0.00     0.014 C 
ATOM     11  C   UNL A   1      32.757  19.409  22.806  1.00  0.00     0.025 C 
ATOM     12  C   UNL A   1      32.792  18.166  25.464  1.00  0.00     0.006 C 
ATOM     13  C   UNL A   1      32.341  17.954  22.980  1.00  0.00     0.002 C 
ATOM     14  C   UNL A   1      33.017  17.344  24.203  1.00  0.00     0.000 C 
BRANCH   7  15
ATOM     15  C   UNL A   1      32.327  22.535  23.108  1.00  0.00     0.224 C 
ATOM     16  O   UNL A   1      32.898  22.782  22.051  1.00  0.00    -0.275 OA
BRANCH  15  17
ATOM     17  C   UNL A   1      31.152  23.366  23.594  1.00  0.00     0.116 C 
BRANCH  17  18
ATOM     18  C   UNL A   1      31.018  23.451  25.104  1.00  0.00     0.146 C 
BRANCH  18  19
ATOM     19  S   UNL A   1      30.504  25.060  25.689  1.00  0.00     0.147 S 
ATOM     20  C   UNL A   1      32.017  25.820  26.223  1.00  0.00     0.158 C 
ATOM     21  O   UNL A   1      29.688  24.864  26.872  1.00  0.00    -0.229 OA
ATOM     22  O   UNL A   1      29.980  25.815  24.567  1.00  0.00    -0.229 OA
ENDBRANCH  18  19
ENDBRANCH  17  18
ENDBRANCH  15  17
ENDBRANCH   7  15
ENDBRANCH   4   6
ENDBRANCH   3   4
ENDBRANCH   2   3
ENDBRANCH   1   2
BRANCH   1  23
ATOM     23  O   UNL A   1      38.414  22.106  25.824  1.00  0.00    -0.374 OA
BRANCH  23  24
ATOM     24  C   UNL A   1      38.059  20.921  25.134  1.00  0.00     0.202 C 
BRANCH  24  25
ATOM     25  C   UNL A   1      38.882  19.647  25.355  1.00  0.00     0.261 C 
BRANCH  25  26
ATOM     26  O   UNL A   1      39.714  19.613  26.501  1.00  0.00    -0.460 OA
BRANCH  26  27
ATOM     27  C   UNL A   1      41.019  19.426  26.225  1.00  0.00     0.338 C 
ATOM     28  O   UNL A   1      41.564  18.454  25.741  1.00  0.00    -0.246 OA
BRANCH  27  29
ATOM     29  C   UNL A   1      41.685  20.689  26.540  1.00  0.00     0.060 A 
ATOM     30  C   UNL A   1      41.914  20.991  27.883  1.00  0.00     0.016 A 
ATOM     31  C   UNL A   1      42.066  21.558  25.514  1.00  0.00     0.016 A 
ATOM     32  C   UNL A   1      42.480  22.214  28.213  1.00  0.00     0.010 A 
ATOM     33  C   UNL A   1      42.636  22.784  25.847  1.00  0.00     0.010 A 
ATOM     34  C   UNL A   1      42.801  23.129  27.199  1.00  0.00    -0.014 A 
BRANCH  34  35
ATOM     35  C   UNL A   1      43.146  24.515  27.574  1.00  0.00     0.031 A 
ATOM     36  C   UNL A   1      44.582  24.945  27.494  1.00  0.00     0.074 A 
ATOM     37  C   UNL A   1      42.180  25.385  27.912  1.00  0.00     0.049 A 
ATOM     38  N   UNL A   1      45.109  26.119  27.730  1.00  0.00    -0.248 NA
ATOM     39  C   UNL A   1      45.556  23.915  27.093  1.00  0.00     0.031 C 
ATOM     40  C   UNL A   1      40.750  25.082  27.971  1.00  0.00     0.029 A 
ATOM     41  N   UNL A   1      42.261  26.709  28.254  1.00  0.00    -0.354 N 
ATOM     42  C   UNL A   1      46.472  25.967  27.507  1.00  0.00     0.074 A 
ATOM     43  C   UNL A   1      46.698  24.582  27.161  1.00  0.00     0.031 C 
ATOM     44  C   UNL A   1      40.085  26.199  28.312  1.00  0.00     0.029 A 
ATOM     45  C   UNL A   1      41.044  27.278  28.529  1.00  0.00     0.049 A 
ATOM     46  H   UNL A   1      43.111  27.204  28.297  1.00  0.00     0.167 HD
ATOM     47  C   UNL A   1      47.448  26.903  27.573  1.00  0.00     0.031 A 
ATOM     48  C   UNL A   1      40.745  28.531  28.920  1.00  0.00     0.031 A 
ATOM     49  C   UNL A   1      47.216  28.273  27.941  1.00  0.00     0.049 A 
ATOM     50  C   UNL A   1      41.860  29.529  29.080  1.00  0.00     0.074 A 
ATOM     51  C   UNL A   1      48.129  29.307  28.041  1.00  0.00     0.029 A 
ATOM     52  N   UNL A   1      45.977  28.797  28.282  1.00  0.00    -0.354 N 
ATOM     53  N   UNL A   1      43.142  29.383  28.842  1.00  0.00    -0.248 NA
ATOM     54  C   UNL A   1      41.482  30.868  29.552  1.00  0.00     0.031 C 
ATOM     55  C   UNL A   1      47.452  30.441  28.502  1.00  0.00     0.029 A 
ATOM     56  C   UNL A   1      46.106  30.133  28.621  1.00  0.00     0.049 A 
ATOM     57  H   UNL A   1      45.131  28.293  28.283  1.00  0.00     0.167 HD
ATOM     58  C   UNL A   1      43.719  30.620  29.104  1.00  0.00     0.074 A 
ATOM     59  C   UNL A   1      42.643  31.505  29.504  1.00  0.00     0.031 C 
ATOM     60  C   UNL A   1      45.020  30.993  29.017  1.00  0.00     0.031 A 
BRANCH  47  61
ATOM     61  C   UNL A   1      48.853  26.455  27.280  1.00  0.00    -0.014 A 
ATOM     62  C   UNL A   1      49.381  26.498  25.980  1.00  0.00     0.009 A 
ATOM     63  C   UNL A   1      49.665  25.986  28.325  1.00  0.00     0.009 A 
ATOM     64  C   UNL A   1      50.677  26.042  25.725  1.00  0.00     0.001 A 
ATOM     65  C   UNL A   1      50.970  25.562  28.073  1.00  0.00     0.001 A 
ATOM     66  C   UNL A   1      51.471  25.579  26.772  1.00  0.00     0.000 A 
ENDBRANCH  47  61
BRANCH  48  67
ATOM     67  C   UNL A   1      39.334  28.912  29.190  1.00  0.00    -0.014 A 
ATOM     68  C   UNL A   1      38.782  28.750  30.469  1.00  0.00     0.009 A 
ATOM     69  C   UNL A   1      38.527  29.430  28.164  1.00  0.00     0.009 A 
ATOM     70  C   UNL A   1      37.445  29.074  30.709  1.00  0.00     0.001 A 
ATOM     71  C   UNL A   1      37.200  29.783  28.415  1.00  0.00     0.001 A 
ATOM     72  C   UNL A   1      36.657  29.595  29.683  1.00  0.00     0.000 A 
ENDBRANCH  48  67
BRANCH  60  73
ATOM     73  C   UNL A   1      45.343  32.431  29.318  1.00  0.00    -0.014 A 
ATOM     74  C   UNL A   1      45.729  32.843  30.603  1.00  0.00     0.009 A 
ATOM     75  C   UNL A   1      45.297  33.380  28.284  1.00  0.00     0.009 A 
ATOM     76  C   UNL A   1      46.024  34.185  30.853  1.00  0.00     0.001 A 
ATOM     77  C   UNL A   1      45.626  34.713  28.529  1.00  0.00     0.001 A 
ATOM     78  C   UNL A   1      45.979  35.116  29.817  1.00  0.00     0.000 A 
ENDBRANCH  60  73
ENDBRANCH  34  35
ENDBRANCH  27  29
ENDBRANCH  26  27
ENDBRANCH  25  26
ENDBRANCH  24  25
ENDBRANCH  23  24
ENDBRANCH   1  23
TORSDOF 18
ENDMDL
MODEL 3
REMARK VINA RESULT:      -9.7      2.984      4.540
REMARK SMILES CS(=O)(=O)CCC(=O)N1[C@@H](C(=O)OCCOCCOC(=O)c2ccc(-c3c4nc(c(-c5ccccc5)c5ccc([nH]5)c(-c5ccccc5)c5nc(c(-c6ccccc6)c6ccc3[nH]6)C=C5)C=C4)cc2)C[C@@H]2CCCC[C@@H]21
REMARK SMILES IDX 15 1 14 2 13 3 11 4 12 5 10 6 9 7 76 8 70 9 71 10 75 11
REMARK SMILES IDX 72 12 74 13 73 14 7 15 8 16 6 17 5 18 2 19 1 20 3 21 4 22
REMARK SMILES IDX 16 23 17 24 18 25 19 26 20 27 21 28 22 29 23 30 69 31 24 32
REMARK SMILES IDX 68 33 25 34 26 35 27 36 62 37 28 38 67 39 61 40 63 41 29 42
REMARK SMILES IDX 66 43 60 44 59 45 30 47 52 48 37 49 51 50 38 51 41 52 50 53
REMARK SMILES IDX 64 54 39 55 40 56 49 58 65 59 42 60 31 61 32 62 36 63 33 64
REMARK SMILES IDX 35 65 34 66 53 67 54 68 58 69 55 70 57 71 56 72 43 73 44 74
REMARK SMILES IDX 48 75 45 76 47 77 46 78
REMARK H PARENT 63 46 41 57
REMARK Flexibility Score: inf
ROOT
ATOM      1  C   UNL A   1      34.502  23.199  26.284  1.00  0.00     0.202 C 
ENDROOT
BRANCH   1   2
ATOM      2  C   UNL A   1      33.377  22.964  25.271  1.00  0.00     0.261 C 
BRANCH   2   3
ATOM      3  O   UNL A   1      32.329  23.955  25.311  1.00  0.00    -0.462 OA
BRANCH   3   4
ATOM      4  C   UNL A   1      32.589  25.120  24.649  1.00  0.00     0.328 C 
ATOM      5  O   UNL A   1      32.959  25.183  23.480  1.00  0.00    -0.250 OA
BRANCH   4   6
ATOM      6  C   UNL A   1      32.311  26.383  25.481  1.00  0.00     0.195 C 
ATOM      7  N   UNL A   1      31.783  27.551  24.767  1.00  0.00    -0.326 N 
ATOM      8  C   UNL A   1      32.388  28.761  25.301  1.00  0.00     0.089 C 
ATOM      9  C   UNL A   1      33.623  26.901  26.140  1.00  0.00     0.043 C 
ATOM     10  C   UNL A   1      33.815  28.317  25.571  1.00  0.00     0.014 C 
ATOM     11  C   UNL A   1      31.741  29.236  26.617  1.00  0.00     0.025 C 
ATOM     12  C   UNL A   1      34.664  29.307  26.359  1.00  0.00     0.006 C 
ATOM     13  C   UNL A   1      32.536  30.402  27.192  1.00  0.00     0.002 C 
ATOM     14  C   UNL A   1      33.957  29.967  27.535  1.00  0.00     0.000 C 
BRANCH   7  15
ATOM     15  C   UNL A   1      30.512  27.546  24.234  1.00  0.00     0.224 C 
ATOM     16  O   UNL A   1      29.653  26.734  24.562  1.00  0.00    -0.275 OA
BRANCH  15  17
ATOM     17  C   UNL A   1      30.301  28.510  23.079  1.00  0.00     0.116 C 
BRANCH  17  18
ATOM     18  C   UNL A   1      29.609  29.807  23.455  1.00  0.00     0.146 C 
BRANCH  18  19
ATOM     19  S   UNL A   1      27.914  29.907  22.894  1.00  0.00     0.147 S 
ATOM     20  C   UNL A   1      28.057  30.465  21.215  1.00  0.00     0.158 C 
ATOM     21  O   UNL A   1      27.260  30.965  23.638  1.00  0.00    -0.229 OA
ATOM     22  O   UNL A   1      27.350  28.570  22.888  1.00  0.00    -0.229 OA
ENDBRANCH  18  19
ENDBRANCH  17  18
ENDBRANCH  15  17
ENDBRANCH   7  15
ENDBRANCH   4   6
ENDBRANCH   3   4
ENDBRANCH   2   3
ENDBRANCH   1   2
BRANCH   1  23
ATOM     23  O   UNL A   1      35.851  23.007  25.876  1.00  0.00    -0.374 OA
BRANCH  23  24
ATOM     24  C   UNL A   1      36.309  21.690  25.619  1.00  0.00     0.202 C 
BRANCH  24  25
ATOM     25  C   UNL A   1      37.808  21.440  25.428  1.00  0.00     0.261 C 
BRANCH  25  26
ATOM     26  O   UNL A   1      38.655  22.574  25.450  1.00  0.00    -0.460 OA
BRANCH  26  27
ATOM     27  C   UNL A   1      39.574  22.554  26.436  1.00  0.00     0.338 C 
ATOM     28  O   UNL A   1      40.273  21.633  26.805  1.00  0.00    -0.246 OA
BRANCH  27  29
ATOM     29  C   UNL A   1      39.650  23.922  26.947  1.00  0.00     0.060 A 
ATOM     30  C   UNL A   1      40.272  24.884  26.151  1.00  0.00     0.016 A 
ATOM     31  C   UNL A   1      39.116  24.235  28.201  1.00  0.00     0.016 A 
ATOM     32  C   UNL A   1      40.419  26.173  26.642  1.00  0.00     0.010 A 
ATOM     33  C   UNL A   1      39.263  25.529  28.690  1.00  0.00     0.010 A 
ATOM     34  C   UNL A   1      39.955  26.487  27.928  1.00  0.00    -0.014 A 
BRANCH  34  35
ATOM     35  C   UNL A   1      40.356  27.771  28.536  1.00  0.00     0.031 A 
ATOM     36  C   UNL A   1      41.795  27.967  28.917  1.00  0.00     0.074 A 
ATOM     37  C   UNL A   1      39.460  28.762  28.678  1.00  0.00     0.049 A 
ATOM     38  N   UNL A   1      42.381  29.022  29.421  1.00  0.00    -0.248 NA
ATOM     39  C   UNL A   1      42.695  26.822  28.700  1.00  0.00     0.031 C 
ATOM     40  C   UNL A   1      38.051  28.691  28.293  1.00  0.00     0.029 A 
ATOM     41  N   UNL A   1      39.614  30.030  29.172  1.00  0.00    -0.354 N 
ATOM     42  C   UNL A   1      43.715  28.667  29.581  1.00  0.00     0.074 A 
ATOM     43  C   UNL A   1      43.843  27.290  29.164  1.00  0.00     0.031 C 
ATOM     44  C   UNL A   1      37.471  29.876  28.550  1.00  0.00     0.029 A 
ATOM     45  C   UNL A   1      38.459  30.770  29.149  1.00  0.00     0.049 A 
ATOM     46  H   UNL A   1      40.471  30.377  29.510  1.00  0.00     0.167 HD
ATOM     47  C   UNL A   1      44.743  29.427  30.025  1.00  0.00     0.031 A 
ATOM     48  C   UNL A   1      38.229  32.026  29.573  1.00  0.00     0.031 A 
ATOM     49  C   UNL A   1      44.599  30.790  30.460  1.00  0.00     0.049 A 
ATOM     50  C   UNL A   1      39.370  32.818  30.153  1.00  0.00     0.074 A 
ATOM     51  C   UNL A   1      45.572  31.654  30.929  1.00  0.00     0.029 A 
ATOM     52  N   UNL A   1      43.399  31.484  30.488  1.00  0.00    -0.354 N 
ATOM     53  N   UNL A   1      40.632  32.483  30.277  1.00  0.00    -0.248 NA
ATOM     54  C   UNL A   1      39.053  34.167  30.642  1.00  0.00     0.031 C 
ATOM     55  C   UNL A   1      44.948  32.850  31.299  1.00  0.00     0.029 A 
ATOM     56  C   UNL A   1      43.600  32.756  30.994  1.00  0.00     0.049 A 
ATOM     57  H   UNL A   1      42.531  31.124  30.193  1.00  0.00     0.167 HD
ATOM     58  C   UNL A   1      41.267  33.591  30.827  1.00  0.00     0.074 A 
ATOM     59  C   UNL A   1      40.251  34.610  30.998  1.00  0.00     0.031 C 
ATOM     60  C   UNL A   1      42.572  33.753  31.156  1.00  0.00     0.031 A 
BRANCH  47  61
ATOM     61  C   UNL A   1      46.097  28.777  30.098  1.00  0.00    -0.014 A 
ATOM     62  C   UNL A   1      46.591  28.242  31.299  1.00  0.00     0.009 A 
ATOM     63  C   UNL A   1      46.891  28.694  28.943  1.00  0.00     0.009 A 
ATOM     64  C   UNL A   1      47.866  27.675  31.351  1.00  0.00     0.001 A 
ATOM     65  C   UNL A   1      48.152  28.097  28.991  1.00  0.00     0.001 A 
ATOM     66  C   UNL A   1      48.643  27.599  30.197  1.00  0.00     0.000 A 
ENDBRANCH  47  61
BRANCH  48  67
ATOM     67  C   UNL A   1      36.867  32.612  29.469  1.00  0.00    -0.014 A 
ATOM     68  C   UNL A   1      35.979  32.553  30.553  1.00  0.00     0.009 A 
ATOM     69  C   UNL A   1      36.444  33.225  28.279  1.00  0.00     0.009 A 
ATOM     70  C   UNL A   1      34.687  33.071  30.439  1.00  0.00     0.001 A 
ATOM     71  C   UNL A   1      35.163  33.770  28.178  1.00  0.00     0.001 A 
ATOM     72  C   UNL A   1      34.282  33.683  29.253  1.00  0.00     0.000 A 
ENDBRANCH  48  67
BRANCH  60  73
ATOM     73  C   UNL A   1      42.982  35.097  31.693  1.00  0.00    -0.014 A 
ATOM     74  C   UNL A   1      42.908  35.394  33.062  1.00  0.00     0.009 A 
ATOM     75  C   UNL A   1      43.487  36.067  30.812  1.00  0.00     0.009 A 
ATOM     76  C   UNL A   1      43.296  36.650  33.533  1.00  0.00     0.001 A 
ATOM     77  C   UNL A   1      43.907  37.308  31.289  1.00  0.00     0.001 A 
ATOM     78  C   UNL A   1      43.801  37.603  32.648  1.00  0.00     0.000 A 
ENDBRANCH  60  73
ENDBRANCH  34  35
ENDBRANCH  27  29
ENDBRANCH  26  27
ENDBRANCH  25  26
ENDBRANCH  24  25
ENDBRANCH  23  24
ENDBRANCH   1  23
TORSDOF 18
ENDMDL
