MODEL 1
REMARK VINA RESULT:     -12.1      0.000      0.000
REMARK SMILES O=C(Cn1nc(C(=O)OCCOCCOC(=O)c2ccc(-c3c4nc(c(-c5ccccc5)c5ccc([nH]5)c(-c5ccccc5)c5nc(c(-c6ccccc6)c6ccc3[nH]6)C=C5)C=C4)cc2)c2ccccc2c1=O)Nc1ccc2c(c1)C(=O)c1ccccc1C2=O
REMARK SMILES IDX 11 1 10 2 9 3 7 4 8 5 6 6 4 7 5 8 72 9 71 10 73 11 66 12
REMARK SMILES IDX 70 13 67 14 69 15 68 16 3 17 2 18 1 19 74 20 75 22 76 23
REMARK SMILES IDX 80 24 77 25 79 26 78 27 81 28 89 29 82 30 83 31 88 32 90 33
REMARK SMILES IDX 84 34 87 35 85 36 86 37 12 38 13 39 14 40 15 41 16 42 17 43
REMARK SMILES IDX 18 44 19 45 65 46 20 47 64 48 21 49 22 50 23 51 58 52 24 53
REMARK SMILES IDX 63 54 57 55 59 56 25 57 62 58 56 59 55 60 26 62 48 63 33 64
REMARK SMILES IDX 47 65 34 66 37 67 46 68 60 69 35 70 36 71 45 73 61 74 38 75
REMARK SMILES IDX 27 76 28 77 32 78 29 79 31 80 30 81 49 82 50 83 54 84 51 85
REMARK SMILES IDX 53 86 52 87 39 88 40 89 44 90 41 91 43 92 42 93
REMARK H PARENT 74 21 59 61 37 72
REMARK Flexibility Score: inf
ROOT
ATOM      1  C   UNL A   1      44.279  19.056  24.164  1.00  0.00     0.202 C 
ENDROOT
BRANCH   1   2
ATOM      2  C   UNL A   1      43.649  18.818  25.538  1.00  0.00     0.261 C 
BRANCH   2   3
ATOM      3  O   UNL A   1      42.508  19.681  25.646  1.00  0.00    -0.458 OA
BRANCH   3   4
ATOM      4  C   UNL A   1      41.852  19.658  26.821  1.00  0.00     0.359 C 
ATOM      5  O   UNL A   1      42.034  18.944  27.786  1.00  0.00    -0.244 OA
BRANCH   4   6
ATOM      6  C   UNL A   1      40.972  20.894  26.840  1.00  0.00     0.176 A 
ATOM      7  N   UNL A   1      39.168  22.053  25.984  1.00  0.00    -0.219 N 
ATOM      8  N   UNL A   1      39.884  20.879  26.124  1.00  0.00    -0.161 NA
ATOM      9  C   UNL A   1      39.607  23.279  26.488  1.00  0.00     0.275 A 
ATOM     10  C   UNL A   1      40.746  23.247  27.422  1.00  0.00     0.051 A 
ATOM     11  O   UNL A   1      39.071  24.350  26.223  1.00  0.00    -0.267 OA
ATOM     12  C   UNL A   1      41.453  22.064  27.591  1.00  0.00     0.022 A 
ATOM     13  C   UNL A   1      41.124  24.399  28.124  1.00  0.00     0.014 A 
ATOM     14  C   UNL A   1      42.574  22.033  28.433  1.00  0.00     0.011 A 
ATOM     15  C   UNL A   1      42.230  24.365  28.975  1.00  0.00     0.001 A 
ATOM     16  C   UNL A   1      42.960  23.186  29.120  1.00  0.00     0.001 A 
BRANCH   7  17
ATOM     17  C   UNL A   1      38.062  22.042  25.006  1.00  0.00     0.248 C 
BRANCH  17  18
ATOM     18  C   UNL A   1      36.833  21.232  25.456  1.00  0.00     0.246 C 
ATOM     19  O   UNL A   1      36.701  20.038  25.202  1.00  0.00    -0.273 OA
ATOM     20  N   UNL A   1      35.987  21.945  26.279  1.00  0.00    -0.324 N 
ATOM     21  H   UNL A   1      36.366  22.668  26.829  1.00  0.00     0.169 HD
BRANCH  20  22
ATOM     22  C   UNL A   1      34.611  21.690  26.369  1.00  0.00     0.042 A 
ATOM     23  C   UNL A   1      33.976  21.838  27.605  1.00  0.00     0.027 A 
ATOM     24  C   UNL A   1      33.887  21.793  25.182  1.00  0.00     0.039 A 
ATOM     25  C   UNL A   1      32.637  22.240  27.651  1.00  0.00     0.015 A 
ATOM     26  C   UNL A   1      32.577  22.252  25.230  1.00  0.00     0.036 A 
ATOM     27  C   UNL A   1      31.979  22.542  26.455  1.00  0.00     0.034 A 
ATOM     28  C   UNL A   1      31.975  22.743  23.980  1.00  0.00     0.194 C 
ATOM     29  C   UNL A   1      30.806  23.446  26.470  1.00  0.00     0.194 C 
ATOM     30  O   UNL A   1      32.197  22.216  22.900  1.00  0.00    -0.289 OA
ATOM     31  C   UNL A   1      31.243  24.014  24.089  1.00  0.00     0.034 A 
ATOM     32  C   UNL A   1      30.688  24.373  25.318  1.00  0.00     0.034 A 
ATOM     33  O   UNL A   1      30.064  23.524  27.437  1.00  0.00    -0.289 OA
ATOM     34  C   UNL A   1      31.268  24.912  23.020  1.00  0.00     0.013 A 
ATOM     35  C   UNL A   1      30.163  25.654  25.493  1.00  0.00     0.013 A 
ATOM     36  C   UNL A   1      30.775  26.202  23.207  1.00  0.00     0.001 A 
ATOM     37  C   UNL A   1      30.228  26.572  24.441  1.00  0.00     0.001 A 
ENDBRANCH  20  22
ENDBRANCH  17  18
ENDBRANCH   7  17
ENDBRANCH   4   6
ENDBRANCH   3   4
ENDBRANCH   2   3
ENDBRANCH   1   2
BRANCH   1  38
ATOM     38  O   UNL A   1      45.711  19.077  24.231  1.00  0.00    -0.374 OA
BRANCH  38  39
ATOM     39  C   UNL A   1      46.284  20.037  25.126  1.00  0.00     0.202 C 
BRANCH  39  40
ATOM     40  C   UNL A   1      46.095  21.486  24.666  1.00  0.00     0.261 C 
BRANCH  40  41
ATOM     41  O   UNL A   1      45.242  22.179  25.595  1.00  0.00    -0.460 OA
BRANCH  41  42
ATOM     42  C   UNL A   1      44.213  22.872  25.055  1.00  0.00     0.338 C 
ATOM     43  O   UNL A   1      43.318  22.430  24.355  1.00  0.00    -0.246 OA
BRANCH  42  44
ATOM     44  C   UNL A   1      44.227  24.262  25.574  1.00  0.00     0.060 A 
ATOM     45  C   UNL A   1      43.474  25.289  24.991  1.00  0.00     0.016 A 
ATOM     46  C   UNL A   1      45.037  24.530  26.684  1.00  0.00     0.016 A 
ATOM     47  C   UNL A   1      43.517  26.576  25.538  1.00  0.00     0.010 A 
ATOM     48  C   UNL A   1      45.082  25.815  27.225  1.00  0.00     0.010 A 
ATOM     49  C   UNL A   1      44.311  26.842  26.664  1.00  0.00    -0.014 A 
BRANCH  49  50
ATOM     50  C   UNL A   1      44.235  28.154  27.344  1.00  0.00     0.031 A 
ATOM     51  C   UNL A   1      42.966  28.641  27.971  1.00  0.00     0.074 A 
ATOM     52  C   UNL A   1      45.332  28.931  27.351  1.00  0.00     0.049 A 
ATOM     53  N   UNL A   1      42.760  29.741  28.651  1.00  0.00    -0.248 NA
ATOM     54  C   UNL A   1      41.776  27.793  27.815  1.00  0.00     0.031 C 
ATOM     55  C   UNL A   1      46.617  28.577  26.743  1.00  0.00     0.029 A 
ATOM     56  N   UNL A   1      45.541  30.177  27.882  1.00  0.00    -0.354 N 
ATOM     57  C   UNL A   1      41.424  29.713  29.021  1.00  0.00     0.074 A 
ATOM     58  C   UNL A   1      40.858  28.501  28.461  1.00  0.00     0.031 C 
ATOM     59  C   UNL A   1      47.483  29.584  26.941  1.00  0.00     0.029 A 
ATOM     60  C   UNL A   1      46.814  30.648  27.683  1.00  0.00     0.049 A 
ATOM     61  H   UNL A   1      44.846  30.684  28.359  1.00  0.00     0.167 HD
ATOM     62  C   UNL A   1      40.738  30.609  29.770  1.00  0.00     0.031 A 
ATOM     63  C   UNL A   1      47.386  31.804  28.064  1.00  0.00     0.031 A 
ATOM     64  C   UNL A   1      41.294  31.823  30.306  1.00  0.00     0.049 A 
ATOM     65  C   UNL A   1      46.597  32.794  28.865  1.00  0.00     0.074 A 
ATOM     66  C   UNL A   1      40.685  32.763  31.120  1.00  0.00     0.029 A 
ATOM     67  N   UNL A   1      42.582  32.275  30.069  1.00  0.00    -0.354 N 
ATOM     68  N   UNL A   1      45.357  32.712  29.280  1.00  0.00    -0.248 NA
ATOM     69  C   UNL A   1      47.291  34.025  29.267  1.00  0.00     0.031 C 
ATOM     70  C   UNL A   1      41.595  33.802  31.348  1.00  0.00     0.029 A 
ATOM     71  C   UNL A   1      42.779  33.491  30.701  1.00  0.00     0.049 A 
ATOM     72  H   UNL A   1      43.256  31.801  29.530  1.00  0.00     0.167 HD
ATOM     73  C   UNL A   1      45.129  33.869  30.012  1.00  0.00     0.074 A 
ATOM     74  C   UNL A   1      46.356  34.636  29.983  1.00  0.00     0.031 C 
ATOM     75  C   UNL A   1      44.001  34.250  30.658  1.00  0.00     0.031 A 
BRANCH  62  76
ATOM     76  C   UNL A   1      39.299  30.306  30.065  1.00  0.00    -0.014 A 
ATOM     77  C   UNL A   1      38.286  30.830  29.248  1.00  0.00     0.009 A 
ATOM     78  C   UNL A   1      38.946  29.564  31.202  1.00  0.00     0.009 A 
ATOM     79  C   UNL A   1      36.944  30.614  29.562  1.00  0.00     0.001 A 
ATOM     80  C   UNL A   1      37.602  29.338  31.506  1.00  0.00     0.001 A 
ATOM     81  C   UNL A   1      36.603  29.866  30.689  1.00  0.00     0.000 A 
ENDBRANCH  62  76
BRANCH  63  82
ATOM     82  C   UNL A   1      48.806  32.053  27.726  1.00  0.00    -0.014 A 
ATOM     83  C   UNL A   1      49.150  32.767  26.569  1.00  0.00     0.009 A 
ATOM     84  C   UNL A   1      49.824  31.525  28.534  1.00  0.00     0.009 A 
ATOM     85  C   UNL A   1      50.491  32.943  26.223  1.00  0.00     0.001 A 
ATOM     86  C   UNL A   1      51.163  31.715  28.193  1.00  0.00     0.001 A 
ATOM     87  C   UNL A   1      51.496  32.419  27.036  1.00  0.00     0.000 A 
ENDBRANCH  63  82
BRANCH  75  88
ATOM     88  C   UNL A   1      44.044  35.550  31.404  1.00  0.00    -0.014 A 
ATOM     89  C   UNL A   1      44.229  35.549  32.795  1.00  0.00     0.009 A 
ATOM     90  C   UNL A   1      43.848  36.769  30.739  1.00  0.00     0.009 A 
ATOM     91  C   UNL A   1      44.218  36.748  33.509  1.00  0.00     0.001 A 
ATOM     92  C   UNL A   1      43.853  37.968  31.455  1.00  0.00     0.001 A 
ATOM     93  C   UNL A   1      44.033  37.957  32.838  1.00  0.00     0.000 A 
ENDBRANCH  75  88
ENDBRANCH  49  50
ENDBRANCH  42  44
ENDBRANCH  41  42
ENDBRANCH  40  41
ENDBRANCH  39  40
ENDBRANCH  38  39
ENDBRANCH   1  38
TORSDOF 17
ENDMDL
MODEL 2
REMARK VINA RESULT:     -11.7      2.944      5.169
REMARK SMILES O=C(Cn1nc(C(=O)OCCOCCOC(=O)c2ccc(-c3c4nc(c(-c5ccccc5)c5ccc([nH]5)c(-c5ccccc5)c5nc(c(-c6ccccc6)c6ccc3[nH]6)C=C5)C=C4)cc2)c2ccccc2c1=O)Nc1ccc2c(c1)C(=O)c1ccccc1C2=O
REMARK SMILES IDX 11 1 10 2 9 3 7 4 8 5 6 6 4 7 5 8 72 9 71 10 73 11 66 12
REMARK SMILES IDX 70 13 67 14 69 15 68 16 3 17 2 18 1 19 74 20 75 22 76 23
REMARK SMILES IDX 80 24 77 25 79 26 78 27 81 28 89 29 82 30 83 31 88 32 90 33
REMARK SMILES IDX 84 34 87 35 85 36 86 37 12 38 13 39 14 40 15 41 16 42 17 43
REMARK SMILES IDX 18 44 19 45 65 46 20 47 64 48 21 49 22 50 23 51 58 52 24 53
REMARK SMILES IDX 63 54 57 55 59 56 25 57 62 58 56 59 55 60 26 62 48 63 33 64
REMARK SMILES IDX 47 65 34 66 37 67 46 68 60 69 35 70 36 71 45 73 61 74 38 75
REMARK SMILES IDX 27 76 28 77 32 78 29 79 31 80 30 81 49 82 50 83 54 84 51 85
REMARK SMILES IDX 53 86 52 87 39 88 40 89 44 90 41 91 43 92 42 93
REMARK H PARENT 74 21 59 61 37 72
REMARK Flexibility Score: inf
ROOT
ATOM      1  C   UNL A   1      44.836  19.668  24.587  1.00  0.00     0.202 C 
ENDROOT
BRANCH   1   2
ATOM      2  C   UNL A   1      43.614  19.011  25.231  1.00  0.00     0.261 C 
BRANCH   2   3
ATOM      3  O   UNL A   1      42.673  20.050  25.536  1.00  0.00    -0.458 OA
BRANCH   3   4
ATOM      4  C   UNL A   1      41.930  19.876  26.644  1.00  0.00     0.359 C 
ATOM      5  O   UNL A   1      42.074  19.076  27.546  1.00  0.00    -0.244 OA
BRANCH   4   6
ATOM      6  C   UNL A   1      40.983  21.059  26.711  1.00  0.00     0.176 A 
ATOM      7  N   UNL A   1      39.097  22.133  25.925  1.00  0.00    -0.219 N 
ATOM      8  N   UNL A   1      39.879  20.998  26.022  1.00  0.00    -0.161 NA
ATOM      9  C   UNL A   1      39.479  23.372  26.444  1.00  0.00     0.275 A 
ATOM     10  C   UNL A   1      40.642  23.384  27.349  1.00  0.00     0.051 A 
ATOM     11  O   UNL A   1      38.878  24.416  26.216  1.00  0.00    -0.267 OA
ATOM     12  C   UNL A   1      41.417  22.239  27.475  1.00  0.00     0.022 A 
ATOM     13  C   UNL A   1      40.974  24.541  28.066  1.00  0.00     0.014 A 
ATOM     14  C   UNL A   1      42.559  22.254  28.289  1.00  0.00     0.011 A 
ATOM     15  C   UNL A   1      42.101  24.551  28.889  1.00  0.00     0.001 A 
ATOM     16  C   UNL A   1      42.899  23.412  28.991  1.00  0.00     0.001 A 
BRANCH   7  17
ATOM     17  C   UNL A   1      37.968  22.080  24.974  1.00  0.00     0.248 C 
BRANCH  17  18
ATOM     18  C   UNL A   1      36.764  21.262  25.473  1.00  0.00     0.246 C 
ATOM     19  O   UNL A   1      36.661  20.054  25.278  1.00  0.00    -0.273 OA
ATOM     20  N   UNL A   1      35.904  21.993  26.265  1.00  0.00    -0.324 N 
ATOM     21  H   UNL A   1      36.268  22.752  26.776  1.00  0.00     0.169 HD
BRANCH  20  22
ATOM     22  C   UNL A   1      34.536  21.706  26.378  1.00  0.00     0.042 A 
ATOM     23  C   UNL A   1      33.921  21.827  27.628  1.00  0.00     0.027 A 
ATOM     24  C   UNL A   1      33.788  21.807  25.206  1.00  0.00     0.039 A 
ATOM     25  C   UNL A   1      32.575  22.200  27.704  1.00  0.00     0.015 A 
ATOM     26  C   UNL A   1      32.470  22.236  25.284  1.00  0.00     0.036 A 
ATOM     27  C   UNL A   1      31.889  22.500  26.523  1.00  0.00     0.034 A 
ATOM     28  C   UNL A   1      31.833  22.727  24.051  1.00  0.00     0.194 C 
ATOM     29  C   UNL A   1      30.697  23.378  26.570  1.00  0.00     0.194 C 
ATOM     30  O   UNL A   1      32.046  22.217  22.961  1.00  0.00    -0.289 OA
ATOM     31  C   UNL A   1      31.076  23.981  24.188  1.00  0.00     0.034 A 
ATOM     32  C   UNL A   1      30.537  24.314  25.431  1.00  0.00     0.034 A 
ATOM     33  O   UNL A   1      29.972  23.430  27.552  1.00  0.00    -0.289 OA
ATOM     34  C   UNL A   1      31.062  24.891  23.129  1.00  0.00     0.013 A 
ATOM     35  C   UNL A   1      29.988  25.582  25.630  1.00  0.00     0.013 A 
ATOM     36  C   UNL A   1      30.544  26.167  23.339  1.00  0.00     0.001 A 
ATOM     37  C   UNL A   1      30.014  26.512  24.586  1.00  0.00     0.001 A 
ENDBRANCH  20  22
ENDBRANCH  17  18
ENDBRANCH   7  17
ENDBRANCH   4   6
ENDBRANCH   3   4
ENDBRANCH   2   3
ENDBRANCH   1   2
BRANCH   1  38
ATOM     38  O   UNL A   1      44.516  20.941  24.012  1.00  0.00    -0.374 OA
BRANCH  38  39
ATOM     39  C   UNL A   1      45.407  22.017  24.329  1.00  0.00     0.202 C 
BRANCH  39  40
ATOM     40  C   UNL A   1      44.913  22.895  25.482  1.00  0.00     0.261 C 
BRANCH  40  41
ATOM     41  O   UNL A   1      44.633  24.219  24.993  1.00  0.00    -0.460 OA
BRANCH  41  42
ATOM     42  C   UNL A   1      45.601  25.144  25.192  1.00  0.00     0.338 C 
ATOM     43  O   UNL A   1      46.655  25.244  24.587  1.00  0.00    -0.246 OA
BRANCH  42  44
ATOM     44  C   UNL A   1      45.127  26.153  26.170  1.00  0.00     0.060 A 
ATOM     45  C   UNL A   1      43.786  26.549  26.252  1.00  0.00     0.016 A 
ATOM     46  C   UNL A   1      46.077  26.719  27.029  1.00  0.00     0.016 A 
ATOM     47  C   UNL A   1      43.398  27.493  27.208  1.00  0.00     0.010 A 
ATOM     48  C   UNL A   1      45.689  27.664  27.979  1.00  0.00     0.010 A 
ATOM     49  C   UNL A   1      44.345  28.045  28.084  1.00  0.00    -0.014 A 
BRANCH  49  50
ATOM     50  C   UNL A   1      43.917  28.916  29.201  1.00  0.00     0.031 A 
ATOM     51  C   UNL A   1      43.772  30.396  29.031  1.00  0.00     0.074 A 
ATOM     52  C   UNL A   1      43.699  28.350  30.401  1.00  0.00     0.049 A 
ATOM     53  N   UNL A   1      43.352  31.281  29.899  1.00  0.00    -0.248 NA
ATOM     54  C   UNL A   1      44.148  30.958  27.726  1.00  0.00     0.031 C 
ATOM     55  C   UNL A   1      43.841  26.923  30.697  1.00  0.00     0.029 A 
ATOM     56  N   UNL A   1      43.318  28.907  31.595  1.00  0.00    -0.354 N 
ATOM     57  C   UNL A   1      43.394  32.503  29.245  1.00  0.00     0.074 A 
ATOM     58  C   UNL A   1      43.914  32.251  27.915  1.00  0.00     0.031 C 
ATOM     59  C   UNL A   1      43.545  26.715  31.989  1.00  0.00     0.029 A 
ATOM     60  C   UNL A   1      43.198  27.991  32.609  1.00  0.00     0.049 A 
ATOM     61  H   UNL A   1      43.147  29.868  31.712  1.00  0.00     0.167 HD
ATOM     62  C   UNL A   1      43.021  33.720  29.708  1.00  0.00     0.031 A 
ATOM     63  C   UNL A   1      42.838  28.155  33.895  1.00  0.00     0.031 A 
ATOM     64  C   UNL A   1      42.528  33.975  31.036  1.00  0.00     0.049 A 
ATOM     65  C   UNL A   1      42.459  29.517  34.391  1.00  0.00     0.074 A 
ATOM     66  C   UNL A   1      42.077  35.169  31.573  1.00  0.00     0.029 A 
ATOM     67  N   UNL A   1      42.436  33.025  32.040  1.00  0.00    -0.354 N 
ATOM     68  N   UNL A   1      42.423  30.649  33.734  1.00  0.00    -0.248 NA
ATOM     69  C   UNL A   1      42.054  29.619  35.800  1.00  0.00     0.031 C 
ATOM     70  C   UNL A   1      41.744  34.949  32.914  1.00  0.00     0.029 A 
ATOM     71  C   UNL A   1      41.959  33.611  33.201  1.00  0.00     0.049 A 
ATOM     72  H   UNL A   1      42.676  32.075  31.943  1.00  0.00     0.167 HD
ATOM     73  C   UNL A   1      41.969  31.596  34.642  1.00  0.00     0.074 A 
ATOM     74  C   UNL A   1      41.744  30.906  35.895  1.00  0.00     0.031 C 
ATOM     75  C   UNL A   1      41.748  32.917  34.444  1.00  0.00     0.031 A 
BRANCH  62  76
ATOM     76  C   UNL A   1      43.124  34.881  28.764  1.00  0.00    -0.014 A 
ATOM     77  C   UNL A   1      44.333  35.581  28.636  1.00  0.00     0.009 A 
ATOM     78  C   UNL A   1      41.997  35.328  28.058  1.00  0.00     0.009 A 
ATOM     79  C   UNL A   1      44.413  36.707  27.816  1.00  0.00     0.001 A 
ATOM     80  C   UNL A   1      42.084  36.447  27.228  1.00  0.00     0.001 A 
ATOM     81  C   UNL A   1      43.289  37.137  27.111  1.00  0.00     0.000 A 
ENDBRANCH  62  76
BRANCH  63  82
ATOM     82  C   UNL A   1      42.772  26.971  34.782  1.00  0.00    -0.014 A 
ATOM     83  C   UNL A   1      43.923  26.506  35.437  1.00  0.00     0.009 A 
ATOM     84  C   UNL A   1      41.567  26.271  34.933  1.00  0.00     0.009 A 
ATOM     85  C   UNL A   1      43.867  25.353  36.222  1.00  0.00     0.001 A 
ATOM     86  C   UNL A   1      41.512  25.127  35.729  1.00  0.00     0.001 A 
ATOM     87  C   UNL A   1      42.663  24.666  36.369  1.00  0.00     0.000 A 
ENDBRANCH  63  82
BRANCH  75  88
ATOM     88  C   UNL A   1      41.221  33.706  35.605  1.00  0.00    -0.014 A 
ATOM     89  C   UNL A   1      42.117  34.295  36.511  1.00  0.00     0.009 A 
ATOM     90  C   UNL A   1      39.843  33.822  35.831  1.00  0.00     0.009 A 
ATOM     91  C   UNL A   1      41.641  34.988  37.624  1.00  0.00     0.001 A 
ATOM     92  C   UNL A   1      39.369  34.528  36.939  1.00  0.00     0.001 A 
ATOM     93  C   UNL A   1      40.267  35.106  37.836  1.00  0.00     0.000 A 
ENDBRANCH  75  88
ENDBRANCH  49  50
ENDBRANCH  42  44
ENDBRANCH  41  42
ENDBRANCH  40  41
ENDBRANCH  39  40
ENDBRANCH  38  39
ENDBRANCH   1  38
TORSDOF 17
ENDMDL
MODEL 3
REMARK VINA RESULT:     -11.7      3.784      6.234
REMARK SMILES O=C(Cn1nc(C(=O)OCCOCCOC(=O)c2ccc(-c3c4nc(c(-c5ccccc5)c5ccc([nH]5)c(-c5ccccc5)c5nc(c(-c6ccccc6)c6ccc3[nH]6)C=C5)C=C4)cc2)c2ccccc2c1=O)Nc1ccc2c(c1)C(=O)c1ccccc1C2=O
REMARK SMILES IDX 11 1 10 2 9 3 7 4 8 5 6 6 4 7 5 8 72 9 71 10 73 11 66 12
REMARK SMILES IDX 70 13 67 14 69 15 68 16 3 17 2 18 1 19 74 20 75 22 76 23
REMARK SMILES IDX 80 24 77 25 79 26 78 27 81 28 89 29 82 30 83 31 88 32 90 33
REMARK SMILES IDX 84 34 87 35 85 36 86 37 12 38 13 39 14 40 15 41 16 42 17 43
REMARK SMILES IDX 18 44 19 45 65 46 20 47 64 48 21 49 22 50 23 51 58 52 24 53
REMARK SMILES IDX 63 54 57 55 59 56 25 57 62 58 56 59 55 60 26 62 48 63 33 64
REMARK SMILES IDX 47 65 34 66 37 67 46 68 60 69 35 70 36 71 45 73 61 74 38 75
REMARK SMILES IDX 27 76 28 77 32 78 29 79 31 80 30 81 49 82 50 83 54 84 51 85
REMARK SMILES IDX 53 86 52 87 39 88 40 89 44 90 41 91 43 92 42 93
REMARK H PARENT 74 21 59 61 37 72
REMARK Flexibility Score: inf
ROOT
ATOM      1  C   UNL A   1      44.926  19.746  24.549  1.00  0.00     0.202 C 
ENDROOT
BRANCH   1   2
ATOM      2  C   UNL A   1      43.788  18.859  25.056  1.00  0.00     0.261 C 
BRANCH   2   3
ATOM      3  O   UNL A   1      42.651  19.702  25.287  1.00  0.00    -0.458 OA
BRANCH   3   4
ATOM      4  C   UNL A   1      41.964  19.480  26.422  1.00  0.00     0.359 C 
ATOM      5  O   UNL A   1      42.221  18.725  27.338  1.00  0.00    -0.244 OA
BRANCH   4   6
ATOM      6  C   UNL A   1      40.897  20.556  26.491  1.00  0.00     0.176 A 
ATOM      7  N   UNL A   1      38.930  21.448  25.677  1.00  0.00    -0.219 N 
ATOM      8  N   UNL A   1      39.824  20.399  25.768  1.00  0.00    -0.161 NA
ATOM      9  C   UNL A   1      39.167  22.706  26.237  1.00  0.00     0.275 A 
ATOM     10  C   UNL A   1      40.297  22.814  27.175  1.00  0.00     0.051 A 
ATOM     11  O   UNL A   1      38.465  23.687  26.017  1.00  0.00    -0.267 OA
ATOM     12  C   UNL A   1      41.185  21.753  27.296  1.00  0.00     0.022 A 
ATOM     13  C   UNL A   1      40.487  23.979  27.930  1.00  0.00     0.014 A 
ATOM     14  C   UNL A   1      42.297  21.865  28.143  1.00  0.00     0.011 A 
ATOM     15  C   UNL A   1      41.585  24.084  28.785  1.00  0.00     0.001 A 
ATOM     16  C   UNL A   1      42.494  23.032  28.883  1.00  0.00     0.001 A 
BRANCH   7  17
ATOM     17  C   UNL A   1      37.838  21.305  24.692  1.00  0.00     0.248 C 
BRANCH  17  18
ATOM     18  C   UNL A   1      36.551  20.687  25.267  1.00  0.00     0.246 C 
ATOM     19  O   UNL A   1      36.281  19.495  25.145  1.00  0.00    -0.273 OA
ATOM     20  N   UNL A   1      35.824  21.569  26.037  1.00  0.00    -0.324 N 
ATOM     21  H   UNL A   1      36.303  22.298  26.495  1.00  0.00     0.169 HD
BRANCH  20  22
ATOM     22  C   UNL A   1      34.434  21.478  26.200  1.00  0.00     0.042 A 
ATOM     23  C   UNL A   1      33.881  21.760  27.453  1.00  0.00     0.027 A 
ATOM     24  C   UNL A   1      33.669  21.605  25.042  1.00  0.00     0.039 A 
ATOM     25  C   UNL A   1      32.600  22.316  27.534  1.00  0.00     0.015 A 
ATOM     26  C   UNL A   1      32.424  22.214  25.120  1.00  0.00     0.036 A 
ATOM     27  C   UNL A   1      31.923  22.631  26.352  1.00  0.00     0.034 A 
ATOM     28  C   UNL A   1      31.820  22.708  23.872  1.00  0.00     0.194 C 
ATOM     29  C   UNL A   1      30.861  23.664  26.368  1.00  0.00     0.194 C 
ATOM     30  O   UNL A   1      31.928  22.106  22.814  1.00  0.00    -0.289 OA
ATOM     31  C   UNL A   1      31.242  24.058  23.943  1.00  0.00     0.034 A 
ATOM     32  C   UNL A   1      30.792  24.539  25.173  1.00  0.00     0.034 A 
ATOM     33  O   UNL A   1      30.181  23.875  27.361  1.00  0.00    -0.289 OA
ATOM     34  C   UNL A   1      31.316  24.894  22.826  1.00  0.00     0.013 A 
ATOM     35  C   UNL A   1      30.424  25.880  25.300  1.00  0.00     0.013 A 
ATOM     36  C   UNL A   1      30.981  26.239  22.963  1.00  0.00     0.001 A 
ATOM     37  C   UNL A   1      30.541  26.731  24.196  1.00  0.00     0.001 A 
ENDBRANCH  20  22
ENDBRANCH  17  18
ENDBRANCH   7  17
ENDBRANCH   4   6
ENDBRANCH   3   4
ENDBRANCH   2   3
ENDBRANCH   1   2
BRANCH   1  38
ATOM     38  O   UNL A   1      44.437  20.864  23.797  1.00  0.00    -0.374 OA
BRANCH  38  39
ATOM     39  C   UNL A   1      44.916  22.152  24.203  1.00  0.00     0.202 C 
BRANCH  39  40
ATOM     40  C   UNL A   1      43.927  22.917  25.087  1.00  0.00     0.261 C 
BRANCH  40  41
ATOM     41  O   UNL A   1      43.745  24.246  24.567  1.00  0.00    -0.460 OA
BRANCH  41  42
ATOM     42  C   UNL A   1      44.597  25.190  25.032  1.00  0.00     0.338 C 
ATOM     43  O   UNL A   1      45.692  25.475  24.579  1.00  0.00    -0.246 OA
BRANCH  42  44
ATOM     44  C   UNL A   1      43.935  25.967  26.108  1.00  0.00     0.060 A 
ATOM     45  C   UNL A   1      42.588  26.346  26.041  1.00  0.00     0.016 A 
ATOM     46  C   UNL A   1      44.709  26.326  27.217  1.00  0.00     0.016 A 
ATOM     47  C   UNL A   1      42.017  27.064  27.097  1.00  0.00     0.010 A 
ATOM     48  C   UNL A   1      44.139  27.047  28.267  1.00  0.00     0.010 A 
ATOM     49  C   UNL A   1      42.785  27.407  28.220  1.00  0.00    -0.014 A 
BRANCH  49  50
ATOM     50  C   UNL A   1      42.150  28.019  29.406  1.00  0.00     0.031 A 
ATOM     51  C   UNL A   1      42.725  27.853  30.778  1.00  0.00     0.074 A 
ATOM     52  C   UNL A   1      41.005  28.704  29.233  1.00  0.00     0.049 A 
ATOM     53  N   UNL A   1      42.313  28.376  31.906  1.00  0.00    -0.248 NA
ATOM     54  C   UNL A   1      43.906  26.989  30.907  1.00  0.00     0.031 C 
ATOM     55  C   UNL A   1      40.332  28.905  27.948  1.00  0.00     0.029 A 
ATOM     56  N   UNL A   1      40.205  29.350  30.139  1.00  0.00    -0.354 N 
ATOM     57  C   UNL A   1      43.193  27.923  32.877  1.00  0.00     0.074 A 
ATOM     58  C   UNL A   1      44.142  27.053  32.212  1.00  0.00     0.031 C 
ATOM     59  C   UNL A   1      39.222  29.631  28.148  1.00  0.00     0.029 A 
ATOM     60  C   UNL A   1      39.105  29.942  29.570  1.00  0.00     0.049 A 
ATOM     61  H   UNL A   1      40.400  29.387  31.102  1.00  0.00     0.167 HD
ATOM     62  C   UNL A   1      43.213  28.216  34.199  1.00  0.00     0.031 A 
ATOM     63  C   UNL A   1      38.117  30.664  30.127  1.00  0.00     0.031 A 
ATOM     64  C   UNL A   1      42.256  29.062  34.865  1.00  0.00     0.049 A 
ATOM     65  C   UNL A   1      38.145  30.949  31.598  1.00  0.00     0.074 A 
ATOM     66  C   UNL A   1      42.232  29.456  36.192  1.00  0.00     0.029 A 
ATOM     67  N   UNL A   1      41.147  29.628  34.259  1.00  0.00    -0.354 N 
ATOM     68  N   UNL A   1      39.032  30.583  32.488  1.00  0.00    -0.248 NA
ATOM     69  C   UNL A   1      37.046  31.764  32.136  1.00  0.00     0.031 C 
ATOM     70  C   UNL A   1      41.087  30.234  36.397  1.00  0.00     0.029 A 
ATOM     71  C   UNL A   1      40.418  30.350  35.190  1.00  0.00     0.049 A 
ATOM     72  H   UNL A   1      40.912  29.532  33.308  1.00  0.00     0.167 HD
ATOM     73  C   UNL A   1      38.614  31.140  33.688  1.00  0.00     0.074 A 
ATOM     74  C   UNL A   1      37.393  31.868  33.412  1.00  0.00     0.031 C 
ATOM     75  C   UNL A   1      39.200  31.062  34.906  1.00  0.00     0.031 A 
BRANCH  62  76
ATOM     76  C   UNL A   1      44.316  27.623  35.024  1.00  0.00    -0.014 A 
ATOM     77  C   UNL A   1      44.167  26.347  35.587  1.00  0.00     0.009 A 
ATOM     78  C   UNL A   1      45.474  28.364  35.305  1.00  0.00     0.009 A 
ATOM     79  C   UNL A   1      45.159  25.822  36.416  1.00  0.00     0.001 A 
ATOM     80  C   UNL A   1      46.471  27.830  36.123  1.00  0.00     0.001 A 
ATOM     81  C   UNL A   1      46.311  26.562  36.681  1.00  0.00     0.000 A 
ENDBRANCH  62  76
BRANCH  63  82
ATOM     82  C   UNL A   1      37.045  31.208  29.263  1.00  0.00    -0.014 A 
ATOM     83  C   UNL A   1      37.088  32.542  28.828  1.00  0.00     0.009 A 
ATOM     84  C   UNL A   1      35.947  30.409  28.916  1.00  0.00     0.009 A 
ATOM     85  C   UNL A   1      36.044  33.067  28.066  1.00  0.00     0.001 A 
ATOM     86  C   UNL A   1      34.911  30.933  28.142  1.00  0.00     0.001 A 
ATOM     87  C   UNL A   1      34.958  32.262  27.722  1.00  0.00     0.000 A 
ENDBRANCH  63  82
BRANCH  75  88
ATOM     88  C   UNL A   1      38.539  31.795  36.035  1.00  0.00    -0.014 A 
ATOM     89  C   UNL A   1      38.545  33.199  36.052  1.00  0.00     0.009 A 
ATOM     90  C   UNL A   1      37.960  31.099  37.105  1.00  0.00     0.009 A 
ATOM     91  C   UNL A   1      37.980  33.894  37.121  1.00  0.00     0.001 A 
ATOM     92  C   UNL A   1      37.383  31.798  38.167  1.00  0.00     0.001 A 
ATOM     93  C   UNL A   1      37.397  33.192  38.177  1.00  0.00     0.000 A 
ENDBRANCH  75  88
ENDBRANCH  49  50
ENDBRANCH  42  44
ENDBRANCH  41  42
ENDBRANCH  40  41
ENDBRANCH  39  40
ENDBRANCH  38  39
ENDBRANCH   1  38
TORSDOF 17
ENDMDL
