MODEL 1
REMARK VINA RESULT:      -8.3      0.000      0.000
REMARK SMILES C[C@H](Cc1ccc(N)cc1)C(=O)OCCOCCOC(=O)c1ccc(-c2c3nc(c(-c4ccccc4)c4ccc([nH]4)c(-c4ccccc4)c4nc(c(-c5ccccc5)c5ccc2[nH]5)C=C4)C=C3)cc1
REMARK SMILES IDX 15 1 14 2 13 3 11 4 12 5 2 6 1 7 3 8 4 9 5 10 10 11 6 12
REMARK SMILES IDX 9 13 7 14 8 15 16 18 17 19 18 20 19 21 20 22 21 23 22 24
REMARK SMILES IDX 23 25 69 26 24 27 68 28 25 29 26 30 27 31 62 32 28 33 67 34
REMARK SMILES IDX 61 35 63 36 29 37 66 38 60 39 59 40 30 42 52 43 37 44 51 45
REMARK SMILES IDX 38 46 41 47 50 48 64 49 39 50 40 51 49 53 65 54 42 55 31 56
REMARK SMILES IDX 32 57 36 58 33 59 35 60 34 61 53 62 54 63 58 64 55 65 57 66
REMARK SMILES IDX 56 67 43 68 44 69 48 70 45 71 47 72 46 73
REMARK H PARENT 8 16 8 17 63 41 41 52
REMARK Flexibility Score: inf
ROOT
ATOM      1  C   UNL A   1      46.400  21.793  24.390  1.00  0.00     0.202 C 
ENDROOT
BRANCH   1   2
ATOM      2  C   UNL A   1      45.823  23.209  24.475  1.00  0.00     0.261 C 
BRANCH   2   3
ATOM      3  O   UNL A   1      46.791  24.150  24.965  1.00  0.00    -0.463 OA
BRANCH   3   4
ATOM      4  C   UNL A   1      46.338  25.419  25.136  1.00  0.00     0.309 C 
ATOM      5  O   UNL A   1      45.155  25.737  25.182  1.00  0.00    -0.252 OA
BRANCH   4   6
ATOM      6  C   UNL A   1      47.456  26.444  25.238  1.00  0.00     0.100 C 
ATOM      7  C   UNL A   1      46.862  27.673  25.930  1.00  0.00     0.020 C 
BRANCH   6   8
ATOM      8  C   UNL A   1      48.243  26.689  23.922  1.00  0.00     0.050 C 
BRANCH   8   9
ATOM      9  C   UNL A   1      49.733  26.807  24.111  1.00  0.00    -0.047 A 
ATOM     10  C   UNL A   1      50.359  26.099  25.142  1.00  0.00     0.006 A 
ATOM     11  C   UNL A   1      50.519  27.502  23.185  1.00  0.00     0.006 A 
ATOM     12  C   UNL A   1      51.750  25.990  25.173  1.00  0.00     0.026 A 
ATOM     13  C   UNL A   1      51.910  27.393  23.230  1.00  0.00     0.026 A 
ATOM     14  C   UNL A   1      52.530  26.574  24.175  1.00  0.00     0.031 A 
BRANCH  14  15
ATOM     15  N   UNL A   1      53.910  26.437  24.193  1.00  0.00    -0.399 N 
ATOM     16  H   UNL A   1      54.329  25.746  24.756  1.00  0.00     0.156 HD
ATOM     17  H   UNL A   1      54.471  27.030  23.643  1.00  0.00     0.156 HD
ENDBRANCH  14  15
ENDBRANCH   8   9
ENDBRANCH   6   8
ENDBRANCH   4   6
ENDBRANCH   3   4
ENDBRANCH   2   3
ENDBRANCH   1   2
BRANCH   1  18
ATOM     18  O   UNL A   1      45.986  20.874  25.398  1.00  0.00    -0.374 OA
BRANCH  18  19
ATOM     19  C   UNL A   1      45.804  19.510  25.014  1.00  0.00     0.202 C 
BRANCH  19  20
ATOM     20  C   UNL A   1      44.427  18.898  25.296  1.00  0.00     0.261 C 
BRANCH  20  21
ATOM     21  O   UNL A   1      43.359  19.744  24.828  1.00  0.00    -0.460 OA
BRANCH  21  22
ATOM     22  C   UNL A   1      42.290  19.824  25.653  1.00  0.00     0.338 C 
ATOM     23  O   UNL A   1      41.508  18.929  25.947  1.00  0.00    -0.246 OA
BRANCH  22  24
ATOM     24  C   UNL A   1      42.276  21.133  26.329  1.00  0.00     0.060 A 
ATOM     25  C   UNL A   1      42.486  22.274  25.542  1.00  0.00     0.016 A 
ATOM     26  C   UNL A   1      42.137  21.239  27.713  1.00  0.00     0.016 A 
ATOM     27  C   UNL A   1      42.606  23.525  26.143  1.00  0.00     0.010 A 
ATOM     28  C   UNL A   1      42.269  22.493  28.316  1.00  0.00     0.010 A 
ATOM     29  C   UNL A   1      42.538  23.635  27.537  1.00  0.00    -0.014 A 
BRANCH  29  30
ATOM     30  C   UNL A   1      42.901  24.908  28.201  1.00  0.00     0.031 A 
ATOM     31  C   UNL A   1      41.831  25.937  28.431  1.00  0.00     0.074 A 
ATOM     32  C   UNL A   1      44.168  25.154  28.575  1.00  0.00     0.049 A 
ATOM     33  N   UNL A   1      41.939  27.156  28.891  1.00  0.00    -0.248 NA
ATOM     34  C   UNL A   1      40.457  25.537  28.088  1.00  0.00     0.031 C 
ATOM     35  C   UNL A   1      45.286  24.221  28.445  1.00  0.00     0.029 A 
ATOM     36  N   UNL A   1      44.728  26.282  29.121  1.00  0.00    -0.354 N 
ATOM     37  C   UNL A   1      40.652  27.678  28.870  1.00  0.00     0.074 A 
ATOM     38  C   UNL A   1      39.784  26.650  28.340  1.00  0.00     0.031 C 
ATOM     39  C   UNL A   1      46.407  24.827  28.872  1.00  0.00     0.029 A 
ATOM     40  C   UNL A   1      46.090  26.198  29.267  1.00  0.00     0.049 A 
ATOM     41  H   UNL A   1      44.203  27.073  29.383  1.00  0.00     0.167 HD
ATOM     42  C   UNL A   1      40.231  28.907  29.255  1.00  0.00     0.031 A 
ATOM     43  C   UNL A   1      46.984  27.135  29.638  1.00  0.00     0.031 A 
ATOM     44  C   UNL A   1      41.097  29.932  29.771  1.00  0.00     0.049 A 
ATOM     45  C   UNL A   1      46.508  28.515  29.998  1.00  0.00     0.074 A 
ATOM     46  C   UNL A   1      40.764  31.197  30.220  1.00  0.00     0.029 A 
ATOM     47  N   UNL A   1      42.474  29.811  29.893  1.00  0.00    -0.354 N 
ATOM     48  N   UNL A   1      45.285  28.989  30.007  1.00  0.00    -0.248 NA
ATOM     49  C   UNL A   1      47.533  29.489  30.399  1.00  0.00     0.031 C 
ATOM     50  C   UNL A   1      41.946  31.864  30.559  1.00  0.00     0.029 A 
ATOM     51  C   UNL A   1      43.009  30.992  30.377  1.00  0.00     0.049 A 
ATOM     52  H   UNL A   1      42.992  29.005  29.668  1.00  0.00     0.167 HD
ATOM     53  C   UNL A   1      45.391  30.306  30.440  1.00  0.00     0.074 A 
ATOM     54  C   UNL A   1      46.796  30.553  30.688  1.00  0.00     0.031 C 
ATOM     55  C   UNL A   1      44.410  31.224  30.618  1.00  0.00     0.031 A 
BRANCH  42  56
ATOM     56  C   UNL A   1      38.772  29.221  29.079  1.00  0.00    -0.014 A 
ATOM     57  C   UNL A   1      37.854  29.063  30.128  1.00  0.00     0.009 A 
ATOM     58  C   UNL A   1      38.313  29.693  27.839  1.00  0.00     0.009 A 
ATOM     59  C   UNL A   1      36.499  29.332  29.927  1.00  0.00     0.001 A 
ATOM     60  C   UNL A   1      36.963  29.989  27.649  1.00  0.00     0.001 A 
ATOM     61  C   UNL A   1      36.054  29.797  28.689  1.00  0.00     0.000 A 
ENDBRANCH  42  56
BRANCH  43  62
ATOM     62  C   UNL A   1      48.432  26.800  29.647  1.00  0.00    -0.014 A 
ATOM     63  C   UNL A   1      49.258  27.156  28.571  1.00  0.00     0.009 A 
ATOM     64  C   UNL A   1      48.996  26.133  30.745  1.00  0.00     0.009 A 
ATOM     65  C   UNL A   1      50.619  26.841  28.592  1.00  0.00     0.001 A 
ATOM     66  C   UNL A   1      50.360  25.841  30.775  1.00  0.00     0.001 A 
ATOM     67  C   UNL A   1      51.170  26.190  29.696  1.00  0.00     0.000 A 
ENDBRANCH  43  62
BRANCH  55  68
ATOM     68  C   UNL A   1      44.809  32.576  31.140  1.00  0.00    -0.014 A 
ATOM     69  C   UNL A   1      45.108  33.634  30.270  1.00  0.00     0.009 A 
ATOM     70  C   UNL A   1      44.811  32.810  32.525  1.00  0.00     0.009 A 
ATOM     71  C   UNL A   1      45.421  34.898  30.778  1.00  0.00     0.001 A 
ATOM     72  C   UNL A   1      45.099  34.079  33.028  1.00  0.00     0.001 A 
ATOM     73  C   UNL A   1      45.408  35.121  32.154  1.00  0.00     0.000 A 
ENDBRANCH  55  68
ENDBRANCH  29  30
ENDBRANCH  22  24
ENDBRANCH  21  22
ENDBRANCH  20  21
ENDBRANCH  19  20
ENDBRANCH  18  19
ENDBRANCH   1  18
TORSDOF 17
ENDMDL
MODEL 2
REMARK VINA RESULT:      -8.1      4.373      9.638
REMARK SMILES C[C@H](Cc1ccc(N)cc1)C(=O)OCCOCCOC(=O)c1ccc(-c2c3nc(c(-c4ccccc4)c4ccc([nH]4)c(-c4ccccc4)c4nc(c(-c5ccccc5)c5ccc2[nH]5)C=C4)C=C3)cc1
REMARK SMILES IDX 15 1 14 2 13 3 11 4 12 5 2 6 1 7 3 8 4 9 5 10 10 11 6 12
REMARK SMILES IDX 9 13 7 14 8 15 16 18 17 19 18 20 19 21 20 22 21 23 22 24
REMARK SMILES IDX 23 25 69 26 24 27 68 28 25 29 26 30 27 31 62 32 28 33 67 34
REMARK SMILES IDX 61 35 63 36 29 37 66 38 60 39 59 40 30 42 52 43 37 44 51 45
REMARK SMILES IDX 38 46 41 47 50 48 64 49 39 50 40 51 49 53 65 54 42 55 31 56
REMARK SMILES IDX 32 57 36 58 33 59 35 60 34 61 53 62 54 63 58 64 55 65 57 66
REMARK SMILES IDX 56 67 43 68 44 69 48 70 45 71 47 72 46 73
REMARK H PARENT 8 16 8 17 63 41 41 52
REMARK Flexibility Score: inf
ROOT
ATOM      1  C   UNL A   1      41.768  19.543  26.205  1.00  0.00     0.202 C 
ENDROOT
BRANCH   1   2
ATOM      2  C   UNL A   1      40.930  20.814  26.372  1.00  0.00     0.261 C 
BRANCH   2   3
ATOM      3  O   UNL A   1      39.533  20.565  26.148  1.00  0.00    -0.463 OA
BRANCH   3   4
ATOM      4  C   UNL A   1      38.784  21.659  25.853  1.00  0.00     0.309 C 
ATOM      5  O   UNL A   1      39.097  22.812  26.126  1.00  0.00    -0.252 OA
BRANCH   4   6
ATOM      6  C   UNL A   1      37.474  21.318  25.163  1.00  0.00     0.100 C 
ATOM      7  C   UNL A   1      37.585  19.860  24.708  1.00  0.00     0.020 C 
BRANCH   6   8
ATOM      8  C   UNL A   1      37.001  22.351  24.104  1.00  0.00     0.050 C 
BRANCH   8   9
ATOM      9  C   UNL A   1      35.735  23.076  24.478  1.00  0.00    -0.047 A 
ATOM     10  C   UNL A   1      35.407  23.249  25.827  1.00  0.00     0.006 A 
ATOM     11  C   UNL A   1      34.954  23.703  23.501  1.00  0.00     0.006 A 
ATOM     12  C   UNL A   1      34.389  24.130  26.193  1.00  0.00     0.026 A 
ATOM     13  C   UNL A   1      33.932  24.576  23.877  1.00  0.00     0.026 A 
ATOM     14  C   UNL A   1      33.696  24.856  25.225  1.00  0.00     0.031 A 
BRANCH  14  15
ATOM     15  N   UNL A   1      32.706  25.755  25.595  1.00  0.00    -0.399 N 
ATOM     16  H   UNL A   1      31.874  25.427  26.007  1.00  0.00     0.156 HD
ATOM     17  H   UNL A   1      32.835  26.719  25.445  1.00  0.00     0.156 HD
ENDBRANCH  14  15
ENDBRANCH   8   9
ENDBRANCH   6   8
ENDBRANCH   4   6
ENDBRANCH   3   4
ENDBRANCH   2   3
ENDBRANCH   1   2
BRANCH   1  18
ATOM     18  O   UNL A   1      43.184  19.702  26.255  1.00  0.00    -0.374 OA
BRANCH  18  19
ATOM     19  C   UNL A   1      43.862  19.971  25.027  1.00  0.00     0.202 C 
BRANCH  19  20
ATOM     20  C   UNL A   1      44.544  21.338  24.907  1.00  0.00     0.261 C 
BRANCH  20  21
ATOM     21  O   UNL A   1      43.788  22.374  25.562  1.00  0.00    -0.460 OA
BRANCH  21  22
ATOM     22  C   UNL A   1      44.117  23.636  25.203  1.00  0.00     0.338 C 
ATOM     23  O   UNL A   1      44.774  23.985  24.231  1.00  0.00    -0.246 OA
BRANCH  22  24
ATOM     24  C   UNL A   1      43.411  24.602  26.063  1.00  0.00     0.060 A 
ATOM     25  C   UNL A   1      43.857  25.931  26.050  1.00  0.00     0.016 A 
ATOM     26  C   UNL A   1      42.386  24.203  26.920  1.00  0.00     0.016 A 
ATOM     27  C   UNL A   1      43.309  26.860  26.932  1.00  0.00     0.010 A 
ATOM     28  C   UNL A   1      41.845  25.134  27.813  1.00  0.00     0.010 A 
ATOM     29  C   UNL A   1      42.329  26.455  27.846  1.00  0.00    -0.014 A 
BRANCH  29  30
ATOM     30  C   UNL A   1      41.914  27.361  28.941  1.00  0.00     0.031 A 
ATOM     31  C   UNL A   1      42.660  27.313  30.244  1.00  0.00     0.074 A 
ATOM     32  C   UNL A   1      40.876  28.199  28.788  1.00  0.00     0.049 A 
ATOM     33  N   UNL A   1      42.406  27.930  31.369  1.00  0.00    -0.248 NA
ATOM     34  C   UNL A   1      43.848  26.445  30.284  1.00  0.00     0.031 C 
ATOM     35  C   UNL A   1      40.099  28.369  27.560  1.00  0.00     0.029 A 
ATOM     36  N   UNL A   1      40.281  29.049  29.687  1.00  0.00    -0.354 N 
ATOM     37  C   UNL A   1      43.387  27.508  32.257  1.00  0.00     0.074 A 
ATOM     38  C   UNL A   1      44.230  26.572  31.546  1.00  0.00     0.031 C 
ATOM     39  C   UNL A   1      39.109  29.248  27.793  1.00  0.00     0.029 A 
ATOM     40  C   UNL A   1      39.161  29.670  29.192  1.00  0.00     0.049 A 
ATOM     41  H   UNL A   1      40.626  29.199  30.597  1.00  0.00     0.167 HD
ATOM     42  C   UNL A   1      43.566  27.864  33.551  1.00  0.00     0.031 A 
ATOM     43  C   UNL A   1      38.259  30.457  29.809  1.00  0.00     0.031 A 
ATOM     44  C   UNL A   1      42.719  28.785  34.260  1.00  0.00     0.049 A 
ATOM     45  C   UNL A   1      38.436  30.789  31.265  1.00  0.00     0.074 A 
ATOM     46  C   UNL A   1      42.836  29.238  35.561  1.00  0.00     0.029 A 
ATOM     47  N   UNL A   1      41.588  29.385  33.726  1.00  0.00    -0.354 N 
ATOM     48  N   UNL A   1      39.385  30.411  32.088  1.00  0.00    -0.248 NA
ATOM     49  C   UNL A   1      37.419  31.656  31.878  1.00  0.00     0.031 C 
ATOM     50  C   UNL A   1      41.742  30.066  35.835  1.00  0.00     0.029 A 
ATOM     51  C   UNL A   1      40.977  30.175  34.684  1.00  0.00     0.049 A 
ATOM     52  H   UNL A   1      41.268  29.265  32.803  1.00  0.00     0.167 HD
ATOM     53  C   UNL A   1      39.095  31.015  33.306  1.00  0.00     0.074 A 
ATOM     54  C   UNL A   1      37.885  31.788  33.113  1.00  0.00     0.031 C 
ATOM     55  C   UNL A   1      39.773  30.938  34.477  1.00  0.00     0.031 A 
BRANCH  42  56
ATOM     56  C   UNL A   1      44.695  27.209  34.295  1.00  0.00    -0.014 A 
ATOM     57  C   UNL A   1      44.601  25.889  34.762  1.00  0.00     0.009 A 
ATOM     58  C   UNL A   1      45.880  27.927  34.523  1.00  0.00     0.009 A 
ATOM     59  C   UNL A   1      45.654  25.316  35.477  1.00  0.00     0.001 A 
ATOM     60  C   UNL A   1      46.942  27.343  35.212  1.00  0.00     0.001 A 
ATOM     61  C   UNL A   1      46.825  26.042  35.700  1.00  0.00     0.000 A 
ENDBRANCH  42  56
BRANCH  43  62
ATOM     62  C   UNL A   1      37.081  30.950  29.050  1.00  0.00    -0.014 A 
ATOM     63  C   UNL A   1      36.027  30.086  28.717  1.00  0.00     0.009 A 
ATOM     64  C   UNL A   1      37.000  32.299  28.670  1.00  0.00     0.009 A 
ATOM     65  C   UNL A   1      34.921  30.562  28.008  1.00  0.00     0.001 A 
ATOM     66  C   UNL A   1      35.883  32.777  27.983  1.00  0.00     0.001 A 
ATOM     67  C   UNL A   1      34.847  31.907  27.648  1.00  0.00     0.000 A 
ENDBRANCH  43  62
BRANCH  55  68
ATOM     68  C   UNL A   1      39.249  31.735  35.638  1.00  0.00    -0.014 A 
ATOM     69  C   UNL A   1      39.669  33.054  35.866  1.00  0.00     0.009 A 
ATOM     70  C   UNL A   1      38.264  31.180  36.470  1.00  0.00     0.009 A 
ATOM     71  C   UNL A   1      39.126  33.795  36.918  1.00  0.00     0.001 A 
ATOM     72  C   UNL A   1      37.704  31.931  37.505  1.00  0.00     0.001 A 
ATOM     73  C   UNL A   1      38.139  33.236  37.731  1.00  0.00     0.000 A 
ENDBRANCH  55  68
ENDBRANCH  29  30
ENDBRANCH  22  24
ENDBRANCH  21  22
ENDBRANCH  20  21
ENDBRANCH  19  20
ENDBRANCH  18  19
ENDBRANCH   1  18
TORSDOF 17
ENDMDL
MODEL 3
REMARK VINA RESULT:      -8.0      6.172     11.355
REMARK SMILES C[C@H](Cc1ccc(N)cc1)C(=O)OCCOCCOC(=O)c1ccc(-c2c3nc(c(-c4ccccc4)c4ccc([nH]4)c(-c4ccccc4)c4nc(c(-c5ccccc5)c5ccc2[nH]5)C=C4)C=C3)cc1
REMARK SMILES IDX 15 1 14 2 13 3 11 4 12 5 2 6 1 7 3 8 4 9 5 10 10 11 6 12
REMARK SMILES IDX 9 13 7 14 8 15 16 18 17 19 18 20 19 21 20 22 21 23 22 24
REMARK SMILES IDX 23 25 69 26 24 27 68 28 25 29 26 30 27 31 62 32 28 33 67 34
REMARK SMILES IDX 61 35 63 36 29 37 66 38 60 39 59 40 30 42 52 43 37 44 51 45
REMARK SMILES IDX 38 46 41 47 50 48 64 49 39 50 40 51 49 53 65 54 42 55 31 56
REMARK SMILES IDX 32 57 36 58 33 59 35 60 34 61 53 62 54 63 58 64 55 65 57 66
REMARK SMILES IDX 56 67 43 68 44 69 48 70 45 71 47 72 46 73
REMARK H PARENT 8 16 8 17 63 41 41 52
REMARK Flexibility Score: inf
ROOT
ATOM      1  C   UNL A   1      33.209  29.576  25.836  1.00  0.00     0.202 C 
ENDROOT
BRANCH   1   2
ATOM      2  C   UNL A   1      32.616  28.320  25.190  1.00  0.00     0.261 C 
BRANCH   2   3
ATOM      3  O   UNL A   1      33.640  27.438  24.703  1.00  0.00    -0.463 OA
BRANCH   3   4
ATOM      4  C   UNL A   1      33.817  27.436  23.356  1.00  0.00     0.309 C 
ATOM      5  O   UNL A   1      34.012  28.438  22.677  1.00  0.00    -0.252 OA
BRANCH   4   6
ATOM      6  C   UNL A   1      33.717  26.050  22.742  1.00  0.00     0.100 C 
ATOM      7  C   UNL A   1      32.844  26.185  21.493  1.00  0.00     0.020 C 
BRANCH   6   8
ATOM      8  C   UNL A   1      33.351  24.915  23.738  1.00  0.00     0.050 C 
BRANCH   8   9
ATOM      9  C   UNL A   1      34.532  24.114  24.219  1.00  0.00    -0.047 A 
ATOM     10  C   UNL A   1      35.059  23.102  23.409  1.00  0.00     0.006 A 
ATOM     11  C   UNL A   1      35.198  24.459  25.399  1.00  0.00     0.006 A 
ATOM     12  C   UNL A   1      36.295  22.532  23.716  1.00  0.00     0.026 A 
ATOM     13  C   UNL A   1      36.430  23.877  25.702  1.00  0.00     0.026 A 
ATOM     14  C   UNL A   1      37.023  22.968  24.822  1.00  0.00     0.031 A 
BRANCH  14  15
ATOM     15  N   UNL A   1      38.266  22.420  25.106  1.00  0.00    -0.399 N 
ATOM     16  H   UNL A   1      38.831  22.081  24.376  1.00  0.00     0.156 HD
ATOM     17  H   UNL A   1      38.580  22.370  26.037  1.00  0.00     0.156 HD
ENDBRANCH  14  15
ENDBRANCH   8   9
ENDBRANCH   6   8
ENDBRANCH   4   6
ENDBRANCH   3   4
ENDBRANCH   2   3
ENDBRANCH   1   2
BRANCH   1  18
ATOM     18  O   UNL A   1      32.424  30.203  26.848  1.00  0.00    -0.374 OA
BRANCH  18  19
ATOM     19  C   UNL A   1      31.479  31.190  26.433  1.00  0.00     0.202 C 
BRANCH  19  20
ATOM     20  C   UNL A   1      31.673  32.603  26.996  1.00  0.00     0.261 C 
BRANCH  20  21
ATOM     21  O   UNL A   1      33.055  32.872  27.301  1.00  0.00    -0.460 OA
BRANCH  21  22
ATOM     22  C   UNL A   1      33.257  33.835  28.230  1.00  0.00     0.338 C 
ATOM     23  O   UNL A   1      32.491  34.735  28.547  1.00  0.00    -0.246 OA
BRANCH  22  24
ATOM     24  C   UNL A   1      34.498  33.560  28.974  1.00  0.00     0.060 A 
ATOM     25  C   UNL A   1      35.686  34.129  28.493  1.00  0.00     0.016 A 
ATOM     26  C   UNL A   1      34.515  32.704  30.075  1.00  0.00     0.016 A 
ATOM     27  C   UNL A   1      36.905  33.804  29.083  1.00  0.00     0.010 A 
ATOM     28  C   UNL A   1      35.740  32.370  30.659  1.00  0.00     0.010 A 
ATOM     29  C   UNL A   1      36.942  32.891  30.143  1.00  0.00    -0.014 A 
BRANCH  29  30
ATOM     30  C   UNL A   1      38.238  32.355  30.619  1.00  0.00     0.031 A 
ATOM     31  C   UNL A   1      38.765  31.086  30.012  1.00  0.00     0.074 A 
ATOM     32  C   UNL A   1      38.926  32.976  31.591  1.00  0.00     0.049 A 
ATOM     33  N   UNL A   1      39.814  30.380  30.346  1.00  0.00    -0.248 NA
ATOM     34  C   UNL A   1      37.999  30.537  28.881  1.00  0.00     0.031 C 
ATOM     35  C   UNL A   1      38.542  34.234  32.229  1.00  0.00     0.029 A 
ATOM     36  N   UNL A   1      40.086  32.611  32.228  1.00  0.00    -0.354 N 
ATOM     37  C   UNL A   1      39.821  29.291  29.483  1.00  0.00     0.074 A 
ATOM     38  C   UNL A   1      38.666  29.422  28.622  1.00  0.00     0.031 C 
ATOM     39  C   UNL A   1      39.437  34.521  33.190  1.00  0.00     0.029 A 
ATOM     40  C   UNL A   1      40.430  33.451  33.258  1.00  0.00     0.049 A 
ATOM     41  H   UNL A   1      40.620  31.824  31.970  1.00  0.00     0.167 HD
ATOM     42  C   UNL A   1      40.709  28.271  29.417  1.00  0.00     0.031 A 
ATOM     43  C   UNL A   1      41.410  33.345  34.176  1.00  0.00     0.031 A 
ATOM     44  C   UNL A   1      41.850  28.136  30.282  1.00  0.00     0.049 A 
ATOM     45  C   UNL A   1      42.347  32.170  34.130  1.00  0.00     0.074 A 
ATOM     46  C   UNL A   1      42.828  27.158  30.273  1.00  0.00     0.029 A 
ATOM     47  N   UNL A   1      42.157  29.002  31.320  1.00  0.00    -0.354 N 
ATOM     48  N   UNL A   1      42.367  31.163  33.289  1.00  0.00    -0.248 NA
ATOM     49  C   UNL A   1      43.398  32.116  35.156  1.00  0.00     0.031 C 
ATOM     50  C   UNL A   1      43.694  27.399  31.344  1.00  0.00     0.029 A 
ATOM     51  C   UNL A   1      43.290  28.561  31.982  1.00  0.00     0.049 A 
ATOM     52  H   UNL A   1      41.645  29.811  31.551  1.00  0.00     0.167 HD
ATOM     53  C   UNL A   1      43.445  30.371  33.670  1.00  0.00     0.074 A 
ATOM     54  C   UNL A   1      44.057  31.019  34.811  1.00  0.00     0.031 C 
ATOM     55  C   UNL A   1      43.888  29.216  33.118  1.00  0.00     0.031 A 
BRANCH  42  56
ATOM     56  C   UNL A   1      40.444  27.192  28.404  1.00  0.00    -0.014 A 
ATOM     57  C   UNL A   1      39.643  26.081  28.706  1.00  0.00     0.009 A 
ATOM     58  C   UNL A   1      41.000  27.300  27.120  1.00  0.00     0.009 A 
ATOM     59  C   UNL A   1      39.439  25.078  27.756  1.00  0.00     0.001 A 
ATOM     60  C   UNL A   1      40.771  26.312  26.163  1.00  0.00     0.001 A 
ATOM     61  C   UNL A   1      40.001  25.195  26.484  1.00  0.00     0.000 A 
ENDBRANCH  42  56
BRANCH  43  62
ATOM     62  C   UNL A   1      41.524  34.372  35.244  1.00  0.00    -0.014 A 
ATOM     63  C   UNL A   1      42.335  35.503  35.071  1.00  0.00     0.009 A 
ATOM     64  C   UNL A   1      40.804  34.229  36.440  1.00  0.00     0.009 A 
ATOM     65  C   UNL A   1      42.431  36.464  36.080  1.00  0.00     0.001 A 
ATOM     66  C   UNL A   1      40.881  35.203  37.437  1.00  0.00     0.001 A 
ATOM     67  C   UNL A   1      41.699  36.317  37.258  1.00  0.00     0.000 A 
ENDBRANCH  43  62
BRANCH  55  68
ATOM     68  C   UNL A   1      45.115  28.586  33.714  1.00  0.00    -0.014 A 
ATOM     69  C   UNL A   1      45.021  27.608  34.714  1.00  0.00     0.009 A 
ATOM     70  C   UNL A   1      46.381  28.925  33.209  1.00  0.00     0.009 A 
ATOM     71  C   UNL A   1      46.173  26.995  35.212  1.00  0.00     0.001 A 
ATOM     72  C   UNL A   1      47.528  28.294  33.691  1.00  0.00     0.001 A 
ATOM     73  C   UNL A   1      47.424  27.332  34.695  1.00  0.00     0.000 A 
ENDBRANCH  55  68
ENDBRANCH  29  30
ENDBRANCH  22  24
ENDBRANCH  21  22
ENDBRANCH  20  21
ENDBRANCH  19  20
ENDBRANCH  18  19
ENDBRANCH   1  18
TORSDOF 17
ENDMDL
