MODEL 1
REMARK VINA RESULT:     -11.2      0.000      0.000
REMARK SMILES N#CC1=C(N)N2C(=O)[C@@H](CC(=O)OCCOCCOC(=O)c3ccc(-c4c5nc(c(-c6ccccc6)c6ccc([nH]6)c(-c6ccccc6)c6nc(c(-c7ccccc7)c7ccc4[nH]7)C=C6)C=C5)cc3)SC2=C(C#N)[C@H]1c1ccc(Cl)cc1
REMARK SMILES IDX 16 1 15 2 14 3 13 4 11 5 12 6 10 7 9 8 3 9 4 10 75 11 6 12
REMARK SMILES IDX 72 13 7 14 71 15 8 16 70 17 2 18 1 19 5 20 76 23 77 24 82 25
REMARK SMILES IDX 78 26 81 27 79 28 80 29 73 30 74 31 17 32 18 33 19 34 20 35
REMARK SMILES IDX 21 36 22 37 23 38 69 39 24 40 68 41 25 42 26 43 27 44 62 45
REMARK SMILES IDX 28 46 67 47 61 48 63 49 29 50 66 51 60 52 59 53 30 55 52 56
REMARK SMILES IDX 37 57 51 58 38 59 41 60 50 61 64 62 39 63 40 64 49 66 65 67
REMARK SMILES IDX 42 68 31 69 32 70 36 71 33 72 35 73 34 74 53 75 54 76 58 77
REMARK SMILES IDX 55 78 57 79 56 80 43 81 44 82 48 83 45 84 47 85 46 86
REMARK H PARENT 5 21 5 22 63 54 41 65
REMARK Flexibility Score: inf
ROOT
ATOM      1  O   UNL A   1      39.656  21.812  26.880  1.00  0.00    -0.374 OA
ENDROOT
BRANCH   1   2
ATOM      2  C   UNL A   1      38.821  22.553  25.996  1.00  0.00     0.202 C 
BRANCH   2   3
ATOM      3  C   UNL A   1      37.412  21.996  25.732  1.00  0.00     0.261 C 
BRANCH   3   4
ATOM      4  O   UNL A   1      37.124  21.696  24.340  1.00  0.00    -0.463 OA
BRANCH   4   5
ATOM      5  C   UNL A   1      36.350  22.611  23.712  1.00  0.00     0.307 C 
ATOM      6  O   UNL A   1      36.721  23.274  22.746  1.00  0.00    -0.252 OA
BRANCH   5   7
ATOM      7  C   UNL A   1      34.894  22.660  24.119  1.00  0.00     0.147 C 
BRANCH   7   8
ATOM      8  C   UNL A   1      33.708  22.328  23.218  1.00  0.00     0.154 C 
ATOM      9  C   UNL A   1      31.198  26.367  23.183  1.00  0.00     0.083 C 
ATOM     10  C   UNL A   1      31.747  25.433  22.361  1.00  0.00     0.126 C 
ATOM     11  C   UNL A   1      31.007  26.109  24.675  1.00  0.00     0.107 C 
ATOM     12  N   UNL A   1      32.296  24.270  22.916  1.00  0.00    -0.258 N 
ATOM     13  C   UNL A   1      31.121  24.620  24.978  1.00  0.00     0.073 C 
ATOM     14  C   UNL A   1      33.187  23.397  22.261  1.00  0.00     0.247 C 
ATOM     15  C   UNL A   1      31.819  23.839  24.136  1.00  0.00     0.099 C 
ATOM     16  O   UNL A   1      33.517  23.449  21.080  1.00  0.00    -0.273 OA
ATOM     17  S   UNL A   1      32.257  22.175  24.393  1.00  0.00    -0.093 SA
BRANCH   9  18
ATOM     18  C   UNL A   1      30.525  27.599  22.598  1.00  0.00     0.100 C 
ATOM     19  N   UNL A   1      29.967  28.620  22.113  1.00  0.00    -0.193 NA
ENDBRANCH   9  18
BRANCH  10  20
ATOM     20  N   UNL A   1      31.810  25.612  21.006  1.00  0.00    -0.384 N 
ATOM     21  H   UNL A   1      31.229  25.083  20.412  1.00  0.00     0.158 HD
ATOM     22  H   UNL A   1      32.435  26.269  20.625  1.00  0.00     0.158 HD
ENDBRANCH  10  20
BRANCH  11  23
ATOM     23  C   UNL A   1      31.941  26.976  25.541  1.00  0.00    -0.034 A 
ATOM     24  C   UNL A   1      31.488  27.729  26.643  1.00  0.00     0.006 A 
ATOM     25  C   UNL A   1      33.311  27.059  25.219  1.00  0.00     0.006 A 
ATOM     26  C   UNL A   1      32.361  28.535  27.382  1.00  0.00     0.021 A 
ATOM     27  C   UNL A   1      34.188  27.841  25.977  1.00  0.00     0.021 A 
ATOM     28  C   UNL A   1      33.709  28.581  27.051  1.00  0.00     0.041 A 
ATOM     29  Cl  UNL A   1      34.783  29.563  27.966  1.00  0.00    -0.084 Cl
ENDBRANCH  11  23
BRANCH  13  30
ATOM     30  C   UNL A   1      30.544  24.124  26.180  1.00  0.00     0.098 C 
ATOM     31  N   UNL A   1      30.099  23.718  27.175  1.00  0.00    -0.193 NA
ENDBRANCH  13  30
ENDBRANCH   7   8
ENDBRANCH   5   7
ENDBRANCH   4   5
ENDBRANCH   3   4
ENDBRANCH   2   3
ENDBRANCH   1   2
BRANCH   1  32
ATOM     32  C   UNL A   1      40.830  21.235  26.324  1.00  0.00     0.202 C 
BRANCH  32  33
ATOM     33  C   UNL A   1      42.022  22.173  26.126  1.00  0.00     0.261 C 
BRANCH  33  34
ATOM     34  O   UNL A   1      41.959  23.341  26.967  1.00  0.00    -0.460 OA
BRANCH  34  35
ATOM     35  C   UNL A   1      42.047  24.530  26.321  1.00  0.00     0.338 C 
ATOM     36  O   UNL A   1      42.361  24.703  25.155  1.00  0.00    -0.246 OA
BRANCH  35  37
ATOM     37  C   UNL A   1      41.547  25.640  27.164  1.00  0.00     0.060 A 
ATOM     38  C   UNL A   1      42.278  26.833  27.176  1.00  0.00     0.016 A 
ATOM     39  C   UNL A   1      40.504  25.457  28.075  1.00  0.00     0.016 A 
ATOM     40  C   UNL A   1      41.993  27.825  28.119  1.00  0.00     0.010 A 
ATOM     41  C   UNL A   1      40.215  26.458  29.018  1.00  0.00     0.010 A 
ATOM     42  C   UNL A   1      40.983  27.635  29.073  1.00  0.00    -0.014 A 
BRANCH  42  43
ATOM     43  C   UNL A   1      40.820  28.625  30.175  1.00  0.00     0.031 A 
ATOM     44  C   UNL A   1      39.728  29.665  30.102  1.00  0.00     0.074 A 
ATOM     45  C   UNL A   1      41.595  28.563  31.275  1.00  0.00     0.049 A 
ATOM     46  N   UNL A   1      39.406  30.593  30.969  1.00  0.00    -0.248 NA
ATOM     47  C   UNL A   1      38.883  29.654  28.898  1.00  0.00     0.031 C 
ATOM     48  C   UNL A   1      42.659  27.586  31.502  1.00  0.00     0.029 A 
ATOM     49  N   UNL A   1      41.601  29.334  32.413  1.00  0.00    -0.354 N 
ATOM     50  C   UNL A   1      38.329  31.277  30.416  1.00  0.00     0.074 A 
ATOM     51  C   UNL A   1      38.076  30.681  29.122  1.00  0.00     0.031 C 
ATOM     52  C   UNL A   1      43.206  27.808  32.709  1.00  0.00     0.029 A 
ATOM     53  C   UNL A   1      42.567  28.971  33.321  1.00  0.00     0.049 A 
ATOM     54  H   UNL A   1      40.972  30.077  32.563  1.00  0.00     0.167 HD
ATOM     55  C   UNL A   1      37.609  32.302  30.937  1.00  0.00     0.031 A 
ATOM     56  C   UNL A   1      42.914  29.521  34.502  1.00  0.00     0.031 A 
ATOM     57  C   UNL A   1      37.865  32.910  32.218  1.00  0.00     0.049 A 
ATOM     58  C   UNL A   1      42.159  30.721  35.013  1.00  0.00     0.074 A 
ATOM     59  C   UNL A   1      37.177  33.944  32.832  1.00  0.00     0.029 A 
ATOM     60  N   UNL A   1      38.891  32.549  33.077  1.00  0.00    -0.354 N 
ATOM     61  N   UNL A   1      41.124  31.333  34.491  1.00  0.00    -0.248 NA
ATOM     62  C   UNL A   1      42.616  31.297  36.287  1.00  0.00     0.031 C 
ATOM     63  C   UNL A   1      37.833  34.259  34.026  1.00  0.00     0.029 A 
ATOM     64  C   UNL A   1      38.876  33.366  34.198  1.00  0.00     0.049 A 
ATOM     65  H   UNL A   1      39.534  31.822  32.915  1.00  0.00     0.167 HD
ATOM     66  C   UNL A   1      40.787  32.342  35.388  1.00  0.00     0.074 A 
ATOM     67  C   UNL A   1      41.713  32.244  36.496  1.00  0.00     0.031 C 
ATOM     68  C   UNL A   1      39.798  33.264  35.300  1.00  0.00     0.031 A 
BRANCH  55  69
ATOM     69  C   UNL A   1      36.485  32.863  30.107  1.00  0.00    -0.014 A 
ATOM     70  C   UNL A   1      36.719  33.814  29.100  1.00  0.00     0.009 A 
ATOM     71  C   UNL A   1      35.177  32.383  30.292  1.00  0.00     0.009 A 
ATOM     72  C   UNL A   1      35.664  34.295  28.321  1.00  0.00     0.001 A 
ATOM     73  C   UNL A   1      34.130  32.841  29.490  1.00  0.00     0.001 A 
ATOM     74  C   UNL A   1      34.372  33.803  28.511  1.00  0.00     0.000 A 
ENDBRANCH  55  69
BRANCH  56  75
ATOM     75  C   UNL A   1      44.062  28.974  35.277  1.00  0.00    -0.014 A 
ATOM     76  C   UNL A   1      43.869  27.998  36.268  1.00  0.00     0.009 A 
ATOM     77  C   UNL A   1      45.360  29.465  35.060  1.00  0.00     0.009 A 
ATOM     78  C   UNL A   1      44.940  27.559  37.049  1.00  0.00     0.001 A 
ATOM     79  C   UNL A   1      46.436  28.996  35.816  1.00  0.00     0.001 A 
ATOM     80  C   UNL A   1      46.223  28.055  36.820  1.00  0.00     0.000 A 
ENDBRANCH  56  75
BRANCH  68  81
ATOM     81  C   UNL A   1      39.627  34.215  36.457  1.00  0.00    -0.014 A 
ATOM     82  C   UNL A   1      38.919  33.853  37.614  1.00  0.00     0.009 A 
ATOM     83  C   UNL A   1      40.222  35.487  36.400  1.00  0.00     0.009 A 
ATOM     84  C   UNL A   1      38.775  34.757  38.668  1.00  0.00     0.001 A 
ATOM     85  C   UNL A   1      40.109  36.374  37.471  1.00  0.00     0.001 A 
ATOM     86  C   UNL A   1      39.374  36.015  38.598  1.00  0.00     0.000 A 
ENDBRANCH  68  81
ENDBRANCH  42  43
ENDBRANCH  35  37
ENDBRANCH  34  35
ENDBRANCH  33  34
ENDBRANCH  32  33
ENDBRANCH   1  32
TORSDOF 19
ENDMDL
MODEL 2
REMARK VINA RESULT:     -11.2      0.405      5.645
REMARK SMILES N#CC1=C(N)N2C(=O)[C@@H](CC(=O)OCCOCCOC(=O)c3ccc(-c4c5nc(c(-c6ccccc6)c6ccc([nH]6)c(-c6ccccc6)c6nc(c(-c7ccccc7)c7ccc4[nH]7)C=C6)C=C5)cc3)SC2=C(C#N)[C@H]1c1ccc(Cl)cc1
REMARK SMILES IDX 16 1 15 2 14 3 13 4 11 5 12 6 10 7 9 8 3 9 4 10 75 11 6 12
REMARK SMILES IDX 72 13 7 14 71 15 8 16 70 17 2 18 1 19 5 20 76 23 77 24 82 25
REMARK SMILES IDX 78 26 81 27 79 28 80 29 73 30 74 31 17 32 18 33 19 34 20 35
REMARK SMILES IDX 21 36 22 37 23 38 69 39 24 40 68 41 25 42 26 43 27 44 62 45
REMARK SMILES IDX 28 46 67 47 61 48 63 49 29 50 66 51 60 52 59 53 30 55 52 56
REMARK SMILES IDX 37 57 51 58 38 59 41 60 50 61 64 62 39 63 40 64 49 66 65 67
REMARK SMILES IDX 42 68 31 69 32 70 36 71 33 72 35 73 34 74 53 75 54 76 58 77
REMARK SMILES IDX 55 78 57 79 56 80 43 81 44 82 48 83 45 84 47 85 46 86
REMARK H PARENT 5 21 5 22 63 54 41 65
REMARK Flexibility Score: inf
ROOT
ATOM      1  O   UNL A   1      39.486  22.083  26.787  1.00  0.00    -0.374 OA
ENDROOT
BRANCH   1   2
ATOM      2  C   UNL A   1      38.487  22.709  25.988  1.00  0.00     0.202 C 
BRANCH   2   3
ATOM      3  C   UNL A   1      37.217  21.896  25.691  1.00  0.00     0.261 C 
BRANCH   3   4
ATOM      4  O   UNL A   1      36.987  21.613  24.285  1.00  0.00    -0.463 OA
BRANCH   4   5
ATOM      5  C   UNL A   1      36.348  22.594  23.607  1.00  0.00     0.307 C 
ATOM      6  O   UNL A   1      36.830  23.186  22.642  1.00  0.00    -0.252 OA
BRANCH   5   7
ATOM      7  C   UNL A   1      34.894  22.822  23.954  1.00  0.00     0.147 C 
BRANCH   7   8
ATOM      8  C   UNL A   1      33.704  22.493  23.057  1.00  0.00     0.154 C 
ATOM      9  C   UNL A   1      31.143  26.499  23.124  1.00  0.00     0.083 C 
ATOM     10  C   UNL A   1      31.696  25.589  22.278  1.00  0.00     0.126 C 
ATOM     11  C   UNL A   1      30.968  26.208  24.611  1.00  0.00     0.107 C 
ATOM     12  N   UNL A   1      32.265  24.422  22.806  1.00  0.00    -0.258 N 
ATOM     13  C   UNL A   1      31.104  24.715  24.883  1.00  0.00     0.073 C 
ATOM     14  C   UNL A   1      33.161  23.574  22.126  1.00  0.00     0.247 C 
ATOM     15  C   UNL A   1      31.805  23.960  24.021  1.00  0.00     0.099 C 
ATOM     16  O   UNL A   1      33.481  23.653  20.943  1.00  0.00    -0.273 OA
ATOM     17  S   UNL A   1      32.266  22.297  24.240  1.00  0.00    -0.093 SA
BRANCH   9  18
ATOM     18  C   UNL A   1      30.449  27.733  22.569  1.00  0.00     0.100 C 
ATOM     19  N   UNL A   1      29.874  28.756  22.109  1.00  0.00    -0.193 NA
ENDBRANCH   9  18
BRANCH  10  20
ATOM     20  N   UNL A   1      31.745  25.795  20.927  1.00  0.00    -0.384 N 
ATOM     21  H   UNL A   1      32.167  26.609  20.568  1.00  0.00     0.158 HD
ATOM     22  H   UNL A   1      31.360  25.129  20.313  1.00  0.00     0.158 HD
ENDBRANCH  10  20
BRANCH  11  23
ATOM     23  C   UNL A   1      31.899  27.070  25.487  1.00  0.00    -0.034 A 
ATOM     24  C   UNL A   1      31.470  27.706  26.670  1.00  0.00     0.006 A 
ATOM     25  C   UNL A   1      33.236  27.270  25.093  1.00  0.00     0.006 A 
ATOM     26  C   UNL A   1      32.335  28.512  27.417  1.00  0.00     0.021 A 
ATOM     27  C   UNL A   1      34.109  28.051  25.857  1.00  0.00     0.021 A 
ATOM     28  C   UNL A   1      33.653  28.675  27.012  1.00  0.00     0.041 A 
ATOM     29  Cl  UNL A   1      34.719  29.657  27.937  1.00  0.00    -0.084 Cl
ENDBRANCH  11  23
BRANCH  13  30
ATOM     30  C   UNL A   1      30.543  24.188  26.081  1.00  0.00     0.098 C 
ATOM     31  N   UNL A   1      30.111  23.763  27.073  1.00  0.00    -0.193 NA
ENDBRANCH  13  30
ENDBRANCH   7   8
ENDBRANCH   5   7
ENDBRANCH   4   5
ENDBRANCH   3   4
ENDBRANCH   2   3
ENDBRANCH   1   2
BRANCH   1  32
ATOM     32  C   UNL A   1      40.466  21.312  26.103  1.00  0.00     0.202 C 
BRANCH  32  33
ATOM     33  C   UNL A   1      41.872  21.909  26.029  1.00  0.00     0.261 C 
BRANCH  33  34
ATOM     34  O   UNL A   1      42.047  23.037  26.909  1.00  0.00    -0.460 OA
BRANCH  34  35
ATOM     35  C   UNL A   1      42.279  24.224  26.297  1.00  0.00     0.338 C 
ATOM     36  O   UNL A   1      42.730  24.388  25.176  1.00  0.00    -0.246 OA
BRANCH  35  37
ATOM     37  C   UNL A   1      41.759  25.355  27.099  1.00  0.00     0.060 A 
ATOM     38  C   UNL A   1      42.527  26.523  27.159  1.00  0.00     0.016 A 
ATOM     39  C   UNL A   1      40.648  25.212  27.934  1.00  0.00     0.016 A 
ATOM     40  C   UNL A   1      42.210  27.529  28.076  1.00  0.00     0.010 A 
ATOM     41  C   UNL A   1      40.327  26.228  28.851  1.00  0.00     0.010 A 
ATOM     42  C   UNL A   1      41.129  27.379  28.956  1.00  0.00    -0.014 A 
BRANCH  42  43
ATOM     43  C   UNL A   1      40.922  28.380  30.041  1.00  0.00     0.031 A 
ATOM     44  C   UNL A   1      41.850  28.407  31.232  1.00  0.00     0.074 A 
ATOM     45  C   UNL A   1      39.954  29.311  29.940  1.00  0.00     0.049 A 
ATOM     46  N   UNL A   1      41.852  29.216  32.263  1.00  0.00    -0.248 NA
ATOM     47  C   UNL A   1      42.916  27.395  31.263  1.00  0.00     0.031 C 
ATOM     48  C   UNL A   1      39.014  29.433  28.827  1.00  0.00     0.029 A 
ATOM     49  N   UNL A   1      39.606  30.338  30.785  1.00  0.00    -0.354 N 
ATOM     50  C   UNL A   1      42.914  28.810  33.065  1.00  0.00     0.074 A 
ATOM     51  C   UNL A   1      43.509  27.659  32.419  1.00  0.00     0.031 C 
ATOM     52  C   UNL A   1      38.204  30.483  29.051  1.00  0.00     0.029 A 
ATOM     53  C   UNL A   1      38.535  31.078  30.344  1.00  0.00     0.049 A 
ATOM     54  H   UNL A   1      40.081  30.527  31.628  1.00  0.00     0.167 HD
ATOM     55  C   UNL A   1      43.361  29.347  34.227  1.00  0.00     0.031 A 
ATOM     56  C   UNL A   1      37.879  32.105  30.920  1.00  0.00     0.031 A 
ATOM     57  C   UNL A   1      42.765  30.484  34.882  1.00  0.00     0.049 A 
ATOM     58  C   UNL A   1      38.338  32.621  32.260  1.00  0.00     0.074 A 
ATOM     59  C   UNL A   1      43.160  31.105  36.056  1.00  0.00     0.029 A 
ATOM     60  N   UNL A   1      41.645  31.164  34.430  1.00  0.00    -0.354 N 
ATOM     61  N   UNL A   1      39.361  32.245  32.987  1.00  0.00    -0.248 NA
ATOM     62  C   UNL A   1      37.553  33.716  32.852  1.00  0.00     0.031 C 
ATOM     63  C   UNL A   1      42.236  32.110  36.354  1.00  0.00     0.029 A 
ATOM     64  C   UNL A   1      41.315  32.173  35.322  1.00  0.00     0.049 A 
ATOM     65  H   UNL A   1      41.157  30.960  33.600  1.00  0.00     0.167 HD
ATOM     66  C   UNL A   1      39.363  33.078  34.102  1.00  0.00     0.074 A 
ATOM     67  C   UNL A   1      38.252  33.992  33.943  1.00  0.00     0.031 C 
ATOM     68  C   UNL A   1      40.210  33.083  35.159  1.00  0.00     0.031 A 
BRANCH  55  69
ATOM     69  C   UNL A   1      44.541  28.693  34.894  1.00  0.00    -0.014 A 
ATOM     70  C   UNL A   1      45.856  29.114  34.639  1.00  0.00     0.009 A 
ATOM     71  C   UNL A   1      44.329  27.680  35.845  1.00  0.00     0.009 A 
ATOM     72  C   UNL A   1      46.933  28.513  35.296  1.00  0.00     0.001 A 
ATOM     73  C   UNL A   1      45.404  27.103  36.524  1.00  0.00     0.001 A 
ATOM     74  C   UNL A   1      46.706  27.514  36.243  1.00  0.00     0.000 A 
ENDBRANCH  55  69
BRANCH  56  75
ATOM     75  C   UNL A   1      36.685  32.700  30.258  1.00  0.00    -0.014 A 
ATOM     76  C   UNL A   1      35.392  32.230  30.537  1.00  0.00     0.009 A 
ATOM     77  C   UNL A   1      36.840  33.715  29.300  1.00  0.00     0.009 A 
ATOM     78  C   UNL A   1      34.289  32.733  29.843  1.00  0.00     0.001 A 
ATOM     79  C   UNL A   1      35.732  34.244  28.637  1.00  0.00     0.001 A 
ATOM     80  C   UNL A   1      34.459  33.742  28.897  1.00  0.00     0.000 A 
ENDBRANCH  56  75
BRANCH  68  81
ATOM     81  C   UNL A   1      40.004  34.143  36.211  1.00  0.00    -0.014 A 
ATOM     82  C   UNL A   1      40.553  35.429  36.082  1.00  0.00     0.009 A 
ATOM     83  C   UNL A   1      39.211  33.857  37.335  1.00  0.00     0.009 A 
ATOM     84  C   UNL A   1      40.348  36.389  37.075  1.00  0.00     0.001 A 
ATOM     85  C   UNL A   1      38.976  34.831  38.307  1.00  0.00     0.001 A 
ATOM     86  C   UNL A   1      39.556  36.092  38.183  1.00  0.00     0.000 A 
ENDBRANCH  68  81
ENDBRANCH  42  43
ENDBRANCH  35  37
ENDBRANCH  34  35
ENDBRANCH  33  34
ENDBRANCH  32  33
ENDBRANCH   1  32
TORSDOF 19
ENDMDL
MODEL 3
REMARK VINA RESULT:     -11.1      4.808      9.663
REMARK SMILES N#CC1=C(N)N2C(=O)[C@@H](CC(=O)OCCOCCOC(=O)c3ccc(-c4c5nc(c(-c6ccccc6)c6ccc([nH]6)c(-c6ccccc6)c6nc(c(-c7ccccc7)c7ccc4[nH]7)C=C6)C=C5)cc3)SC2=C(C#N)[C@H]1c1ccc(Cl)cc1
REMARK SMILES IDX 16 1 15 2 14 3 13 4 11 5 12 6 10 7 9 8 3 9 4 10 75 11 6 12
REMARK SMILES IDX 72 13 7 14 71 15 8 16 70 17 2 18 1 19 5 20 76 23 77 24 82 25
REMARK SMILES IDX 78 26 81 27 79 28 80 29 73 30 74 31 17 32 18 33 19 34 20 35
REMARK SMILES IDX 21 36 22 37 23 38 69 39 24 40 68 41 25 42 26 43 27 44 62 45
REMARK SMILES IDX 28 46 67 47 61 48 63 49 29 50 66 51 60 52 59 53 30 55 52 56
REMARK SMILES IDX 37 57 51 58 38 59 41 60 50 61 64 62 39 63 40 64 49 66 65 67
REMARK SMILES IDX 42 68 31 69 32 70 36 71 33 72 35 73 34 74 53 75 54 76 58 77
REMARK SMILES IDX 55 78 57 79 56 80 43 81 44 82 48 83 45 84 47 85 46 86
REMARK H PARENT 5 21 5 22 63 54 41 65
REMARK Flexibility Score: inf
ROOT
ATOM      1  O   UNL A   1      34.880  31.602  27.449  1.00  0.00    -0.374 OA
ENDROOT
BRANCH   1   2
ATOM      2  C   UNL A   1      34.791  30.197  27.234  1.00  0.00     0.202 C 
BRANCH   2   3
ATOM      3  C   UNL A   1      33.402  29.627  26.901  1.00  0.00     0.261 C 
BRANCH   3   4
ATOM      4  O   UNL A   1      33.047  28.420  27.627  1.00  0.00    -0.463 OA
BRANCH   4   5
ATOM      5  C   UNL A   1      31.836  27.906  27.313  1.00  0.00     0.307 C 
ATOM      6  O   UNL A   1      30.891  27.850  28.097  1.00  0.00    -0.252 OA
BRANCH   5   7
ATOM      7  C   UNL A   1      31.601  27.565  25.858  1.00  0.00     0.147 C 
BRANCH   7   8
ATOM      8  C   UNL A   1      30.400  26.803  25.307  1.00  0.00     0.154 C 
ATOM      9  C   UNL A   1      32.068  22.384  24.755  1.00  0.00     0.083 C 
ATOM     10  C   UNL A   1      31.039  23.086  25.301  1.00  0.00     0.126 C 
ATOM     11  C   UNL A   1      33.005  23.006  23.724  1.00  0.00     0.107 C 
ATOM     12  N   UNL A   1      30.929  24.457  25.035  1.00  0.00    -0.258 N 
ATOM     13  C   UNL A   1      32.394  24.276  23.145  1.00  0.00     0.073 C 
ATOM     14  C   UNL A   1      30.155  25.371  25.777  1.00  0.00     0.247 C 
ATOM     15  C   UNL A   1      31.480  24.944  23.868  1.00  0.00     0.099 C 
ATOM     16  O   UNL A   1      29.372  25.094  26.680  1.00  0.00    -0.273 OA
ATOM     17  S   UNL A   1      30.818  26.511  23.504  1.00  0.00    -0.093 SA
BRANCH   9  18
ATOM     18  C   UNL A   1      32.162  20.881  24.965  1.00  0.00     0.100 C 
ATOM     19  N   UNL A   1      32.241  19.635  25.139  1.00  0.00    -0.193 NA
ENDBRANCH   9  18
BRANCH  10  20
ATOM     20  N   UNL A   1      30.125  22.499  26.133  1.00  0.00    -0.384 N 
ATOM     21  H   UNL A   1      30.343  21.651  26.584  1.00  0.00     0.158 HD
ATOM     22  H   UNL A   1      29.250  22.925  26.281  1.00  0.00     0.158 HD
ENDBRANCH  10  20
BRANCH  11  23
ATOM     23  C   UNL A   1      34.426  23.218  24.281  1.00  0.00    -0.034 A 
ATOM     24  C   UNL A   1      35.592  22.947  23.536  1.00  0.00     0.006 A 
ATOM     25  C   UNL A   1      34.595  23.675  25.603  1.00  0.00     0.006 A 
ATOM     26  C   UNL A   1      36.866  23.116  24.090  1.00  0.00     0.021 A 
ATOM     27  C   UNL A   1      35.868  23.872  26.146  1.00  0.00     0.021 A 
ATOM     28  C   UNL A   1      36.998  23.586  25.390  1.00  0.00     0.041 A 
ATOM     29  Cl  UNL A   1      38.564  23.803  26.067  1.00  0.00    -0.084 Cl
ENDBRANCH  11  23
BRANCH  13  30
ATOM     30  C   UNL A   1      32.867  24.746  21.887  1.00  0.00     0.098 C 
ATOM     31  N   UNL A   1      33.230  25.149  20.859  1.00  0.00    -0.193 NA
ENDBRANCH  13  30
ENDBRANCH   7   8
ENDBRANCH   5   7
ENDBRANCH   4   5
ENDBRANCH   3   4
ENDBRANCH   2   3
ENDBRANCH   1   2
BRANCH   1  32
ATOM     32  C   UNL A   1      34.035  32.155  28.450  1.00  0.00     0.202 C 
BRANCH  32  33
ATOM     33  C   UNL A   1      34.703  32.530  29.774  1.00  0.00     0.261 C 
BRANCH  33  34
ATOM     34  O   UNL A   1      36.108  32.211  29.801  1.00  0.00    -0.460 OA
BRANCH  34  35
ATOM     35  C   UNL A   1      36.470  31.243  30.678  1.00  0.00     0.338 C 
ATOM     36  O   UNL A   1      35.882  30.933  31.701  1.00  0.00    -0.246 OA
BRANCH  35  37
ATOM     37  C   UNL A   1      37.613  30.453  30.168  1.00  0.00     0.060 A 
ATOM     38  C   UNL A   1      38.451  29.835  31.103  1.00  0.00     0.016 A 
ATOM     39  C   UNL A   1      37.978  30.478  28.820  1.00  0.00     0.016 A 
ATOM     40  C   UNL A   1      39.667  29.277  30.699  1.00  0.00     0.010 A 
ATOM     41  C   UNL A   1      39.199  29.910  28.415  1.00  0.00     0.010 A 
ATOM     42  C   UNL A   1      40.072  29.339  29.358  1.00  0.00    -0.014 A 
BRANCH  42  43
ATOM     43  C   UNL A   1      41.447  28.899  28.986  1.00  0.00     0.031 A 
ATOM     44  C   UNL A   1      41.696  27.470  28.566  1.00  0.00     0.074 A 
ATOM     45  C   UNL A   1      42.465  29.780  28.953  1.00  0.00     0.049 A 
ATOM     46  N   UNL A   1      42.812  26.901  28.181  1.00  0.00    -0.248 NA
ATOM     47  C   UNL A   1      40.536  26.565  28.578  1.00  0.00     0.031 C 
ATOM     48  C   UNL A   1      42.361  31.200  29.289  1.00  0.00     0.029 A 
ATOM     49  N   UNL A   1      43.786  29.612  28.612  1.00  0.00    -0.354 N 
ATOM     50  C   UNL A   1      42.491  25.575  27.907  1.00  0.00     0.074 A 
ATOM     51  C   UNL A   1      41.084  25.416  28.208  1.00  0.00     0.031 C 
ATOM     52  C   UNL A   1      43.565  31.776  29.126  1.00  0.00     0.029 A 
ATOM     53  C   UNL A   1      44.534  30.761  28.721  1.00  0.00     0.049 A 
ATOM     54  H   UNL A   1      44.161  28.751  28.317  1.00  0.00     0.167 HD
ATOM     55  C   UNL A   1      43.288  24.582  27.442  1.00  0.00     0.031 A 
ATOM     56  C   UNL A   1      45.853  30.970  28.537  1.00  0.00     0.031 A 
ATOM     57  C   UNL A   1      44.692  24.730  27.154  1.00  0.00     0.049 A 
ATOM     58  C   UNL A   1      46.735  29.825  28.112  1.00  0.00     0.074 A 
ATOM     59  C   UNL A   1      45.574  23.781  26.665  1.00  0.00     0.029 A 
ATOM     60  N   UNL A   1      45.421  25.895  27.336  1.00  0.00    -0.354 N 
ATOM     61  N   UNL A   1      46.409  28.587  27.829  1.00  0.00    -0.248 NA
ATOM     62  C   UNL A   1      48.171  30.112  27.969  1.00  0.00     0.031 C 
ATOM     63  C   UNL A   1      46.851  24.348  26.625  1.00  0.00     0.029 A 
ATOM     64  C   UNL A   1      46.749  25.676  27.005  1.00  0.00     0.049 A 
ATOM     65  H   UNL A   1      45.050  26.749  27.654  1.00  0.00     0.167 HD
ATOM     66  C   UNL A   1      47.589  27.961  27.443  1.00  0.00     0.074 A 
ATOM     67  C   UNL A   1      48.634  28.960  27.507  1.00  0.00     0.031 C 
ATOM     68  C   UNL A   1      47.787  26.673  27.068  1.00  0.00     0.031 A 
BRANCH  55  69
ATOM     69  C   UNL A   1      42.670  23.223  27.241  1.00  0.00    -0.014 A 
ATOM     70  C   UNL A   1      42.571  22.299  28.292  1.00  0.00     0.009 A 
ATOM     71  C   UNL A   1      42.120  22.887  25.992  1.00  0.00     0.009 A 
ATOM     72  C   UNL A   1      41.965  21.057  28.089  1.00  0.00     0.001 A 
ATOM     73  C   UNL A   1      41.485  21.659  25.800  1.00  0.00     0.001 A 
ATOM     74  C   UNL A   1      41.415  20.741  26.846  1.00  0.00     0.000 A 
ENDBRANCH  55  69
BRANCH  56  75
ATOM     75  C   UNL A   1      46.443  32.314  28.791  1.00  0.00    -0.014 A 
ATOM     76  C   UNL A   1      46.927  32.665  30.061  1.00  0.00     0.009 A 
ATOM     77  C   UNL A   1      46.478  33.276  27.768  1.00  0.00     0.009 A 
ATOM     78  C   UNL A   1      47.393  33.958  30.310  1.00  0.00     0.001 A 
ATOM     79  C   UNL A   1      46.982  34.555  28.008  1.00  0.00     0.001 A 
ATOM     80  C   UNL A   1      47.425  34.900  29.283  1.00  0.00     0.000 A 
ENDBRANCH  56  75
BRANCH  68  81
ATOM     81  C   UNL A   1      49.178  26.277  26.646  1.00  0.00    -0.014 A 
ATOM     82  C   UNL A   1      49.660  26.532  25.352  1.00  0.00     0.009 A 
ATOM     83  C   UNL A   1      50.036  25.669  27.579  1.00  0.00     0.009 A 
ATOM     84  C   UNL A   1      50.953  26.148  24.990  1.00  0.00     0.001 A 
ATOM     85  C   UNL A   1      51.341  25.323  27.225  1.00  0.00     0.001 A 
ATOM     86  C   UNL A   1      51.794  25.550  25.928  1.00  0.00     0.000 A 
ENDBRANCH  68  81
ENDBRANCH  42  43
ENDBRANCH  35  37
ENDBRANCH  34  35
ENDBRANCH  33  34
ENDBRANCH  32  33
ENDBRANCH   1  32
TORSDOF 19
ENDMDL
