MODEL 1
REMARK VINA RESULT:     -10.3      0.000      0.000
REMARK SMILES CC(C)(C[N@H+]1C[C@@H]2C[NH2+]C[C@H]2C1(C)C)C(=O)OCCOCCOC(=O)c1ccc(-c2c3nc(c(-c4ccccc4)c4ccc([nH]4)c(-c4ccccc4)c4nc(c(-c5ccccc5)c5ccc2[nH]5)C=C4)C=C3)cc1
REMARK SMILES IDX 20 1 19 2 18 3 17 4 15 5 16 6 2 7 1 8 3 9 4 10 5 11 6 12
REMARK SMILES IDX 12 13 7 15 11 16 13 17 14 18 8 19 10 20 9 21 21 24 22 25
REMARK SMILES IDX 23 26 24 27 25 28 26 29 27 30 73 31 28 32 72 33 29 34 30 35
REMARK SMILES IDX 31 36 66 37 32 38 71 39 65 40 67 41 33 42 70 43 64 44 63 45
REMARK SMILES IDX 34 47 56 48 41 49 55 50 42 51 45 52 54 53 68 54 43 55 44 56
REMARK SMILES IDX 53 58 69 59 46 60 35 61 36 62 40 63 37 64 39 65 38 66 57 67
REMARK SMILES IDX 58 68 62 69 59 70 61 71 60 72 47 73 48 74 52 75 49 76 51 77
REMARK SMILES IDX 50 78
REMARK H PARENT 5 14 9 22 9 23 67 46 45 57
REMARK Flexibility Score: inf
ROOT
ATOM      1  O   UNL A   1      42.234  20.384  26.969  1.00  0.00    -0.374 OA
ENDROOT
BRANCH   1   2
ATOM      2  C   UNL A   1      41.222  21.349  26.687  1.00  0.00     0.202 C 
BRANCH   2   3
ATOM      3  C   UNL A   1      39.928  20.794  26.072  1.00  0.00     0.261 C 
BRANCH   3   4
ATOM      4  O   UNL A   1      38.918  21.826  25.928  1.00  0.00    -0.463 OA
BRANCH   4   5
ATOM      5  C   UNL A   1      37.714  21.484  25.381  1.00  0.00     0.317 C 
ATOM      6  O   UNL A   1      37.450  20.350  25.000  1.00  0.00    -0.251 OA
BRANCH   5   7
ATOM      7  C   UNL A   1      36.778  22.703  25.203  1.00  0.00     0.111 C 
ATOM      8  C   UNL A   1      36.510  22.956  23.711  1.00  0.00     0.029 C 
ATOM      9  C   UNL A   1      37.636  23.911  25.689  1.00  0.00     0.029 C 
BRANCH   7  10
ATOM     10  C   UNL A   1      35.438  22.686  26.030  1.00  0.00     0.280 C 
BRANCH  10  11
ATOM     11  N   UNL A   1      34.080  23.051  25.589  1.00  0.00    -0.329 N 
ATOM     12  C   UNL A   1      33.005  22.143  26.067  1.00  0.00     0.272 C 
ATOM     13  C   UNL A   1      33.489  24.340  25.111  1.00  0.00     0.101 C 
ATOM     14  H   UNL A   1      34.638  23.041  24.735  1.00  0.00     0.348 HD
ATOM     15  C   UNL A   1      32.007  23.143  26.574  1.00  0.00     0.114 C 
ATOM     16  C   UNL A   1      32.011  24.117  25.437  1.00  0.00     0.119 C 
ATOM     17  C   UNL A   1      34.038  25.607  25.750  1.00  0.00     0.079 C 
ATOM     18  C   UNL A   1      33.452  24.544  23.574  1.00  0.00     0.079 C 
ATOM     19  C   UNL A   1      30.523  22.917  26.691  1.00  0.00     0.270 C 
ATOM     20  C   UNL A   1      31.033  25.145  25.924  1.00  0.00     0.271 C 
ATOM     21  N   UNL A   1      29.958  24.290  26.501  1.00  0.00    -0.345 N 
ATOM     22  H   UNL A   1      29.656  24.668  27.399  1.00  0.00     0.346 HD
ATOM     23  H   UNL A   1      29.152  24.260  25.878  1.00  0.00     0.346 HD
ENDBRANCH  10  11
ENDBRANCH   7  10
ENDBRANCH   5   7
ENDBRANCH   4   5
ENDBRANCH   3   4
ENDBRANCH   2   3
ENDBRANCH   1   2
BRANCH   1  24
ATOM     24  C   UNL A   1      42.119  19.119  26.322  1.00  0.00     0.202 C 
BRANCH  24  25
ATOM     25  C   UNL A   1      43.335  18.692  25.501  1.00  0.00     0.261 C 
BRANCH  25  26
ATOM     26  O   UNL A   1      43.683  19.574  24.471  1.00  0.00    -0.460 OA
BRANCH  26  27
ATOM     27  C   UNL A   1      44.971  19.654  24.112  1.00  0.00     0.338 C 
ATOM     28  O   UNL A   1      45.670  18.895  23.481  1.00  0.00    -0.246 OA
BRANCH  27  29
ATOM     29  C   UNL A   1      45.181  21.039  24.496  1.00  0.00     0.060 A 
ATOM     30  C   UNL A   1      44.554  22.011  23.713  1.00  0.00     0.016 A 
ATOM     31  C   UNL A   1      45.605  21.276  25.812  1.00  0.00     0.016 A 
ATOM     32  C   UNL A   1      44.380  23.271  24.248  1.00  0.00     0.010 A 
ATOM     33  C   UNL A   1      45.384  22.518  26.360  1.00  0.00     0.010 A 
ATOM     34  C   UNL A   1      44.813  23.519  25.560  1.00  0.00    -0.014 A 
BRANCH  34  35
ATOM     35  C   UNL A   1      44.918  24.901  26.027  1.00  0.00     0.031 A 
ATOM     36  C   UNL A   1      46.274  25.527  25.918  1.00  0.00     0.074 A 
ATOM     37  C   UNL A   1      43.848  25.533  26.527  1.00  0.00     0.049 A 
ATOM     38  N   UNL A   1      46.669  26.708  26.296  1.00  0.00    -0.248 NA
ATOM     39  C   UNL A   1      47.337  24.693  25.321  1.00  0.00     0.031 C 
ATOM     40  C   UNL A   1      42.502  24.968  26.647  1.00  0.00     0.029 A 
ATOM     41  N   UNL A   1      43.732  26.797  27.029  1.00  0.00    -0.354 N 
ATOM     42  C   UNL A   1      48.022  26.753  25.988  1.00  0.00     0.074 A 
ATOM     43  C   UNL A   1      48.398  25.469  25.451  1.00  0.00     0.031 C 
ATOM     44  C   UNL A   1      41.688  25.895  27.182  1.00  0.00     0.029 A 
ATOM     45  C   UNL A   1      42.466  27.098  27.465  1.00  0.00     0.049 A 
ATOM     46  H   UNL A   1      44.483  27.430  27.075  1.00  0.00     0.167 HD
ATOM     47  C   UNL A   1      48.871  27.793  26.126  1.00  0.00     0.031 A 
ATOM     48  C   UNL A   1      42.013  28.229  28.033  1.00  0.00     0.031 A 
ATOM     49  C   UNL A   1      48.463  29.053  26.675  1.00  0.00     0.049 A 
ATOM     50  C   UNL A   1      42.990  29.361  28.213  1.00  0.00     0.074 A 
ATOM     51  C   UNL A   1      49.212  30.193  26.876  1.00  0.00     0.029 A 
ATOM     52  N   UNL A   1      47.172  29.325  27.113  1.00  0.00    -0.354 N 
ATOM     53  N   UNL A   1      44.263  29.413  27.893  1.00  0.00    -0.248 NA
ATOM     54  C   UNL A   1      42.469  30.590  28.819  1.00  0.00     0.031 C 
ATOM     55  C   UNL A   1      48.383  31.145  27.477  1.00  0.00     0.029 A 
ATOM     56  C   UNL A   1      47.105  30.615  27.598  1.00  0.00     0.049 A 
ATOM     57  H   UNL A   1      46.419  28.691  27.083  1.00  0.00     0.167 HD
ATOM     58  C   UNL A   1      44.689  30.690  28.231  1.00  0.00     0.074 A 
ATOM     59  C   UNL A   1      43.531  31.382  28.766  1.00  0.00     0.031 C 
ATOM     60  C   UNL A   1      45.920  31.250  28.115  1.00  0.00     0.031 A 
BRANCH  47  61
ATOM     61  C   UNL A   1      50.293  27.578  25.700  1.00  0.00    -0.014 A 
ATOM     62  C   UNL A   1      51.274  27.164  26.616  1.00  0.00     0.009 A 
ATOM     63  C   UNL A   1      50.665  27.821  24.370  1.00  0.00     0.009 A 
ATOM     64  C   UNL A   1      52.606  27.034  26.217  1.00  0.00     0.001 A 
ATOM     65  C   UNL A   1      51.992  27.660  23.967  1.00  0.00     0.001 A 
ATOM     66  C   UNL A   1      52.963  27.276  24.892  1.00  0.00     0.000 A 
ENDBRANCH  47  61
BRANCH  48  67
ATOM     67  C   UNL A   1      40.592  28.347  28.450  1.00  0.00    -0.014 A 
ATOM     68  C   UNL A   1      39.640  28.927  27.598  1.00  0.00     0.009 A 
ATOM     69  C   UNL A   1      40.176  27.883  29.708  1.00  0.00     0.009 A 
ATOM     70  C   UNL A   1      38.311  29.066  28.007  1.00  0.00     0.001 A 
ATOM     71  C   UNL A   1      38.841  27.997  30.104  1.00  0.00     0.001 A 
ATOM     72  C   UNL A   1      37.912  28.598  29.257  1.00  0.00     0.000 A 
ENDBRANCH  48  67
BRANCH  60  73
ATOM     73  C   UNL A   1      46.051  32.682  28.538  1.00  0.00    -0.014 A 
ATOM     74  C   UNL A   1      45.803  33.730  27.640  1.00  0.00     0.009 A 
ATOM     75  C   UNL A   1      46.371  32.979  29.872  1.00  0.00     0.009 A 
ATOM     76  C   UNL A   1      45.904  35.054  28.065  1.00  0.00     0.001 A 
ATOM     77  C   UNL A   1      46.439  34.303  30.301  1.00  0.00     0.001 A 
ATOM     78  C   UNL A   1      46.216  35.339  29.395  1.00  0.00     0.000 A 
ENDBRANCH  60  73
ENDBRANCH  34  35
ENDBRANCH  27  29
ENDBRANCH  26  27
ENDBRANCH  25  26
ENDBRANCH  24  25
ENDBRANCH   1  24
TORSDOF 16
ENDMDL
MODEL 2
REMARK VINA RESULT:     -10.3      2.528      7.003
REMARK SMILES CC(C)(C[N@H+]1C[C@@H]2C[NH2+]C[C@H]2C1(C)C)C(=O)OCCOCCOC(=O)c1ccc(-c2c3nc(c(-c4ccccc4)c4ccc([nH]4)c(-c4ccccc4)c4nc(c(-c5ccccc5)c5ccc2[nH]5)C=C4)C=C3)cc1
REMARK SMILES IDX 20 1 19 2 18 3 17 4 15 5 16 6 2 7 1 8 3 9 4 10 5 11 6 12
REMARK SMILES IDX 12 13 7 15 11 16 13 17 14 18 8 19 10 20 9 21 21 24 22 25
REMARK SMILES IDX 23 26 24 27 25 28 26 29 27 30 73 31 28 32 72 33 29 34 30 35
REMARK SMILES IDX 31 36 66 37 32 38 71 39 65 40 67 41 33 42 70 43 64 44 63 45
REMARK SMILES IDX 34 47 56 48 41 49 55 50 42 51 45 52 54 53 68 54 43 55 44 56
REMARK SMILES IDX 53 58 69 59 46 60 35 61 36 62 40 63 37 64 39 65 38 66 57 67
REMARK SMILES IDX 58 68 62 69 59 70 61 71 60 72 47 73 48 74 52 75 49 76 51 77
REMARK SMILES IDX 50 78
REMARK H PARENT 5 14 9 22 9 23 67 46 45 57
REMARK Flexibility Score: inf
ROOT
ATOM      1  O   UNL A   1      38.394  22.098  25.829  1.00  0.00    -0.374 OA
ENDROOT
BRANCH   1   2
ATOM      2  C   UNL A   1      37.333  23.050  25.768  1.00  0.00     0.202 C 
BRANCH   2   3
ATOM      3  C   UNL A   1      35.914  22.462  25.728  1.00  0.00     0.261 C 
BRANCH   3   4
ATOM      4  O   UNL A   1      34.972  23.287  26.461  1.00  0.00    -0.463 OA
BRANCH   4   5
ATOM      5  C   UNL A   1      34.166  24.134  25.754  1.00  0.00     0.317 C 
ATOM      6  O   UNL A   1      34.600  25.009  25.014  1.00  0.00    -0.251 OA
BRANCH   5   7
ATOM      7  C   UNL A   1      32.666  23.930  26.077  1.00  0.00     0.111 C 
ATOM      8  C   UNL A   1      32.505  23.034  27.315  1.00  0.00     0.029 C 
ATOM      9  C   UNL A   1      32.134  23.090  24.875  1.00  0.00     0.029 C 
BRANCH   7  10
ATOM     10  C   UNL A   1      31.789  25.232  26.194  1.00  0.00     0.280 C 
BRANCH  10  11
ATOM     11  N   UNL A   1      32.033  26.562  25.608  1.00  0.00    -0.329 N 
ATOM     12  C   UNL A   1      31.432  26.770  24.264  1.00  0.00     0.272 C 
ATOM     13  C   UNL A   1      32.398  27.879  26.217  1.00  0.00     0.101 C 
ATOM     14  H   UNL A   1      32.955  26.227  25.888  1.00  0.00     0.348 HD
ATOM     15  C   UNL A   1      30.773  28.103  24.463  1.00  0.00     0.114 C 
ATOM     16  C   UNL A   1      31.879  28.843  25.149  1.00  0.00     0.119 C 
ATOM     17  C   UNL A   1      31.812  28.167  27.592  1.00  0.00     0.079 C 
ATOM     18  C   UNL A   1      33.911  28.220  26.249  1.00  0.00     0.079 C 
ATOM     19  C   UNL A   1      30.460  29.096  23.375  1.00  0.00     0.270 C 
ATOM     20  C   UNL A   1      31.240  30.182  25.381  1.00  0.00     0.271 C 
ATOM     21  N   UNL A   1      30.541  30.410  24.085  1.00  0.00    -0.345 N 
ATOM     22  H   UNL A   1      29.602  30.772  24.256  1.00  0.00     0.346 HD
ATOM     23  H   UNL A   1      31.049  31.090  23.520  1.00  0.00     0.346 HD
ENDBRANCH  10  11
ENDBRANCH   7  10
ENDBRANCH   5   7
ENDBRANCH   4   5
ENDBRANCH   3   4
ENDBRANCH   2   3
ENDBRANCH   1   2
BRANCH   1  24
ATOM     24  C   UNL A   1      38.180  20.849  25.175  1.00  0.00     0.202 C 
BRANCH  24  25
ATOM     25  C   UNL A   1      39.248  19.787  25.429  1.00  0.00     0.261 C 
BRANCH  25  26
ATOM     26  O   UNL A   1      40.221  20.151  26.369  1.00  0.00    -0.460 OA
BRANCH  26  27
ATOM     27  C   UNL A   1      41.499  19.846  26.110  1.00  0.00     0.338 C 
ATOM     28  O   UNL A   1      41.989  18.937  25.481  1.00  0.00    -0.246 OA
BRANCH  27  29
ATOM     29  C   UNL A   1      42.084  21.082  26.601  1.00  0.00     0.060 A 
ATOM     30  C   UNL A   1      42.271  22.103  25.668  1.00  0.00     0.016 A 
ATOM     31  C   UNL A   1      42.011  21.313  27.983  1.00  0.00     0.016 A 
ATOM     32  C   UNL A   1      42.429  23.394  26.132  1.00  0.00     0.010 A 
ATOM     33  C   UNL A   1      42.118  22.607  28.439  1.00  0.00     0.010 A 
ATOM     34  C   UNL A   1      42.370  23.632  27.514  1.00  0.00    -0.014 A 
BRANCH  34  35
ATOM     35  C   UNL A   1      42.835  24.916  28.037  1.00  0.00     0.031 A 
ATOM     36  C   UNL A   1      41.778  25.953  28.261  1.00  0.00     0.074 A 
ATOM     37  C   UNL A   1      44.137  25.121  28.278  1.00  0.00     0.049 A 
ATOM     38  N   UNL A   1      41.903  27.183  28.666  1.00  0.00    -0.248 NA
ATOM     39  C   UNL A   1      40.388  25.550  27.963  1.00  0.00     0.031 C 
ATOM     40  C   UNL A   1      45.205  24.138  28.083  1.00  0.00     0.029 A 
ATOM     41  N   UNL A   1      44.779  26.233  28.741  1.00  0.00    -0.354 N 
ATOM     42  C   UNL A   1      40.614  27.698  28.664  1.00  0.00     0.074 A 
ATOM     43  C   UNL A   1      39.729  26.677  28.164  1.00  0.00     0.031 C 
ATOM     44  C   UNL A   1      46.377  24.695  28.438  1.00  0.00     0.029 A 
ATOM     45  C   UNL A   1      46.136  26.073  28.854  1.00  0.00     0.049 A 
ATOM     46  H   UNL A   1      44.312  27.068  28.972  1.00  0.00     0.167 HD
ATOM     47  C   UNL A   1      40.208  28.920  29.069  1.00  0.00     0.031 A 
ATOM     48  C   UNL A   1      47.063  26.964  29.248  1.00  0.00     0.031 A 
ATOM     49  C   UNL A   1      41.120  29.915  29.551  1.00  0.00     0.049 A 
ATOM     50  C   UNL A   1      46.588  28.333  29.656  1.00  0.00     0.074 A 
ATOM     51  C   UNL A   1      40.853  31.194  29.993  1.00  0.00     0.029 A 
ATOM     52  N   UNL A   1      42.494  29.724  29.648  1.00  0.00    -0.354 N 
ATOM     53  N   UNL A   1      45.364  28.810  29.683  1.00  0.00    -0.248 NA
ATOM     54  C   UNL A   1      47.616  29.282  30.098  1.00  0.00     0.031 C 
ATOM     55  C   UNL A   1      42.073  31.794  30.319  1.00  0.00     0.029 A 
ATOM     56  C   UNL A   1      43.092  30.870  30.132  1.00  0.00     0.049 A 
ATOM     57  H   UNL A   1      42.968  28.896  29.407  1.00  0.00     0.167 HD
ATOM     58  C   UNL A   1      45.470  30.104  30.173  1.00  0.00     0.074 A 
ATOM     59  C   UNL A   1      46.878  30.328  30.444  1.00  0.00     0.031 C 
ATOM     60  C   UNL A   1      44.501  31.030  30.384  1.00  0.00     0.031 A 
BRANCH  47  61
ATOM     61  C   UNL A   1      38.742  29.220  28.974  1.00  0.00    -0.014 A 
ATOM     62  C   UNL A   1      38.170  29.698  27.784  1.00  0.00     0.009 A 
ATOM     63  C   UNL A   1      37.922  29.051  30.100  1.00  0.00     0.009 A 
ATOM     64  C   UNL A   1      36.816  30.036  27.733  1.00  0.00     0.001 A 
ATOM     65  C   UNL A   1      36.563  29.360  30.038  1.00  0.00     0.001 A 
ATOM     66  C   UNL A   1      36.012  29.861  28.858  1.00  0.00     0.000 A 
ENDBRANCH  47  61
BRANCH  48  67
ATOM     67  C   UNL A   1      48.501  26.590  29.286  1.00  0.00    -0.014 A 
ATOM     68  C   UNL A   1      49.057  25.995  30.429  1.00  0.00     0.009 A 
ATOM     69  C   UNL A   1      49.330  26.828  28.179  1.00  0.00     0.009 A 
ATOM     70  C   UNL A   1      50.416  25.674  30.474  1.00  0.00     0.001 A 
ATOM     71  C   UNL A   1      50.683  26.480  28.215  1.00  0.00     0.001 A 
ATOM     72  C   UNL A   1      51.227  25.914  29.366  1.00  0.00     0.000 A 
ENDBRANCH  48  67
BRANCH  60  73
ATOM     73  C   UNL A   1      44.937  32.341  30.967  1.00  0.00    -0.014 A 
ATOM     74  C   UNL A   1      45.284  33.422  30.145  1.00  0.00     0.009 A 
ATOM     75  C   UNL A   1      44.942  32.506  32.361  1.00  0.00     0.009 A 
ATOM     76  C   UNL A   1      45.660  34.639  30.711  1.00  0.00     0.001 A 
ATOM     77  C   UNL A   1      45.287  33.734  32.923  1.00  0.00     0.001 A 
ATOM     78  C   UNL A   1      45.656  34.796  32.098  1.00  0.00     0.000 A 
ENDBRANCH  60  73
ENDBRANCH  34  35
ENDBRANCH  27  29
ENDBRANCH  26  27
ENDBRANCH  25  26
ENDBRANCH  24  25
ENDBRANCH   1  24
TORSDOF 16
ENDMDL
MODEL 3
REMARK VINA RESULT:     -10.0      6.051     10.389
REMARK SMILES CC(C)(C[N@H+]1C[C@@H]2C[NH2+]C[C@H]2C1(C)C)C(=O)OCCOCCOC(=O)c1ccc(-c2c3nc(c(-c4ccccc4)c4ccc([nH]4)c(-c4ccccc4)c4nc(c(-c5ccccc5)c5ccc2[nH]5)C=C4)C=C3)cc1
REMARK SMILES IDX 20 1 19 2 18 3 17 4 15 5 16 6 2 7 1 8 3 9 4 10 5 11 6 12
REMARK SMILES IDX 12 13 7 15 11 16 13 17 14 18 8 19 10 20 9 21 21 24 22 25
REMARK SMILES IDX 23 26 24 27 25 28 26 29 27 30 73 31 28 32 72 33 29 34 30 35
REMARK SMILES IDX 31 36 66 37 32 38 71 39 65 40 67 41 33 42 70 43 64 44 63 45
REMARK SMILES IDX 34 47 56 48 41 49 55 50 42 51 45 52 54 53 68 54 43 55 44 56
REMARK SMILES IDX 53 58 69 59 46 60 35 61 36 62 40 63 37 64 39 65 38 66 57 67
REMARK SMILES IDX 58 68 62 69 59 70 61 71 60 72 47 73 48 74 52 75 49 76 51 77
REMARK SMILES IDX 50 78
REMARK H PARENT 5 14 9 22 9 23 67 46 45 57
REMARK Flexibility Score: inf
ROOT
ATOM      1  O   UNL A   1      32.526  30.676  26.797  1.00  0.00    -0.374 OA
ENDROOT
BRANCH   1   2
ATOM      2  C   UNL A   1      32.603  29.567  25.904  1.00  0.00     0.202 C 
BRANCH   2   3
ATOM      3  C   UNL A   1      33.869  28.704  26.022  1.00  0.00     0.261 C 
BRANCH   3   4
ATOM      4  O   UNL A   1      33.556  27.288  25.996  1.00  0.00    -0.463 OA
BRANCH   4   5
ATOM      5  C   UNL A   1      33.173  26.730  24.810  1.00  0.00     0.317 C 
ATOM      6  O   UNL A   1      33.750  26.947  23.751  1.00  0.00    -0.251 OA
BRANCH   5   7
ATOM      7  C   UNL A   1      31.881  25.888  24.941  1.00  0.00     0.111 C 
ATOM      8  C   UNL A   1      30.696  26.627  24.298  1.00  0.00     0.029 C 
ATOM      9  C   UNL A   1      31.591  25.881  26.474  1.00  0.00     0.029 C 
BRANCH   7  10
ATOM     10  C   UNL A   1      31.961  24.396  24.448  1.00  0.00     0.280 C 
BRANCH  10  11
ATOM     11  N   UNL A   1      32.621  23.247  25.094  1.00  0.00    -0.329 N 
ATOM     12  C   UNL A   1      31.822  21.994  25.106  1.00  0.00     0.272 C 
ATOM     13  C   UNL A   1      34.059  22.943  25.380  1.00  0.00     0.101 C 
ATOM     14  H   UNL A   1      32.694  24.005  25.773  1.00  0.00     0.348 HD
ATOM     15  C   UNL A   1      32.848  21.011  24.623  1.00  0.00     0.114 C 
ATOM     16  C   UNL A   1      34.017  21.416  25.467  1.00  0.00     0.119 C 
ATOM     17  C   UNL A   1      35.066  23.436  24.350  1.00  0.00     0.079 C 
ATOM     18  C   UNL A   1      34.571  23.332  26.791  1.00  0.00     0.079 C 
ATOM     19  C   UNL A   1      32.847  19.532  24.911  1.00  0.00     0.270 C 
ATOM     20  C   UNL A   1      35.071  20.459  24.993  1.00  0.00     0.271 C 
ATOM     21  N   UNL A   1      34.302  19.186  24.899  1.00  0.00    -0.345 N 
ATOM     22  H   UNL A   1      34.537  18.702  24.032  1.00  0.00     0.346 HD
ATOM     23  H   UNL A   1      34.530  18.573  25.681  1.00  0.00     0.346 HD
ENDBRANCH  10  11
ENDBRANCH   7  10
ENDBRANCH   5   7
ENDBRANCH   4   5
ENDBRANCH   3   4
ENDBRANCH   2   3
ENDBRANCH   1   2
BRANCH   1  24
ATOM     24  C   UNL A   1      31.477  31.614  26.573  1.00  0.00     0.202 C 
BRANCH  24  25
ATOM     25  C   UNL A   1      31.824  33.069  26.884  1.00  0.00     0.261 C 
BRANCH  25  26
ATOM     26  O   UNL A   1      32.993  33.243  27.636  1.00  0.00    -0.460 OA
BRANCH  26  27
ATOM     27  C   UNL A   1      33.150  34.391  28.309  1.00  0.00     0.338 C 
ATOM     28  O   UNL A   1      32.448  35.373  28.383  1.00  0.00    -0.246 OA
BRANCH  27  29
ATOM     29  C   UNL A   1      34.289  33.977  29.111  1.00  0.00     0.060 A 
ATOM     30  C   UNL A   1      34.116  32.847  29.912  1.00  0.00     0.016 A 
ATOM     31  C   UNL A   1      35.550  34.445  28.711  1.00  0.00     0.016 A 
ATOM     32  C   UNL A   1      35.242  32.184  30.361  1.00  0.00     0.010 A 
ATOM     33  C   UNL A   1      36.667  33.753  29.119  1.00  0.00     0.010 A 
ATOM     34  C   UNL A   1      36.507  32.654  29.976  1.00  0.00    -0.014 A 
BRANCH  34  35
ATOM     35  C   UNL A   1      37.693  32.165  30.678  1.00  0.00     0.031 A 
ATOM     36  C   UNL A   1      38.382  30.989  30.058  1.00  0.00     0.074 A 
ATOM     37  C   UNL A   1      38.101  32.751  31.812  1.00  0.00     0.049 A 
ATOM     38  N   UNL A   1      39.415  30.322  30.482  1.00  0.00    -0.248 NA
ATOM     39  C   UNL A   1      37.809  30.482  28.795  1.00  0.00     0.031 C 
ATOM     40  C   UNL A   1      37.467  33.905  32.452  1.00  0.00     0.029 A 
ATOM     41  N   UNL A   1      39.155  32.447  32.625  1.00  0.00    -0.354 N 
ATOM     42  C   UNL A   1      39.609  29.318  29.544  1.00  0.00     0.074 A 
ATOM     43  C   UNL A   1      38.558  29.420  28.562  1.00  0.00     0.031 C 
ATOM     44  C   UNL A   1      38.158  34.219  33.562  1.00  0.00     0.029 A 
ATOM     45  C   UNL A   1      39.257  33.271  33.717  1.00  0.00     0.049 A 
ATOM     46  H   UNL A   1      39.779  31.708  32.446  1.00  0.00     0.167 HD
ATOM     47  C   UNL A   1      40.598  28.401  29.501  1.00  0.00     0.031 A 
ATOM     48  C   UNL A   1      40.150  33.237  34.722  1.00  0.00     0.031 A 
ATOM     49  C   UNL A   1      41.621  28.323  30.502  1.00  0.00     0.049 A 
ATOM     50  C   UNL A   1      41.220  32.179  34.671  1.00  0.00     0.074 A 
ATOM     51  C   UNL A   1      42.684  27.448  30.589  1.00  0.00     0.029 A 
ATOM     52  N   UNL A   1      41.695  29.171  31.601  1.00  0.00    -0.354 N 
ATOM     53  N   UNL A   1      41.421  31.248  33.766  1.00  0.00    -0.248 NA
ATOM     54  C   UNL A   1      42.192  32.173  35.769  1.00  0.00     0.031 C 
ATOM     55  C   UNL A   1      43.378  27.740  31.766  1.00  0.00     0.029 A 
ATOM     56  C   UNL A   1      42.780  28.831  32.382  1.00  0.00     0.049 A 
ATOM     57  H   UNL A   1      41.066  29.903  31.793  1.00  0.00     0.167 HD
ATOM     58  C   UNL A   1      42.559  30.564  34.168  1.00  0.00     0.074 A 
ATOM     59  C   UNL A   1      43.011  31.200  35.392  1.00  0.00     0.031 C 
ATOM     60  C   UNL A   1      43.182  29.506  33.589  1.00  0.00     0.031 A 
BRANCH  47  61
ATOM     61  C   UNL A   1      40.581  27.429  28.359  1.00  0.00    -0.014 A 
ATOM     62  C   UNL A   1      39.899  26.204  28.453  1.00  0.00     0.009 A 
ATOM     63  C   UNL A   1      41.283  27.725  27.181  1.00  0.00     0.009 A 
ATOM     64  C   UNL A   1      39.949  25.282  27.406  1.00  0.00     0.001 A 
ATOM     65  C   UNL A   1      41.306  26.814  26.124  1.00  0.00     0.001 A 
ATOM     66  C   UNL A   1      40.648  25.590  26.240  1.00  0.00     0.000 A 
ENDBRANCH  47  61
BRANCH  48  67
ATOM     67  C   UNL A   1      40.077  34.225  35.829  1.00  0.00    -0.014 A 
ATOM     68  C   UNL A   1      40.756  35.450  35.744  1.00  0.00     0.009 A 
ATOM     69  C   UNL A   1      39.329  33.949  36.984  1.00  0.00     0.009 A 
ATOM     70  C   UNL A   1      40.711  36.363  36.801  1.00  0.00     0.001 A 
ATOM     71  C   UNL A   1      39.263  34.874  38.029  1.00  0.00     0.001 A 
ATOM     72  C   UNL A   1      39.963  36.076  37.941  1.00  0.00     0.000 A 
ENDBRANCH  48  67
BRANCH  60  73
ATOM     73  C   UNL A   1      44.430  29.012  34.256  1.00  0.00    -0.014 A 
ATOM     74  C   UNL A   1      45.683  29.563  33.952  1.00  0.00     0.009 A 
ATOM     75  C   UNL A   1      44.335  28.021  35.245  1.00  0.00     0.009 A 
ATOM     76  C   UNL A   1      46.826  29.106  34.606  1.00  0.00     0.001 A 
ATOM     77  C   UNL A   1      45.475  27.589  35.920  1.00  0.00     0.001 A 
ATOM     78  C   UNL A   1      46.720  28.125  35.593  1.00  0.00     0.000 A 
ENDBRANCH  60  73
ENDBRANCH  34  35
ENDBRANCH  27  29
ENDBRANCH  26  27
ENDBRANCH  25  26
ENDBRANCH  24  25
ENDBRANCH   1  24
TORSDOF 16
ENDMDL
