MODEL 1
REMARK VINA RESULT:     -11.2      0.000      0.000
REMARK SMILES C[C@@H](C(=O)OCCOCCOC(=O)c1ccc(-c2c3nc(c(-c4ccccc4)c4ccc([nH]4)c(-c4ccccc4)c4nc(c(-c5ccccc5)c5ccc2[nH]5)C=C4)C=C3)cc1)c1ccc2c3cc(Cl)ccc3n(C(=O)c3cocn3)c2c1
REMARK SMILES IDX 7 1 6 2 5 3 3 4 4 5 2 6 1 7 62 8 63 9 82 10 64 11 81 12
REMARK SMILES IDX 65 13 73 14 66 15 72 16 67 17 71 18 68 19 70 20 69 21 74 22
REMARK SMILES IDX 75 23 76 24 77 25 80 26 78 27 79 28 8 29 9 30 10 31 11 32
REMARK SMILES IDX 12 33 13 34 14 35 15 36 61 37 16 38 60 39 17 40 18 41 19 42
REMARK SMILES IDX 54 43 20 44 59 45 53 46 55 47 21 48 58 49 52 50 51 51 22 53
REMARK SMILES IDX 44 54 29 55 43 56 30 57 33 58 42 59 56 60 31 61 32 62 41 64
REMARK SMILES IDX 57 65 34 66 23 67 24 68 28 69 25 70 27 71 26 72 45 73 46 74
REMARK SMILES IDX 50 75 47 76 49 77 48 78 35 79 36 80 40 81 37 82 39 83 38 84
REMARK H PARENT 55 52 33 63
REMARK Flexibility Score: inf
ROOT
ATOM      1  C   UNL A   1      36.450  21.947  24.072  1.00  0.00     0.202 C 
ENDROOT
BRANCH   1   2
ATOM      2  C   UNL A   1      35.380  21.337  24.984  1.00  0.00     0.261 C 
BRANCH   2   3
ATOM      3  O   UNL A   1      34.143  21.177  24.273  1.00  0.00    -0.463 OA
BRANCH   3   4
ATOM      4  C   UNL A   1      33.098  21.908  24.745  1.00  0.00     0.313 C 
ATOM      5  O   UNL A   1      32.578  21.734  25.841  1.00  0.00    -0.252 OA
BRANCH   4   6
ATOM      6  C   UNL A   1      32.669  23.010  23.777  1.00  0.00     0.126 C 
ATOM      7  C   UNL A   1      33.264  22.954  22.364  1.00  0.00     0.025 C 
BRANCH   6   8
ATOM      8  C   UNL A   1      32.889  24.399  24.364  1.00  0.00    -0.032 A 
ATOM      9  C   UNL A   1      33.859  24.665  25.335  1.00  0.00     0.005 A 
ATOM     10  C   UNL A   1      32.070  25.442  23.933  1.00  0.00     0.032 A 
ATOM     11  C   UNL A   1      34.105  25.957  25.801  1.00  0.00     0.011 A 
ATOM     12  C   UNL A   1      32.184  26.698  24.557  1.00  0.00     0.058 A 
ATOM     13  C   UNL A   1      33.239  26.990  25.409  1.00  0.00     0.008 A 
ATOM     14  N   UNL A   1      31.330  27.805  24.520  1.00  0.00    -0.274 N 
ATOM     15  C   UNL A   1      33.142  28.360  25.757  1.00  0.00     0.009 A 
ATOM     16  C   UNL A   1      31.898  28.822  25.304  1.00  0.00     0.057 A 
ATOM     17  C   UNL A   1      33.975  29.194  26.533  1.00  0.00     0.031 A 
ATOM     18  C   UNL A   1      31.404  30.057  25.764  1.00  0.00     0.029 A 
ATOM     19  C   UNL A   1      33.504  30.439  26.932  1.00  0.00     0.041 A 
ATOM     20  C   UNL A   1      32.223  30.850  26.585  1.00  0.00     0.023 A 
ATOM     21  Cl  UNL A   1      34.497  31.441  27.916  1.00  0.00    -0.084 Cl
BRANCH  14  22
ATOM     22  C   UNL A   1      30.056  27.762  23.893  1.00  0.00     0.284 C 
ATOM     23  O   UNL A   1      29.382  26.760  24.132  1.00  0.00    -0.266 OA
BRANCH  22  24
ATOM     24  C   UNL A   1      29.521  28.749  22.967  1.00  0.00     0.167 A 
ATOM     25  C   UNL A   1      30.161  29.518  22.021  1.00  0.00     0.231 A 
ATOM     26  N   UNL A   1      28.150  28.925  22.820  1.00  0.00    -0.211 NA
ATOM     27  O   UNL A   1      29.214  30.173  21.286  1.00  0.00    -0.451 OA
ATOM     28  C   UNL A   1      28.034  29.753  21.814  1.00  0.00     0.308 A 
ENDBRANCH  22  24
ENDBRANCH  14  22
ENDBRANCH   6   8
ENDBRANCH   4   6
ENDBRANCH   3   4
ENDBRANCH   2   3
ENDBRANCH   1   2
BRANCH   1  29
ATOM     29  O   UNL A   1      37.723  22.243  24.648  1.00  0.00    -0.374 OA
BRANCH  29  30
ATOM     30  C   UNL A   1      38.154  21.441  25.743  1.00  0.00     0.202 C 
BRANCH  30  31
ATOM     31  C   UNL A   1      39.100  20.269  25.479  1.00  0.00     0.261 C 
BRANCH  31  32
ATOM     32  O   UNL A   1      39.920  19.980  26.616  1.00  0.00    -0.460 OA
BRANCH  32  33
ATOM     33  C   UNL A   1      41.207  19.715  26.306  1.00  0.00     0.338 C 
ATOM     34  O   UNL A   1      41.651  18.722  25.744  1.00  0.00    -0.246 OA
BRANCH  33  35
ATOM     35  C   UNL A   1      42.024  20.909  26.555  1.00  0.00     0.060 A 
ATOM     36  C   UNL A   1      42.247  21.259  27.893  1.00  0.00     0.016 A 
ATOM     37  C   UNL A   1      42.515  21.696  25.513  1.00  0.00     0.016 A 
ATOM     38  C   UNL A   1      42.909  22.439  28.199  1.00  0.00     0.010 A 
ATOM     39  C   UNL A   1      43.168  22.891  25.821  1.00  0.00     0.010 A 
ATOM     40  C   UNL A   1      43.324  23.284  27.162  1.00  0.00    -0.014 A 
BRANCH  40  41
ATOM     41  C   UNL A   1      43.755  24.657  27.493  1.00  0.00     0.031 A 
ATOM     42  C   UNL A   1      42.708  25.661  27.887  1.00  0.00     0.074 A 
ATOM     43  C   UNL A   1      45.057  24.983  27.495  1.00  0.00     0.049 A 
ATOM     44  N   UNL A   1      42.848  26.922  28.205  1.00  0.00    -0.248 NA
ATOM     45  C   UNL A   1      41.316  25.180  27.926  1.00  0.00     0.031 C 
ATOM     46  C   UNL A   1      46.158  24.070  27.190  1.00  0.00     0.029 A 
ATOM     47  N   UNL A   1      45.671  26.177  27.769  1.00  0.00    -0.354 N 
ATOM     48  C   UNL A   1      41.565  27.386  28.467  1.00  0.00     0.074 A 
ATOM     49  C   UNL A   1      40.657  26.284  28.246  1.00  0.00     0.031 C 
ATOM     50  C   UNL A   1      47.319  24.740  27.294  1.00  0.00     0.029 A 
ATOM     51  C   UNL A   1      47.036  26.133  27.632  1.00  0.00     0.049 A 
ATOM     52  H   UNL A   1      45.181  26.987  28.037  1.00  0.00     0.167 HD
ATOM     53  C   UNL A   1      41.182  28.623  28.862  1.00  0.00     0.031 A 
ATOM     54  C   UNL A   1      47.948  27.116  27.747  1.00  0.00     0.031 A 
ATOM     55  C   UNL A   1      42.092  29.716  29.072  1.00  0.00     0.049 A 
ATOM     56  C   UNL A   1      47.484  28.503  28.103  1.00  0.00     0.074 A 
ATOM     57  C   UNL A   1      41.810  31.005  29.487  1.00  0.00     0.029 A 
ATOM     58  N   UNL A   1      43.462  29.647  28.872  1.00  0.00    -0.354 N 
ATOM     59  N   UNL A   1      46.272  28.929  28.371  1.00  0.00    -0.248 NA
ATOM     60  C   UNL A   1      48.518  29.545  28.179  1.00  0.00     0.031 C 
ATOM     61  C   UNL A   1      43.003  31.735  29.475  1.00  0.00     0.029 A 
ATOM     62  C   UNL A   1      44.037  30.881  29.122  1.00  0.00     0.049 A 
ATOM     63  H   UNL A   1      43.953  28.841  28.594  1.00  0.00     0.167 HD
ATOM     64  C   UNL A   1      46.403  30.277  28.678  1.00  0.00     0.074 A 
ATOM     65  C   UNL A   1      47.813  30.594  28.579  1.00  0.00     0.031 C 
ATOM     66  C   UNL A   1      45.443  31.174  29.017  1.00  0.00     0.031 A 
BRANCH  53  67
ATOM     67  C   UNL A   1      39.709  28.869  29.045  1.00  0.00    -0.014 A 
ATOM     68  C   UNL A   1      39.083  28.698  30.290  1.00  0.00     0.009 A 
ATOM     69  C   UNL A   1      38.941  29.309  27.955  1.00  0.00     0.009 A 
ATOM     70  C   UNL A   1      37.713  28.933  30.431  1.00  0.00     0.001 A 
ATOM     71  C   UNL A   1      37.579  29.573  28.105  1.00  0.00     0.001 A 
ATOM     72  C   UNL A   1      36.964  29.377  29.341  1.00  0.00     0.000 A 
ENDBRANCH  53  67
BRANCH  54  73
ATOM     73  C   UNL A   1      49.386  26.833  27.504  1.00  0.00    -0.014 A 
ATOM     74  C   UNL A   1      50.271  26.637  28.576  1.00  0.00     0.009 A 
ATOM     75  C   UNL A   1      49.888  26.776  26.194  1.00  0.00     0.009 A 
ATOM     76  C   UNL A   1      51.631  26.420  28.341  1.00  0.00     0.001 A 
ATOM     77  C   UNL A   1      51.242  26.526  25.961  1.00  0.00     0.001 A 
ATOM     78  C   UNL A   1      52.114  26.360  27.036  1.00  0.00     0.000 A 
ENDBRANCH  54  73
BRANCH  66  79
ATOM     79  C   UNL A   1      45.893  32.571  29.345  1.00  0.00    -0.014 A 
ATOM     80  C   UNL A   1      45.902  33.586  28.377  1.00  0.00     0.009 A 
ATOM     81  C   UNL A   1      46.275  32.882  30.661  1.00  0.00     0.009 A 
ATOM     82  C   UNL A   1      46.320  34.876  28.711  1.00  0.00     0.001 A 
ATOM     83  C   UNL A   1      46.659  34.180  31.000  1.00  0.00     0.001 A 
ATOM     84  C   UNL A   1      46.692  35.172  30.022  1.00  0.00     0.000 A 
ENDBRANCH  66  79
ENDBRANCH  40  41
ENDBRANCH  33  35
ENDBRANCH  32  33
ENDBRANCH  31  32
ENDBRANCH  30  31
ENDBRANCH  29  30
ENDBRANCH   1  29
TORSDOF 17
ENDMDL
MODEL 2
REMARK VINA RESULT:     -11.1      4.422      9.642
REMARK SMILES C[C@@H](C(=O)OCCOCCOC(=O)c1ccc(-c2c3nc(c(-c4ccccc4)c4ccc([nH]4)c(-c4ccccc4)c4nc(c(-c5ccccc5)c5ccc2[nH]5)C=C4)C=C3)cc1)c1ccc2c3cc(Cl)ccc3n(C(=O)c3cocn3)c2c1
REMARK SMILES IDX 7 1 6 2 5 3 3 4 4 5 2 6 1 7 62 8 63 9 82 10 64 11 81 12
REMARK SMILES IDX 65 13 73 14 66 15 72 16 67 17 71 18 68 19 70 20 69 21 74 22
REMARK SMILES IDX 75 23 76 24 77 25 80 26 78 27 79 28 8 29 9 30 10 31 11 32
REMARK SMILES IDX 12 33 13 34 14 35 15 36 61 37 16 38 60 39 17 40 18 41 19 42
REMARK SMILES IDX 54 43 20 44 59 45 53 46 55 47 21 48 58 49 52 50 51 51 22 53
REMARK SMILES IDX 44 54 29 55 43 56 30 57 33 58 42 59 56 60 31 61 32 62 41 64
REMARK SMILES IDX 57 65 34 66 23 67 24 68 28 69 25 70 27 71 26 72 45 73 46 74
REMARK SMILES IDX 50 75 47 76 49 77 48 78 35 79 36 80 40 81 37 82 39 83 38 84
REMARK H PARENT 55 52 33 63
REMARK Flexibility Score: inf
ROOT
ATOM      1  C   UNL A   1      32.839  29.388  25.039  1.00  0.00     0.202 C 
ENDROOT
BRANCH   1   2
ATOM      2  C   UNL A   1      31.692  28.980  24.109  1.00  0.00     0.261 C 
BRANCH   2   3
ATOM      3  O   UNL A   1      31.014  27.823  24.621  1.00  0.00    -0.463 OA
BRANCH   3   4
ATOM      4  C   UNL A   1      31.132  26.696  23.869  1.00  0.00     0.313 C 
ATOM      5  O   UNL A   1      31.351  26.694  22.663  1.00  0.00    -0.252 OA
BRANCH   4   6
ATOM      6  C   UNL A   1      31.010  25.420  24.702  1.00  0.00     0.126 C 
ATOM      7  C   UNL A   1      30.277  25.543  26.043  1.00  0.00     0.025 C 
BRANCH   6   8
ATOM      8  C   UNL A   1      32.363  24.755  24.923  1.00  0.00    -0.032 A 
ATOM      9  C   UNL A   1      33.544  25.482  25.102  1.00  0.00     0.005 A 
ATOM     10  C   UNL A   1      32.430  23.362  24.919  1.00  0.00     0.032 A 
ATOM     11  C   UNL A   1      34.760  24.861  25.388  1.00  0.00     0.011 A 
ATOM     12  C   UNL A   1      33.690  22.742  25.001  1.00  0.00     0.058 A 
ATOM     13  C   UNL A   1      34.831  23.460  25.324  1.00  0.00     0.008 A 
ATOM     14  N   UNL A   1      34.062  21.417  24.748  1.00  0.00    -0.274 N 
ATOM     15  C   UNL A   1      35.896  22.536  25.459  1.00  0.00     0.009 A 
ATOM     16  C   UNL A   1      35.441  21.297  24.984  1.00  0.00     0.057 A 
ATOM     17  C   UNL A   1      37.246  22.703  25.835  1.00  0.00     0.031 A 
ATOM     18  C   UNL A   1      36.365  20.268  24.721  1.00  0.00     0.029 A 
ATOM     19  C   UNL A   1      38.141  21.660  25.630  1.00  0.00     0.041 A 
ATOM     20  C   UNL A   1      37.716  20.474  25.047  1.00  0.00     0.023 A 
ATOM     21  Cl  UNL A   1      39.797  21.877  26.044  1.00  0.00    -0.084 Cl
BRANCH  14  22
ATOM     22  C   UNL A   1      33.158  20.464  24.204  1.00  0.00     0.284 C 
ATOM     23  O   UNL A   1      32.415  20.885  23.318  1.00  0.00    -0.266 OA
BRANCH  22  24
ATOM     24  C   UNL A   1      33.002  19.085  24.639  1.00  0.00     0.167 A 
ATOM     25  C   UNL A   1      32.796  18.568  25.898  1.00  0.00     0.231 A 
ATOM     26  N   UNL A   1      32.879  18.052  23.716  1.00  0.00    -0.211 NA
ATOM     27  O   UNL A   1      32.547  17.230  25.779  1.00  0.00    -0.451 OA
ATOM     28  C   UNL A   1      32.597  17.000  24.440  1.00  0.00     0.308 A 
ENDBRANCH  22  24
ENDBRANCH  14  22
ENDBRANCH   6   8
ENDBRANCH   4   6
ENDBRANCH   3   4
ENDBRANCH   2   3
ENDBRANCH   1   2
BRANCH   1  29
ATOM     29  O   UNL A   1      32.501  30.037  26.265  1.00  0.00    -0.374 OA
BRANCH  29  30
ATOM     30  C   UNL A   1      31.453  31.001  26.235  1.00  0.00     0.202 C 
BRANCH  30  31
ATOM     31  C   UNL A   1      31.654  32.340  26.946  1.00  0.00     0.261 C 
BRANCH  31  32
ATOM     32  O   UNL A   1      33.029  32.568  27.273  1.00  0.00    -0.460 OA
BRANCH  32  33
ATOM     33  C   UNL A   1      33.226  33.628  28.087  1.00  0.00     0.338 C 
ATOM     34  O   UNL A   1      32.454  34.553  28.309  1.00  0.00    -0.246 OA
BRANCH  33  35
ATOM     35  C   UNL A   1      34.453  33.423  28.865  1.00  0.00     0.060 A 
ATOM     36  C   UNL A   1      35.663  33.758  28.245  1.00  0.00     0.016 A 
ATOM     37  C   UNL A   1      34.430  32.869  30.146  1.00  0.00     0.016 A 
ATOM     38  C   UNL A   1      36.866  33.480  28.877  1.00  0.00     0.010 A 
ATOM     39  C   UNL A   1      35.640  32.576  30.776  1.00  0.00     0.010 A 
ATOM     40  C   UNL A   1      36.857  32.839  30.122  1.00  0.00    -0.014 A 
BRANCH  40  41
ATOM     41  C   UNL A   1      38.122  32.285  30.646  1.00  0.00     0.031 A 
ATOM     42  C   UNL A   1      38.665  31.028  30.026  1.00  0.00     0.074 A 
ATOM     43  C   UNL A   1      38.797  32.923  31.616  1.00  0.00     0.049 A 
ATOM     44  N   UNL A   1      39.745  30.356  30.328  1.00  0.00    -0.248 NA
ATOM     45  C   UNL A   1      37.885  30.451  28.918  1.00  0.00     0.031 C 
ATOM     46  C   UNL A   1      38.392  34.181  32.242  1.00  0.00     0.029 A 
ATOM     47  N   UNL A   1      39.972  32.595  32.239  1.00  0.00    -0.354 N 
ATOM     48  C   UNL A   1      39.766  29.272  29.460  1.00  0.00     0.074 A 
ATOM     49  C   UNL A   1      38.581  29.358  28.638  1.00  0.00     0.031 C 
ATOM     50  C   UNL A   1      39.308  34.520  33.165  1.00  0.00     0.029 A 
ATOM     51  C   UNL A   1      40.337  33.484  33.219  1.00  0.00     0.049 A 
ATOM     52  H   UNL A   1      40.503  31.800  32.007  1.00  0.00     0.167 HD
ATOM     53  C   UNL A   1      40.696  28.294  29.357  1.00  0.00     0.031 A 
ATOM     54  C   UNL A   1      41.375  33.448  34.075  1.00  0.00     0.031 A 
ATOM     55  C   UNL A   1      41.869  28.211  30.185  1.00  0.00     0.049 A 
ATOM     56  C   UNL A   1      42.347  32.303  33.995  1.00  0.00     0.074 A 
ATOM     57  C   UNL A   1      42.883  27.271  30.153  1.00  0.00     0.029 A 
ATOM     58  N   UNL A   1      42.176  29.101  31.202  1.00  0.00    -0.354 N 
ATOM     59  N   UNL A   1      42.373  31.294  33.157  1.00  0.00    -0.248 NA
ATOM     60  C   UNL A   1      43.440  32.295  34.977  1.00  0.00     0.031 C 
ATOM     61  C   UNL A   1      43.771  27.555  31.195  1.00  0.00     0.029 A 
ATOM     62  C   UNL A   1      43.348  28.713  31.829  1.00  0.00     0.049 A 
ATOM     63  H   UNL A   1      41.641  29.892  31.444  1.00  0.00     0.167 HD
ATOM     64  C   UNL A   1      43.498  30.551  33.489  1.00  0.00     0.074 A 
ATOM     65  C   UNL A   1      44.138  31.235  34.595  1.00  0.00     0.031 C 
ATOM     66  C   UNL A   1      43.966  29.408  32.929  1.00  0.00     0.031 A 
BRANCH  53  67
ATOM     67  C   UNL A   1      40.455  27.210  28.342  1.00  0.00    -0.014 A 
ATOM     68  C   UNL A   1      40.988  27.282  27.046  1.00  0.00     0.009 A 
ATOM     69  C   UNL A   1      39.704  26.079  28.704  1.00  0.00     0.009 A 
ATOM     70  C   UNL A   1      40.748  26.261  26.124  1.00  0.00     0.001 A 
ATOM     71  C   UNL A   1      39.491  25.046  27.791  1.00  0.00     0.001 A 
ATOM     72  C   UNL A   1      40.005  25.141  26.499  1.00  0.00     0.000 A 
ENDBRANCH  53  67
BRANCH  54  73
ATOM     73  C   UNL A   1      41.539  34.517  35.094  1.00  0.00    -0.014 A 
ATOM     74  C   UNL A   1      42.161  35.732  34.767  1.00  0.00     0.009 A 
ATOM     75  C   UNL A   1      41.091  34.319  36.410  1.00  0.00     0.009 A 
ATOM     76  C   UNL A   1      42.357  36.712  35.743  1.00  0.00     0.001 A 
ATOM     77  C   UNL A   1      41.257  35.314  37.375  1.00  0.00     0.001 A 
ATOM     78  C   UNL A   1      41.901  36.506  37.043  1.00  0.00     0.000 A 
ENDBRANCH  54  73
BRANCH  66  79
ATOM     79  C   UNL A   1      45.251  28.850  33.475  1.00  0.00    -0.014 A 
ATOM     80  C   UNL A   1      46.498  29.256  32.976  1.00  0.00     0.009 A 
ATOM     81  C   UNL A   1      45.209  27.933  34.538  1.00  0.00     0.009 A 
ATOM     82  C   UNL A   1      47.676  28.726  33.506  1.00  0.00     0.001 A 
ATOM     83  C   UNL A   1      46.389  27.432  35.089  1.00  0.00     0.001 A 
ATOM     84  C   UNL A   1      47.621  27.820  34.564  1.00  0.00     0.000 A 
ENDBRANCH  66  79
ENDBRANCH  40  41
ENDBRANCH  33  35
ENDBRANCH  32  33
ENDBRANCH  31  32
ENDBRANCH  30  31
ENDBRANCH  29  30
ENDBRANCH   1  29
TORSDOF 17
ENDMDL
MODEL 3
REMARK VINA RESULT:     -11.0      0.546      5.706
REMARK SMILES C[C@@H](C(=O)OCCOCCOC(=O)c1ccc(-c2c3nc(c(-c4ccccc4)c4ccc([nH]4)c(-c4ccccc4)c4nc(c(-c5ccccc5)c5ccc2[nH]5)C=C4)C=C3)cc1)c1ccc2c3cc(Cl)ccc3n(C(=O)c3cocn3)c2c1
REMARK SMILES IDX 7 1 6 2 5 3 3 4 4 5 2 6 1 7 62 8 63 9 82 10 64 11 81 12
REMARK SMILES IDX 65 13 73 14 66 15 72 16 67 17 71 18 68 19 70 20 69 21 74 22
REMARK SMILES IDX 75 23 76 24 77 25 80 26 78 27 79 28 8 29 9 30 10 31 11 32
REMARK SMILES IDX 12 33 13 34 14 35 15 36 61 37 16 38 60 39 17 40 18 41 19 42
REMARK SMILES IDX 54 43 20 44 59 45 53 46 55 47 21 48 58 49 52 50 51 51 22 53
REMARK SMILES IDX 44 54 29 55 43 56 30 57 33 58 42 59 56 60 31 61 32 62 41 64
REMARK SMILES IDX 57 65 34 66 23 67 24 68 28 69 25 70 27 71 26 72 45 73 46 74
REMARK SMILES IDX 50 75 47 76 49 77 48 78 35 79 36 80 40 81 37 82 39 83 38 84
REMARK H PARENT 55 52 33 63
REMARK Flexibility Score: inf
ROOT
ATOM      1  C   UNL A   1      36.908  21.781  25.427  1.00  0.00     0.202 C 
ENDROOT
BRANCH   1   2
ATOM      2  C   UNL A   1      35.465  21.744  25.942  1.00  0.00     0.261 C 
BRANCH   2   3
ATOM      3  O   UNL A   1      34.552  21.479  24.866  1.00  0.00    -0.463 OA
BRANCH   3   4
ATOM      4  C   UNL A   1      33.327  22.057  24.983  1.00  0.00     0.313 C 
ATOM      5  O   UNL A   1      32.511  21.769  25.852  1.00  0.00    -0.252 OA
BRANCH   4   6
ATOM      6  C   UNL A   1      33.090  23.146  23.938  1.00  0.00     0.126 C 
ATOM      7  C   UNL A   1      33.921  23.058  22.652  1.00  0.00     0.025 C 
BRANCH   6   8
ATOM      8  C   UNL A   1      33.225  24.543  24.533  1.00  0.00    -0.032 A 
ATOM      9  C   UNL A   1      34.152  24.853  25.532  1.00  0.00     0.005 A 
ATOM     10  C   UNL A   1      32.370  25.547  24.078  1.00  0.00     0.032 A 
ATOM     11  C   UNL A   1      34.322  26.154  26.007  1.00  0.00     0.011 A 
ATOM     12  C   UNL A   1      32.406  26.805  24.706  1.00  0.00     0.058 A 
ATOM     13  C   UNL A   1      33.420  27.145  25.590  1.00  0.00     0.008 A 
ATOM     14  N   UNL A   1      31.501  27.870  24.645  1.00  0.00    -0.274 N 
ATOM     15  C   UNL A   1      33.247  28.508  25.936  1.00  0.00     0.009 A 
ATOM     16  C   UNL A   1      31.996  28.912  25.446  1.00  0.00     0.057 A 
ATOM     17  C   UNL A   1      34.015  29.380  26.737  1.00  0.00     0.031 A 
ATOM     18  C   UNL A   1      31.429  30.121  25.892  1.00  0.00     0.029 A 
ATOM     19  C   UNL A   1      33.472  30.600  27.122  1.00  0.00     0.041 A 
ATOM     20  C   UNL A   1      32.185  30.949  26.738  1.00  0.00     0.023 A 
ATOM     21  Cl  UNL A   1      34.387  31.646  28.138  1.00  0.00    -0.084 Cl
BRANCH  14  22
ATOM     22  C   UNL A   1      30.250  27.768  23.979  1.00  0.00     0.284 C 
ATOM     23  O   UNL A   1      29.615  26.737  24.202  1.00  0.00    -0.266 OA
BRANCH  22  24
ATOM     24  C   UNL A   1      29.700  28.727  23.033  1.00  0.00     0.167 A 
ATOM     25  C   UNL A   1      30.313  29.424  22.017  1.00  0.00     0.231 A 
ATOM     26  N   UNL A   1      28.330  28.946  22.950  1.00  0.00    -0.211 NA
ATOM     27  O   UNL A   1      29.350  30.076  21.300  1.00  0.00    -0.451 OA
ATOM     28  C   UNL A   1      28.187  29.727  21.910  1.00  0.00     0.308 A 
ENDBRANCH  22  24
ENDBRANCH  14  22
ENDBRANCH   6   8
ENDBRANCH   4   6
ENDBRANCH   3   4
ENDBRANCH   2   3
ENDBRANCH   1   2
BRANCH   1  29
ATOM     29  O   UNL A   1      37.308  20.769  24.503  1.00  0.00    -0.374 OA
BRANCH  29  30
ATOM     30  C   UNL A   1      38.176  19.745  24.979  1.00  0.00     0.202 C 
BRANCH  30  31
ATOM     31  C   UNL A   1      39.422  20.137  25.773  1.00  0.00     0.261 C 
BRANCH  31  32
ATOM     32  O   UNL A   1      40.619  19.636  25.168  1.00  0.00    -0.460 OA
BRANCH  32  33
ATOM     33  C   UNL A   1      41.608  19.378  26.051  1.00  0.00     0.338 C 
ATOM     34  O   UNL A   1      42.036  18.283  26.394  1.00  0.00    -0.246 OA
BRANCH  33  35
ATOM     35  C   UNL A   1      42.276  20.634  26.414  1.00  0.00     0.060 A 
ATOM     36  C   UNL A   1      42.242  21.005  27.763  1.00  0.00     0.016 A 
ATOM     37  C   UNL A   1      42.875  21.453  25.456  1.00  0.00     0.016 A 
ATOM     38  C   UNL A   1      42.749  22.235  28.156  1.00  0.00     0.010 A 
ATOM     39  C   UNL A   1      43.373  22.697  25.849  1.00  0.00     0.010 A 
ATOM     40  C   UNL A   1      43.268  23.106  27.191  1.00  0.00    -0.014 A 
BRANCH  40  41
ATOM     41  C   UNL A   1      43.530  24.510  27.566  1.00  0.00     0.031 A 
ATOM     42  C   UNL A   1      44.953  24.991  27.595  1.00  0.00     0.074 A 
ATOM     43  C   UNL A   1      42.513  25.349  27.821  1.00  0.00     0.049 A 
ATOM     44  N   UNL A   1      45.422  26.171  27.906  1.00  0.00    -0.248 NA
ATOM     45  C   UNL A   1      45.987  24.010  27.226  1.00  0.00     0.031 C 
ATOM     46  C   UNL A   1      41.094  25.002  27.760  1.00  0.00     0.029 A 
ATOM     47  N   UNL A   1      42.525  26.671  28.179  1.00  0.00    -0.354 N 
ATOM     48  C   UNL A   1      46.802  26.070  27.784  1.00  0.00     0.074 A 
ATOM     49  C   UNL A   1      47.099  24.710  27.397  1.00  0.00     0.031 C 
ATOM     50  C   UNL A   1      40.368  26.090  28.072  1.00  0.00     0.029 A 
ATOM     51  C   UNL A   1      41.272  27.191  28.392  1.00  0.00     0.049 A 
ATOM     52  H   UNL A   1      43.351  27.198  28.275  1.00  0.00     0.167 HD
ATOM     53  C   UNL A   1      47.737  27.030  27.973  1.00  0.00     0.031 A 
ATOM     54  C   UNL A   1      40.905  28.414  28.818  1.00  0.00     0.031 A 
ATOM     55  C   UNL A   1      47.432  28.380  28.365  1.00  0.00     0.049 A 
ATOM     56  C   UNL A   1      41.971  29.437  29.104  1.00  0.00     0.074 A 
ATOM     57  C   UNL A   1      48.302  29.436  28.569  1.00  0.00     0.029 A 
ATOM     58  N   UNL A   1      46.155  28.855  28.622  1.00  0.00    -0.354 N 
ATOM     59  N   UNL A   1      43.272  29.341  28.964  1.00  0.00    -0.248 NA
ATOM     60  C   UNL A   1      41.516  30.743  29.601  1.00  0.00     0.031 C 
ATOM     61  C   UNL A   1      47.557  30.533  29.014  1.00  0.00     0.029 A 
ATOM     62  C   UNL A   1      46.216  30.180  29.017  1.00  0.00     0.049 A 
ATOM     63  H   UNL A   1      45.328  28.327  28.537  1.00  0.00     0.167 HD
ATOM     64  C   UNL A   1      43.786  30.579  29.324  1.00  0.00     0.074 A 
ATOM     65  C   UNL A   1      42.655  31.416  29.673  1.00  0.00     0.031 C 
ATOM     66  C   UNL A   1      45.078  30.993  29.360  1.00  0.00     0.031 A 
BRANCH  53  67
ATOM     67  C   UNL A   1      49.179  26.640  27.804  1.00  0.00    -0.014 A 
ATOM     68  C   UNL A   1      49.957  26.206  28.889  1.00  0.00     0.009 A 
ATOM     69  C   UNL A   1      49.760  26.678  26.526  1.00  0.00     0.009 A 
ATOM     70  C   UNL A   1      51.295  25.849  28.702  1.00  0.00     0.001 A 
ATOM     71  C   UNL A   1      51.088  26.293  26.337  1.00  0.00     0.001 A 
ATOM     72  C   UNL A   1      51.857  25.887  27.426  1.00  0.00     0.000 A 
ENDBRANCH  53  67
BRANCH  54  73
ATOM     73  C   UNL A   1      39.468  28.734  29.019  1.00  0.00    -0.014 A 
ATOM     74  C   UNL A   1      38.697  29.266  27.974  1.00  0.00     0.009 A 
ATOM     75  C   UNL A   1      38.863  28.528  30.269  1.00  0.00     0.009 A 
ATOM     76  C   UNL A   1      37.360  29.610  28.185  1.00  0.00     0.001 A 
ATOM     77  C   UNL A   1      37.517  28.842  30.468  1.00  0.00     0.001 A 
ATOM     78  C   UNL A   1      36.770  29.394  29.428  1.00  0.00     0.000 A 
ENDBRANCH  54  73
BRANCH  66  79
ATOM     79  C   UNL A   1      45.331  32.423  29.750  1.00  0.00    -0.014 A 
ATOM     80  C   UNL A   1      45.583  32.787  31.081  1.00  0.00     0.009 A 
ATOM     81  C   UNL A   1      45.360  33.415  28.756  1.00  0.00     0.009 A 
ATOM     82  C   UNL A   1      45.821  34.122  31.414  1.00  0.00     0.001 A 
ATOM     83  C   UNL A   1      45.632  34.743  29.087  1.00  0.00     0.001 A 
ATOM     84  C   UNL A   1      45.851  35.096  30.417  1.00  0.00     0.000 A 
ENDBRANCH  66  79
ENDBRANCH  40  41
ENDBRANCH  33  35
ENDBRANCH  32  33
ENDBRANCH  31  32
ENDBRANCH  30  31
ENDBRANCH  29  30
ENDBRANCH   1  29
TORSDOF 17
ENDMDL
