MODEL 1
REMARK VINA RESULT:     -10.0      0.000      0.000
REMARK SMILES CCC[C@@H](Oc1ccc(-c2ccccc2)cc1)C(=O)OCCOCCOC(=O)c1ccc(-c2c3nc(c(-c4ccccc4)c4ccc([nH]4)c(-c4ccccc4)c4nc(c(-c5ccccc5)c5ccc2[nH]5)C=C4)C=C3)cc1
REMARK SMILES IDX 22 1 21 2 20 3 18 4 19 5 4 6 3 7 2 8 1 9 5 10 6 11 7 12
REMARK SMILES IDX 17 13 8 14 16 15 9 16 10 17 11 18 15 19 12 20 14 21 13 22
REMARK SMILES IDX 23 23 24 24 25 25 26 26 27 27 28 28 29 29 30 30 76 31 31 32
REMARK SMILES IDX 75 33 32 34 33 35 34 36 69 37 35 38 74 39 68 40 70 41 36 42
REMARK SMILES IDX 73 43 67 44 66 45 37 47 59 48 44 49 58 50 45 51 48 52 57 53
REMARK SMILES IDX 71 54 46 55 47 56 56 58 72 59 49 60 38 61 39 62 43 63 40 64
REMARK SMILES IDX 42 65 41 66 60 67 61 68 65 69 62 70 64 71 63 72 50 73 51 74
REMARK SMILES IDX 55 75 52 76 54 77 53 78
REMARK H PARENT 70 46 48 57
REMARK Flexibility Score: inf
ROOT
ATOM      1  C   UNL A   1      33.645  20.807  25.882  1.00  0.00     0.202 C 
ENDROOT
BRANCH   1   2
ATOM      2  C   UNL A   1      33.556  22.165  26.587  1.00  0.00     0.261 C 
BRANCH   2   3
ATOM      3  O   UNL A   1      32.683  23.072  25.886  1.00  0.00    -0.461 OA
BRANCH   3   4
ATOM      4  C   UNL A   1      33.186  24.315  25.629  1.00  0.00     0.347 C 
ATOM      5  O   UNL A   1      34.144  24.815  26.209  1.00  0.00    -0.248 OA
BRANCH   4   6
ATOM      6  C   UNL A   1      32.420  25.037  24.518  1.00  0.00     0.282 C 
BRANCH   6   7
ATOM      7  C   UNL A   1      32.109  24.100  23.330  1.00  0.00     0.057 C 
BRANCH   7   8
ATOM      8  C   UNL A   1      32.786  24.425  21.990  1.00  0.00     0.001 C 
ATOM      9  C   UNL A   1      33.011  25.907  21.732  1.00  0.00     0.004 C 
ENDBRANCH   7   8
ENDBRANCH   6   7
BRANCH   6  10
ATOM     10  O   UNL A   1      31.220  25.541  25.133  1.00  0.00    -0.479 OA
BRANCH  10  11
ATOM     11  C   UNL A   1      30.754  26.637  24.468  1.00  0.00     0.120 A 
ATOM     12  C   UNL A   1      29.580  26.592  23.725  1.00  0.00     0.047 A 
ATOM     13  C   UNL A   1      31.489  27.810  24.553  1.00  0.00     0.047 A 
ATOM     14  C   UNL A   1      29.091  27.767  23.139  1.00  0.00     0.012 A 
ATOM     15  C   UNL A   1      30.973  28.985  24.007  1.00  0.00     0.012 A 
ATOM     16  C   UNL A   1      29.758  28.998  23.297  1.00  0.00    -0.018 A 
BRANCH  16  17
ATOM     17  C   UNL A   1      29.207  30.268  22.764  1.00  0.00    -0.018 A 
ATOM     18  C   UNL A   1      28.698  30.365  21.457  1.00  0.00     0.009 A 
ATOM     19  C   UNL A   1      29.137  31.424  23.566  1.00  0.00     0.009 A 
ATOM     20  C   UNL A   1      28.141  31.556  20.977  1.00  0.00     0.001 A 
ATOM     21  C   UNL A   1      28.566  32.610  23.096  1.00  0.00     0.001 A 
ATOM     22  C   UNL A   1      28.069  32.676  21.800  1.00  0.00     0.000 A 
ENDBRANCH  16  17
ENDBRANCH  10  11
ENDBRANCH   6  10
ENDBRANCH   4   6
ENDBRANCH   3   4
ENDBRANCH   2   3
ENDBRANCH   1   2
BRANCH   1  23
ATOM     23  O   UNL A   1      34.509  20.735  24.746  1.00  0.00    -0.374 OA
BRANCH  23  24
ATOM     24  C   UNL A   1      35.747  21.434  24.825  1.00  0.00     0.202 C 
BRANCH  24  25
ATOM     25  C   UNL A   1      36.991  20.583  25.121  1.00  0.00     0.261 C 
BRANCH  25  26
ATOM     26  O   UNL A   1      38.217  21.331  25.035  1.00  0.00    -0.460 OA
BRANCH  26  27
ATOM     27  C   UNL A   1      39.093  21.091  26.040  1.00  0.00     0.338 C 
ATOM     28  O   UNL A   1      39.552  20.006  26.381  1.00  0.00    -0.246 OA
BRANCH  27  29
ATOM     29  C   UNL A   1      39.580  22.352  26.624  1.00  0.00     0.060 A 
ATOM     30  C   UNL A   1      39.011  23.541  26.151  1.00  0.00     0.016 A 
ATOM     31  C   UNL A   1      40.641  22.386  27.531  1.00  0.00     0.016 A 
ATOM     32  C   UNL A   1      39.535  24.772  26.543  1.00  0.00     0.010 A 
ATOM     33  C   UNL A   1      41.173  23.624  27.916  1.00  0.00     0.010 A 
ATOM     34  C   UNL A   1      40.646  24.820  27.395  1.00  0.00    -0.014 A 
BRANCH  34  35
ATOM     35  C   UNL A   1      41.335  26.116  27.615  1.00  0.00     0.031 A 
ATOM     36  C   UNL A   1      40.685  27.153  28.492  1.00  0.00     0.074 A 
ATOM     37  C   UNL A   1      42.548  26.353  27.085  1.00  0.00     0.049 A 
ATOM     38  N   UNL A   1      41.119  28.341  28.832  1.00  0.00    -0.248 NA
ATOM     39  C   UNL A   1      39.376  26.802  29.066  1.00  0.00     0.031 C 
ATOM     40  C   UNL A   1      43.308  25.418  26.258  1.00  0.00     0.029 A 
ATOM     41  N   UNL A   1      43.354  27.460  27.174  1.00  0.00    -0.354 N 
ATOM     42  C   UNL A   1      40.138  28.878  29.656  1.00  0.00     0.074 A 
ATOM     43  C   UNL A   1      39.075  27.901  29.743  1.00  0.00     0.031 C 
ATOM     44  C   UNL A   1      44.474  25.992  25.914  1.00  0.00     0.029 A 
ATOM     45  C   UNL A   1      44.529  27.341  26.474  1.00  0.00     0.049 A 
ATOM     46  H   UNL A   1      43.114  28.263  27.691  1.00  0.00     0.167 HD
ATOM     47  C   UNL A   1      40.124  30.075  30.291  1.00  0.00     0.031 A 
ATOM     48  C   UNL A   1      45.530  28.224  26.293  1.00  0.00     0.031 A 
ATOM     49  C   UNL A   1      41.170  31.058  30.201  1.00  0.00     0.049 A 
ATOM     50  C   UNL A   1      45.453  29.580  26.942  1.00  0.00     0.074 A 
ATOM     51  C   UNL A   1      41.248  32.294  30.818  1.00  0.00     0.029 A 
ATOM     52  N   UNL A   1      42.318  30.920  29.436  1.00  0.00    -0.354 N 
ATOM     53  N   UNL A   1      44.530  30.065  27.736  1.00  0.00    -0.248 NA
ATOM     54  C   UNL A   1      46.562  30.507  26.671  1.00  0.00     0.031 C 
ATOM     55  C   UNL A   1      42.420  32.926  30.388  1.00  0.00     0.029 A 
ATOM     56  C   UNL A   1      43.097  32.059  29.544  1.00  0.00     0.049 A 
ATOM     57  H   UNL A   1      42.545  30.128  28.897  1.00  0.00     0.167 HD
ATOM     58  C   UNL A   1      44.960  31.342  28.080  1.00  0.00     0.074 A 
ATOM     59  C   UNL A   1      46.231  31.550  27.417  1.00  0.00     0.031 C 
ATOM     60  C   UNL A   1      44.356  32.256  28.877  1.00  0.00     0.031 A 
BRANCH  47  61
ATOM     61  C   UNL A   1      38.915  30.398  31.122  1.00  0.00    -0.014 A 
ATOM     62  C   UNL A   1      38.877  30.110  32.495  1.00  0.00     0.009 A 
ATOM     63  C   UNL A   1      37.810  31.024  30.525  1.00  0.00     0.009 A 
ATOM     64  C   UNL A   1      37.742  30.416  33.249  1.00  0.00     0.001 A 
ATOM     65  C   UNL A   1      36.686  31.350  31.286  1.00  0.00     0.001 A 
ATOM     66  C   UNL A   1      36.649  31.038  32.645  1.00  0.00     0.000 A 
ENDBRANCH  47  61
BRANCH  48  67
ATOM     67  C   UNL A   1      46.693  27.864  25.442  1.00  0.00    -0.014 A 
ATOM     68  C   UNL A   1      46.639  28.028  24.050  1.00  0.00     0.009 A 
ATOM     69  C   UNL A   1      47.859  27.337  26.020  1.00  0.00     0.009 A 
ATOM     70  C   UNL A   1      47.723  27.650  23.252  1.00  0.00     0.001 A 
ATOM     71  C   UNL A   1      48.948  26.983  25.222  1.00  0.00     0.001 A 
ATOM     72  C   UNL A   1      48.877  27.132  23.839  1.00  0.00     0.000 A 
ENDBRANCH  48  67
BRANCH  60  73
ATOM     73  C   UNL A   1      45.075  33.557  29.101  1.00  0.00    -0.014 A 
ATOM     74  C   UNL A   1      46.009  33.702  30.138  1.00  0.00     0.009 A 
ATOM     75  C   UNL A   1      44.844  34.638  28.236  1.00  0.00     0.009 A 
ATOM     76  C   UNL A   1      46.677  34.915  30.322  1.00  0.00     0.001 A 
ATOM     77  C   UNL A   1      45.531  35.840  28.407  1.00  0.00     0.001 A 
ATOM     78  C   UNL A   1      46.440  35.981  29.453  1.00  0.00     0.000 A 
ENDBRANCH  60  73
ENDBRANCH  34  35
ENDBRANCH  27  29
ENDBRANCH  26  27
ENDBRANCH  25  26
ENDBRANCH  24  25
ENDBRANCH  23  24
ENDBRANCH   1  23
TORSDOF 19
ENDMDL
MODEL 2
REMARK VINA RESULT:     -10.0      4.024      9.500
REMARK SMILES CCC[C@@H](Oc1ccc(-c2ccccc2)cc1)C(=O)OCCOCCOC(=O)c1ccc(-c2c3nc(c(-c4ccccc4)c4ccc([nH]4)c(-c4ccccc4)c4nc(c(-c5ccccc5)c5ccc2[nH]5)C=C4)C=C3)cc1
REMARK SMILES IDX 22 1 21 2 20 3 18 4 19 5 4 6 3 7 2 8 1 9 5 10 6 11 7 12
REMARK SMILES IDX 17 13 8 14 16 15 9 16 10 17 11 18 15 19 12 20 14 21 13 22
REMARK SMILES IDX 23 23 24 24 25 25 26 26 27 27 28 28 29 29 30 30 76 31 31 32
REMARK SMILES IDX 75 33 32 34 33 35 34 36 69 37 35 38 74 39 68 40 70 41 36 42
REMARK SMILES IDX 73 43 67 44 66 45 37 47 59 48 44 49 58 50 45 51 48 52 57 53
REMARK SMILES IDX 71 54 46 55 47 56 56 58 72 59 49 60 38 61 39 62 43 63 40 64
REMARK SMILES IDX 42 65 41 66 60 67 61 68 65 69 62 70 64 71 63 72 50 73 51 74
REMARK SMILES IDX 55 75 52 76 54 77 53 78
REMARK H PARENT 70 46 48 57
REMARK Flexibility Score: inf
ROOT
ATOM      1  C   UNL A   1      32.067  29.120  25.199  1.00  0.00     0.202 C 
ENDROOT
BRANCH   1   2
ATOM      2  C   UNL A   1      33.313  28.500  24.557  1.00  0.00     0.261 C 
BRANCH   2   3
ATOM      3  O   UNL A   1      33.458  27.110  24.912  1.00  0.00    -0.461 OA
BRANCH   3   4
ATOM      4  C   UNL A   1      33.430  26.219  23.879  1.00  0.00     0.347 C 
ATOM      5  O   UNL A   1      33.569  26.513  22.697  1.00  0.00    -0.248 OA
BRANCH   4   6
ATOM      6  C   UNL A   1      33.208  24.781  24.355  1.00  0.00     0.282 C 
BRANCH   6   7
ATOM      7  C   UNL A   1      31.926  24.648  25.206  1.00  0.00     0.057 C 
BRANCH   7   8
ATOM      8  C   UNL A   1      32.097  24.154  26.651  1.00  0.00     0.001 C 
ATOM      9  C   UNL A   1      31.839  22.670  26.852  1.00  0.00     0.004 C 
ENDBRANCH   7   8
ENDBRANCH   6   7
BRANCH   6  10
ATOM     10  O   UNL A   1      33.146  23.979  23.161  1.00  0.00    -0.479 OA
BRANCH  10  11
ATOM     11  C   UNL A   1      33.336  22.659  23.450  1.00  0.00     0.120 A 
ATOM     12  C   UNL A   1      34.467  22.219  24.131  1.00  0.00     0.047 A 
ATOM     13  C   UNL A   1      32.363  21.758  23.046  1.00  0.00     0.047 A 
ATOM     14  C   UNL A   1      34.571  20.869  24.490  1.00  0.00     0.012 A 
ATOM     15  C   UNL A   1      32.451  20.426  23.447  1.00  0.00     0.012 A 
ATOM     16  C   UNL A   1      33.549  19.948  24.187  1.00  0.00    -0.018 A 
BRANCH  16  17
ATOM     17  C   UNL A   1      33.598  18.536  24.640  1.00  0.00    -0.018 A 
ATOM     18  C   UNL A   1      32.531  17.945  25.339  1.00  0.00     0.009 A 
ATOM     19  C   UNL A   1      34.707  17.717  24.352  1.00  0.00     0.009 A 
ATOM     20  C   UNL A   1      32.568  16.600  25.725  1.00  0.00     0.001 A 
ATOM     21  C   UNL A   1      34.741  16.370  24.721  1.00  0.00     0.001 A 
ATOM     22  C   UNL A   1      33.671  15.811  25.409  1.00  0.00     0.000 A 
ENDBRANCH  16  17
ENDBRANCH  10  11
ENDBRANCH   6  10
ENDBRANCH   4   6
ENDBRANCH   3   4
ENDBRANCH   2   3
ENDBRANCH   1   2
BRANCH   1  23
ATOM     23  O   UNL A   1      32.285  30.239  26.062  1.00  0.00    -0.374 OA
BRANCH  23  24
ATOM     24  C   UNL A   1      31.262  31.226  26.118  1.00  0.00     0.202 C 
BRANCH  24  25
ATOM     25  C   UNL A   1      31.585  32.496  26.920  1.00  0.00     0.261 C 
BRANCH  25  26
ATOM     26  O   UNL A   1      32.973  32.591  27.287  1.00  0.00    -0.460 OA
BRANCH  26  27
ATOM     27  C   UNL A   1      33.280  33.667  28.051  1.00  0.00     0.338 C 
ATOM     28  O   UNL A   1      32.586  34.659  28.248  1.00  0.00    -0.246 OA
BRANCH  27  29
ATOM     29  C   UNL A   1      34.541  33.451  28.780  1.00  0.00     0.060 A 
ATOM     30  C   UNL A   1      35.733  33.626  28.065  1.00  0.00     0.016 A 
ATOM     31  C   UNL A   1      34.565  32.985  30.095  1.00  0.00     0.016 A 
ATOM     32  C   UNL A   1      36.953  33.285  28.647  1.00  0.00     0.010 A 
ATOM     33  C   UNL A   1      35.791  32.634  30.675  1.00  0.00     0.010 A 
ATOM     34  C   UNL A   1      36.986  32.747  29.940  1.00  0.00    -0.014 A 
BRANCH  34  35
ATOM     35  C   UNL A   1      38.255  32.173  30.454  1.00  0.00     0.031 A 
ATOM     36  C   UNL A   1      38.743  30.861  29.902  1.00  0.00     0.074 A 
ATOM     37  C   UNL A   1      38.994  32.834  31.362  1.00  0.00     0.049 A 
ATOM     38  N   UNL A   1      39.830  30.192  30.194  1.00  0.00    -0.248 NA
ATOM     39  C   UNL A   1      37.896  30.220  28.882  1.00  0.00     0.031 C 
ATOM     40  C   UNL A   1      38.661  34.133  31.942  1.00  0.00     0.029 A 
ATOM     41  N   UNL A   1      40.187  32.495  31.951  1.00  0.00    -0.354 N 
ATOM     42  C   UNL A   1      39.798  29.054  29.399  1.00  0.00     0.074 A 
ATOM     43  C   UNL A   1      38.572  29.108  28.632  1.00  0.00     0.031 C 
ATOM     44  C   UNL A   1      39.630  34.485  32.806  1.00  0.00     0.029 A 
ATOM     45  C   UNL A   1      40.634  33.424  32.859  1.00  0.00     0.049 A 
ATOM     46  H   UNL A   1      40.676  31.667  31.743  1.00  0.00     0.167 HD
ATOM     47  C   UNL A   1      40.709  28.055  29.306  1.00  0.00     0.031 A 
ATOM     48  C   UNL A   1      41.722  33.414  33.652  1.00  0.00     0.031 A 
ATOM     49  C   UNL A   1      41.924  27.986  30.073  1.00  0.00     0.049 A 
ATOM     50  C   UNL A   1      42.678  32.252  33.591  1.00  0.00     0.074 A 
ATOM     51  C   UNL A   1      42.912  27.018  30.037  1.00  0.00     0.029 A 
ATOM     52  N   UNL A   1      42.310  28.920  31.021  1.00  0.00    -0.354 N 
ATOM     53  N   UNL A   1      42.645  31.195  32.817  1.00  0.00    -0.248 NA
ATOM     54  C   UNL A   1      43.824  32.289  34.512  1.00  0.00     0.031 C 
ATOM     55  C   UNL A   1      43.875  27.341  31.001  1.00  0.00     0.029 A 
ATOM     56  C   UNL A   1      43.509  28.537  31.598  1.00  0.00     0.049 A 
ATOM     57  H   UNL A   1      41.807  29.734  31.249  1.00  0.00     0.167 HD
ATOM     58  C   UNL A   1      43.778  30.455  33.140  1.00  0.00     0.074 A 
ATOM     59  C   UNL A   1      44.481  31.190  34.170  1.00  0.00     0.031 C 
ATOM     60  C   UNL A   1      44.197  29.274  32.624  1.00  0.00     0.031 A 
BRANCH  47  61
ATOM     61  C   UNL A   1      40.404  26.933  28.354  1.00  0.00    -0.014 A 
ATOM     62  C   UNL A   1      39.619  25.839  28.746  1.00  0.00     0.009 A 
ATOM     63  C   UNL A   1      40.888  26.989  27.037  1.00  0.00     0.009 A 
ATOM     64  C   UNL A   1      39.350  24.805  27.846  1.00  0.00     0.001 A 
ATOM     65  C   UNL A   1      40.598  25.966  26.134  1.00  0.00     0.001 A 
ATOM     66  C   UNL A   1      39.837  24.870  26.541  1.00  0.00     0.000 A 
ENDBRANCH  47  61
BRANCH  48  67
ATOM     67  C   UNL A   1      41.965  34.536  34.595  1.00  0.00    -0.014 A 
ATOM     68  C   UNL A   1      42.727  35.647  34.204  1.00  0.00     0.009 A 
ATOM     69  C   UNL A   1      41.448  34.490  35.899  1.00  0.00     0.009 A 
ATOM     70  C   UNL A   1      42.984  36.680  35.109  1.00  0.00     0.001 A 
ATOM     71  C   UNL A   1      41.687  35.536  36.793  1.00  0.00     0.001 A 
ATOM     72  C   UNL A   1      42.461  36.626  36.400  1.00  0.00     0.000 A 
ENDBRANCH  48  67
BRANCH  60  73
ATOM     73  C   UNL A   1      45.492  28.717  33.144  1.00  0.00    -0.014 A 
ATOM     74  C   UNL A   1      46.720  29.064  32.561  1.00  0.00     0.009 A 
ATOM     75  C   UNL A   1      45.483  27.863  34.259  1.00  0.00     0.009 A 
ATOM     76  C   UNL A   1      47.914  28.545  33.069  1.00  0.00     0.001 A 
ATOM     77  C   UNL A   1      46.680  27.366  34.779  1.00  0.00     0.001 A 
ATOM     78  C   UNL A   1      47.892  27.700  34.179  1.00  0.00     0.000 A 
ENDBRANCH  60  73
ENDBRANCH  34  35
ENDBRANCH  27  29
ENDBRANCH  26  27
ENDBRANCH  25  26
ENDBRANCH  24  25
ENDBRANCH  23  24
ENDBRANCH   1  23
TORSDOF 19
ENDMDL
MODEL 3
REMARK VINA RESULT:      -9.9      3.972      8.102
REMARK SMILES CCC[C@@H](Oc1ccc(-c2ccccc2)cc1)C(=O)OCCOCCOC(=O)c1ccc(-c2c3nc(c(-c4ccccc4)c4ccc([nH]4)c(-c4ccccc4)c4nc(c(-c5ccccc5)c5ccc2[nH]5)C=C4)C=C3)cc1
REMARK SMILES IDX 22 1 21 2 20 3 18 4 19 5 4 6 3 7 2 8 1 9 5 10 6 11 7 12
REMARK SMILES IDX 17 13 8 14 16 15 9 16 10 17 11 18 15 19 12 20 14 21 13 22
REMARK SMILES IDX 23 23 24 24 25 25 26 26 27 27 28 28 29 29 30 30 76 31 31 32
REMARK SMILES IDX 75 33 32 34 33 35 34 36 69 37 35 38 74 39 68 40 70 41 36 42
REMARK SMILES IDX 73 43 67 44 66 45 37 47 59 48 44 49 58 50 45 51 48 52 57 53
REMARK SMILES IDX 71 54 46 55 47 56 56 58 72 59 49 60 38 61 39 62 43 63 40 64
REMARK SMILES IDX 42 65 41 66 60 67 61 68 65 69 62 70 64 71 63 72 50 73 51 74
REMARK SMILES IDX 55 75 52 76 54 77 53 78
REMARK H PARENT 70 46 48 57
REMARK Flexibility Score: inf
ROOT
ATOM      1  C   UNL A   1      31.618  28.092  25.092  1.00  0.00     0.202 C 
ENDROOT
BRANCH   1   2
ATOM      2  C   UNL A   1      32.964  27.982  24.366  1.00  0.00     0.261 C 
BRANCH   2   3
ATOM      3  O   UNL A   1      33.373  26.609  24.211  1.00  0.00    -0.461 OA
BRANCH   3   4
ATOM      4  C   UNL A   1      32.780  25.914  23.197  1.00  0.00     0.347 C 
ATOM      5  O   UNL A   1      32.671  26.317  22.043  1.00  0.00    -0.248 OA
BRANCH   4   6
ATOM      6  C   UNL A   1      32.256  24.550  23.651  1.00  0.00     0.282 C 
BRANCH   6   7
ATOM      7  C   UNL A   1      30.784  24.623  24.113  1.00  0.00     0.057 C 
BRANCH   7   8
ATOM      8  C   UNL A   1      30.497  24.277  25.582  1.00  0.00     0.001 C 
ATOM      9  C   UNL A   1      30.956  22.893  26.013  1.00  0.00     0.004 C 
ENDBRANCH   7   8
ENDBRANCH   6   7
BRANCH   6  10
ATOM     10  O   UNL A   1      32.423  23.671  22.524  1.00  0.00    -0.479 OA
BRANCH  10  11
ATOM     11  C   UNL A   1      32.754  22.411  22.932  1.00  0.00     0.120 A 
ATOM     12  C   UNL A   1      33.774  22.190  23.851  1.00  0.00     0.047 A 
ATOM     13  C   UNL A   1      32.040  21.348  22.402  1.00  0.00     0.047 A 
ATOM     14  C   UNL A   1      34.013  20.889  24.312  1.00  0.00     0.012 A 
ATOM     15  C   UNL A   1      32.251  20.063  22.900  1.00  0.00     0.012 A 
ATOM     16  C   UNL A   1      33.234  19.800  23.873  1.00  0.00    -0.018 A 
BRANCH  16  17
ATOM     17  C   UNL A   1      33.409  18.432  24.420  1.00  0.00    -0.018 A 
ATOM     18  C   UNL A   1      34.603  17.711  24.242  1.00  0.00     0.009 A 
ATOM     19  C   UNL A   1      32.395  17.814  25.177  1.00  0.00     0.009 A 
ATOM     20  C   UNL A   1      34.777  16.438  24.798  1.00  0.00     0.001 A 
ATOM     21  C   UNL A   1      32.570  16.551  25.748  1.00  0.00     0.001 A 
ATOM     22  C   UNL A   1      33.762  15.862  25.557  1.00  0.00     0.000 A 
ENDBRANCH  16  17
ENDBRANCH  10  11
ENDBRANCH   6  10
ENDBRANCH   4   6
ENDBRANCH   3   4
ENDBRANCH   2   3
ENDBRANCH   1   2
BRANCH   1  23
ATOM     23  O   UNL A   1      31.486  29.162  26.030  1.00  0.00    -0.374 OA
BRANCH  23  24
ATOM     24  C   UNL A   1      31.374  30.479  25.503  1.00  0.00     0.202 C 
BRANCH  24  25
ATOM     25  C   UNL A   1      31.576  31.630  26.500  1.00  0.00     0.261 C 
BRANCH  25  26
ATOM     26  O   UNL A   1      32.617  31.368  27.458  1.00  0.00    -0.460 OA
BRANCH  26  27
ATOM     27  C   UNL A   1      33.498  32.383  27.622  1.00  0.00     0.338 C 
ATOM     28  O   UNL A   1      33.255  33.585  27.623  1.00  0.00    -0.246 OA
BRANCH  27  29
ATOM     29  C   UNL A   1      34.835  31.867  27.962  1.00  0.00     0.060 A 
ATOM     30  C   UNL A   1      34.984  30.477  28.050  1.00  0.00     0.016 A 
ATOM     31  C   UNL A   1      35.893  32.715  28.295  1.00  0.00     0.016 A 
ATOM     32  C   UNL A   1      36.176  29.930  28.522  1.00  0.00     0.010 A 
ATOM     33  C   UNL A   1      37.087  32.164  28.778  1.00  0.00     0.010 A 
ATOM     34  C   UNL A   1      37.220  30.772  28.929  1.00  0.00    -0.014 A 
BRANCH  34  35
ATOM     35  C   UNL A   1      38.383  30.189  29.644  1.00  0.00     0.031 A 
ATOM     36  C   UNL A   1      38.587  30.514  31.100  1.00  0.00     0.074 A 
ATOM     37  C   UNL A   1      39.220  29.339  29.024  1.00  0.00     0.049 A 
ATOM     38  N   UNL A   1      39.522  30.101  31.918  1.00  0.00    -0.248 NA
ATOM     39  C   UNL A   1      37.604  31.421  31.715  1.00  0.00     0.031 C 
ATOM     40  C   UNL A   1      39.109  28.904  27.634  1.00  0.00     0.029 A 
ATOM     41  N   UNL A   1      40.332  28.686  29.496  1.00  0.00    -0.354 N 
ATOM     42  C   UNL A   1      39.243  30.697  33.141  1.00  0.00     0.074 A 
ATOM     43  C   UNL A   1      38.069  31.522  32.952  1.00  0.00     0.031 C 
ATOM     44  C   UNL A   1      40.114  28.052  27.363  1.00  0.00     0.029 A 
ATOM     45  C   UNL A   1      40.951  27.906  28.552  1.00  0.00     0.049 A 
ATOM     46  H   UNL A   1      40.653  28.769  30.423  1.00  0.00     0.167 HD
ATOM     47  C   UNL A   1      39.898  30.566  34.320  1.00  0.00     0.031 A 
ATOM     48  C   UNL A   1      42.075  27.167  28.633  1.00  0.00     0.031 A 
ATOM     49  C   UNL A   1      41.072  29.759  34.514  1.00  0.00     0.049 A 
ATOM     50  C   UNL A   1      42.832  27.103  29.932  1.00  0.00     0.074 A 
ATOM     51  C   UNL A   1      41.797  29.556  35.675  1.00  0.00     0.029 A 
ATOM     52  N   UNL A   1      41.700  29.028  33.518  1.00  0.00    -0.354 N 
ATOM     53  N   UNL A   1      42.543  27.653  31.086  1.00  0.00    -0.248 NA
ATOM     54  C   UNL A   1      44.070  26.308  29.938  1.00  0.00     0.031 C 
ATOM     55  C   UNL A   1      42.893  28.741  35.371  1.00  0.00     0.029 A 
ATOM     56  C   UNL A   1      42.819  28.395  34.031  1.00  0.00     0.049 A 
ATOM     57  H   UNL A   1      41.394  28.968  32.584  1.00  0.00     0.167 HD
ATOM     58  C   UNL A   1      43.547  27.251  31.959  1.00  0.00     0.074 A 
ATOM     59  C   UNL A   1      44.445  26.402  31.205  1.00  0.00     0.031 C 
ATOM     60  C   UNL A   1      43.707  27.556  33.270  1.00  0.00     0.031 A 
BRANCH  47  61
ATOM     61  C   UNL A   1      39.368  31.344  35.491  1.00  0.00    -0.014 A 
ATOM     62  C   UNL A   1      39.905  32.593  35.838  1.00  0.00     0.009 A 
ATOM     63  C   UNL A   1      38.298  30.830  36.239  1.00  0.00     0.009 A 
ATOM     64  C   UNL A   1      39.400  33.299  36.932  1.00  0.00     0.001 A 
ATOM     65  C   UNL A   1      37.780  31.549  37.317  1.00  0.00     0.001 A 
ATOM     66  C   UNL A   1      38.337  32.778  37.669  1.00  0.00     0.000 A 
ENDBRANCH  47  61
BRANCH  48  67
ATOM     67  C   UNL A   1      42.570  26.435  27.438  1.00  0.00    -0.014 A 
ATOM     68  C   UNL A   1      43.433  27.059  26.525  1.00  0.00     0.009 A 
ATOM     69  C   UNL A   1      42.165  25.113  27.199  1.00  0.00     0.009 A 
ATOM     70  C   UNL A   1      43.862  26.377  25.383  1.00  0.00     0.001 A 
ATOM     71  C   UNL A   1      42.616  24.427  26.069  1.00  0.00     0.001 A 
ATOM     72  C   UNL A   1      43.457  25.062  25.158  1.00  0.00     0.000 A 
ENDBRANCH  48  67
BRANCH  60  73
ATOM     73  C   UNL A   1      44.880  26.945  33.982  1.00  0.00    -0.014 A 
ATOM     74  C   UNL A   1      46.102  27.627  34.090  1.00  0.00     0.009 A 
ATOM     75  C   UNL A   1      44.747  25.686  34.588  1.00  0.00     0.009 A 
ATOM     76  C   UNL A   1      47.176  27.047  34.768  1.00  0.00     0.001 A 
ATOM     77  C   UNL A   1      45.815  25.120  35.286  1.00  0.00     0.001 A 
ATOM     78  C   UNL A   1      47.030  25.796  35.368  1.00  0.00     0.000 A 
ENDBRANCH  60  73
ENDBRANCH  34  35
ENDBRANCH  27  29
ENDBRANCH  26  27
ENDBRANCH  25  26
ENDBRANCH  24  25
ENDBRANCH  23  24
ENDBRANCH   1  23
TORSDOF 19
ENDMDL
