MODEL 1
REMARK VINA RESULT:     -10.4      0.000      0.000
REMARK SMILES O=C(OCCOCCOC(=O)[C@H]1C[C@H](O)CN1C(=O)/C=C/c1c(F)cccc1Cl)c1ccc(-c2c3nc(c(-c4ccccc4)c4ccc([nH]4)c(-c4ccccc4)c4nc(c(-c5ccccc5)c5ccc2[nH]5)C=C4)C=C3)cc1
REMARK SMILES IDX 7 1 6 2 5 3 4 4 3 5 2 6 1 7 30 8 31 9 77 10 32 11 76 12
REMARK SMILES IDX 33 13 34 14 35 15 70 16 36 17 75 18 69 19 71 20 37 21 74 22
REMARK SMILES IDX 68 23 67 24 38 26 60 27 45 28 59 29 46 30 49 31 58 32 72 33
REMARK SMILES IDX 47 34 48 35 57 37 73 38 50 39 39 40 40 41 44 42 41 43 43 44
REMARK SMILES IDX 42 45 61 46 62 47 66 48 63 49 65 50 64 51 51 52 52 53 56 54
REMARK SMILES IDX 53 55 55 56 54 57 8 58 9 59 10 60 11 61 12 62 13 63 17 64
REMARK SMILES IDX 14 65 16 66 18 67 19 68 20 69 21 70 22 71 23 72 28 73 24 74
REMARK SMILES IDX 25 75 27 76 29 77 26 78 15 79
REMARK H PARENT 71 25 49 36 15 80
REMARK Flexibility Score: inf
ROOT
ATOM      1  C   UNL A   1      32.943  28.708  27.257  1.00  0.00     0.202 C 
ENDROOT
BRANCH   1   2
ATOM      2  O   UNL A   1      33.133  30.120  27.357  1.00  0.00    -0.374 OA
BRANCH   2   3
ATOM      3  C   UNL A   1      32.310  30.902  26.492  1.00  0.00     0.202 C 
BRANCH   3   4
ATOM      4  C   UNL A   1      31.527  32.030  27.172  1.00  0.00     0.261 C 
BRANCH   4   5
ATOM      5  O   UNL A   1      32.229  33.278  27.051  1.00  0.00    -0.460 OA
BRANCH   5   6
ATOM      6  C   UNL A   1      32.932  33.927  28.009  1.00  0.00     0.338 C 
ATOM      7  O   UNL A   1      32.480  34.978  28.461  1.00  0.00    -0.246 OA
BRANCH   6   8
ATOM      8  C   UNL A   1      34.224  33.426  28.569  1.00  0.00     0.060 A 
ATOM      9  C   UNL A   1      35.485  33.760  28.080  1.00  0.00     0.016 A 
ATOM     10  C   UNL A   1      34.168  32.609  29.712  1.00  0.00     0.016 A 
ATOM     11  C   UNL A   1      36.646  33.313  28.663  1.00  0.00     0.010 A 
ATOM     12  C   UNL A   1      35.341  32.150  30.325  1.00  0.00     0.010 A 
ATOM     13  C   UNL A   1      36.580  32.507  29.787  1.00  0.00    -0.014 A 
BRANCH  13  14
ATOM     14  C   UNL A   1      37.866  31.956  30.219  1.00  0.00     0.031 A 
ATOM     15  C   UNL A   1      38.456  32.498  31.481  1.00  0.00     0.074 A 
ATOM     16  C   UNL A   1      38.301  30.818  29.649  1.00  0.00     0.049 A 
ATOM     17  N   UNL A   1      39.538  32.131  32.108  1.00  0.00    -0.248 NA
ATOM     18  C   UNL A   1      37.703  33.578  32.146  1.00  0.00     0.031 C 
ATOM     19  C   UNL A   1      37.626  30.111  28.554  1.00  0.00     0.029 A 
ATOM     20  N   UNL A   1      39.358  30.013  29.965  1.00  0.00    -0.354 N 
ATOM     21  C   UNL A   1      39.622  32.968  33.213  1.00  0.00     0.074 A 
ATOM     22  C   UNL A   1      38.473  33.842  33.189  1.00  0.00     0.031 C 
ATOM     23  C   UNL A   1      38.262  28.953  28.324  1.00  0.00     0.029 A 
ATOM     24  C   UNL A   1      39.429  28.880  29.192  1.00  0.00     0.049 A 
ATOM     25  H   UNL A   1      40.005  30.224  30.676  1.00  0.00     0.167 HD
ATOM     26  C   UNL A   1      40.600  33.009  34.143  1.00  0.00     0.031 A 
ATOM     27  C   UNL A   1      40.364  27.915  29.179  1.00  0.00     0.031 A 
ATOM     28  C   UNL A   1      41.730  32.123  34.119  1.00  0.00     0.049 A 
ATOM     29  C   UNL A   1      41.511  28.061  30.139  1.00  0.00     0.074 A 
ATOM     30  C   UNL A   1      42.850  32.118  34.925  1.00  0.00     0.029 A 
ATOM     31  N   UNL A   1      41.867  31.069  33.224  1.00  0.00    -0.354 N 
ATOM     32  N   UNL A   1      41.671  28.939  31.104  1.00  0.00    -0.248 NA
ATOM     33  C   UNL A   1      42.618  27.111  29.993  1.00  0.00     0.031 C 
ATOM     34  C   UNL A   1      43.690  31.088  34.483  1.00  0.00     0.029 A 
ATOM     35  C   UNL A   1      43.065  30.417  33.441  1.00  0.00     0.049 A 
ATOM     36  H   UNL A   1      41.207  30.824  32.536  1.00  0.00     0.167 HD
ATOM     37  C   UNL A   1      42.893  28.643  31.688  1.00  0.00     0.074 A 
ATOM     38  C   UNL A   1      43.416  27.487  30.982  1.00  0.00     0.031 C 
ATOM     39  C   UNL A   1      43.534  29.268  32.706  1.00  0.00     0.031 A 
BRANCH  26  40
ATOM     40  C   UNL A   1      40.528  34.125  35.143  1.00  0.00    -0.014 A 
ATOM     41  C   UNL A   1      39.896  33.974  36.389  1.00  0.00     0.009 A 
ATOM     42  C   UNL A   1      41.034  35.386  34.788  1.00  0.00     0.009 A 
ATOM     43  C   UNL A   1      39.734  35.075  37.236  1.00  0.00     0.001 A 
ATOM     44  C   UNL A   1      40.892  36.476  35.646  1.00  0.00     0.001 A 
ATOM     45  C   UNL A   1      40.231  36.323  36.864  1.00  0.00     0.000 A 
ENDBRANCH  26  40
BRANCH  27  46
ATOM     46  C   UNL A   1      40.302  26.806  28.190  1.00  0.00    -0.014 A 
ATOM     47  C   UNL A   1      40.889  26.927  26.923  1.00  0.00     0.009 A 
ATOM     48  C   UNL A   1      39.631  25.612  28.508  1.00  0.00     0.009 A 
ATOM     49  C   UNL A   1      40.792  25.886  25.993  1.00  0.00     0.001 A 
ATOM     50  C   UNL A   1      39.562  24.561  27.590  1.00  0.00     0.001 A 
ATOM     51  C   UNL A   1      40.133  24.704  26.329  1.00  0.00     0.000 A 
ENDBRANCH  27  46
BRANCH  39  52
ATOM     52  C   UNL A   1      44.847  28.680  33.125  1.00  0.00    -0.014 A 
ATOM     53  C   UNL A   1      46.051  29.104  32.545  1.00  0.00     0.009 A 
ATOM     54  C   UNL A   1      44.873  27.716  34.144  1.00  0.00     0.009 A 
ATOM     55  C   UNL A   1      47.260  28.546  32.957  1.00  0.00     0.001 A 
ATOM     56  C   UNL A   1      46.086  27.181  34.573  1.00  0.00     0.001 A 
ATOM     57  C   UNL A   1      47.277  27.589  33.974  1.00  0.00     0.000 A 
ENDBRANCH  39  52
ENDBRANCH  13  14
ENDBRANCH   6   8
ENDBRANCH   5   6
ENDBRANCH   4   5
ENDBRANCH   3   4
ENDBRANCH   2   3
ENDBRANCH   1   2
BRANCH   1  58
ATOM     58  C   UNL A   1      33.059  28.261  25.804  1.00  0.00     0.261 C 
BRANCH  58  59
ATOM     59  O   UNL A   1      34.052  27.227  25.693  1.00  0.00    -0.462 OA
BRANCH  59  60
ATOM     60  C   UNL A   1      33.627  25.980  25.334  1.00  0.00     0.329 C 
ATOM     61  O   UNL A   1      33.724  24.974  26.028  1.00  0.00    -0.250 OA
BRANCH  60  62
ATOM     62  C   UNL A   1      32.895  25.998  23.978  1.00  0.00     0.198 C 
ATOM     63  C   UNL A   1      33.720  25.328  22.878  1.00  0.00     0.071 C 
ATOM     64  N   UNL A   1      31.632  25.260  23.986  1.00  0.00    -0.323 N 
ATOM     65  C   UNL A   1      33.162  23.908  22.766  1.00  0.00     0.136 C 
ATOM     66  C   UNL A   1      31.710  24.029  23.212  1.00  0.00     0.152 C 
BRANCH  64  67
ATOM     67  C   UNL A   1      30.609  25.748  24.761  1.00  0.00     0.247 C 
ATOM     68  O   UNL A   1      30.104  25.086  25.667  1.00  0.00    -0.270 OA
BRANCH  67  69
ATOM     69  C   UNL A   1      29.989  27.044  24.424  1.00  0.00     0.072 C 
ATOM     70  C   UNL A   1      29.517  27.362  23.213  1.00  0.00     0.018 C 
BRANCH  70  71
ATOM     71  C   UNL A   1      29.046  28.711  22.893  1.00  0.00     0.029 A 
ATOM     72  C   UNL A   1      29.946  29.629  22.337  1.00  0.00     0.131 A 
ATOM     73  C   UNL A   1      27.709  29.102  23.050  1.00  0.00     0.051 A 
ATOM     74  F   UNL A   1      31.235  29.293  22.169  1.00  0.00    -0.206 F 
ATOM     75  C   UNL A   1      29.536  30.891  21.923  1.00  0.00     0.040 A 
ATOM     76  C   UNL A   1      27.291  30.373  22.638  1.00  0.00     0.021 A 
ATOM     77  Cl  UNL A   1      26.529  28.049  23.750  1.00  0.00    -0.084 Cl
ATOM     78  C   UNL A   1      28.202  31.262  22.065  1.00  0.00     0.005 A 
ENDBRANCH  70  71
ENDBRANCH  67  69
ENDBRANCH  64  67
BRANCH  65  79
ATOM     79  O   UNL A   1      33.316  23.400  21.450  1.00  0.00    -0.391 OA
ATOM     80  H   UNL A   1      34.248  23.460  21.187  1.00  0.00     0.211 HD
ENDBRANCH  65  79
ENDBRANCH  60  62
ENDBRANCH  59  60
ENDBRANCH  58  59
ENDBRANCH   1  58
TORSDOF 18
ENDMDL
MODEL 2
REMARK VINA RESULT:     -10.3      2.009      3.963
REMARK SMILES O=C(OCCOCCOC(=O)[C@H]1C[C@H](O)CN1C(=O)/C=C/c1c(F)cccc1Cl)c1ccc(-c2c3nc(c(-c4ccccc4)c4ccc([nH]4)c(-c4ccccc4)c4nc(c(-c5ccccc5)c5ccc2[nH]5)C=C4)C=C3)cc1
REMARK SMILES IDX 7 1 6 2 5 3 4 4 3 5 2 6 1 7 30 8 31 9 77 10 32 11 76 12
REMARK SMILES IDX 33 13 34 14 35 15 70 16 36 17 75 18 69 19 71 20 37 21 74 22
REMARK SMILES IDX 68 23 67 24 38 26 60 27 45 28 59 29 46 30 49 31 58 32 72 33
REMARK SMILES IDX 47 34 48 35 57 37 73 38 50 39 39 40 40 41 44 42 41 43 43 44
REMARK SMILES IDX 42 45 61 46 62 47 66 48 63 49 65 50 64 51 51 52 52 53 56 54
REMARK SMILES IDX 53 55 55 56 54 57 8 58 9 59 10 60 11 61 12 62 13 63 17 64
REMARK SMILES IDX 14 65 16 66 18 67 19 68 20 69 21 70 22 71 23 72 28 73 24 74
REMARK SMILES IDX 25 75 27 76 29 77 26 78 15 79
REMARK H PARENT 71 25 49 36 15 80
REMARK Flexibility Score: inf
ROOT
ATOM      1  C   UNL A   1      34.427  29.809  27.440  1.00  0.00     0.202 C 
ENDROOT
BRANCH   1   2
ATOM      2  O   UNL A   1      34.087  31.182  27.247  1.00  0.00    -0.374 OA
BRANCH   2   3
ATOM      3  C   UNL A   1      32.690  31.471  27.301  1.00  0.00     0.202 C 
BRANCH   3   4
ATOM      4  C   UNL A   1      32.296  32.888  26.873  1.00  0.00     0.261 C 
BRANCH   4   5
ATOM      5  O   UNL A   1      32.153  33.743  28.020  1.00  0.00    -0.460 OA
BRANCH   5   6
ATOM      6  C   UNL A   1      33.110  34.490  28.619  1.00  0.00     0.338 C 
ATOM      7  O   UNL A   1      32.918  35.697  28.750  1.00  0.00    -0.246 OA
BRANCH   6   8
ATOM      8  C   UNL A   1      34.387  33.924  29.153  1.00  0.00     0.060 A 
ATOM      9  C   UNL A   1      35.657  34.249  28.684  1.00  0.00     0.016 A 
ATOM     10  C   UNL A   1      34.305  33.050  30.251  1.00  0.00     0.016 A 
ATOM     11  C   UNL A   1      36.804  33.741  29.245  1.00  0.00     0.010 A 
ATOM     12  C   UNL A   1      35.464  32.526  30.840  1.00  0.00     0.010 A 
ATOM     13  C   UNL A   1      36.713  32.878  30.324  1.00  0.00    -0.014 A 
BRANCH  13  14
ATOM     14  C   UNL A   1      37.982  32.270  30.728  1.00  0.00     0.031 A 
ATOM     15  C   UNL A   1      38.591  32.738  32.010  1.00  0.00     0.074 A 
ATOM     16  C   UNL A   1      38.381  31.145  30.109  1.00  0.00     0.049 A 
ATOM     17  N   UNL A   1      39.662  32.313  32.617  1.00  0.00    -0.248 NA
ATOM     18  C   UNL A   1      37.873  33.812  32.723  1.00  0.00     0.031 C 
ATOM     19  C   UNL A   1      37.682  30.506  28.987  1.00  0.00     0.029 A 
ATOM     20  N   UNL A   1      39.413  30.295  30.386  1.00  0.00    -0.354 N 
ATOM     21  C   UNL A   1      39.774  33.098  33.757  1.00  0.00     0.074 A 
ATOM     22  C   UNL A   1      38.652  34.007  33.774  1.00  0.00     0.031 C 
ATOM     23  C   UNL A   1      38.282  29.339  28.705  1.00  0.00     0.029 A 
ATOM     24  C   UNL A   1      39.448  29.194  29.565  1.00  0.00     0.049 A 
ATOM     25  H   UNL A   1      40.068  30.455  31.103  1.00  0.00     0.167 HD
ATOM     26  C   UNL A   1      40.755  33.069  34.685  1.00  0.00     0.031 A 
ATOM     27  C   UNL A   1      40.353  28.202  29.508  1.00  0.00     0.031 A 
ATOM     28  C   UNL A   1      41.857  32.151  34.620  1.00  0.00     0.049 A 
ATOM     29  C   UNL A   1      41.506  28.273  30.470  1.00  0.00     0.074 A 
ATOM     30  C   UNL A   1      42.978  32.077  35.421  1.00  0.00     0.029 A 
ATOM     31  N   UNL A   1      41.960  31.132  33.679  1.00  0.00    -0.354 N 
ATOM     32  N   UNL A   1      41.695  29.102  31.471  1.00  0.00    -0.248 NA
ATOM     33  C   UNL A   1      42.583  27.296  30.280  1.00  0.00     0.031 C 
ATOM     34  C   UNL A   1      43.785  31.042  34.932  1.00  0.00     0.029 A 
ATOM     35  C   UNL A   1      43.137  30.436  33.865  1.00  0.00     0.049 A 
ATOM     36  H   UNL A   1      41.291  30.937  32.983  1.00  0.00     0.167 HD
ATOM     37  C   UNL A   1      42.908  28.744  32.038  1.00  0.00     0.074 A 
ATOM     38  C   UNL A   1      43.394  27.604  31.282  1.00  0.00     0.031 C 
ATOM     39  C   UNL A   1      43.570  29.306  33.080  1.00  0.00     0.031 A 
BRANCH  26  40
ATOM     40  C   UNL A   1      40.718  34.143  35.732  1.00  0.00    -0.014 A 
ATOM     41  C   UNL A   1      40.055  33.970  36.958  1.00  0.00     0.009 A 
ATOM     42  C   UNL A   1      41.294  35.391  35.442  1.00  0.00     0.009 A 
ATOM     43  C   UNL A   1      39.932  35.040  37.850  1.00  0.00     0.001 A 
ATOM     44  C   UNL A   1      41.190  36.449  36.345  1.00  0.00     0.001 A 
ATOM     45  C   UNL A   1      40.498  36.277  37.543  1.00  0.00     0.000 A 
ENDBRANCH  26  40
BRANCH  27  46
ATOM     46  C   UNL A   1      40.255  27.139  28.473  1.00  0.00    -0.014 A 
ATOM     47  C   UNL A   1      39.550  25.952  28.713  1.00  0.00     0.009 A 
ATOM     48  C   UNL A   1      40.888  27.304  27.228  1.00  0.00     0.009 A 
ATOM     49  C   UNL A   1      39.496  24.949  27.739  1.00  0.00     0.001 A 
ATOM     50  C   UNL A   1      40.806  26.315  26.245  1.00  0.00     0.001 A 
ATOM     51  C   UNL A   1      40.119  25.134  26.506  1.00  0.00     0.000 A 
ENDBRANCH  27  46
BRANCH  39  52
ATOM     52  C   UNL A   1      44.865  28.660  33.469  1.00  0.00    -0.014 A 
ATOM     53  C   UNL A   1      44.902  27.603  34.390  1.00  0.00     0.009 A 
ATOM     54  C   UNL A   1      46.057  29.098  32.871  1.00  0.00     0.009 A 
ATOM     55  C   UNL A   1      46.119  27.016  34.730  1.00  0.00     0.001 A 
ATOM     56  C   UNL A   1      47.267  28.489  33.193  1.00  0.00     0.001 A 
ATOM     57  C   UNL A   1      47.299  27.455  34.128  1.00  0.00     0.000 A 
ENDBRANCH  39  52
ENDBRANCH  13  14
ENDBRANCH   6   8
ENDBRANCH   5   6
ENDBRANCH   4   5
ENDBRANCH   3   4
ENDBRANCH   2   3
ENDBRANCH   1   2
BRANCH   1  58
ATOM     58  C   UNL A   1      33.299  28.911  26.944  1.00  0.00     0.261 C 
BRANCH  58  59
ATOM     59  O   UNL A   1      33.720  28.212  25.760  1.00  0.00    -0.462 OA
BRANCH  59  60
ATOM     60  C   UNL A   1      32.821  28.101  24.739  1.00  0.00     0.329 C 
ATOM     61  O   UNL A   1      32.590  28.970  23.905  1.00  0.00    -0.250 OA
BRANCH  60  62
ATOM     62  C   UNL A   1      32.197  26.693  24.682  1.00  0.00     0.198 C 
ATOM     63  C   UNL A   1      30.738  26.699  25.142  1.00  0.00     0.071 C 
ATOM     64  N   UNL A   1      32.152  26.129  23.334  1.00  0.00    -0.323 N 
ATOM     65  C   UNL A   1      29.912  26.738  23.855  1.00  0.00     0.136 C 
ATOM     66  C   UNL A   1      30.794  26.063  22.811  1.00  0.00     0.152 C 
BRANCH  64  67
ATOM     67  C   UNL A   1      33.345  25.833  22.722  1.00  0.00     0.247 C 
ATOM     68  O   UNL A   1      33.650  26.304  21.627  1.00  0.00    -0.270 OA
BRANCH  67  69
ATOM     69  C   UNL A   1      34.236  24.815  23.310  1.00  0.00     0.072 C 
ATOM     70  C   UNL A   1      34.183  23.509  23.023  1.00  0.00     0.018 C 
BRANCH  70  71
ATOM     71  C   UNL A   1      34.991  22.523  23.743  1.00  0.00     0.029 A 
ATOM     72  C   UNL A   1      36.383  22.554  23.601  1.00  0.00     0.131 A 
ATOM     73  C   UNL A   1      34.434  21.592  24.631  1.00  0.00     0.051 A 
ATOM     74  F   UNL A   1      36.957  23.432  22.762  1.00  0.00    -0.206 F 
ATOM     75  C   UNL A   1      37.210  21.708  24.333  1.00  0.00     0.040 A 
ATOM     76  C   UNL A   1      35.260  20.736  25.369  1.00  0.00     0.021 A 
ATOM     77  Cl  UNL A   1      32.724  21.459  24.856  1.00  0.00    -0.084 Cl
ATOM     78  C   UNL A   1      36.647  20.802  25.227  1.00  0.00     0.005 A 
ENDBRANCH  70  71
ENDBRANCH  67  69
ENDBRANCH  64  67
BRANCH  65  79
ATOM     79  O   UNL A   1      28.654  26.107  24.035  1.00  0.00    -0.391 OA
ATOM     80  H   UNL A   1      28.138  26.599  24.694  1.00  0.00     0.211 HD
ENDBRANCH  65  79
ENDBRANCH  60  62
ENDBRANCH  59  60
ENDBRANCH  58  59
ENDBRANCH   1  58
TORSDOF 18
ENDMDL
MODEL 3
REMARK VINA RESULT:     -10.3      2.089      6.910
REMARK SMILES O=C(OCCOCCOC(=O)[C@H]1C[C@H](O)CN1C(=O)/C=C/c1c(F)cccc1Cl)c1ccc(-c2c3nc(c(-c4ccccc4)c4ccc([nH]4)c(-c4ccccc4)c4nc(c(-c5ccccc5)c5ccc2[nH]5)C=C4)C=C3)cc1
REMARK SMILES IDX 7 1 6 2 5 3 4 4 3 5 2 6 1 7 30 8 31 9 77 10 32 11 76 12
REMARK SMILES IDX 33 13 34 14 35 15 70 16 36 17 75 18 69 19 71 20 37 21 74 22
REMARK SMILES IDX 68 23 67 24 38 26 60 27 45 28 59 29 46 30 49 31 58 32 72 33
REMARK SMILES IDX 47 34 48 35 57 37 73 38 50 39 39 40 40 41 44 42 41 43 43 44
REMARK SMILES IDX 42 45 61 46 62 47 66 48 63 49 65 50 64 51 51 52 52 53 56 54
REMARK SMILES IDX 53 55 55 56 54 57 8 58 9 59 10 60 11 61 12 62 13 63 17 64
REMARK SMILES IDX 14 65 16 66 18 67 19 68 20 69 21 70 22 71 23 72 28 73 24 74
REMARK SMILES IDX 25 75 27 76 29 77 26 78 15 79
REMARK H PARENT 71 25 49 36 15 80
REMARK Flexibility Score: inf
ROOT
ATOM      1  C   UNL A   1      33.906  28.907  26.700  1.00  0.00     0.202 C 
ENDROOT
BRANCH   1   2
ATOM      2  O   UNL A   1      33.618  30.279  26.971  1.00  0.00    -0.374 OA
BRANCH   2   3
ATOM      3  C   UNL A   1      32.397  30.761  26.412  1.00  0.00     0.202 C 
BRANCH   3   4
ATOM      4  C   UNL A   1      31.739  31.919  27.170  1.00  0.00     0.261 C 
BRANCH   4   5
ATOM      5  O   UNL A   1      32.544  33.105  27.082  1.00  0.00    -0.460 OA
BRANCH   5   6
ATOM      6  C   UNL A   1      33.182  33.747  28.090  1.00  0.00     0.338 C 
ATOM      7  O   UNL A   1      32.667  34.759  28.562  1.00  0.00    -0.246 OA
BRANCH   6   8
ATOM      8  C   UNL A   1      34.474  33.282  28.680  1.00  0.00     0.060 A 
ATOM      9  C   UNL A   1      35.731  33.517  28.127  1.00  0.00     0.016 A 
ATOM     10  C   UNL A   1      34.425  32.613  29.916  1.00  0.00     0.016 A 
ATOM     11  C   UNL A   1      36.893  33.113  28.737  1.00  0.00     0.010 A 
ATOM     12  C   UNL A   1      35.600  32.198  30.556  1.00  0.00     0.010 A 
ATOM     13  C   UNL A   1      36.834  32.452  29.952  1.00  0.00    -0.014 A 
BRANCH  13  14
ATOM     14  C   UNL A   1      38.116  31.921  30.422  1.00  0.00     0.031 A 
ATOM     15  C   UNL A   1      38.623  30.675  29.772  1.00  0.00     0.074 A 
ATOM     16  C   UNL A   1      38.899  32.711  31.178  1.00  0.00     0.049 A 
ATOM     17  N   UNL A   1      39.751  30.051  29.956  1.00  0.00    -0.248 NA
ATOM     18  C   UNL A   1      37.752  30.069  28.747  1.00  0.00     0.031 C 
ATOM     19  C   UNL A   1      38.538  34.053  31.651  1.00  0.00     0.029 A 
ATOM     20  N   UNL A   1      40.183  32.540  31.608  1.00  0.00    -0.354 N 
ATOM     21  C   UNL A   1      39.705  28.953  29.108  1.00  0.00     0.074 A 
ATOM     22  C   UNL A   1      38.454  29.007  28.390  1.00  0.00     0.031 C 
ATOM     23  C   UNL A   1      39.599  34.601  32.264  1.00  0.00     0.029 A 
ATOM     24  C   UNL A   1      40.674  33.620  32.300  1.00  0.00     0.049 A 
ATOM     25  H   UNL A   1      40.706  31.724  31.438  1.00  0.00     0.167 HD
ATOM     26  C   UNL A   1      40.627  27.974  28.974  1.00  0.00     0.031 A 
ATOM     27  C   UNL A   1      41.858  33.769  32.919  1.00  0.00     0.031 A 
ATOM     28  C   UNL A   1      41.854  27.960  29.719  1.00  0.00     0.049 A 
ATOM     29  C   UNL A   1      42.810  32.606  32.862  1.00  0.00     0.074 A 
ATOM     30  C   UNL A   1      42.830  26.985  29.773  1.00  0.00     0.029 A 
ATOM     31  N   UNL A   1      42.270  28.998  30.546  1.00  0.00    -0.354 N 
ATOM     32  N   UNL A   1      42.712  31.494  32.170  1.00  0.00    -0.248 NA
ATOM     33  C   UNL A   1      44.016  32.702  33.691  1.00  0.00     0.031 C 
ATOM     34  C   UNL A   1      43.813  27.412  30.673  1.00  0.00     0.029 A 
ATOM     35  C   UNL A   1      43.478  28.678  31.133  1.00  0.00     0.049 A 
ATOM     36  H   UNL A   1      41.775  29.836  30.691  1.00  0.00     0.167 HD
ATOM     37  C   UNL A   1      43.847  30.758  32.471  1.00  0.00     0.074 A 
ATOM     38  C   UNL A   1      44.630  31.566  33.389  1.00  0.00     0.031 C 
ATOM     39  C   UNL A   1      44.212  29.525  32.041  1.00  0.00     0.031 A 
BRANCH  26  40
ATOM     40  C   UNL A   1      40.250  26.813  28.103  1.00  0.00    -0.014 A 
ATOM     41  C   UNL A   1      39.442  25.761  28.565  1.00  0.00     0.009 A 
ATOM     42  C   UNL A   1      40.793  26.733  26.810  1.00  0.00     0.009 A 
ATOM     43  C   UNL A   1      39.224  24.635  27.766  1.00  0.00     0.001 A 
ATOM     44  C   UNL A   1      40.553  25.619  26.006  1.00  0.00     0.001 A 
ATOM     45  C   UNL A   1      39.780  24.565  26.489  1.00  0.00     0.000 A 
ENDBRANCH  26  40
BRANCH  27  46
ATOM     46  C   UNL A   1      42.162  34.998  33.699  1.00  0.00    -0.014 A 
ATOM     47  C   UNL A   1      42.832  36.083  33.116  1.00  0.00     0.009 A 
ATOM     48  C   UNL A   1      41.791  35.086  35.052  1.00  0.00     0.009 A 
ATOM     49  C   UNL A   1      43.138  37.218  33.874  1.00  0.00     0.001 A 
ATOM     50  C   UNL A   1      42.069  36.234  35.799  1.00  0.00     0.001 A 
ATOM     51  C   UNL A   1      42.753  37.294  35.211  1.00  0.00     0.000 A 
ENDBRANCH  27  46
BRANCH  39  52
ATOM     52  C   UNL A   1      45.529  29.011  32.539  1.00  0.00    -0.014 A 
ATOM     53  C   UNL A   1      45.605  28.174  33.662  1.00  0.00     0.009 A 
ATOM     54  C   UNL A   1      46.702  29.342  31.844  1.00  0.00     0.009 A 
ATOM     55  C   UNL A   1      46.842  27.704  34.100  1.00  0.00     0.001 A 
ATOM     56  C   UNL A   1      47.933  28.847  32.269  1.00  0.00     0.001 A 
ATOM     57  C   UNL A   1      48.003  28.037  33.401  1.00  0.00     0.000 A 
ENDBRANCH  39  52
ENDBRANCH  13  14
ENDBRANCH   6   8
ENDBRANCH   5   6
ENDBRANCH   4   5
ENDBRANCH   3   4
ENDBRANCH   2   3
ENDBRANCH   1   2
BRANCH   1  58
ATOM     58  C   UNL A   1      32.671  28.049  26.949  1.00  0.00     0.261 C 
BRANCH  58  59
ATOM     59  O   UNL A   1      32.319  27.346  25.746  1.00  0.00    -0.462 OA
BRANCH  59  60
ATOM     60  C   UNL A   1      31.058  26.828  25.663  1.00  0.00     0.329 C 
ATOM     61  O   UNL A   1      30.430  26.347  26.600  1.00  0.00    -0.250 OA
BRANCH  60  62
ATOM     62  C   UNL A   1      30.456  27.018  24.257  1.00  0.00     0.198 C 
ATOM     63  C   UNL A   1      30.473  28.485  23.825  1.00  0.00     0.071 C 
ATOM     64  N   UNL A   1      31.195  26.320  23.206  1.00  0.00    -0.323 N 
ATOM     65  C   UNL A   1      31.709  28.627  22.935  1.00  0.00     0.136 C 
ATOM     66  C   UNL A   1      31.911  27.241  22.334  1.00  0.00     0.152 C 
BRANCH  64  67
ATOM     67  C   UNL A   1      31.200  24.947  23.228  1.00  0.00     0.247 C 
ATOM     68  O   UNL A   1      30.161  24.291  23.170  1.00  0.00    -0.270 OA
BRANCH  67  69
ATOM     69  C   UNL A   1      32.462  24.223  23.471  1.00  0.00     0.072 C 
ATOM     70  C   UNL A   1      32.796  23.658  24.637  1.00  0.00     0.018 C 
BRANCH  70  71
ATOM     71  C   UNL A   1      34.121  23.080  24.868  1.00  0.00     0.029 A 
ATOM     72  C   UNL A   1      35.153  23.911  25.321  1.00  0.00     0.131 A 
ATOM     73  C   UNL A   1      34.384  21.711  24.726  1.00  0.00     0.051 A 
ATOM     74  F   UNL A   1      34.942  25.228  25.472  1.00  0.00    -0.206 F 
ATOM     75  C   UNL A   1      36.405  23.404  25.651  1.00  0.00     0.040 A 
ATOM     76  C   UNL A   1      35.643  21.194  25.054  1.00  0.00     0.021 A 
ATOM     77  Cl  UNL A   1      33.182  20.608  24.149  1.00  0.00    -0.084 Cl
ATOM     78  C   UNL A   1      36.649  22.039  25.526  1.00  0.00     0.005 A 
ENDBRANCH  70  71
ENDBRANCH  67  69
ENDBRANCH  64  67
BRANCH  65  79
ATOM     79  O   UNL A   1      31.528  29.649  21.967  1.00  0.00    -0.391 OA
ATOM     80  H   UNL A   1      30.630  29.593  21.603  1.00  0.00     0.211 HD
ENDBRANCH  65  79
ENDBRANCH  60  62
ENDBRANCH  59  60
ENDBRANCH  58  59
ENDBRANCH   1  58
TORSDOF 18
ENDMDL
