MODEL 1
REMARK VINA RESULT:     -11.5      0.000      0.000
REMARK SMILES Cc1ccc(-c2cc(Cl)cc3c2O[C@@H](C(F)(F)F)C(C(=O)OCCOCCOC(=O)c2ccc(-c4c5nc(c(-c6ccccc6)c6ccc([nH]6)c(-c6ccccc6)c6nc(c(-c7ccccc7)c7ccc4[nH]7)C=C6)C=C5)cc2)=C3)cc1
REMARK SMILES IDX 26 1 25 2 24 3 23 4 22 5 20 6 21 7 19 8 6 9 7 10 12 11 8 12
REMARK SMILES IDX 11 13 13 14 9 15 10 16 79 17 14 18 5 19 1 20 2 21 3 22 81 23
REMARK SMILES IDX 4 24 80 25 15 26 16 27 17 28 18 29 27 30 28 31 29 32 30 33
REMARK SMILES IDX 31 34 32 35 78 36 33 37 77 38 34 39 35 40 36 41 71 42 37 43
REMARK SMILES IDX 76 44 70 45 72 46 38 47 75 48 69 49 68 50 39 52 61 53 46 54
REMARK SMILES IDX 60 55 47 56 50 57 59 58 73 59 48 60 49 61 58 63 74 64 51 65
REMARK SMILES IDX 40 66 41 67 45 68 42 69 44 70 43 71 62 72 63 73 67 74 64 75
REMARK SMILES IDX 66 76 65 77 52 78 53 79 57 80 54 81 56 82 55 83
REMARK H PARENT 72 51 50 62
REMARK Flexibility Score: inf
ROOT
ATOM      1  C   UNL A   1      33.097  30.395  27.252  1.00  0.00     0.202 C 
ENDROOT
BRANCH   1   2
ATOM      2  O   UNL A   1      33.406  29.462  26.214  1.00  0.00    -0.374 OA
BRANCH   2   3
ATOM      3  C   UNL A   1      34.105  28.310  26.670  1.00  0.00     0.202 C 
BRANCH   3   4
ATOM      4  C   UNL A   1      33.567  27.052  25.983  1.00  0.00     0.261 C 
BRANCH   4   5
ATOM      5  O   UNL A   1      32.264  26.667  26.461  1.00  0.00    -0.460 OA
BRANCH   5   6
ATOM      6  C   UNL A   1      32.016  25.317  26.468  1.00  0.00     0.338 C 
ATOM      7  O   UNL A   1      32.554  24.475  27.151  1.00  0.00    -0.246 OA
BRANCH   6   8
ATOM      8  C   UNL A   1      30.699  25.081  25.734  1.00  0.00     0.087 C 
ATOM      9  C   UNL A   1      33.511  23.693  23.296  1.00  0.00     0.026 A 
ATOM     10  C   UNL A   1      33.573  24.158  21.960  1.00  0.00     0.033 A 
ATOM     11  C   UNL A   1      32.280  23.891  23.968  1.00  0.00     0.135 A 
ATOM     12  C   UNL A   1      32.593  24.995  21.430  1.00  0.00     0.042 A 
ATOM     13  C   UNL A   1      31.460  24.970  23.533  1.00  0.00     0.019 A 
ATOM     14  O   UNL A   1      31.807  23.080  25.034  1.00  0.00    -0.475 OA
ATOM     15  Cl  UNL A   1      32.756  25.581  19.824  1.00  0.00    -0.084 Cl
ATOM     16  C   UNL A   1      31.578  25.473  22.243  1.00  0.00     0.032 A 
ATOM     17  C   UNL A   1      30.549  25.637  24.514  1.00  0.00     0.027 C 
ATOM     18  C   UNL A   1      30.512  23.581  25.610  1.00  0.00     0.316 C 
BRANCH   9  19
ATOM     19  C   UNL A   1      34.883  23.637  23.911  1.00  0.00    -0.015 A 
ATOM     20  C   UNL A   1      38.639  22.575  25.905  1.00  0.00     0.044 C 
ATOM     21  C   UNL A   1      37.328  22.898  25.240  1.00  0.00    -0.051 A 
ATOM     22  C   UNL A   1      36.407  23.774  25.830  1.00  0.00     0.004 A 
ATOM     23  C   UNL A   1      37.030  22.401  23.972  1.00  0.00     0.004 A 
ATOM     24  C   UNL A   1      35.196  24.120  25.185  1.00  0.00     0.009 A 
ATOM     25  C   UNL A   1      35.849  22.783  23.315  1.00  0.00     0.009 A 
ENDBRANCH   9  19
BRANCH  18  26
ATOM     26  C   UNL A   1      29.845  23.037  26.923  1.00  0.00     0.430 C 
ATOM     27  F   UNL A   1      28.976  23.938  27.462  1.00  0.00    -0.167 F 
ATOM     28  F   UNL A   1      29.083  21.947  26.625  1.00  0.00    -0.167 F 
ATOM     29  F   UNL A   1      30.658  22.653  27.917  1.00  0.00    -0.167 F 
ENDBRANCH  18  26
ENDBRANCH   6   8
ENDBRANCH   5   6
ENDBRANCH   4   5
ENDBRANCH   3   4
ENDBRANCH   2   3
ENDBRANCH   1   2
BRANCH   1  30
ATOM     30  C   UNL A   1      34.186  31.457  27.424  1.00  0.00     0.261 C 
BRANCH  30  31
ATOM     31  O   UNL A   1      34.793  31.282  28.718  1.00  0.00    -0.460 OA
BRANCH  31  32
ATOM     32  C   UNL A   1      36.136  31.485  28.735  1.00  0.00     0.338 C 
ATOM     33  O   UNL A   1      36.685  32.560  28.556  1.00  0.00    -0.246 OA
BRANCH  32  34
ATOM     34  C   UNL A   1      36.853  30.175  28.717  1.00  0.00     0.060 A 
ATOM     35  C   UNL A   1      36.862  29.386  29.875  1.00  0.00     0.016 A 
ATOM     36  C   UNL A   1      37.734  29.874  27.684  1.00  0.00     0.016 A 
ATOM     37  C   UNL A   1      37.868  28.424  30.072  1.00  0.00     0.010 A 
ATOM     38  C   UNL A   1      38.756  28.962  27.907  1.00  0.00     0.010 A 
ATOM     39  C   UNL A   1      38.884  28.282  29.125  1.00  0.00    -0.014 A 
BRANCH  39  40
ATOM     40  C   UNL A   1      40.230  27.744  29.426  1.00  0.00     0.031 A 
ATOM     41  C   UNL A   1      40.751  26.483  28.842  1.00  0.00     0.074 A 
ATOM     42  C   UNL A   1      41.148  28.595  29.959  1.00  0.00     0.049 A 
ATOM     43  N   UNL A   1      41.855  25.929  29.223  1.00  0.00    -0.248 NA
ATOM     44  C   UNL A   1      40.087  25.706  27.801  1.00  0.00     0.031 C 
ATOM     45  C   UNL A   1      42.607  28.518  29.868  1.00  0.00     0.029 A 
ATOM     46  N   UNL A   1      40.957  29.775  30.668  1.00  0.00    -0.354 N 
ATOM     47  C   UNL A   1      42.243  25.052  28.240  1.00  0.00     0.074 A 
ATOM     48  C   UNL A   1      41.040  24.820  27.479  1.00  0.00     0.031 C 
ATOM     49  C   UNL A   1      43.165  29.441  30.667  1.00  0.00     0.029 A 
ATOM     50  C   UNL A   1      42.095  30.053  31.423  1.00  0.00     0.049 A 
ATOM     51  H   UNL A   1      40.144  30.329  30.640  1.00  0.00     0.167 HD
ATOM     52  C   UNL A   1      43.568  24.742  28.109  1.00  0.00     0.031 A 
ATOM     53  C   UNL A   1      42.039  30.141  32.781  1.00  0.00     0.031 A 
ATOM     54  C   UNL A   1      44.380  25.300  29.208  1.00  0.00     0.049 A 
ATOM     55  C   UNL A   1      42.709  28.926  33.393  1.00  0.00     0.074 A 
ATOM     56  C   UNL A   1      45.439  26.191  29.282  1.00  0.00     0.029 A 
ATOM     57  N   UNL A   1      43.956  25.106  30.525  1.00  0.00    -0.354 N 
ATOM     58  N   UNL A   1      43.093  27.910  32.664  1.00  0.00    -0.248 NA
ATOM     59  C   UNL A   1      43.055  28.728  34.795  1.00  0.00     0.031 C 
ATOM     60  C   UNL A   1      45.567  26.608  30.644  1.00  0.00     0.029 A 
ATOM     61  C   UNL A   1      44.619  25.940  31.403  1.00  0.00     0.049 A 
ATOM     62  H   UNL A   1      43.270  24.453  30.794  1.00  0.00     0.167 HD
ATOM     63  C   UNL A   1      43.761  26.996  33.407  1.00  0.00     0.074 A 
ATOM     64  C   UNL A   1      43.676  27.529  34.757  1.00  0.00     0.031 C 
ATOM     65  C   UNL A   1      44.324  25.889  32.839  1.00  0.00     0.031 A 
BRANCH  52  66
ATOM     66  C   UNL A   1      44.180  24.042  26.905  1.00  0.00    -0.014 A 
ATOM     67  C   UNL A   1      43.712  24.329  25.606  1.00  0.00     0.009 A 
ATOM     68  C   UNL A   1      45.182  23.055  26.975  1.00  0.00     0.009 A 
ATOM     69  C   UNL A   1      44.235  23.701  24.461  1.00  0.00     0.001 A 
ATOM     70  C   UNL A   1      45.735  22.447  25.835  1.00  0.00     0.001 A 
ATOM     71  C   UNL A   1      45.261  22.772  24.574  1.00  0.00     0.000 A 
ENDBRANCH  52  66
BRANCH  53  72
ATOM     72  C   UNL A   1      40.877  30.975  33.214  1.00  0.00    -0.014 A 
ATOM     73  C   UNL A   1      40.888  32.292  32.696  1.00  0.00     0.009 A 
ATOM     74  C   UNL A   1      39.629  30.400  33.517  1.00  0.00     0.009 A 
ATOM     75  C   UNL A   1      39.706  32.926  32.295  1.00  0.00     0.001 A 
ATOM     76  C   UNL A   1      38.444  31.050  33.120  1.00  0.00     0.001 A 
ATOM     77  C   UNL A   1      38.486  32.282  32.465  1.00  0.00     0.000 A 
ENDBRANCH  53  72
BRANCH  65  78
ATOM     78  C   UNL A   1      44.684  24.641  33.595  1.00  0.00    -0.014 A 
ATOM     79  C   UNL A   1      43.779  23.599  33.832  1.00  0.00     0.009 A 
ATOM     80  C   UNL A   1      46.039  24.398  33.914  1.00  0.00     0.009 A 
ATOM     81  C   UNL A   1      44.200  22.386  34.388  1.00  0.00     0.001 A 
ATOM     82  C   UNL A   1      46.470  23.172  34.420  1.00  0.00     0.001 A 
ATOM     83  C   UNL A   1      45.546  22.168  34.668  1.00  0.00     0.000 A 
ENDBRANCH  65  78
ENDBRANCH  39  40
ENDBRANCH  32  34
ENDBRANCH  31  32
ENDBRANCH  30  31
ENDBRANCH   1  30
TORSDOF 16
ENDMDL
MODEL 2
REMARK VINA RESULT:     -11.3      2.149      3.203
REMARK SMILES Cc1ccc(-c2cc(Cl)cc3c2O[C@@H](C(F)(F)F)C(C(=O)OCCOCCOC(=O)c2ccc(-c4c5nc(c(-c6ccccc6)c6ccc([nH]6)c(-c6ccccc6)c6nc(c(-c7ccccc7)c7ccc4[nH]7)C=C6)C=C5)cc2)=C3)cc1
REMARK SMILES IDX 26 1 25 2 24 3 23 4 22 5 20 6 21 7 19 8 6 9 7 10 12 11 8 12
REMARK SMILES IDX 11 13 13 14 9 15 10 16 79 17 14 18 5 19 1 20 2 21 3 22 81 23
REMARK SMILES IDX 4 24 80 25 15 26 16 27 17 28 18 29 27 30 28 31 29 32 30 33
REMARK SMILES IDX 31 34 32 35 78 36 33 37 77 38 34 39 35 40 36 41 71 42 37 43
REMARK SMILES IDX 76 44 70 45 72 46 38 47 75 48 69 49 68 50 39 52 61 53 46 54
REMARK SMILES IDX 60 55 47 56 50 57 59 58 73 59 48 60 49 61 58 63 74 64 51 65
REMARK SMILES IDX 40 66 41 67 45 68 42 69 44 70 43 71 62 72 63 73 67 74 64 75
REMARK SMILES IDX 66 76 65 77 52 78 53 79 57 80 54 81 56 82 55 83
REMARK H PARENT 72 51 50 62
REMARK Flexibility Score: inf
ROOT
ATOM      1  C   UNL A   1      32.796  28.928  23.713  1.00  0.00     0.202 C 
ENDROOT
BRANCH   1   2
ATOM      2  O   UNL A   1      34.051  28.390  23.292  1.00  0.00    -0.374 OA
BRANCH   2   3
ATOM      3  C   UNL A   1      34.008  27.772  22.011  1.00  0.00     0.202 C 
BRANCH   3   4
ATOM      4  C   UNL A   1      32.977  26.640  21.999  1.00  0.00     0.261 C 
BRANCH   4   5
ATOM      5  O   UNL A   1      33.469  25.428  22.601  1.00  0.00    -0.460 OA
BRANCH   5   6
ATOM      6  C   UNL A   1      33.000  25.166  23.864  1.00  0.00     0.338 C 
ATOM      7  O   UNL A   1      33.503  25.490  24.916  1.00  0.00    -0.246 OA
BRANCH   6   8
ATOM      8  C   UNL A   1      31.549  24.709  23.736  1.00  0.00     0.087 C 
ATOM      9  C   UNL A   1      33.501  21.573  25.196  1.00  0.00     0.026 A 
ATOM     10  C   UNL A   1      33.408  20.322  24.539  1.00  0.00     0.033 A 
ATOM     11  C   UNL A   1      32.487  22.513  24.890  1.00  0.00     0.135 A 
ATOM     12  C   UNL A   1      32.545  20.121  23.465  1.00  0.00     0.042 A 
ATOM     13  C   UNL A   1      31.845  22.400  23.625  1.00  0.00     0.019 A 
ATOM     14  O   UNL A   1      32.062  23.550  25.764  1.00  0.00    -0.475 OA
ATOM     15  Cl  UNL A   1      32.524  18.601  22.665  1.00  0.00    -0.084 Cl
ATOM     16  C   UNL A   1      31.823  21.185  22.949  1.00  0.00     0.032 A 
ATOM     17  C   UNL A   1      31.293  23.627  22.972  1.00  0.00     0.027 C 
ATOM     18  C   UNL A   1      31.032  24.447  25.137  1.00  0.00     0.316 C 
BRANCH   9  19
ATOM     19  C   UNL A   1      34.921  21.867  25.598  1.00  0.00    -0.015 A 
ATOM     20  C   UNL A   1      38.986  23.420  26.126  1.00  0.00     0.044 C 
ATOM     21  C   UNL A   1      37.586  22.914  25.901  1.00  0.00    -0.051 A 
ATOM     22  C   UNL A   1      37.347  21.681  25.278  1.00  0.00     0.004 A 
ATOM     23  C   UNL A   1      36.486  23.618  26.388  1.00  0.00     0.004 A 
ATOM     24  C   UNL A   1      36.036  21.178  25.110  1.00  0.00     0.009 A 
ATOM     25  C   UNL A   1      35.189  23.093  26.261  1.00  0.00     0.009 A 
ENDBRANCH   9  19
BRANCH  18  26
ATOM     26  C   UNL A   1      30.523  25.797  25.757  1.00  0.00     0.430 C 
ATOM     27  F   UNL A   1      29.274  25.673  26.289  1.00  0.00    -0.167 F 
ATOM     28  F   UNL A   1      31.320  26.141  26.808  1.00  0.00    -0.167 F 
ATOM     29  F   UNL A   1      30.490  26.872  24.958  1.00  0.00    -0.167 F 
ENDBRANCH  18  26
ENDBRANCH   6   8
ENDBRANCH   5   6
ENDBRANCH   4   5
ENDBRANCH   3   4
ENDBRANCH   2   3
ENDBRANCH   1   2
BRANCH   1  30
ATOM     30  C   UNL A   1      32.862  29.530  25.119  1.00  0.00     0.261 C 
BRANCH  30  31
ATOM     31  O   UNL A   1      34.029  29.008  25.783  1.00  0.00    -0.460 OA
BRANCH  31  32
ATOM     32  C   UNL A   1      33.920  28.951  27.136  1.00  0.00     0.338 C 
ATOM     33  O   UNL A   1      32.910  28.641  27.745  1.00  0.00    -0.246 OA
BRANCH  32  34
ATOM     34  C   UNL A   1      35.109  29.591  27.773  1.00  0.00     0.060 A 
ATOM     35  C   UNL A   1      36.213  29.927  26.977  1.00  0.00     0.016 A 
ATOM     36  C   UNL A   1      35.247  29.590  29.157  1.00  0.00     0.016 A 
ATOM     37  C   UNL A   1      37.486  30.076  27.553  1.00  0.00     0.010 A 
ATOM     38  C   UNL A   1      36.515  29.684  29.714  1.00  0.00     0.010 A 
ATOM     39  C   UNL A   1      37.657  29.852  28.920  1.00  0.00    -0.014 A 
BRANCH  39  40
ATOM     40  C   UNL A   1      38.940  29.451  29.542  1.00  0.00     0.031 A 
ATOM     41  C   UNL A   1      39.730  28.278  29.092  1.00  0.00     0.074 A 
ATOM     42  C   UNL A   1      39.594  30.374  30.296  1.00  0.00     0.049 A 
ATOM     43  N   UNL A   1      40.762  27.832  29.730  1.00  0.00    -0.248 NA
ATOM     44  C   UNL A   1      39.437  27.475  27.910  1.00  0.00     0.031 C 
ATOM     45  C   UNL A   1      41.030  30.460  30.571  1.00  0.00     0.029 A 
ATOM     46  N   UNL A   1      39.100  31.498  30.948  1.00  0.00    -0.354 N 
ATOM     47  C   UNL A   1      41.480  27.043  28.865  1.00  0.00     0.074 A 
ATOM     48  C   UNL A   1      40.536  26.711  27.826  1.00  0.00     0.031 C 
ATOM     49  C   UNL A   1      41.262  31.406  31.495  1.00  0.00     0.029 A 
ATOM     50  C   UNL A   1      39.976  31.868  31.966  1.00  0.00     0.049 A 
ATOM     51  H   UNL A   1      38.261  31.962  30.724  1.00  0.00     0.167 HD
ATOM     52  C   UNL A   1      42.822  26.883  29.066  1.00  0.00     0.031 A 
ATOM     53  C   UNL A   1      39.577  31.896  33.268  1.00  0.00     0.031 A 
ATOM     54  C   UNL A   1      43.268  27.483  30.339  1.00  0.00     0.049 A 
ATOM     55  C   UNL A   1      40.211  30.738  34.015  1.00  0.00     0.074 A 
ATOM     56  C   UNL A   1      44.166  28.479  30.686  1.00  0.00     0.029 A 
ATOM     57  N   UNL A   1      42.558  27.191  31.506  1.00  0.00    -0.354 N 
ATOM     58  N   UNL A   1      40.876  29.799  33.393  1.00  0.00    -0.248 NA
ATOM     59  C   UNL A   1      40.220  30.523  35.457  1.00  0.00     0.031 C 
ATOM     60  C   UNL A   1      43.905  28.853  32.040  1.00  0.00     0.029 A 
ATOM     61  C   UNL A   1      42.882  28.058  32.532  1.00  0.00     0.049 A 
ATOM     62  H   UNL A   1      41.906  26.458  31.588  1.00  0.00     0.167 HD
ATOM     63  C   UNL A   1      41.441  28.934  34.270  1.00  0.00     0.074 A 
ATOM     64  C   UNL A   1      40.965  29.401  35.561  1.00  0.00     0.031 C 
ATOM     65  C   UNL A   1      42.250  27.918  33.847  1.00  0.00     0.031 A 
BRANCH  52  66
ATOM     66  C   UNL A   1      43.788  26.302  28.045  1.00  0.00    -0.014 A 
ATOM     67  C   UNL A   1      44.647  25.243  28.406  1.00  0.00     0.009 A 
ATOM     68  C   UNL A   1      43.942  26.775  26.727  1.00  0.00     0.009 A 
ATOM     69  C   UNL A   1      45.567  24.679  27.503  1.00  0.00     0.001 A 
ATOM     70  C   UNL A   1      44.833  26.195  25.808  1.00  0.00     0.001 A 
ATOM     71  C   UNL A   1      45.647  25.143  26.197  1.00  0.00     0.000 A 
ENDBRANCH  52  66
BRANCH  53  72
ATOM     72  C   UNL A   1      38.256  32.581  33.407  1.00  0.00    -0.014 A 
ATOM     73  C   UNL A   1      38.260  33.931  32.981  1.00  0.00     0.009 A 
ATOM     74  C   UNL A   1      37.045  31.871  33.324  1.00  0.00     0.009 A 
ATOM     75  C   UNL A   1      37.166  34.483  32.303  1.00  0.00     0.001 A 
ATOM     76  C   UNL A   1      35.945  32.437  32.650  1.00  0.00     0.001 A 
ATOM     77  C   UNL A   1      36.025  33.717  32.097  1.00  0.00     0.000 A 
ENDBRANCH  53  72
BRANCH  65  78
ATOM     78  C   UNL A   1      42.554  26.687  34.655  1.00  0.00    -0.014 A 
ATOM     79  C   UNL A   1      41.565  25.815  35.126  1.00  0.00     0.009 A 
ATOM     80  C   UNL A   1      43.896  26.265  34.786  1.00  0.00     0.009 A 
ATOM     81  C   UNL A   1      41.900  24.595  35.725  1.00  0.00     0.001 A 
ATOM     82  C   UNL A   1      44.231  25.028  35.336  1.00  0.00     0.001 A 
ATOM     83  C   UNL A   1      43.230  24.197  35.816  1.00  0.00     0.000 A 
ENDBRANCH  65  78
ENDBRANCH  39  40
ENDBRANCH  32  34
ENDBRANCH  31  32
ENDBRANCH  30  31
ENDBRANCH   1  30
TORSDOF 16
ENDMDL
MODEL 3
REMARK VINA RESULT:     -11.3      3.282      8.135
REMARK SMILES Cc1ccc(-c2cc(Cl)cc3c2O[C@@H](C(F)(F)F)C(C(=O)OCCOCCOC(=O)c2ccc(-c4c5nc(c(-c6ccccc6)c6ccc([nH]6)c(-c6ccccc6)c6nc(c(-c7ccccc7)c7ccc4[nH]7)C=C6)C=C5)cc2)=C3)cc1
REMARK SMILES IDX 26 1 25 2 24 3 23 4 22 5 20 6 21 7 19 8 6 9 7 10 12 11 8 12
REMARK SMILES IDX 11 13 13 14 9 15 10 16 79 17 14 18 5 19 1 20 2 21 3 22 81 23
REMARK SMILES IDX 4 24 80 25 15 26 16 27 17 28 18 29 27 30 28 31 29 32 30 33
REMARK SMILES IDX 31 34 32 35 78 36 33 37 77 38 34 39 35 40 36 41 71 42 37 43
REMARK SMILES IDX 76 44 70 45 72 46 38 47 75 48 69 49 68 50 39 52 61 53 46 54
REMARK SMILES IDX 60 55 47 56 50 57 59 58 73 59 48 60 49 61 58 63 74 64 51 65
REMARK SMILES IDX 40 66 41 67 45 68 42 69 44 70 43 71 62 72 63 73 67 74 64 75
REMARK SMILES IDX 66 76 65 77 52 78 53 79 57 80 54 81 56 82 55 83
REMARK H PARENT 72 51 50 62
REMARK Flexibility Score: inf
ROOT
ATOM      1  C   UNL A   1      37.638  21.468  25.754  1.00  0.00     0.202 C 
ENDROOT
BRANCH   1   2
ATOM      2  O   UNL A   1      37.111  22.790  25.884  1.00  0.00    -0.374 OA
BRANCH   2   3
ATOM      3  C   UNL A   1      35.690  22.847  25.830  1.00  0.00     0.202 C 
BRANCH   3   4
ATOM      4  C   UNL A   1      35.233  24.157  25.182  1.00  0.00     0.261 C 
BRANCH   4   5
ATOM      5  O   UNL A   1      35.025  24.037  23.762  1.00  0.00    -0.460 OA
BRANCH   5   6
ATOM      6  C   UNL A   1      34.092  24.892  23.230  1.00  0.00     0.338 C 
ATOM      7  O   UNL A   1      34.199  26.088  23.069  1.00  0.00    -0.246 OA
BRANCH   6   8
ATOM      8  C   UNL A   1      33.027  24.047  22.537  1.00  0.00     0.087 C 
ATOM      9  C   UNL A   1      31.157  25.794  25.576  1.00  0.00     0.026 A 
ATOM     10  C   UNL A   1      30.439  25.002  26.505  1.00  0.00     0.033 A 
ATOM     11  C   UNL A   1      31.435  25.187  24.326  1.00  0.00     0.135 A 
ATOM     12  C   UNL A   1      30.257  23.634  26.315  1.00  0.00     0.042 A 
ATOM     13  C   UNL A   1      31.513  23.766  24.287  1.00  0.00     0.019 A 
ATOM     14  O   UNL A   1      31.629  25.900  23.112  1.00  0.00    -0.475 OA
ATOM     15  Cl  UNL A   1      29.435  22.714  27.510  1.00  0.00    -0.084 Cl
ATOM     16  C   UNL A   1      30.868  22.996  25.248  1.00  0.00     0.032 A 
ATOM     17  C   UNL A   1      32.391  23.110  23.270  1.00  0.00     0.027 C 
ATOM     18  C   UNL A   1      31.994  25.000  21.966  1.00  0.00     0.316 C 
BRANCH   9  19
ATOM     19  C   UNL A   1      31.975  26.842  26.280  1.00  0.00    -0.015 A 
ATOM     20  C   UNL A   1      34.033  30.465  27.640  1.00  0.00     0.044 C 
ATOM     21  C   UNL A   1      33.317  29.243  27.128  1.00  0.00    -0.051 A 
ATOM     22  C   UNL A   1      34.018  28.172  26.557  1.00  0.00     0.004 A 
ATOM     23  C   UNL A   1      31.939  29.105  27.289  1.00  0.00     0.004 A 
ATOM     24  C   UNL A   1      33.355  27.002  26.121  1.00  0.00     0.009 A 
ATOM     25  C   UNL A   1      31.291  27.922  26.897  1.00  0.00     0.009 A 
ENDBRANCH   9  19
BRANCH  18  26
ATOM     26  C   UNL A   1      32.478  25.495  20.557  1.00  0.00     0.430 C 
ATOM     27  F   UNL A   1      33.126  24.514  19.868  1.00  0.00    -0.167 F 
ATOM     28  F   UNL A   1      31.394  25.805  19.791  1.00  0.00    -0.167 F 
ATOM     29  F   UNL A   1      33.272  26.574  20.518  1.00  0.00    -0.167 F 
ENDBRANCH  18  26
ENDBRANCH   6   8
ENDBRANCH   5   6
ENDBRANCH   4   5
ENDBRANCH   3   4
ENDBRANCH   2   3
ENDBRANCH   1   2
BRANCH   1  30
ATOM     30  C   UNL A   1      39.169  21.452  25.730  1.00  0.00     0.261 C 
BRANCH  30  31
ATOM     31  O   UNL A   1      39.650  22.033  26.957  1.00  0.00    -0.460 OA
BRANCH  31  32
ATOM     32  C   UNL A   1      40.673  22.912  26.793  1.00  0.00     0.338 C 
ATOM     33  O   UNL A   1      41.856  22.614  26.774  1.00  0.00    -0.246 OA
BRANCH  32  34
ATOM     34  C   UNL A   1      40.172  24.312  26.926  1.00  0.00     0.060 A 
ATOM     35  C   UNL A   1      40.791  25.331  26.188  1.00  0.00     0.016 A 
ATOM     36  C   UNL A   1      39.315  24.653  27.965  1.00  0.00     0.016 A 
ATOM     37  C   UNL A   1      40.697  26.669  26.607  1.00  0.00     0.010 A 
ATOM     38  C   UNL A   1      39.270  25.968  28.406  1.00  0.00     0.010 A 
ATOM     39  C   UNL A   1      40.016  26.979  27.785  1.00  0.00    -0.014 A 
BRANCH  39  40
ATOM     40  C   UNL A   1      40.279  28.184  28.605  1.00  0.00     0.031 A 
ATOM     41  C   UNL A   1      39.356  29.344  28.664  1.00  0.00     0.074 A 
ATOM     42  C   UNL A   1      41.197  28.083  29.602  1.00  0.00     0.049 A 
ATOM     43  N   UNL A   1      39.655  30.458  29.248  1.00  0.00    -0.248 NA
ATOM     44  C   UNL A   1      38.027  29.389  28.063  1.00  0.00     0.031 C 
ATOM     45  C   UNL A   1      41.279  28.869  30.835  1.00  0.00     0.029 A 
ATOM     46  N   UNL A   1      42.251  27.188  29.751  1.00  0.00    -0.354 N 
ATOM     47  C   UNL A   1      38.483  31.136  29.481  1.00  0.00     0.074 A 
ATOM     48  C   UNL A   1      37.538  30.525  28.579  1.00  0.00     0.031 C 
ATOM     49  C   UNL A   1      42.423  28.589  31.481  1.00  0.00     0.029 A 
ATOM     50  C   UNL A   1      43.199  27.726  30.619  1.00  0.00     0.049 A 
ATOM     51  H   UNL A   1      42.316  26.310  29.312  1.00  0.00     0.167 HD
ATOM     52  C   UNL A   1      38.427  32.035  30.508  1.00  0.00     0.031 A 
ATOM     53  C   UNL A   1      44.478  27.960  30.213  1.00  0.00     0.031 A 
ATOM     54  C   UNL A   1      39.750  32.261  31.122  1.00  0.00     0.049 A 
ATOM     55  C   UNL A   1      44.696  29.454  30.071  1.00  0.00     0.074 A 
ATOM     56  C   UNL A   1      40.279  32.086  32.392  1.00  0.00     0.029 A 
ATOM     57  N   UNL A   1      40.841  32.530  30.292  1.00  0.00    -0.354 N 
ATOM     58  N   UNL A   1      43.709  30.307  30.164  1.00  0.00    -0.248 NA
ATOM     59  C   UNL A   1      45.967  30.140  29.868  1.00  0.00     0.031 C 
ATOM     60  C   UNL A   1      41.703  32.144  32.285  1.00  0.00     0.029 A 
ATOM     61  C   UNL A   1      42.040  32.397  30.965  1.00  0.00     0.049 A 
ATOM     62  H   UNL A   1      40.765  32.784  29.344  1.00  0.00     0.167 HD
ATOM     63  C   UNL A   1      44.156  31.584  30.113  1.00  0.00     0.074 A 
ATOM     64  C   UNL A   1      45.583  31.435  29.880  1.00  0.00     0.031 C 
ATOM     65  C   UNL A   1      43.309  32.643  30.272  1.00  0.00     0.031 A 
BRANCH  52  66
ATOM     66  C   UNL A   1      37.144  32.627  31.073  1.00  0.00    -0.014 A 
ATOM     67  C   UNL A   1      35.951  31.875  31.057  1.00  0.00     0.009 A 
ATOM     68  C   UNL A   1      37.023  33.932  31.590  1.00  0.00     0.009 A 
ATOM     69  C   UNL A   1      34.736  32.381  31.555  1.00  0.00     0.001 A 
ATOM     70  C   UNL A   1      35.822  34.432  32.122  1.00  0.00     0.001 A 
ATOM     71  C   UNL A   1      34.675  33.654  32.105  1.00  0.00     0.000 A 
ENDBRANCH  52  66
BRANCH  53  72
ATOM     72  C   UNL A   1      45.024  26.787  29.465  1.00  0.00    -0.014 A 
ATOM     73  C   UNL A   1      45.098  25.599  30.232  1.00  0.00     0.009 A 
ATOM     74  C   UNL A   1      44.863  26.660  28.074  1.00  0.00     0.009 A 
ATOM     75  C   UNL A   1      44.809  24.350  29.668  1.00  0.00     0.001 A 
ATOM     76  C   UNL A   1      44.583  25.398  27.513  1.00  0.00     0.001 A 
ATOM     77  C   UNL A   1      44.505  24.258  28.315  1.00  0.00     0.000 A 
ENDBRANCH  53  72
BRANCH  65  78
ATOM     78  C   UNL A   1      43.607  34.042  29.810  1.00  0.00    -0.014 A 
ATOM     79  C   UNL A   1      43.671  34.407  28.459  1.00  0.00     0.009 A 
ATOM     80  C   UNL A   1      43.628  35.089  30.758  1.00  0.00     0.009 A 
ATOM     81  C   UNL A   1      43.781  35.748  28.076  1.00  0.00     0.001 A 
ATOM     82  C   UNL A   1      43.686  36.430  30.377  1.00  0.00     0.001 A 
ATOM     83  C   UNL A   1      43.774  36.758  29.032  1.00  0.00     0.000 A 
ENDBRANCH  65  78
ENDBRANCH  39  40
ENDBRANCH  32  34
ENDBRANCH  31  32
ENDBRANCH  30  31
ENDBRANCH   1  30
TORSDOF 16
ENDMDL
