MODEL 1
REMARK VINA RESULT:     -11.0      0.000      0.000
REMARK SMILES O=C(OCCOCCOC(=O)[C@H]1[NH2+]CC[C@H]1c1cccc(Oc2ccccc2)c1)c1ccc(-c2c3nc(c(-c4ccccc4)c4ccc([nH]4)c(-c4ccccc4)c4nc(c(-c5ccccc5)c5ccc2[nH]5)C=C4)C=C3)cc1
REMARK SMILES IDX 7 1 6 2 5 3 4 4 3 5 2 6 1 7 30 8 31 9 77 10 32 11 76 12
REMARK SMILES IDX 33 13 34 14 35 15 70 16 36 17 75 18 69 19 71 20 37 21 74 22
REMARK SMILES IDX 68 23 67 24 38 26 60 27 45 28 59 29 46 30 49 31 58 32 72 33
REMARK SMILES IDX 47 34 48 35 57 37 73 38 50 39 39 40 40 41 44 42 41 43 43 44
REMARK SMILES IDX 42 45 61 46 62 47 66 48 63 49 65 50 64 51 51 52 52 53 56 54
REMARK SMILES IDX 53 55 55 56 54 57 8 58 9 59 10 60 11 61 12 62 13 63 16 64
REMARK SMILES IDX 14 65 15 68 17 69 18 70 29 71 19 72 21 73 20 74 22 75 23 76
REMARK SMILES IDX 24 77 28 78 25 79 27 80 26 81
REMARK H PARENT 71 25 49 36 13 66 13 67
REMARK Flexibility Score: inf
ROOT
ATOM      1  C   UNL A   1      34.067  29.443  26.393  1.00  0.00     0.202 C 
ENDROOT
BRANCH   1   2
ATOM      2  O   UNL A   1      33.184  30.235  27.186  1.00  0.00    -0.374 OA
BRANCH   2   3
ATOM      3  C   UNL A   1      32.107  30.852  26.479  1.00  0.00     0.202 C 
BRANCH   3   4
ATOM      4  C   UNL A   1      31.465  32.083  27.150  1.00  0.00     0.261 C 
BRANCH   4   5
ATOM      5  O   UNL A   1      32.289  33.265  27.070  1.00  0.00    -0.460 OA
BRANCH   5   6
ATOM      6  C   UNL A   1      32.888  33.947  28.079  1.00  0.00     0.338 C 
ATOM      7  O   UNL A   1      32.387  35.003  28.461  1.00  0.00    -0.246 OA
BRANCH   6   8
ATOM      8  C   UNL A   1      34.193  33.537  28.687  1.00  0.00     0.060 A 
ATOM      9  C   UNL A   1      34.299  32.798  29.860  1.00  0.00     0.016 A 
ATOM     10  C   UNL A   1      35.375  33.780  27.966  1.00  0.00     0.016 A 
ATOM     11  C   UNL A   1      35.468  32.210  30.266  1.00  0.00     0.010 A 
ATOM     12  C   UNL A   1      36.597  33.257  28.407  1.00  0.00     0.010 A 
ATOM     13  C   UNL A   1      36.622  32.448  29.546  1.00  0.00    -0.014 A 
BRANCH  13  14
ATOM     14  C   UNL A   1      37.834  31.946  30.185  1.00  0.00     0.031 A 
ATOM     15  C   UNL A   1      38.491  30.766  29.549  1.00  0.00     0.074 A 
ATOM     16  C   UNL A   1      38.440  32.707  31.111  1.00  0.00     0.049 A 
ATOM     17  N   UNL A   1      39.557  30.121  29.920  1.00  0.00    -0.248 NA
ATOM     18  C   UNL A   1      37.881  30.265  28.299  1.00  0.00     0.031 C 
ATOM     19  C   UNL A   1      37.967  34.018  31.575  1.00  0.00     0.029 A 
ATOM     20  N   UNL A   1      39.605  32.513  31.794  1.00  0.00    -0.354 N 
ATOM     21  C   UNL A   1      39.717  29.111  28.983  1.00  0.00     0.074 A 
ATOM     22  C   UNL A   1      38.671  29.246  28.001  1.00  0.00     0.031 C 
ATOM     23  C   UNL A   1      38.827  34.494  32.490  1.00  0.00     0.029 A 
ATOM     24  C   UNL A   1      39.859  33.492  32.723  1.00  0.00     0.049 A 
ATOM     25  H   UNL A   1      40.204  31.748  31.638  1.00  0.00     0.167 HD
ATOM     26  C   UNL A   1      40.646  28.133  28.990  1.00  0.00     0.031 A 
ATOM     27  C   UNL A   1      40.787  33.513  33.695  1.00  0.00     0.031 A 
ATOM     28  C   UNL A   1      41.650  28.039  30.010  1.00  0.00     0.049 A 
ATOM     29  C   UNL A   1      41.704  32.322  33.781  1.00  0.00     0.074 A 
ATOM     30  C   UNL A   1      42.602  27.059  30.201  1.00  0.00     0.029 A 
ATOM     31  N   UNL A   1      41.814  28.976  31.022  1.00  0.00    -0.354 N 
ATOM     32  N   UNL A   1      41.811  31.302  32.958  1.00  0.00    -0.248 NA
ATOM     33  C   UNL A   1      42.605  32.261  34.936  1.00  0.00     0.031 C 
ATOM     34  C   UNL A   1      43.295  27.367  31.375  1.00  0.00     0.029 A 
ATOM     35  C   UNL A   1      42.822  28.576  31.873  1.00  0.00     0.049 A 
ATOM     36  H   UNL A   1      41.289  29.803  31.118  1.00  0.00     0.167 HD
ATOM     37  C   UNL A   1      42.796  30.484  33.488  1.00  0.00     0.074 A 
ATOM     38  C   UNL A   1      43.278  31.147  34.686  1.00  0.00     0.031 C 
ATOM     39  C   UNL A   1      43.258  29.289  33.047  1.00  0.00     0.031 A 
BRANCH  26  40
ATOM     40  C   UNL A   1      40.507  27.045  27.971  1.00  0.00    -0.014 A 
ATOM     41  C   UNL A   1      39.712  25.910  28.187  1.00  0.00     0.009 A 
ATOM     42  C   UNL A   1      41.218  27.156  26.766  1.00  0.00     0.009 A 
ATOM     43  C   UNL A   1      39.649  24.900  27.223  1.00  0.00     0.001 A 
ATOM     44  C   UNL A   1      41.136  26.160  25.795  1.00  0.00     0.001 A 
ATOM     45  C   UNL A   1      40.355  25.029  26.026  1.00  0.00     0.000 A 
ENDBRANCH  26  40
BRANCH  27  46
ATOM     46  C   UNL A   1      40.800  34.586  34.729  1.00  0.00    -0.014 A 
ATOM     47  C   UNL A   1      41.618  35.718  34.596  1.00  0.00     0.009 A 
ATOM     48  C   UNL A   1      40.039  34.444  35.903  1.00  0.00     0.009 A 
ATOM     49  C   UNL A   1      41.708  36.654  35.632  1.00  0.00     0.001 A 
ATOM     50  C   UNL A   1      40.101  35.398  36.920  1.00  0.00     0.001 A 
ATOM     51  C   UNL A   1      40.952  36.494  36.792  1.00  0.00     0.000 A 
ENDBRANCH  27  46
BRANCH  39  52
ATOM     52  C   UNL A   1      44.346  28.650  33.854  1.00  0.00    -0.014 A 
ATOM     53  C   UNL A   1      44.048  27.725  34.865  1.00  0.00     0.009 A 
ATOM     54  C   UNL A   1      45.687  28.924  33.542  1.00  0.00     0.009 A 
ATOM     55  C   UNL A   1      45.079  27.101  35.567  1.00  0.00     0.001 A 
ATOM     56  C   UNL A   1      46.713  28.271  34.219  1.00  0.00     0.001 A 
ATOM     57  C   UNL A   1      46.408  27.367  35.236  1.00  0.00     0.000 A 
ENDBRANCH  39  52
ENDBRANCH  13  14
ENDBRANCH   6   8
ENDBRANCH   5   6
ENDBRANCH   4   5
ENDBRANCH   3   4
ENDBRANCH   2   3
ENDBRANCH   1   2
BRANCH   1  58
ATOM     58  C   UNL A   1      33.237  28.522  25.555  1.00  0.00     0.261 C 
BRANCH  58  59
ATOM     59  O   UNL A   1      33.212  27.329  26.314  1.00  0.00    -0.459 OA
BRANCH  59  60
ATOM     60  C   UNL A   1      32.026  26.776  26.653  1.00  0.00     0.365 C 
ATOM     61  O   UNL A   1      31.107  27.311  27.239  1.00  0.00    -0.245 OA
BRANCH  60  62
ATOM     62  C   UNL A   1      32.079  25.333  26.180  1.00  0.00     0.301 C 
ATOM     63  N   UNL A   1      31.065  24.502  26.909  1.00  0.00    -0.334 N 
ATOM     64  C   UNL A   1      31.739  25.118  24.687  1.00  0.00     0.095 C 
ATOM     65  C   UNL A   1      30.870  23.308  26.088  1.00  0.00     0.262 C 
ATOM     66  H   UNL A   1      30.189  25.016  27.005  1.00  0.00     0.347 HD
ATOM     67  H   UNL A   1      31.377  24.266  27.850  1.00  0.00     0.347 HD
ATOM     68  C   UNL A   1      31.523  23.595  24.736  1.00  0.00     0.076 C 
BRANCH  64  69
ATOM     69  C   UNL A   1      30.570  25.946  24.105  1.00  0.00    -0.034 A 
ATOM     70  C   UNL A   1      29.239  25.768  24.507  1.00  0.00     0.004 A 
ATOM     71  C   UNL A   1      30.832  26.990  23.174  1.00  0.00     0.051 A 
ATOM     72  C   UNL A   1      28.224  26.612  24.043  1.00  0.00     0.004 A 
ATOM     73  C   UNL A   1      29.828  27.888  22.762  1.00  0.00     0.127 A 
ATOM     74  C   UNL A   1      28.517  27.673  23.186  1.00  0.00     0.047 A 
BRANCH  73  75
ATOM     75  O   UNL A   1      30.016  28.951  21.890  1.00  0.00    -0.457 OA
BRANCH  75  76
ATOM     76  C   UNL A   1      29.488  30.178  22.233  1.00  0.00     0.127 A 
ATOM     77  C   UNL A   1      29.549  30.624  23.561  1.00  0.00     0.047 A 
ATOM     78  C   UNL A   1      28.808  30.941  21.285  1.00  0.00     0.047 A 
ATOM     79  C   UNL A   1      29.028  31.880  23.905  1.00  0.00     0.004 A 
ATOM     80  C   UNL A   1      28.295  32.194  21.626  1.00  0.00     0.004 A 
ATOM     81  C   UNL A   1      28.416  32.671  22.932  1.00  0.00     0.000 A 
ENDBRANCH  75  76
ENDBRANCH  73  75
ENDBRANCH  64  69
ENDBRANCH  60  62
ENDBRANCH  59  60
ENDBRANCH  58  59
ENDBRANCH   1  58
TORSDOF 17
ENDMDL
MODEL 2
REMARK VINA RESULT:     -10.9      1.702      7.002
REMARK SMILES O=C(OCCOCCOC(=O)[C@H]1[NH2+]CC[C@H]1c1cccc(Oc2ccccc2)c1)c1ccc(-c2c3nc(c(-c4ccccc4)c4ccc([nH]4)c(-c4ccccc4)c4nc(c(-c5ccccc5)c5ccc2[nH]5)C=C4)C=C3)cc1
REMARK SMILES IDX 7 1 6 2 5 3 4 4 3 5 2 6 1 7 30 8 31 9 77 10 32 11 76 12
REMARK SMILES IDX 33 13 34 14 35 15 70 16 36 17 75 18 69 19 71 20 37 21 74 22
REMARK SMILES IDX 68 23 67 24 38 26 60 27 45 28 59 29 46 30 49 31 58 32 72 33
REMARK SMILES IDX 47 34 48 35 57 37 73 38 50 39 39 40 40 41 44 42 41 43 43 44
REMARK SMILES IDX 42 45 61 46 62 47 66 48 63 49 65 50 64 51 51 52 52 53 56 54
REMARK SMILES IDX 53 55 55 56 54 57 8 58 9 59 10 60 11 61 12 62 13 63 16 64
REMARK SMILES IDX 14 65 15 68 17 69 18 70 29 71 19 72 21 73 20 74 22 75 23 76
REMARK SMILES IDX 24 77 28 78 25 79 27 80 26 81
REMARK H PARENT 71 25 49 36 13 66 13 67
REMARK Flexibility Score: inf
ROOT
ATOM      1  C   UNL A   1      32.367  29.757  27.236  1.00  0.00     0.202 C 
ENDROOT
BRANCH   1   2
ATOM      2  O   UNL A   1      31.500  30.429  26.322  1.00  0.00    -0.374 OA
BRANCH   2   3
ATOM      3  C   UNL A   1      31.297  31.820  26.575  1.00  0.00     0.202 C 
BRANCH   3   4
ATOM      4  C   UNL A   1      32.545  32.631  26.976  1.00  0.00     0.261 C 
BRANCH   4   5
ATOM      5  O   UNL A   1      32.230  33.812  27.743  1.00  0.00    -0.460 OA
BRANCH   5   6
ATOM      6  C   UNL A   1      33.014  34.478  28.627  1.00  0.00     0.338 C 
ATOM      7  O   UNL A   1      32.718  35.633  28.930  1.00  0.00    -0.246 OA
BRANCH   6   8
ATOM      8  C   UNL A   1      34.289  33.921  29.179  1.00  0.00     0.060 A 
ATOM      9  C   UNL A   1      34.339  32.918  30.142  1.00  0.00     0.016 A 
ATOM     10  C   UNL A   1      35.504  34.318  28.595  1.00  0.00     0.016 A 
ATOM     11  C   UNL A   1      35.488  32.237  30.447  1.00  0.00     0.010 A 
ATOM     12  C   UNL A   1      36.704  33.691  28.953  1.00  0.00     0.010 A 
ATOM     13  C   UNL A   1      36.675  32.630  29.862  1.00  0.00    -0.014 A 
BRANCH  13  14
ATOM     14  C   UNL A   1      37.856  31.976  30.416  1.00  0.00     0.031 A 
ATOM     15  C   UNL A   1      38.382  32.517  31.704  1.00  0.00     0.074 A 
ATOM     16  C   UNL A   1      38.231  30.786  29.916  1.00  0.00     0.049 A 
ATOM     17  N   UNL A   1      39.416  32.132  32.393  1.00  0.00    -0.248 NA
ATOM     18  C   UNL A   1      37.616  33.621  32.319  1.00  0.00     0.031 C 
ATOM     19  C   UNL A   1      37.566  30.081  28.812  1.00  0.00     0.029 A 
ATOM     20  N   UNL A   1      39.232  29.941  30.295  1.00  0.00    -0.354 N 
ATOM     21  C   UNL A   1      39.455  32.978  33.492  1.00  0.00     0.074 A 
ATOM     22  C   UNL A   1      38.323  33.867  33.410  1.00  0.00     0.031 C 
ATOM     23  C   UNL A   1      38.202  28.919  28.591  1.00  0.00     0.029 A 
ATOM     24  C   UNL A   1      39.351  28.841  29.483  1.00  0.00     0.049 A 
ATOM     25  H   UNL A   1      39.813  30.104  31.074  1.00  0.00     0.167 HD
ATOM     26  C   UNL A   1      40.397  33.016  34.458  1.00  0.00     0.031 A 
ATOM     27  C   UNL A   1      40.336  27.928  29.437  1.00  0.00     0.031 A 
ATOM     28  C   UNL A   1      41.514  32.116  34.473  1.00  0.00     0.049 A 
ATOM     29  C   UNL A   1      41.463  28.098  30.421  1.00  0.00     0.074 A 
ATOM     30  C   UNL A   1      42.593  32.090  35.331  1.00  0.00     0.029 A 
ATOM     31  N   UNL A   1      41.686  31.082  33.562  1.00  0.00    -0.354 N 
ATOM     32  N   UNL A   1      41.569  28.953  31.414  1.00  0.00    -0.248 NA
ATOM     33  C   UNL A   1      42.618  27.207  30.268  1.00  0.00     0.031 C 
ATOM     34  C   UNL A   1      43.456  31.082  34.893  1.00  0.00     0.029 A 
ATOM     35  C   UNL A   1      42.879  30.436  33.805  1.00  0.00     0.049 A 
ATOM     36  H   UNL A   1      41.050  30.845  32.849  1.00  0.00     0.167 HD
ATOM     37  C   UNL A   1      42.794  28.697  32.010  1.00  0.00     0.074 A 
ATOM     38  C   UNL A   1      43.378  27.584  31.286  1.00  0.00     0.031 C 
ATOM     39  C   UNL A   1      43.398  29.326  33.048  1.00  0.00     0.031 A 
BRANCH  26  40
ATOM     40  C   UNL A   1      40.324  34.140  35.446  1.00  0.00    -0.014 A 
ATOM     41  C   UNL A   1      39.652  34.019  36.671  1.00  0.00     0.009 A 
ATOM     42  C   UNL A   1      40.929  35.364  35.119  1.00  0.00     0.009 A 
ATOM     43  C   UNL A   1      39.574  35.110  37.540  1.00  0.00     0.001 A 
ATOM     44  C   UNL A   1      40.870  36.444  35.998  1.00  0.00     0.001 A 
ATOM     45  C   UNL A   1      40.188  36.319  37.207  1.00  0.00     0.000 A 
ENDBRANCH  26  40
BRANCH  27  46
ATOM     46  C   UNL A   1      40.386  26.896  28.363  1.00  0.00    -0.014 A 
ATOM     47  C   UNL A   1      40.989  27.160  27.125  1.00  0.00     0.009 A 
ATOM     48  C   UNL A   1      39.757  25.652  28.551  1.00  0.00     0.009 A 
ATOM     49  C   UNL A   1      40.919  26.223  26.087  1.00  0.00     0.001 A 
ATOM     50  C   UNL A   1      39.720  24.703  27.527  1.00  0.00     0.001 A 
ATOM     51  C   UNL A   1      40.285  24.997  26.288  1.00  0.00     0.000 A 
ENDBRANCH  27  46
BRANCH  39  52
ATOM     52  C   UNL A   1      44.739  28.801  33.461  1.00  0.00    -0.014 A 
ATOM     53  C   UNL A   1      45.921  29.342  32.935  1.00  0.00     0.009 A 
ATOM     54  C   UNL A   1      44.815  27.806  34.447  1.00  0.00     0.009 A 
ATOM     55  C   UNL A   1      47.159  28.876  33.374  1.00  0.00     0.001 A 
ATOM     56  C   UNL A   1      46.053  27.369  34.911  1.00  0.00     0.001 A 
ATOM     57  C   UNL A   1      47.223  27.899  34.368  1.00  0.00     0.000 A 
ENDBRANCH  39  52
ENDBRANCH  13  14
ENDBRANCH   6   8
ENDBRANCH   5   6
ENDBRANCH   4   5
ENDBRANCH   3   4
ENDBRANCH   2   3
ENDBRANCH   1   2
BRANCH   1  58
ATOM     58  C   UNL A   1      31.718  28.467  27.626  1.00  0.00     0.261 C 
BRANCH  58  59
ATOM     59  O   UNL A   1      31.983  27.625  26.520  1.00  0.00    -0.459 OA
BRANCH  59  60
ATOM     60  C   UNL A   1      30.978  26.905  25.972  1.00  0.00     0.365 C 
ATOM     61  O   UNL A   1      30.424  25.936  26.449  1.00  0.00    -0.245 OA
BRANCH  60  62
ATOM     62  C   UNL A   1      30.698  27.531  24.616  1.00  0.00     0.301 C 
ATOM     63  N   UNL A   1      31.900  28.279  24.121  1.00  0.00    -0.334 N 
ATOM     64  C   UNL A   1      30.385  26.527  23.482  1.00  0.00     0.095 C 
ATOM     65  C   UNL A   1      31.708  28.425  22.679  1.00  0.00     0.262 C 
ATOM     66  H   UNL A   1      32.751  27.751  24.316  1.00  0.00     0.347 HD
ATOM     67  H   UNL A   1      31.999  29.183  24.582  1.00  0.00     0.347 HD
ATOM     68  C   UNL A   1      30.563  27.489  22.293  1.00  0.00     0.076 C 
BRANCH  64  69
ATOM     69  C   UNL A   1      31.231  25.234  23.433  1.00  0.00    -0.034 A 
ATOM     70  C   UNL A   1      30.666  23.953  23.489  1.00  0.00     0.004 A 
ATOM     71  C   UNL A   1      32.641  25.313  23.250  1.00  0.00     0.051 A 
ATOM     72  C   UNL A   1      31.452  22.807  23.328  1.00  0.00     0.004 A 
ATOM     73  C   UNL A   1      33.425  24.167  23.012  1.00  0.00     0.127 A 
ATOM     74  C   UNL A   1      32.820  22.913  23.078  1.00  0.00     0.047 A 
BRANCH  73  75
ATOM     75  O   UNL A   1      34.793  24.169  22.787  1.00  0.00    -0.457 OA
BRANCH  75  76
ATOM     76  C   UNL A   1      35.615  23.618  23.748  1.00  0.00     0.127 A 
ATOM     77  C   UNL A   1      35.612  24.128  25.054  1.00  0.00     0.047 A 
ATOM     78  C   UNL A   1      36.520  22.614  23.407  1.00  0.00     0.047 A 
ATOM     79  C   UNL A   1      36.435  23.555  26.034  1.00  0.00     0.004 A 
ATOM     80  C   UNL A   1      37.335  22.040  24.385  1.00  0.00     0.004 A 
ATOM     81  C   UNL A   1      37.284  22.499  25.701  1.00  0.00     0.000 A 
ENDBRANCH  75  76
ENDBRANCH  73  75
ENDBRANCH  64  69
ENDBRANCH  60  62
ENDBRANCH  59  60
ENDBRANCH  58  59
ENDBRANCH   1  58
TORSDOF 17
ENDMDL
MODEL 3
REMARK VINA RESULT:     -10.7      2.223      4.685
REMARK SMILES O=C(OCCOCCOC(=O)[C@H]1[NH2+]CC[C@H]1c1cccc(Oc2ccccc2)c1)c1ccc(-c2c3nc(c(-c4ccccc4)c4ccc([nH]4)c(-c4ccccc4)c4nc(c(-c5ccccc5)c5ccc2[nH]5)C=C4)C=C3)cc1
REMARK SMILES IDX 7 1 6 2 5 3 4 4 3 5 2 6 1 7 30 8 31 9 77 10 32 11 76 12
REMARK SMILES IDX 33 13 34 14 35 15 70 16 36 17 75 18 69 19 71 20 37 21 74 22
REMARK SMILES IDX 68 23 67 24 38 26 60 27 45 28 59 29 46 30 49 31 58 32 72 33
REMARK SMILES IDX 47 34 48 35 57 37 73 38 50 39 39 40 40 41 44 42 41 43 43 44
REMARK SMILES IDX 42 45 61 46 62 47 66 48 63 49 65 50 64 51 51 52 52 53 56 54
REMARK SMILES IDX 53 55 55 56 54 57 8 58 9 59 10 60 11 61 12 62 13 63 16 64
REMARK SMILES IDX 14 65 15 68 17 69 18 70 29 71 19 72 21 73 20 74 22 75 23 76
REMARK SMILES IDX 24 77 28 78 25 79 27 80 26 81
REMARK H PARENT 71 25 49 36 13 66 13 67
REMARK Flexibility Score: inf
ROOT
ATOM      1  C   UNL A   1      32.775  28.276  26.810  1.00  0.00     0.202 C 
ENDROOT
BRANCH   1   2
ATOM      2  O   UNL A   1      32.029  29.412  27.248  1.00  0.00    -0.374 OA
BRANCH   2   3
ATOM      3  C   UNL A   1      32.547  30.680  26.845  1.00  0.00     0.202 C 
BRANCH   3   4
ATOM      4  C   UNL A   1      31.639  31.900  27.098  1.00  0.00     0.261 C 
BRANCH   4   5
ATOM      5  O   UNL A   1      32.348  33.156  27.041  1.00  0.00    -0.460 OA
BRANCH   5   6
ATOM      6  C   UNL A   1      32.929  33.844  28.055  1.00  0.00     0.338 C 
ATOM      7  O   UNL A   1      32.417  34.899  28.427  1.00  0.00    -0.246 OA
BRANCH   6   8
ATOM      8  C   UNL A   1      34.228  33.445  28.682  1.00  0.00     0.060 A 
ATOM      9  C   UNL A   1      34.324  32.621  29.799  1.00  0.00     0.016 A 
ATOM     10  C   UNL A   1      35.424  33.793  28.031  1.00  0.00     0.016 A 
ATOM     11  C   UNL A   1      35.503  32.053  30.206  1.00  0.00     0.010 A 
ATOM     12  C   UNL A   1      36.651  33.290  28.481  1.00  0.00     0.010 A 
ATOM     13  C   UNL A   1      36.671  32.395  29.554  1.00  0.00    -0.014 A 
BRANCH  13  14
ATOM     14  C   UNL A   1      37.879  31.897  30.201  1.00  0.00     0.031 A 
ATOM     15  C   UNL A   1      38.543  30.718  29.570  1.00  0.00     0.074 A 
ATOM     16  C   UNL A   1      38.478  32.661  31.131  1.00  0.00     0.049 A 
ATOM     17  N   UNL A   1      39.609  30.076  29.949  1.00  0.00    -0.248 NA
ATOM     18  C   UNL A   1      37.943  30.214  28.317  1.00  0.00     0.031 C 
ATOM     19  C   UNL A   1      37.998  33.971  31.590  1.00  0.00     0.029 A 
ATOM     20  N   UNL A   1      39.639  32.470  31.821  1.00  0.00    -0.354 N 
ATOM     21  C   UNL A   1      39.777  29.065  29.015  1.00  0.00     0.074 A 
ATOM     22  C   UNL A   1      38.737  29.197  28.025  1.00  0.00     0.031 C 
ATOM     23  C   UNL A   1      38.852  34.450  32.510  1.00  0.00     0.029 A 
ATOM     24  C   UNL A   1      39.884  33.451  32.751  1.00  0.00     0.049 A 
ATOM     25  H   UNL A   1      40.240  31.706  31.670  1.00  0.00     0.167 HD
ATOM     26  C   UNL A   1      40.708  28.089  29.029  1.00  0.00     0.031 A 
ATOM     27  C   UNL A   1      40.806  33.475  33.729  1.00  0.00     0.031 A 
ATOM     28  C   UNL A   1      41.706  27.999  30.055  1.00  0.00     0.049 A 
ATOM     29  C   UNL A   1      41.725  32.286  33.822  1.00  0.00     0.074 A 
ATOM     30  C   UNL A   1      42.659  27.021  30.254  1.00  0.00     0.029 A 
ATOM     31  N   UNL A   1      41.861  28.937  31.068  1.00  0.00    -0.354 N 
ATOM     32  N   UNL A   1      41.840  31.266  33.001  1.00  0.00    -0.248 NA
ATOM     33  C   UNL A   1      42.619  32.228  34.983  1.00  0.00     0.031 C 
ATOM     34  C   UNL A   1      43.343  27.333  31.431  1.00  0.00     0.029 A 
ATOM     35  C   UNL A   1      42.865  28.540  31.925  1.00  0.00     0.049 A 
ATOM     36  H   UNL A   1      41.334  29.764  31.159  1.00  0.00     0.167 HD
ATOM     37  C   UNL A   1      42.824  30.451  33.538  1.00  0.00     0.074 A 
ATOM     38  C   UNL A   1      43.296  31.115  34.739  1.00  0.00     0.031 C 
ATOM     39  C   UNL A   1      43.291  29.255  33.101  1.00  0.00     0.031 A 
BRANCH  26  40
ATOM     40  C   UNL A   1      40.578  27.000  28.010  1.00  0.00    -0.014 A 
ATOM     41  C   UNL A   1      41.222  27.054  26.765  1.00  0.00     0.009 A 
ATOM     42  C   UNL A   1      39.761  25.897  28.305  1.00  0.00     0.009 A 
ATOM     43  C   UNL A   1      41.034  26.033  25.830  1.00  0.00     0.001 A 
ATOM     44  C   UNL A   1      39.593  24.867  27.380  1.00  0.00     0.001 A 
ATOM     45  C   UNL A   1      40.226  24.938  26.140  1.00  0.00     0.000 A 
ENDBRANCH  26  40
BRANCH  27  46
ATOM     46  C   UNL A   1      40.810  34.549  34.761  1.00  0.00    -0.014 A 
ATOM     47  C   UNL A   1      41.538  35.733  34.580  1.00  0.00     0.009 A 
ATOM     48  C   UNL A   1      40.135  34.358  35.980  1.00  0.00     0.009 A 
ATOM     49  C   UNL A   1      41.629  36.677  35.610  1.00  0.00     0.001 A 
ATOM     50  C   UNL A   1      40.195  35.317  36.993  1.00  0.00     0.001 A 
ATOM     51  C   UNL A   1      40.958  36.468  36.815  1.00  0.00     0.000 A 
ENDBRANCH  27  46
BRANCH  39  52
ATOM     52  C   UNL A   1      44.376  28.620  33.916  1.00  0.00    -0.014 A 
ATOM     53  C   UNL A   1      44.070  27.765  34.985  1.00  0.00     0.009 A 
ATOM     54  C   UNL A   1      45.716  28.824  33.556  1.00  0.00     0.009 A 
ATOM     55  C   UNL A   1      45.094  27.141  35.695  1.00  0.00     0.001 A 
ATOM     56  C   UNL A   1      46.735  28.169  34.244  1.00  0.00     0.001 A 
ATOM     57  C   UNL A   1      46.423  27.336  35.318  1.00  0.00     0.000 A 
ENDBRANCH  39  52
ENDBRANCH  13  14
ENDBRANCH   6   8
ENDBRANCH   5   6
ENDBRANCH   4   5
ENDBRANCH   3   4
ENDBRANCH   2   3
ENDBRANCH   1   2
BRANCH   1  58
ATOM     58  C   UNL A   1      31.847  27.103  26.763  1.00  0.00     0.261 C 
BRANCH  58  59
ATOM     59  O   UNL A   1      32.291  26.385  25.628  1.00  0.00    -0.459 OA
BRANCH  59  60
ATOM     60  C   UNL A   1      31.399  25.695  24.882  1.00  0.00     0.365 C 
ATOM     61  O   UNL A   1      30.545  24.930  25.279  1.00  0.00    -0.245 OA
BRANCH  60  62
ATOM     62  C   UNL A   1      31.699  26.043  23.433  1.00  0.00     0.301 C 
ATOM     63  N   UNL A   1      32.837  27.016  23.349  1.00  0.00    -0.334 N 
ATOM     64  C   UNL A   1      32.154  24.855  22.554  1.00  0.00     0.095 C 
ATOM     65  C   UNL A   1      33.338  26.919  21.979  1.00  0.00     0.262 C 
ATOM     66  H   UNL A   1      33.568  26.767  24.015  1.00  0.00     0.347 HD
ATOM     67  H   UNL A   1      32.539  27.965  23.575  1.00  0.00     0.347 HD
ATOM     68  C   UNL A   1      32.707  25.667  21.369  1.00  0.00     0.076 C 
BRANCH  64  69
ATOM     69  C   UNL A   1      33.133  23.842  23.191  1.00  0.00    -0.034 A 
ATOM     70  C   UNL A   1      34.504  24.098  23.338  1.00  0.00     0.004 A 
ATOM     71  C   UNL A   1      32.642  22.618  23.728  1.00  0.00     0.051 A 
ATOM     72  C   UNL A   1      35.338  23.207  24.021  1.00  0.00     0.004 A 
ATOM     73  C   UNL A   1      33.461  21.755  24.481  1.00  0.00     0.127 A 
ATOM     74  C   UNL A   1      34.818  22.049  24.600  1.00  0.00     0.047 A 
BRANCH  73  75
ATOM     75  O   UNL A   1      33.045  20.569  25.067  1.00  0.00    -0.457 OA
BRANCH  75  76
ATOM     76  C   UNL A   1      33.263  19.391  24.384  1.00  0.00     0.127 A 
ATOM     77  C   UNL A   1      34.396  18.614  24.664  1.00  0.00     0.047 A 
ATOM     78  C   UNL A   1      32.412  19.011  23.347  1.00  0.00     0.047 A 
ATOM     79  C   UNL A   1      34.608  17.407  23.982  1.00  0.00     0.004 A 
ATOM     80  C   UNL A   1      32.620  17.806  22.672  1.00  0.00     0.004 A 
ATOM     81  C   UNL A   1      33.709  16.997  22.997  1.00  0.00     0.000 A 
ENDBRANCH  75  76
ENDBRANCH  73  75
ENDBRANCH  64  69
ENDBRANCH  60  62
ENDBRANCH  59  60
ENDBRANCH  58  59
ENDBRANCH   1  58
TORSDOF 17
ENDMDL
