MODEL 1
REMARK VINA RESULT:     -10.7      0.000      0.000
REMARK SMILES O=C(CSc1nc(O)cc(=O)[nH]1)Nc1cccc(C(=O)OCCOCCOC(=O)c2ccc(-c3c4nc(c(-c5ccccc5)c5ccc([nH]5)c(-c5ccccc5)c5nc(c(-c6ccccc6)c6ccc3[nH]6)C=C5)C=C4)cc2)c1
REMARK SMILES IDX 22 1 21 2 19 3 20 4 18 5 14 6 15 7 78 8 16 9 17 10 13 11
REMARK SMILES IDX 1 12 2 13 3 15 4 16 5 17 6 18 12 19 7 20 10 21 9 23 11 24
REMARK SMILES IDX 8 25 23 27 24 28 25 29 26 30 27 31 28 32 29 33 30 34 31 35
REMARK SMILES IDX 77 36 32 37 76 38 33 39 34 40 35 41 70 42 36 43 75 44 69 45
REMARK SMILES IDX 71 46 37 47 74 48 68 49 67 50 38 52 60 53 45 54 59 55 46 56
REMARK SMILES IDX 49 57 58 58 72 59 47 60 48 61 57 63 73 64 50 65 39 66 40 67
REMARK SMILES IDX 44 68 41 69 43 70 42 71 61 72 62 73 66 74 63 75 65 76 64 77
REMARK SMILES IDX 51 78 52 79 56 80 53 81 55 82 54 83
REMARK H PARENT 13 14 12 22 8 26 71 51 49 62
REMARK Flexibility Score: inf
ROOT
ATOM      1  C   UNL A   1      43.977  19.432  24.696  1.00  0.00     0.261 C 
ENDROOT
BRANCH   1   2
ATOM      2  O   UNL A   1      43.005  18.470  25.139  1.00  0.00    -0.460 OA
BRANCH   2   3
ATOM      3  C   UNL A   1      42.689  18.514  26.456  1.00  0.00     0.338 C 
ATOM      4  O   UNL A   1      43.182  17.847  27.354  1.00  0.00    -0.246 OA
BRANCH   3   5
ATOM      5  C   UNL A   1      41.781  19.655  26.704  1.00  0.00     0.062 A 
ATOM      6  C   UNL A   1      39.804  20.959  26.198  1.00  0.00     0.042 A 
ATOM      7  C   UNL A   1      40.200  21.898  27.163  1.00  0.00     0.026 A 
ATOM      8  C   UNL A   1      40.616  19.851  25.951  1.00  0.00     0.041 A 
ATOM      9  C   UNL A   1      41.358  21.701  27.917  1.00  0.00     0.003 A 
ATOM     10  C   UNL A   1      42.143  20.572  27.698  1.00  0.00     0.016 A 
BRANCH   6  11
ATOM     11  N   UNL A   1      38.578  21.192  25.542  1.00  0.00    -0.325 N 
ATOM     12  O   UNL A   1      38.121  23.391  26.157  1.00  0.00    -0.274 OA
ATOM     13  C   UNL A   1      37.844  22.368  25.535  1.00  0.00     0.234 C 
ATOM     14  H   UNL A   1      38.203  20.438  25.032  1.00  0.00     0.169 HD
BRANCH  13  15
ATOM     15  C   UNL A   1      36.558  22.288  24.722  1.00  0.00     0.178 C 
BRANCH  15  16
ATOM     16  S   UNL A   1      35.405  21.026  25.344  1.00  0.00    -0.078 SA
BRANCH  16  17
ATOM     17  C   UNL A   1      34.000  22.000  25.653  1.00  0.00     0.172 A 
ATOM     18  N   UNL A   1      32.820  21.508  25.810  1.00  0.00    -0.189 NA
ATOM     19  N   UNL A   1      34.301  23.323  25.707  1.00  0.00    -0.301 N 
ATOM     20  C   UNL A   1      31.825  22.413  26.051  1.00  0.00     0.218 A 
ATOM     21  C   UNL A   1      33.349  24.260  25.961  1.00  0.00     0.255 A 
ATOM     22  H   UNL A   1      35.231  23.610  25.560  1.00  0.00     0.172 HD
ATOM     23  C   UNL A   1      31.992  23.734  26.141  1.00  0.00     0.139 A 
ATOM     24  O   UNL A   1      33.599  25.455  26.039  1.00  0.00    -0.269 OA
BRANCH  20  25
ATOM     25  O   UNL A   1      30.573  21.884  26.215  1.00  0.00    -0.493 OA
ATOM     26  H   UNL A   1      30.044  21.689  25.466  1.00  0.00     0.295 HD
ENDBRANCH  20  25
ENDBRANCH  16  17
ENDBRANCH  15  16
ENDBRANCH  13  15
ENDBRANCH   6  11
ENDBRANCH   3   5
ENDBRANCH   2   3
ENDBRANCH   1   2
BRANCH   1  27
ATOM     27  C   UNL A   1      45.397  18.965  25.031  1.00  0.00     0.202 C 
BRANCH  27  28
ATOM     28  O   UNL A   1      46.319  19.996  25.390  1.00  0.00    -0.374 OA
BRANCH  28  29
ATOM     29  C   UNL A   1      46.018  21.313  24.931  1.00  0.00     0.202 C 
BRANCH  29  30
ATOM     30  C   UNL A   1      45.619  22.322  26.014  1.00  0.00     0.261 C 
BRANCH  30  31
ATOM     31  O   UNL A   1      44.469  23.095  25.625  1.00  0.00    -0.460 OA
BRANCH  31  32
ATOM     32  C   UNL A   1      44.723  24.404  25.395  1.00  0.00     0.338 C 
ATOM     33  O   UNL A   1      45.452  24.879  24.536  1.00  0.00    -0.246 OA
BRANCH  32  34
ATOM     34  C   UNL A   1      43.866  25.248  26.248  1.00  0.00     0.060 A 
ATOM     35  C   UNL A   1      44.239  26.587  26.408  1.00  0.00     0.016 A 
ATOM     36  C   UNL A   1      42.774  24.727  26.946  1.00  0.00     0.016 A 
ATOM     37  C   UNL A   1      43.561  27.397  27.316  1.00  0.00     0.010 A 
ATOM     38  C   UNL A   1      42.096  25.540  27.861  1.00  0.00     0.010 A 
ATOM     39  C   UNL A   1      42.514  26.866  28.081  1.00  0.00    -0.014 A 
BRANCH  39  40
ATOM     40  C   UNL A   1      41.963  27.656  29.208  1.00  0.00     0.031 A 
ATOM     41  C   UNL A   1      42.641  27.590  30.551  1.00  0.00     0.074 A 
ATOM     42  C   UNL A   1      40.893  28.452  29.033  1.00  0.00     0.049 A 
ATOM     43  N   UNL A   1      42.325  28.190  31.670  1.00  0.00    -0.248 NA
ATOM     44  C   UNL A   1      43.835  26.733  30.644  1.00  0.00     0.031 C 
ATOM     45  C   UNL A   1      40.166  28.630  27.776  1.00  0.00     0.029 A 
ATOM     46  N   UNL A   1      40.229  29.260  29.923  1.00  0.00    -0.354 N 
ATOM     47  C   UNL A   1      43.268  27.773  32.601  1.00  0.00     0.074 A 
ATOM     48  C   UNL A   1      44.154  26.852  31.926  1.00  0.00     0.031 C 
ATOM     49  C   UNL A   1      39.150  29.489  27.979  1.00  0.00     0.029 A 
ATOM     50  C   UNL A   1      39.140  29.897  29.382  1.00  0.00     0.049 A 
ATOM     51  H   UNL A   1      40.509  29.372  30.860  1.00  0.00     0.167 HD
ATOM     52  C   UNL A   1      43.389  28.130  33.902  1.00  0.00     0.031 A 
ATOM     53  C   UNL A   1      38.227  30.702  29.958  1.00  0.00     0.031 A 
ATOM     54  C   UNL A   1      42.512  29.050  34.576  1.00  0.00     0.049 A 
ATOM     55  C   UNL A   1      38.360  31.047  31.417  1.00  0.00     0.074 A 
ATOM     56  C   UNL A   1      42.574  29.495  35.886  1.00  0.00     0.029 A 
ATOM     57  N   UNL A   1      41.414  29.662  33.995  1.00  0.00    -0.354 N 
ATOM     58  N   UNL A   1      39.279  30.675  32.276  1.00  0.00    -0.248 NA
ATOM     59  C   UNL A   1      37.334  31.935  31.984  1.00  0.00     0.031 C 
ATOM     60  C   UNL A   1      41.480  30.336  36.113  1.00  0.00     0.029 A 
ATOM     61  C   UNL A   1      40.775  30.462  34.927  1.00  0.00     0.049 A 
ATOM     62  H   UNL A   1      41.130  29.546  33.060  1.00  0.00     0.167 HD
ATOM     63  C   UNL A   1      38.963  31.313  33.469  1.00  0.00     0.074 A 
ATOM     64  C   UNL A   1      37.776  32.103  33.223  1.00  0.00     0.031 C 
ATOM     65  C   UNL A   1      39.601  31.252  34.665  1.00  0.00     0.031 A 
BRANCH  52  66
ATOM     66  C   UNL A   1      44.497  27.502  34.700  1.00  0.00    -0.014 A 
ATOM     67  C   UNL A   1      44.309  26.292  35.386  1.00  0.00     0.009 A 
ATOM     68  C   UNL A   1      45.768  28.100  34.711  1.00  0.00     0.009 A 
ATOM     69  C   UNL A   1      45.366  25.706  36.085  1.00  0.00     0.001 A 
ATOM     70  C   UNL A   1      46.828  27.498  35.389  1.00  0.00     0.001 A 
ATOM     71  C   UNL A   1      46.626  26.305  36.080  1.00  0.00     0.000 A 
ENDBRANCH  52  66
BRANCH  53  72
ATOM     72  C   UNL A   1      37.084  31.228  29.163  1.00  0.00    -0.014 A 
ATOM     73  C   UNL A   1      37.068  32.558  28.717  1.00  0.00     0.009 A 
ATOM     74  C   UNL A   1      35.982  30.405  28.883  1.00  0.00     0.009 A 
ATOM     75  C   UNL A   1      35.956  33.063  28.040  1.00  0.00     0.001 A 
ATOM     76  C   UNL A   1      34.886  30.903  28.177  1.00  0.00     0.001 A 
ATOM     77  C   UNL A   1      34.868  32.235  27.767  1.00  0.00     0.000 A 
ENDBRANCH  53  72
BRANCH  65  78
ATOM     78  C   UNL A   1      39.064  32.104  35.780  1.00  0.00    -0.014 A 
ATOM     79  C   UNL A   1      38.130  31.605  36.701  1.00  0.00     0.009 A 
ATOM     80  C   UNL A   1      39.531  33.420  35.931  1.00  0.00     0.009 A 
ATOM     81  C   UNL A   1      37.648  32.419  37.728  1.00  0.00     0.001 A 
ATOM     82  C   UNL A   1      39.070  34.220  36.976  1.00  0.00     0.001 A 
ATOM     83  C   UNL A   1      38.121  33.723  37.868  1.00  0.00     0.000 A 
ENDBRANCH  65  78
ENDBRANCH  39  40
ENDBRANCH  32  34
ENDBRANCH  31  32
ENDBRANCH  30  31
ENDBRANCH  29  30
ENDBRANCH  28  29
ENDBRANCH  27  28
ENDBRANCH   1  27
TORSDOF 19
ENDMDL
MODEL 2
REMARK VINA RESULT:     -10.7      1.918      2.582
REMARK SMILES O=C(CSc1nc(O)cc(=O)[nH]1)Nc1cccc(C(=O)OCCOCCOC(=O)c2ccc(-c3c4nc(c(-c5ccccc5)c5ccc([nH]5)c(-c5ccccc5)c5nc(c(-c6ccccc6)c6ccc3[nH]6)C=C5)C=C4)cc2)c1
REMARK SMILES IDX 22 1 21 2 19 3 20 4 18 5 14 6 15 7 78 8 16 9 17 10 13 11
REMARK SMILES IDX 1 12 2 13 3 15 4 16 5 17 6 18 12 19 7 20 10 21 9 23 11 24
REMARK SMILES IDX 8 25 23 27 24 28 25 29 26 30 27 31 28 32 29 33 30 34 31 35
REMARK SMILES IDX 77 36 32 37 76 38 33 39 34 40 35 41 70 42 36 43 75 44 69 45
REMARK SMILES IDX 71 46 37 47 74 48 68 49 67 50 38 52 60 53 45 54 59 55 46 56
REMARK SMILES IDX 49 57 58 58 72 59 47 60 48 61 57 63 73 64 50 65 39 66 40 67
REMARK SMILES IDX 44 68 41 69 43 70 42 71 61 72 62 73 66 74 63 75 65 76 64 77
REMARK SMILES IDX 51 78 52 79 56 80 53 81 55 82 54 83
REMARK H PARENT 13 14 12 22 8 26 71 51 49 62
REMARK Flexibility Score: inf
ROOT
ATOM      1  C   UNL A   1      43.247  19.630  25.548  1.00  0.00     0.261 C 
ENDROOT
BRANCH   1   2
ATOM      2  O   UNL A   1      41.842  19.935  25.535  1.00  0.00    -0.460 OA
BRANCH   2   3
ATOM      3  C   UNL A   1      41.261  20.101  26.747  1.00  0.00     0.338 C 
ATOM      4  O   UNL A   1      41.540  19.515  27.784  1.00  0.00    -0.246 OA
BRANCH   3   5
ATOM      5  C   UNL A   1      40.351  21.266  26.699  1.00  0.00     0.062 A 
ATOM      6  C   UNL A   1      38.316  22.356  25.968  1.00  0.00     0.042 A 
ATOM      7  C   UNL A   1      38.763  23.546  26.562  1.00  0.00     0.026 A 
ATOM      8  C   UNL A   1      39.130  21.222  26.015  1.00  0.00     0.041 A 
ATOM      9  C   UNL A   1      39.978  23.589  27.248  1.00  0.00     0.003 A 
ATOM     10  C   UNL A   1      40.767  22.444  27.329  1.00  0.00     0.016 A 
BRANCH   6  11
ATOM     11  N   UNL A   1      37.040  22.378  25.368  1.00  0.00    -0.325 N 
ATOM     12  O   UNL A   1      36.588  20.106  25.132  1.00  0.00    -0.274 OA
ATOM     13  C   UNL A   1      36.260  21.285  25.022  1.00  0.00     0.234 C 
ATOM     14  H   UNL A   1      36.662  23.266  25.174  1.00  0.00     0.169 HD
BRANCH  13  15
ATOM     15  C   UNL A   1      34.924  21.656  24.391  1.00  0.00     0.178 C 
BRANCH  15  16
ATOM     16  S   UNL A   1      33.504  20.918  25.257  1.00  0.00    -0.078 SA
BRANCH  16  17
ATOM     17  C   UNL A   1      33.387  19.391  24.437  1.00  0.00     0.172 A 
ATOM     18  N   UNL A   1      32.603  19.184  23.436  1.00  0.00    -0.189 NA
ATOM     19  N   UNL A   1      34.213  18.459  24.979  1.00  0.00    -0.301 N 
ATOM     20  C   UNL A   1      32.635  17.927  22.903  1.00  0.00     0.218 A 
ATOM     21  C   UNL A   1      34.292  17.199  24.474  1.00  0.00     0.255 A 
ATOM     22  H   UNL A   1      34.767  18.701  25.755  1.00  0.00     0.172 HD
ATOM     23  C   UNL A   1      33.410  16.929  23.334  1.00  0.00     0.139 A 
ATOM     24  O   UNL A   1      35.047  16.349  24.927  1.00  0.00    -0.269 OA
BRANCH  20  25
ATOM     25  O   UNL A   1      31.798  17.714  21.841  1.00  0.00    -0.493 OA
ATOM     26  H   UNL A   1      32.152  17.500  21.000  1.00  0.00     0.295 HD
ENDBRANCH  20  25
ENDBRANCH  16  17
ENDBRANCH  15  16
ENDBRANCH  13  15
ENDBRANCH   6  11
ENDBRANCH   3   5
ENDBRANCH   2   3
ENDBRANCH   1   2
BRANCH   1  27
ATOM     27  C   UNL A   1      44.082  20.904  25.384  1.00  0.00     0.202 C 
BRANCH  27  28
ATOM     28  O   UNL A   1      45.303  20.754  24.659  1.00  0.00    -0.374 OA
BRANCH  28  29
ATOM     29  C   UNL A   1      46.136  21.909  24.561  1.00  0.00     0.202 C 
BRANCH  29  30
ATOM     30  C   UNL A   1      45.974  22.945  25.678  1.00  0.00     0.261 C 
BRANCH  30  31
ATOM     31  O   UNL A   1      45.591  24.232  25.160  1.00  0.00    -0.460 OA
BRANCH  31  32
ATOM     32  C   UNL A   1      44.274  24.517  25.278  1.00  0.00     0.338 C 
ATOM     33  O   UNL A   1      43.358  24.092  24.588  1.00  0.00    -0.246 OA
BRANCH  32  34
ATOM     34  C   UNL A   1      44.033  25.328  26.486  1.00  0.00     0.060 A 
ATOM     35  C   UNL A   1      43.385  24.704  27.559  1.00  0.00     0.016 A 
ATOM     36  C   UNL A   1      44.351  26.687  26.541  1.00  0.00     0.016 A 
ATOM     37  C   UNL A   1      42.994  25.452  28.667  1.00  0.00     0.010 A 
ATOM     38  C   UNL A   1      43.954  27.437  27.654  1.00  0.00     0.010 A 
ATOM     39  C   UNL A   1      43.235  26.832  28.702  1.00  0.00    -0.014 A 
BRANCH  39  40
ATOM     40  C   UNL A   1      42.607  27.655  29.763  1.00  0.00     0.031 A 
ATOM     41  C   UNL A   1      43.279  27.752  31.107  1.00  0.00     0.074 A 
ATOM     42  C   UNL A   1      41.473  28.336  29.526  1.00  0.00     0.049 A 
ATOM     43  N   UNL A   1      42.902  28.406  32.177  1.00  0.00    -0.248 NA
ATOM     44  C   UNL A   1      44.543  27.013  31.268  1.00  0.00     0.031 C 
ATOM     45  C   UNL A   1      40.743  28.353  28.259  1.00  0.00     0.029 A 
ATOM     46  N   UNL A   1      40.734  29.149  30.350  1.00  0.00    -0.354 N 
ATOM     47  C   UNL A   1      43.871  28.147  33.139  1.00  0.00     0.074 A 
ATOM     48  C   UNL A   1      44.841  27.258  32.537  1.00  0.00     0.031 C 
ATOM     49  C   UNL A   1      39.655  29.131  28.394  1.00  0.00     0.029 A 
ATOM     50  C   UNL A   1      39.598  29.643  29.761  1.00  0.00     0.049 A 
ATOM     51  H   UNL A   1      40.996  29.357  31.277  1.00  0.00     0.167 HD
ATOM     52  C   UNL A   1      43.950  28.612  34.408  1.00  0.00     0.031 A 
ATOM     53  C   UNL A   1      38.612  30.407  30.272  1.00  0.00     0.031 A 
ATOM     54  C   UNL A   1      42.991  29.500  35.008  1.00  0.00     0.049 A 
ATOM     55  C   UNL A   1      38.703  30.873  31.701  1.00  0.00     0.074 A 
ATOM     56  C   UNL A   1      43.003  30.048  36.279  1.00  0.00     0.029 A 
ATOM     57  N   UNL A   1      41.847  29.966  34.381  1.00  0.00    -0.354 N 
ATOM     58  N   UNL A   1      39.644  30.651  32.587  1.00  0.00    -0.248 NA
ATOM     59  C   UNL A   1      37.599  31.708  32.197  1.00  0.00     0.031 C 
ATOM     60  C   UNL A   1      41.838  30.803  36.440  1.00  0.00     0.029 A 
ATOM     61  C   UNL A   1      41.133  30.776  35.247  1.00  0.00     0.049 A 
ATOM     62  H   UNL A   1      41.582  29.754  33.457  1.00  0.00     0.167 HD
ATOM     63  C   UNL A   1      39.265  31.348  33.727  1.00  0.00     0.074 A 
ATOM     64  C   UNL A   1      38.015  32.009  33.419  1.00  0.00     0.031 C 
ATOM     65  C   UNL A   1      39.897  31.436  34.924  1.00  0.00     0.031 A 
BRANCH  52  66
ATOM     66  C   UNL A   1      45.103  28.147  35.253  1.00  0.00    -0.014 A 
ATOM     67  C   UNL A   1      46.368  28.747  35.158  1.00  0.00     0.009 A 
ATOM     68  C   UNL A   1      44.901  27.133  36.203  1.00  0.00     0.009 A 
ATOM     69  C   UNL A   1      47.412  28.326  35.984  1.00  0.00     0.001 A 
ATOM     70  C   UNL A   1      45.939  26.732  37.044  1.00  0.00     0.001 A 
ATOM     71  C   UNL A   1      47.195  27.324  36.931  1.00  0.00     0.000 A 
ENDBRANCH  52  66
BRANCH  53  72
ATOM     72  C   UNL A   1      37.434  30.766  29.438  1.00  0.00    -0.014 A 
ATOM     73  C   UNL A   1      36.419  29.832  29.183  1.00  0.00     0.009 A 
ATOM     74  C   UNL A   1      37.343  32.041  28.859  1.00  0.00     0.009 A 
ATOM     75  C   UNL A   1      35.357  30.155  28.335  1.00  0.00     0.001 A 
ATOM     76  C   UNL A   1      36.264  32.372  28.037  1.00  0.00     0.001 A 
ATOM     77  C   UNL A   1      35.279  31.426  27.766  1.00  0.00     0.000 A 
ENDBRANCH  53  72
BRANCH  65  78
ATOM     78  C   UNL A   1      39.277  32.320  35.969  1.00  0.00    -0.014 A 
ATOM     79  C   UNL A   1      39.540  33.697  36.015  1.00  0.00     0.009 A 
ATOM     80  C   UNL A   1      38.384  31.767  36.901  1.00  0.00     0.009 A 
ATOM     81  C   UNL A   1      38.950  34.496  36.998  1.00  0.00     0.001 A 
ATOM     82  C   UNL A   1      37.772  32.572  37.862  1.00  0.00     0.001 A 
ATOM     83  C   UNL A   1      38.064  33.934  37.917  1.00  0.00     0.000 A 
ENDBRANCH  65  78
ENDBRANCH  39  40
ENDBRANCH  32  34
ENDBRANCH  31  32
ENDBRANCH  30  31
ENDBRANCH  29  30
ENDBRANCH  28  29
ENDBRANCH  27  28
ENDBRANCH   1  27
TORSDOF 19
ENDMDL
MODEL 3
REMARK VINA RESULT:     -10.6      5.436     11.215
REMARK SMILES O=C(CSc1nc(O)cc(=O)[nH]1)Nc1cccc(C(=O)OCCOCCOC(=O)c2ccc(-c3c4nc(c(-c5ccccc5)c5ccc([nH]5)c(-c5ccccc5)c5nc(c(-c6ccccc6)c6ccc3[nH]6)C=C5)C=C4)cc2)c1
REMARK SMILES IDX 22 1 21 2 19 3 20 4 18 5 14 6 15 7 78 8 16 9 17 10 13 11
REMARK SMILES IDX 1 12 2 13 3 15 4 16 5 17 6 18 12 19 7 20 10 21 9 23 11 24
REMARK SMILES IDX 8 25 23 27 24 28 25 29 26 30 27 31 28 32 29 33 30 34 31 35
REMARK SMILES IDX 77 36 32 37 76 38 33 39 34 40 35 41 70 42 36 43 75 44 69 45
REMARK SMILES IDX 71 46 37 47 74 48 68 49 67 50 38 52 60 53 45 54 59 55 46 56
REMARK SMILES IDX 49 57 58 58 72 59 47 60 48 61 57 63 73 64 50 65 39 66 40 67
REMARK SMILES IDX 44 68 41 69 43 70 42 71 61 72 62 73 66 74 63 75 65 76 64 77
REMARK SMILES IDX 51 78 52 79 56 80 53 81 55 82 54 83
REMARK H PARENT 13 14 12 22 8 26 71 51 49 62
REMARK Flexibility Score: inf
ROOT
ATOM      1  C   UNL A   1      35.646  33.655  28.823  1.00  0.00     0.261 C 
ENDROOT
BRANCH   1   2
ATOM      2  O   UNL A   1      35.144  32.957  27.671  1.00  0.00    -0.460 OA
BRANCH   2   3
ATOM      3  C   UNL A   1      34.709  31.693  27.889  1.00  0.00     0.338 C 
ATOM      4  O   UNL A   1      35.200  30.864  28.643  1.00  0.00    -0.246 OA
BRANCH   3   5
ATOM      5  C   UNL A   1      33.400  31.504  27.226  1.00  0.00     0.062 A 
ATOM      6  C   UNL A   1      31.875  30.237  25.835  1.00  0.00     0.042 A 
ATOM      7  C   UNL A   1      30.955  31.293  25.916  1.00  0.00     0.026 A 
ATOM      8  C   UNL A   1      33.113  30.360  26.470  1.00  0.00     0.041 A 
ATOM      9  C   UNL A   1      31.239  32.431  26.673  1.00  0.00     0.003 A 
ATOM     10  C   UNL A   1      32.457  32.531  27.340  1.00  0.00     0.016 A 
BRANCH   6  11
ATOM     11  N   UNL A   1      31.474  29.090  25.119  1.00  0.00    -0.325 N 
ATOM     12  O   UNL A   1      31.639  27.433  26.748  1.00  0.00    -0.274 OA
ATOM     13  C   UNL A   1      31.355  27.798  25.609  1.00  0.00     0.234 C 
ATOM     14  H   UNL A   1      31.256  29.220  24.169  1.00  0.00     0.169 HD
BRANCH  13  15
ATOM     15  C   UNL A   1      30.893  26.784  24.570  1.00  0.00     0.178 C 
BRANCH  15  16
ATOM     16  S   UNL A   1      31.072  27.389  22.864  1.00  0.00    -0.078 SA
BRANCH  16  17
ATOM     17  C   UNL A   1      29.642  28.366  22.719  1.00  0.00     0.172 A 
ATOM     18  N   UNL A   1      28.469  27.956  23.059  1.00  0.00    -0.189 NA
ATOM     19  N   UNL A   1      29.916  29.595  22.211  1.00  0.00    -0.301 N 
ATOM     20  C   UNL A   1      27.452  28.852  22.885  1.00  0.00     0.218 A 
ATOM     21  C   UNL A   1      28.940  30.526  22.035  1.00  0.00     0.255 A 
ATOM     22  H   UNL A   1      30.842  29.817  21.964  1.00  0.00     0.172 HD
ATOM     23  C   UNL A   1      27.591  30.091  22.409  1.00  0.00     0.139 A 
ATOM     24  O   UNL A   1      29.165  31.648  21.602  1.00  0.00    -0.269 OA
BRANCH  20  25
ATOM     25  O   UNL A   1      26.208  28.408  23.246  1.00  0.00    -0.493 OA
ATOM     26  H   UNL A   1      25.638  28.963  23.743  1.00  0.00     0.295 HD
ENDBRANCH  20  25
ENDBRANCH  16  17
ENDBRANCH  15  16
ENDBRANCH  13  15
ENDBRANCH   6  11
ENDBRANCH   3   5
ENDBRANCH   2   3
ENDBRANCH   1   2
BRANCH   1  27
ATOM     27  C   UNL A   1      34.503  34.316  29.600  1.00  0.00     0.202 C 
BRANCH  27  28
ATOM     28  O   UNL A   1      34.176  33.713  30.853  1.00  0.00    -0.374 OA
BRANCH  28  29
ATOM     29  C   UNL A   1      34.247  34.551  32.006  1.00  0.00     0.202 C 
BRANCH  29  30
ATOM     30  C   UNL A   1      34.470  33.832  33.341  1.00  0.00     0.261 C 
BRANCH  30  31
ATOM     31  O   UNL A   1      35.084  32.544  33.157  1.00  0.00    -0.460 OA
BRANCH  31  32
ATOM     32  C   UNL A   1      36.327  32.434  33.680  1.00  0.00     0.338 C 
ATOM     33  O   UNL A   1      36.695  32.769  34.796  1.00  0.00    -0.246 OA
BRANCH  32  34
ATOM     34  C   UNL A   1      37.206  31.693  32.756  1.00  0.00     0.060 A 
ATOM     35  C   UNL A   1      38.278  30.987  33.316  1.00  0.00     0.016 A 
ATOM     36  C   UNL A   1      37.043  31.753  31.370  1.00  0.00     0.016 A 
ATOM     37  C   UNL A   1      39.229  30.393  32.491  1.00  0.00     0.010 A 
ATOM     38  C   UNL A   1      38.002  31.159  30.542  1.00  0.00     0.010 A 
ATOM     39  C   UNL A   1      39.122  30.513  31.099  1.00  0.00    -0.014 A 
BRANCH  39  40
ATOM     40  C   UNL A   1      40.256  30.090  30.242  1.00  0.00     0.031 A 
ATOM     41  C   UNL A   1      41.366  31.068  29.962  1.00  0.00     0.074 A 
ATOM     42  C   UNL A   1      40.317  28.841  29.748  1.00  0.00     0.049 A 
ATOM     43  N   UNL A   1      42.444  30.912  29.236  1.00  0.00    -0.248 NA
ATOM     44  C   UNL A   1      41.245  32.398  30.582  1.00  0.00     0.031 C 
ATOM     45  C   UNL A   1      39.324  27.791  29.972  1.00  0.00     0.029 A 
ATOM     46  N   UNL A   1      41.261  28.246  28.948  1.00  0.00    -0.354 N 
ATOM     47  C   UNL A   1      43.120  32.125  29.300  1.00  0.00     0.074 A 
ATOM     48  C   UNL A   1      42.322  33.014  30.114  1.00  0.00     0.031 C 
ATOM     49  C   UNL A   1      39.710  26.681  29.317  1.00  0.00     0.029 A 
ATOM     50  C   UNL A   1      40.958  26.952  28.607  1.00  0.00     0.049 A 
ATOM     51  H   UNL A   1      42.079  28.705  28.648  1.00  0.00     0.167 HD
ATOM     52  C   UNL A   1      44.303  32.465  28.736  1.00  0.00     0.031 A 
ATOM     53  C   UNL A   1      41.603  26.090  27.798  1.00  0.00     0.031 A 
ATOM     54  C   UNL A   1      45.102  31.582  27.929  1.00  0.00     0.049 A 
ATOM     55  C   UNL A   1      42.893  26.511  27.147  1.00  0.00     0.074 A 
ATOM     56  C   UNL A   1      46.330  31.830  27.339  1.00  0.00     0.029 A 
ATOM     57  N   UNL A   1      44.751  30.284  27.598  1.00  0.00    -0.354 N 
ATOM     58  N   UNL A   1      43.540  27.647  27.246  1.00  0.00    -0.248 NA
ATOM     59  C   UNL A   1      43.552  25.521  26.280  1.00  0.00     0.031 C 
ATOM     60  C   UNL A   1      46.696  30.698  26.605  1.00  0.00     0.029 A 
ATOM     61  C   UNL A   1      45.727  29.725  26.790  1.00  0.00     0.049 A 
ATOM     62  H   UNL A   1      43.931  29.826  27.892  1.00  0.00     0.167 HD
ATOM     63  C   UNL A   1      44.695  27.495  26.489  1.00  0.00     0.074 A 
ATOM     64  C   UNL A   1      44.667  26.154  25.945  1.00  0.00     0.031 C 
ATOM     65  C   UNL A   1      45.692  28.386  26.265  1.00  0.00     0.031 A 
BRANCH  52  66
ATOM     66  C   UNL A   1      44.799  33.869  28.944  1.00  0.00    -0.014 A 
ATOM     67  C   UNL A   1      44.395  34.919  28.105  1.00  0.00     0.009 A 
ATOM     68  C   UNL A   1      45.634  34.153  30.037  1.00  0.00     0.009 A 
ATOM     69  C   UNL A   1      44.836  36.223  28.345  1.00  0.00     0.001 A 
ATOM     70  C   UNL A   1      46.052  35.460  30.289  1.00  0.00     0.001 A 
ATOM     71  C   UNL A   1      45.657  36.493  29.440  1.00  0.00     0.000 A 
ENDBRANCH  52  66
BRANCH  53  72
ATOM     72  C   UNL A   1      41.033  24.742  27.533  1.00  0.00    -0.014 A 
ATOM     73  C   UNL A   1      39.968  24.573  26.634  1.00  0.00     0.009 A 
ATOM     74  C   UNL A   1      41.529  23.619  28.214  1.00  0.00     0.009 A 
ATOM     75  C   UNL A   1      39.389  23.315  26.451  1.00  0.00     0.001 A 
ATOM     76  C   UNL A   1      40.969  22.358  28.006  1.00  0.00     0.001 A 
ATOM     77  C   UNL A   1      39.892  22.208  27.135  1.00  0.00     0.000 A 
ENDBRANCH  53  72
BRANCH  65  78
ATOM     78  C   UNL A   1      46.861  27.923  25.443  1.00  0.00    -0.014 A 
ATOM     79  C   UNL A   1      46.850  27.998  24.042  1.00  0.00     0.009 A 
ATOM     80  C   UNL A   1      48.011  27.437  26.088  1.00  0.00     0.009 A 
ATOM     81  C   UNL A   1      47.951  27.560  23.302  1.00  0.00     0.001 A 
ATOM     82  C   UNL A   1      49.121  27.030  25.348  1.00  0.00     0.001 A 
ATOM     83  C   UNL A   1      49.087  27.082  23.955  1.00  0.00     0.000 A 
ENDBRANCH  65  78
ENDBRANCH  39  40
ENDBRANCH  32  34
ENDBRANCH  31  32
ENDBRANCH  30  31
ENDBRANCH  29  30
ENDBRANCH  28  29
ENDBRANCH  27  28
ENDBRANCH   1  27
TORSDOF 19
ENDMDL
