MODEL 1
REMARK VINA RESULT:      -9.2      0.000      0.000
REMARK SMILES CC[C@@](O)(C(=O)OCCOCCOC(=O)c1ccc(-c2c3nc(c(-c4ccccc4)c4ccc([nH]4)c(-c4ccccc4)c4nc(c(-c5ccccc5)c5ccc2[nH]5)C=C4)C=C3)cc1)[C@@H](C)c1ccc(OC)c(OC)c1
REMARK SMILES IDX 9 1 8 2 7 3 5 4 6 5 3 6 2 7 1 8 4 9 64 11 65 12 66 13 67 14
REMARK SMILES IDX 75 15 68 16 72 17 69 18 73 19 74 20 70 21 71 22 10 23 11 24
REMARK SMILES IDX 12 25 13 26 14 27 15 28 16 29 17 30 63 31 18 32 62 33 19 34
REMARK SMILES IDX 20 35 21 36 56 37 22 38 61 39 55 40 57 41 23 42 60 43 54 44
REMARK SMILES IDX 53 45 24 47 46 48 31 49 45 50 32 51 35 52 44 53 58 54 33 55
REMARK SMILES IDX 34 56 43 58 59 59 36 60 25 61 26 62 30 63 27 64 29 65 28 66
REMARK SMILES IDX 47 67 48 68 52 69 49 70 51 71 50 72 37 73 38 74 42 75 39 76
REMARK SMILES IDX 41 77 40 78
REMARK H PARENT 4 10 57 46 35 57
REMARK Flexibility Score: inf
ROOT
ATOM      1  C   UNL A   1      34.544  32.295  28.373  1.00  0.00     0.202 C 
ENDROOT
BRANCH   1   2
ATOM      2  C   UNL A   1      33.161  31.969  27.799  1.00  0.00     0.261 C 
BRANCH   2   3
ATOM      3  O   UNL A   1      33.279  30.828  26.929  1.00  0.00    -0.461 OA
BRANCH   3   4
ATOM      4  C   UNL A   1      32.202  30.502  26.167  1.00  0.00     0.338 C 
ATOM      5  O   UNL A   1      31.166  31.158  26.133  1.00  0.00    -0.249 OA
BRANCH   4   6
ATOM      6  C   UNL A   1      32.421  29.186  25.338  1.00  0.00     0.168 C 
BRANCH   6   7
ATOM      7  C   UNL A   1      31.213  28.966  24.379  1.00  0.00     0.044 C 
ATOM      8  C   UNL A   1      31.408  28.165  23.105  1.00  0.00     0.007 C 
ENDBRANCH   6   7
BRANCH   6   9
ATOM      9  O   UNL A   1      33.589  29.461  24.542  1.00  0.00    -0.378 OA
ATOM     10  H   UNL A   1      33.945  28.629  24.194  1.00  0.00     0.212 HD
ENDBRANCH   6   9
BRANCH   6  11
ATOM     11  C   UNL A   1      32.731  28.040  26.390  1.00  0.00     0.059 C 
ATOM     12  C   UNL A   1      31.653  27.959  27.490  1.00  0.00     0.016 C 
BRANCH  11  13
ATOM     13  C   UNL A   1      33.080  26.620  25.932  1.00  0.00    -0.038 A 
ATOM     14  C   UNL A   1      34.014  26.319  24.945  1.00  0.00     0.008 A 
ATOM     15  C   UNL A   1      32.392  25.534  26.521  1.00  0.00     0.054 A 
ATOM     16  C   UNL A   1      34.155  25.019  24.460  1.00  0.00     0.051 A 
ATOM     17  C   UNL A   1      32.576  24.209  26.093  1.00  0.00     0.160 A 
ATOM     18  C   UNL A   1      33.435  23.964  25.017  1.00  0.00     0.160 A 
BRANCH  17  19
ATOM     19  O   UNL A   1      31.884  23.159  26.637  1.00  0.00    -0.493 OA
ATOM     20  C   UNL A   1      30.537  23.014  26.194  1.00  0.00     0.278 C 
ENDBRANCH  17  19
BRANCH  18  21
ATOM     21  O   UNL A   1      33.626  22.766  24.383  1.00  0.00    -0.493 OA
ATOM     22  C   UNL A   1      32.902  22.600  23.171  1.00  0.00     0.278 C 
ENDBRANCH  18  21
ENDBRANCH  11  13
ENDBRANCH   6  11
ENDBRANCH   4   6
ENDBRANCH   3   4
ENDBRANCH   2   3
ENDBRANCH   1   2
BRANCH   1  23
ATOM     23  O   UNL A   1      34.649  33.552  29.052  1.00  0.00    -0.374 OA
BRANCH  23  24
ATOM     24  C   UNL A   1      34.173  34.703  28.361  1.00  0.00     0.202 C 
BRANCH  24  25
ATOM     25  C   UNL A   1      33.283  35.658  29.165  1.00  0.00     0.261 C 
BRANCH  25  26
ATOM     26  O   UNL A   1      32.612  34.991  30.245  1.00  0.00    -0.460 OA
BRANCH  26  27
ATOM     27  C   UNL A   1      32.832  35.549  31.460  1.00  0.00     0.338 C 
ATOM     28  O   UNL A   1      32.149  36.381  32.029  1.00  0.00    -0.246 OA
BRANCH  27  29
ATOM     29  C   UNL A   1      33.966  34.882  32.125  1.00  0.00     0.060 A 
ATOM     30  C   UNL A   1      35.204  35.533  32.065  1.00  0.00     0.016 A 
ATOM     31  C   UNL A   1      33.850  33.620  32.712  1.00  0.00     0.016 A 
ATOM     32  C   UNL A   1      36.347  34.898  32.541  1.00  0.00     0.010 A 
ATOM     33  C   UNL A   1      35.002  32.980  33.182  1.00  0.00     0.010 A 
ATOM     34  C   UNL A   1      36.259  33.599  33.060  1.00  0.00    -0.014 A 
BRANCH  34  35
ATOM     35  C   UNL A   1      37.510  32.845  33.313  1.00  0.00     0.031 A 
ATOM     36  C   UNL A   1      38.256  33.083  34.597  1.00  0.00     0.074 A 
ATOM     37  C   UNL A   1      37.940  31.914  32.444  1.00  0.00     0.049 A 
ATOM     38  N   UNL A   1      39.349  32.516  35.038  1.00  0.00    -0.248 NA
ATOM     39  C   UNL A   1      37.690  34.091  35.508  1.00  0.00     0.031 C 
ATOM     40  C   UNL A   1      37.279  31.556  31.191  1.00  0.00     0.029 A 
ATOM     41  N   UNL A   1      39.039  31.095  32.495  1.00  0.00    -0.354 N 
ATOM     42  C   UNL A   1      39.603  33.097  36.274  1.00  0.00     0.074 A 
ATOM     43  C   UNL A   1      38.567  34.082  36.500  1.00  0.00     0.031 C 
ATOM     44  C   UNL A   1      37.989  30.586  30.588  1.00  0.00     0.029 A 
ATOM     45  C   UNL A   1      39.165  30.278  31.400  1.00  0.00     0.049 A 
ATOM     46  H   UNL A   1      39.677  31.093  33.245  1.00  0.00     0.167 HD
ATOM     47  C   UNL A   1      40.602  32.830  37.148  1.00  0.00     0.031 A 
ATOM     48  C   UNL A   1      40.128  29.391  31.081  1.00  0.00     0.031 A 
ATOM     49  C   UNL A   1      41.642  31.864  36.919  1.00  0.00     0.049 A 
ATOM     50  C   UNL A   1      41.273  29.170  32.031  1.00  0.00     0.074 A 
ATOM     51  C   UNL A   1      42.696  31.519  37.747  1.00  0.00     0.029 A 
ATOM     52  N   UNL A   1      41.763  31.095  35.773  1.00  0.00    -0.354 N 
ATOM     53  N   UNL A   1      41.489  29.711  33.206  1.00  0.00    -0.248 NA
ATOM     54  C   UNL A   1      42.305  28.210  31.612  1.00  0.00     0.031 C 
ATOM     55  C   UNL A   1      43.485  30.577  37.077  1.00  0.00     0.029 A 
ATOM     56  C   UNL A   1      42.890  30.296  35.857  1.00  0.00     0.049 A 
ATOM     57  H   UNL A   1      41.139  31.114  35.011  1.00  0.00     0.167 HD
ATOM     58  C   UNL A   1      42.666  29.140  33.677  1.00  0.00     0.074 A 
ATOM     59  C   UNL A   1      43.109  28.201  32.666  1.00  0.00     0.031 C 
ATOM     60  C   UNL A   1      43.319  29.371  34.842  1.00  0.00     0.031 A 
BRANCH  47  61
ATOM     61  C   UNL A   1      40.632  33.626  38.421  1.00  0.00    -0.014 A 
ATOM     62  C   UNL A   1      39.956  33.189  39.572  1.00  0.00     0.009 A 
ATOM     63  C   UNL A   1      41.363  34.824  38.477  1.00  0.00     0.009 A 
ATOM     64  C   UNL A   1      39.984  33.952  40.742  1.00  0.00     0.001 A 
ATOM     65  C   UNL A   1      41.411  35.570  39.655  1.00  0.00     0.001 A 
ATOM     66  C   UNL A   1      40.715  35.139  40.784  1.00  0.00     0.000 A 
ENDBRANCH  47  61
BRANCH  48  67
ATOM     67  C   UNL A   1      40.063  28.658  29.791  1.00  0.00    -0.014 A 
ATOM     68  C   UNL A   1      39.417  27.416  29.701  1.00  0.00     0.009 A 
ATOM     69  C   UNL A   1      40.662  29.197  28.640  1.00  0.00     0.009 A 
ATOM     70  C   UNL A   1      39.390  26.720  28.489  1.00  0.00     0.001 A 
ATOM     71  C   UNL A   1      40.610  28.512  27.425  1.00  0.00     0.001 A 
ATOM     72  C   UNL A   1      39.982  27.270  27.352  1.00  0.00     0.000 A 
ENDBRANCH  48  67
BRANCH  60  73
ATOM     73  C   UNL A   1      44.567  28.574  35.101  1.00  0.00    -0.014 A 
ATOM     74  C   UNL A   1      44.515  27.326  35.740  1.00  0.00     0.009 A 
ATOM     75  C   UNL A   1      45.807  29.062  34.660  1.00  0.00     0.009 A 
ATOM     76  C   UNL A   1      45.685  26.597  35.958  1.00  0.00     0.001 A 
ATOM     77  C   UNL A   1      46.971  28.319  34.856  1.00  0.00     0.001 A 
ATOM     78  C   UNL A   1      46.910  27.091  35.512  1.00  0.00     0.000 A 
ENDBRANCH  60  73
ENDBRANCH  34  35
ENDBRANCH  27  29
ENDBRANCH  26  27
ENDBRANCH  25  26
ENDBRANCH  24  25
ENDBRANCH  23  24
ENDBRANCH   1  23
TORSDOF 20
ENDMDL
MODEL 2
REMARK VINA RESULT:      -9.1      3.379      8.891
REMARK SMILES CC[C@@](O)(C(=O)OCCOCCOC(=O)c1ccc(-c2c3nc(c(-c4ccccc4)c4ccc([nH]4)c(-c4ccccc4)c4nc(c(-c5ccccc5)c5ccc2[nH]5)C=C4)C=C3)cc1)[C@@H](C)c1ccc(OC)c(OC)c1
REMARK SMILES IDX 9 1 8 2 7 3 5 4 6 5 3 6 2 7 1 8 4 9 64 11 65 12 66 13 67 14
REMARK SMILES IDX 75 15 68 16 72 17 69 18 73 19 74 20 70 21 71 22 10 23 11 24
REMARK SMILES IDX 12 25 13 26 14 27 15 28 16 29 17 30 63 31 18 32 62 33 19 34
REMARK SMILES IDX 20 35 21 36 56 37 22 38 61 39 55 40 57 41 23 42 60 43 54 44
REMARK SMILES IDX 53 45 24 47 46 48 31 49 45 50 32 51 35 52 44 53 58 54 33 55
REMARK SMILES IDX 34 56 43 58 59 59 36 60 25 61 26 62 30 63 27 64 29 65 28 66
REMARK SMILES IDX 47 67 48 68 52 69 49 70 51 71 50 72 37 73 38 74 42 75 39 76
REMARK SMILES IDX 41 77 40 78
REMARK H PARENT 4 10 57 46 35 57
REMARK Flexibility Score: inf
ROOT
ATOM      1  C   UNL A   1      41.278  21.071  26.560  1.00  0.00     0.202 C 
ENDROOT
BRANCH   1   2
ATOM      2  C   UNL A   1      39.944  20.563  26.003  1.00  0.00     0.261 C 
BRANCH   2   3
ATOM      3  O   UNL A   1      38.938  21.570  26.224  1.00  0.00    -0.461 OA
BRANCH   3   4
ATOM      4  C   UNL A   1      37.902  21.629  25.347  1.00  0.00     0.338 C 
ATOM      5  O   UNL A   1      37.602  20.718  24.584  1.00  0.00    -0.249 OA
BRANCH   4   6
ATOM      6  C   UNL A   1      37.133  22.997  25.407  1.00  0.00     0.168 C 
BRANCH   6   7
ATOM      7  C   UNL A   1      37.689  23.858  26.581  1.00  0.00     0.044 C 
ATOM      8  C   UNL A   1      38.926  24.708  26.361  1.00  0.00     0.007 C 
ENDBRANCH   6   7
BRANCH   6   9
ATOM      9  O   UNL A   1      37.472  23.647  24.167  1.00  0.00    -0.378 OA
ATOM     10  H   UNL A   1      37.614  24.592  24.326  1.00  0.00     0.212 HD
ENDBRANCH   6   9
BRANCH   6  11
ATOM     11  C   UNL A   1      35.587  22.641  25.436  1.00  0.00     0.059 C 
ATOM     12  C   UNL A   1      35.262  21.563  26.488  1.00  0.00     0.016 C 
BRANCH  11  13
ATOM     13  C   UNL A   1      34.525  23.744  25.509  1.00  0.00    -0.038 A 
ATOM     14  C   UNL A   1      34.641  24.991  24.904  1.00  0.00     0.008 A 
ATOM     15  C   UNL A   1      33.354  23.500  26.265  1.00  0.00     0.054 A 
ATOM     16  C   UNL A   1      33.714  26.003  25.157  1.00  0.00     0.051 A 
ATOM     17  C   UNL A   1      32.375  24.487  26.469  1.00  0.00     0.160 A 
ATOM     18  C   UNL A   1      32.589  25.765  25.943  1.00  0.00     0.160 A 
BRANCH  17  19
ATOM     19  O   UNL A   1      31.258  24.266  27.231  1.00  0.00    -0.493 OA
ATOM     20  C   UNL A   1      30.331  23.321  26.703  1.00  0.00     0.278 C 
ENDBRANCH  17  19
BRANCH  18  21
ATOM     21  O   UNL A   1      31.818  26.875  26.159  1.00  0.00    -0.493 OA
ATOM     22  C   UNL A   1      30.847  27.141  25.155  1.00  0.00     0.278 C 
ENDBRANCH  18  21
ENDBRANCH  11  13
ENDBRANCH   6  11
ENDBRANCH   4   6
ENDBRANCH   3   4
ENDBRANCH   2   3
ENDBRANCH   1   2
BRANCH   1  23
ATOM     23  O   UNL A   1      42.448  20.612  25.872  1.00  0.00    -0.374 OA
BRANCH  23  24
ATOM     24  C   UNL A   1      43.597  21.453  25.916  1.00  0.00     0.202 C 
BRANCH  24  25
ATOM     25  C   UNL A   1      43.917  22.234  24.635  1.00  0.00     0.261 C 
BRANCH  25  26
ATOM     26  O   UNL A   1      43.395  23.571  24.673  1.00  0.00    -0.460 OA
BRANCH  26  27
ATOM     27  C   UNL A   1      44.169  24.445  25.360  1.00  0.00     0.338 C 
ATOM     28  O   UNL A   1      45.351  24.683  25.188  1.00  0.00    -0.246 OA
BRANCH  27  29
ATOM     29  C   UNL A   1      43.339  25.240  26.283  1.00  0.00     0.060 A 
ATOM     30  C   UNL A   1      43.499  26.631  26.236  1.00  0.00     0.016 A 
ATOM     31  C   UNL A   1      42.497  24.650  27.228  1.00  0.00     0.016 A 
ATOM     32  C   UNL A   1      42.861  27.436  27.174  1.00  0.00     0.010 A 
ATOM     33  C   UNL A   1      41.863  25.461  28.176  1.00  0.00     0.010 A 
ATOM     34  C   UNL A   1      42.076  26.851  28.177  1.00  0.00    -0.014 A 
BRANCH  34  35
ATOM     35  C   UNL A   1      41.627  27.692  29.312  1.00  0.00     0.031 A 
ATOM     36  C   UNL A   1      42.391  27.635  30.606  1.00  0.00     0.074 A 
ATOM     37  C   UNL A   1      40.596  28.543  29.173  1.00  0.00     0.049 A 
ATOM     38  N   UNL A   1      42.196  28.302  31.714  1.00  0.00    -0.248 NA
ATOM     39  C   UNL A   1      43.531  26.705  30.656  1.00  0.00     0.031 C 
ATOM     40  C   UNL A   1      39.809  28.728  27.957  1.00  0.00     0.029 A 
ATOM     41  N   UNL A   1      40.042  29.419  30.072  1.00  0.00    -0.354 N 
ATOM     42  C   UNL A   1      43.185  27.874  32.591  1.00  0.00     0.074 A 
ATOM     43  C   UNL A   1      43.960  26.868  31.898  1.00  0.00     0.031 C 
ATOM     44  C   UNL A   1      38.868  29.661  28.185  1.00  0.00     0.029 A 
ATOM     45  C   UNL A   1      38.972  30.116  29.571  1.00  0.00     0.049 A 
ATOM     46  H   UNL A   1      40.379  29.535  30.990  1.00  0.00     0.167 HD
ATOM     47  C   UNL A   1      43.433  28.287  33.857  1.00  0.00     0.031 A 
ATOM     48  C   UNL A   1      38.159  31.011  30.165  1.00  0.00     0.031 A 
ATOM     49  C   UNL A   1      42.656  29.274  34.554  1.00  0.00     0.049 A 
ATOM     50  C   UNL A   1      38.405  31.393  31.600  1.00  0.00     0.074 A 
ATOM     51  C   UNL A   1      42.831  29.762  35.838  1.00  0.00     0.029 A 
ATOM     52  N   UNL A   1      41.547  29.918  34.028  1.00  0.00    -0.354 N 
ATOM     53  N   UNL A   1      39.357  30.997  32.410  1.00  0.00    -0.248 NA
ATOM     54  C   UNL A   1      37.466  32.354  32.199  1.00  0.00     0.031 C 
ATOM     55  C   UNL A   1      41.796  30.664  36.106  1.00  0.00     0.029 A 
ATOM     56  C   UNL A   1      41.010  30.779  34.970  1.00  0.00     0.049 A 
ATOM     57  H   UNL A   1      41.194  29.783  33.119  1.00  0.00     0.167 HD
ATOM     58  C   UNL A   1      39.147  31.675  33.604  1.00  0.00     0.074 A 
ATOM     59  C   UNL A   1      37.985  32.519  33.407  1.00  0.00     0.031 C 
ATOM     60  C   UNL A   1      39.853  31.607  34.759  1.00  0.00     0.031 A 
BRANCH  47  61
ATOM     61  C   UNL A   1      44.580  27.637  34.578  1.00  0.00    -0.014 A 
ATOM     62  C   UNL A   1      45.875  28.177  34.526  1.00  0.00     0.009 A 
ATOM     63  C   UNL A   1      44.357  26.478  35.338  1.00  0.00     0.009 A 
ATOM     64  C   UNL A   1      46.931  27.549  35.192  1.00  0.00     0.001 A 
ATOM     65  C   UNL A   1      45.408  25.869  36.025  1.00  0.00     0.001 A 
ATOM     66  C   UNL A   1      46.695  26.399  35.944  1.00  0.00     0.000 A 
ENDBRANCH  47  61
BRANCH  48  67
ATOM     67  C   UNL A   1      37.020  31.593  29.411  1.00  0.00    -0.014 A 
ATOM     68  C   UNL A   1      35.775  30.948  29.377  1.00  0.00     0.009 A 
ATOM     69  C   UNL A   1      37.180  32.799  28.710  1.00  0.00     0.009 A 
ATOM     70  C   UNL A   1      34.720  31.489  28.638  1.00  0.00     0.001 A 
ATOM     71  C   UNL A   1      36.116  33.351  27.994  1.00  0.00     0.001 A 
ATOM     72  C   UNL A   1      34.889  32.691  27.951  1.00  0.00     0.000 A 
ENDBRANCH  48  67
BRANCH  60  73
ATOM     73  C   UNL A   1      39.408  32.491  35.891  1.00  0.00    -0.014 A 
ATOM     74  C   UNL A   1      39.894  33.800  36.028  1.00  0.00     0.009 A 
ATOM     75  C   UNL A   1      38.455  32.019  36.808  1.00  0.00     0.009 A 
ATOM     76  C   UNL A   1      39.457  34.608  37.079  1.00  0.00     0.001 A 
ATOM     77  C   UNL A   1      38.000  32.838  37.842  1.00  0.00     0.001 A 
ATOM     78  C   UNL A   1      38.508  34.129  37.981  1.00  0.00     0.000 A 
ENDBRANCH  60  73
ENDBRANCH  34  35
ENDBRANCH  27  29
ENDBRANCH  26  27
ENDBRANCH  25  26
ENDBRANCH  24  25
ENDBRANCH  23  24
ENDBRANCH   1  23
TORSDOF 20
ENDMDL
MODEL 3
REMARK VINA RESULT:      -9.0      4.949     10.294
REMARK SMILES CC[C@@](O)(C(=O)OCCOCCOC(=O)c1ccc(-c2c3nc(c(-c4ccccc4)c4ccc([nH]4)c(-c4ccccc4)c4nc(c(-c5ccccc5)c5ccc2[nH]5)C=C4)C=C3)cc1)[C@@H](C)c1ccc(OC)c(OC)c1
REMARK SMILES IDX 9 1 8 2 7 3 5 4 6 5 3 6 2 7 1 8 4 9 64 11 65 12 66 13 67 14
REMARK SMILES IDX 75 15 68 16 72 17 69 18 73 19 74 20 70 21 71 22 10 23 11 24
REMARK SMILES IDX 12 25 13 26 14 27 15 28 16 29 17 30 63 31 18 32 62 33 19 34
REMARK SMILES IDX 20 35 21 36 56 37 22 38 61 39 55 40 57 41 23 42 60 43 54 44
REMARK SMILES IDX 53 45 24 47 46 48 31 49 45 50 32 51 35 52 44 53 58 54 33 55
REMARK SMILES IDX 34 56 43 58 59 59 36 60 25 61 26 62 30 63 27 64 29 65 28 66
REMARK SMILES IDX 47 67 48 68 52 69 49 70 51 71 50 72 37 73 38 74 42 75 39 76
REMARK SMILES IDX 41 77 40 78
REMARK H PARENT 4 10 57 46 35 57
REMARK Flexibility Score: inf
ROOT
ATOM      1  C   UNL A   1      37.394  21.307  25.054  1.00  0.00     0.202 C 
ENDROOT
BRANCH   1   2
ATOM      2  C   UNL A   1      36.187  21.484  25.982  1.00  0.00     0.261 C 
BRANCH   2   3
ATOM      3  O   UNL A   1      35.074  20.751  25.437  1.00  0.00    -0.461 OA
BRANCH   3   4
ATOM      4  C   UNL A   1      33.848  20.972  25.979  1.00  0.00     0.338 C 
ATOM      5  O   UNL A   1      33.656  21.176  27.173  1.00  0.00    -0.249 OA
BRANCH   4   6
ATOM      6  C   UNL A   1      32.696  20.929  24.912  1.00  0.00     0.168 C 
BRANCH   6   7
ATOM      7  C   UNL A   1      32.635  19.512  24.266  1.00  0.00     0.044 C 
ATOM      8  C   UNL A   1      33.068  18.304  25.076  1.00  0.00     0.007 C 
ENDBRANCH   6   7
BRANCH   6   9
ATOM      9  O   UNL A   1      31.495  21.130  25.681  1.00  0.00    -0.378 OA
ATOM     10  H   UNL A   1      30.773  21.393  25.090  1.00  0.00     0.212 HD
ENDBRANCH   6   9
BRANCH   6  11
ATOM     11  C   UNL A   1      32.938  22.160  23.941  1.00  0.00     0.059 C 
ATOM     12  C   UNL A   1      31.879  22.230  22.822  1.00  0.00     0.016 C 
BRANCH  11  13
ATOM     13  C   UNL A   1      33.169  23.570  24.496  1.00  0.00    -0.038 A 
ATOM     14  C   UNL A   1      34.418  24.164  24.642  1.00  0.00     0.008 A 
ATOM     15  C   UNL A   1      32.046  24.317  24.921  1.00  0.00     0.054 A 
ATOM     16  C   UNL A   1      34.564  25.379  25.314  1.00  0.00     0.051 A 
ATOM     17  C   UNL A   1      32.170  25.576  25.533  1.00  0.00     0.160 A 
ATOM     18  C   UNL A   1      33.452  26.083  25.770  1.00  0.00     0.160 A 
BRANCH  17  19
ATOM     19  O   UNL A   1      31.087  26.286  25.978  1.00  0.00    -0.493 OA
ATOM     20  C   UNL A   1      29.829  25.627  25.861  1.00  0.00     0.278 C 
ENDBRANCH  17  19
BRANCH  18  21
ATOM     21  O   UNL A   1      33.763  27.216  26.473  1.00  0.00    -0.493 OA
ATOM     22  C   UNL A   1      33.721  28.423  25.724  1.00  0.00     0.278 C 
ENDBRANCH  18  21
ENDBRANCH  11  13
ENDBRANCH   6  11
ENDBRANCH   4   6
ENDBRANCH   3   4
ENDBRANCH   2   3
ENDBRANCH   1   2
BRANCH   1  23
ATOM     23  O   UNL A   1      37.642  19.967  24.615  1.00  0.00    -0.374 OA
BRANCH  23  24
ATOM     24  C   UNL A   1      38.574  19.199  25.372  1.00  0.00     0.202 C 
BRANCH  24  25
ATOM     25  C   UNL A   1      39.858  19.920  25.799  1.00  0.00     0.261 C 
BRANCH  25  26
ATOM     26  O   UNL A   1      40.968  19.016  25.925  1.00  0.00    -0.460 OA
BRANCH  26  27
ATOM     27  C   UNL A   1      42.178  19.607  25.779  1.00  0.00     0.338 C 
ATOM     28  O   UNL A   1      43.134  19.193  25.147  1.00  0.00    -0.246 OA
BRANCH  27  29
ATOM     29  C   UNL A   1      42.157  20.957  26.367  1.00  0.00     0.060 A 
ATOM     30  C   UNL A   1      42.413  22.028  25.501  1.00  0.00     0.016 A 
ATOM     31  C   UNL A   1      41.984  21.174  27.737  1.00  0.00     0.016 A 
ATOM     32  C   UNL A   1      42.555  23.315  26.008  1.00  0.00     0.010 A 
ATOM     33  C   UNL A   1      42.136  22.468  28.246  1.00  0.00     0.010 A 
ATOM     34  C   UNL A   1      42.462  23.535  27.389  1.00  0.00    -0.014 A 
BRANCH  34  35
ATOM     35  C   UNL A   1      42.875  24.851  27.932  1.00  0.00     0.031 A 
ATOM     36  C   UNL A   1      41.824  25.896  28.184  1.00  0.00     0.074 A 
ATOM     37  C   UNL A   1      44.157  25.090  28.257  1.00  0.00     0.049 A 
ATOM     38  N   UNL A   1      41.953  27.099  28.681  1.00  0.00    -0.248 NA
ATOM     39  C   UNL A   1      40.440  25.533  27.836  1.00  0.00     0.031 C 
ATOM     40  C   UNL A   1      45.259  24.142  28.108  1.00  0.00     0.029 A 
ATOM     41  N   UNL A   1      44.743  26.210  28.791  1.00  0.00    -0.354 N 
ATOM     42  C   UNL A   1      40.672  27.637  28.704  1.00  0.00     0.074 A 
ATOM     43  C   UNL A   1      39.784  26.642  28.144  1.00  0.00     0.031 C 
ATOM     44  C   UNL A   1      46.393  24.723  28.539  1.00  0.00     0.029 A 
ATOM     45  C   UNL A   1      46.098  26.089  28.968  1.00  0.00     0.049 A 
ATOM     46  H   UNL A   1      44.239  27.023  29.023  1.00  0.00     0.167 HD
ATOM     47  C   UNL A   1      40.269  28.847  29.158  1.00  0.00     0.031 A 
ATOM     48  C   UNL A   1      47.001  26.983  29.413  1.00  0.00     0.031 A 
ATOM     49  C   UNL A   1      41.150  29.845  29.700  1.00  0.00     0.049 A 
ATOM     50  C   UNL A   1      46.540  28.352  29.836  1.00  0.00     0.074 A 
ATOM     51  C   UNL A   1      40.836  31.100  30.190  1.00  0.00     0.029 A 
ATOM     52  N   UNL A   1      42.524  29.702  29.813  1.00  0.00    -0.354 N 
ATOM     53  N   UNL A   1      45.323  28.840  29.873  1.00  0.00    -0.248 NA
ATOM     54  C   UNL A   1      47.578  29.291  30.286  1.00  0.00     0.031 C 
ATOM     55  C   UNL A   1      42.028  31.738  30.553  1.00  0.00     0.029 A 
ATOM     56  C   UNL A   1      43.077  30.858  30.340  1.00  0.00     0.049 A 
ATOM     57  H   UNL A   1      43.032  28.899  29.557  1.00  0.00     0.167 HD
ATOM     58  C   UNL A   1      45.446  30.131  30.371  1.00  0.00     0.074 A 
ATOM     59  C   UNL A   1      46.854  30.345  30.636  1.00  0.00     0.031 C 
ATOM     60  C   UNL A   1      44.480  31.055  30.592  1.00  0.00     0.031 A 
BRANCH  47  61
ATOM     61  C   UNL A   1      38.804  29.167  29.053  1.00  0.00    -0.014 A 
ATOM     62  C   UNL A   1      37.940  28.996  30.146  1.00  0.00     0.009 A 
ATOM     63  C   UNL A   1      38.286  29.664  27.847  1.00  0.00     0.009 A 
ATOM     64  C   UNL A   1      36.578  29.285  30.023  1.00  0.00     0.001 A 
ATOM     65  C   UNL A   1      36.930  29.978  27.736  1.00  0.00     0.001 A 
ATOM     66  C   UNL A   1      36.076  29.780  28.819  1.00  0.00     0.000 A 
ENDBRANCH  47  61
BRANCH  48  67
ATOM     67  C   UNL A   1      48.440  26.622  29.462  1.00  0.00    -0.014 A 
ATOM     68  C   UNL A   1      48.993  26.023  30.604  1.00  0.00     0.009 A 
ATOM     69  C   UNL A   1      49.274  26.888  28.364  1.00  0.00     0.009 A 
ATOM     70  C   UNL A   1      50.356  25.717  30.652  1.00  0.00     0.001 A 
ATOM     71  C   UNL A   1      50.630  26.556  28.404  1.00  0.00     0.001 A 
ATOM     72  C   UNL A   1      51.171  25.979  29.551  1.00  0.00     0.000 A 
ENDBRANCH  48  67
BRANCH  60  73
ATOM     73  C   UNL A   1      44.908  32.373  31.175  1.00  0.00    -0.014 A 
ATOM     74  C   UNL A   1      44.989  32.564  32.563  1.00  0.00     0.009 A 
ATOM     75  C   UNL A   1      45.276  33.424  30.321  1.00  0.00     0.009 A 
ATOM     76  C   UNL A   1      45.403  33.792  33.082  1.00  0.00     0.001 A 
ATOM     77  C   UNL A   1      45.714  34.642  30.843  1.00  0.00     0.001 A 
ATOM     78  C   UNL A   1      45.769  34.827  32.223  1.00  0.00     0.000 A 
ENDBRANCH  60  73
ENDBRANCH  34  35
ENDBRANCH  27  29
ENDBRANCH  26  27
ENDBRANCH  25  26
ENDBRANCH  24  25
ENDBRANCH  23  24
ENDBRANCH   1  23
TORSDOF 20
ENDMDL
