MODEL 1
REMARK VINA RESULT:     -10.8      0.000      0.000
REMARK SMILES CC[C@@H]1CCCN(S(=O)(=O)c2cc(C(=O)OCCOCCOC(=O)c3ccc(-c4c5nc(c(-c6ccccc6)c6ccc([nH]6)c(-c6ccccc6)c6nc(c(-c7ccccc7)c7ccc4[nH]7)C=C6)C=C5)cc3)ccc2F)C1
REMARK SMILES IDX 18 1 17 2 16 3 14 4 15 5 13 6 11 7 12 8 75 9 74 10 76 11
REMARK SMILES IDX 73 12 8 13 9 14 10 15 7 16 3 17 4 18 77 19 5 20 6 21 2 22
REMARK SMILES IDX 1 23 19 24 20 25 21 26 22 27 23 28 24 29 25 30 26 31 72 32
REMARK SMILES IDX 27 33 71 34 28 35 29 36 30 37 65 38 31 39 70 40 64 41 66 42
REMARK SMILES IDX 32 43 69 44 63 45 62 46 33 48 55 49 40 50 54 51 41 52 44 53
REMARK SMILES IDX 53 54 67 55 42 56 43 57 52 59 68 60 45 61 34 62 35 63 39 64
REMARK SMILES IDX 36 65 38 66 37 67 56 68 57 69 61 70 58 71 60 72 59 73 46 74
REMARK SMILES IDX 47 75 51 76 48 77 50 78 49 79
REMARK H PARENT 66 47 44 58
REMARK Flexibility Score: inf
ROOT
ATOM      1  C   UNL A   1      33.011  30.931  27.190  1.00  0.00     0.202 C 
ENDROOT
BRANCH   1   2
ATOM      2  C   UNL A   1      33.266  29.536  26.613  1.00  0.00     0.261 C 
BRANCH   2   3
ATOM      3  O   UNL A   1      32.066  28.956  26.082  1.00  0.00    -0.460 OA
BRANCH   3   4
ATOM      4  C   UNL A   1      31.561  27.928  26.808  1.00  0.00     0.338 C 
ATOM      5  O   UNL A   1      31.228  27.951  27.980  1.00  0.00    -0.246 OA
BRANCH   4   6
ATOM      6  C   UNL A   1      31.293  26.772  25.920  1.00  0.00     0.061 A 
ATOM      7  C   UNL A   1      31.159  24.367  25.695  1.00  0.00     0.119 A 
ATOM      8  C   UNL A   1      31.436  25.493  26.473  1.00  0.00     0.040 A 
ATOM      9  C   UNL A   1      30.711  24.516  24.387  1.00  0.00     0.143 A 
ATOM     10  C   UNL A   1      30.578  25.787  23.829  1.00  0.00     0.041 A 
ATOM     11  F   UNL A   1      30.450  23.457  23.610  1.00  0.00    -0.206 F 
ATOM     12  C   UNL A   1      30.865  26.920  24.595  1.00  0.00     0.019 A 
BRANCH   7  13
ATOM     13  S   UNL A   1      31.313  22.764  26.409  1.00  0.00     0.246 S 
ATOM     14  O   UNL A   1      30.086  22.030  26.206  1.00  0.00    -0.207 OA
ATOM     15  O   UNL A   1      31.834  22.947  27.751  1.00  0.00    -0.207 OA
BRANCH  13  16
ATOM     16  N   UNL A   1      32.559  22.016  25.467  1.00  0.00    -0.197 NA
ATOM     17  C   UNL A   1      34.991  21.348  25.435  1.00  0.00     0.004 C 
ATOM     18  C   UNL A   1      34.580  19.994  24.840  1.00  0.00     0.006 C 
ATOM     19  C   UNL A   1      33.832  21.940  26.252  1.00  0.00     0.106 C 
ATOM     20  C   UNL A   1      33.275  20.093  24.063  1.00  0.00     0.017 C 
ATOM     21  C   UNL A   1      32.167  20.681  24.925  1.00  0.00     0.102 C 
BRANCH  17  22
ATOM     22  C   UNL A   1      35.517  22.332  24.368  1.00  0.00     0.001 C 
ATOM     23  C   UNL A   1      35.521  23.771  24.875  1.00  0.00     0.004 C 
ENDBRANCH  17  22
ENDBRANCH  13  16
ENDBRANCH   7  13
ENDBRANCH   4   6
ENDBRANCH   3   4
ENDBRANCH   2   3
ENDBRANCH   1   2
BRANCH   1  24
ATOM     24  O   UNL A   1      31.803  31.589  26.818  1.00  0.00    -0.374 OA
BRANCH  24  25
ATOM     25  C   UNL A   1      31.761  33.013  26.891  1.00  0.00     0.202 C 
BRANCH  25  26
ATOM     26  C   UNL A   1      32.917  33.732  27.603  1.00  0.00     0.261 C 
BRANCH  26  27
ATOM     27  O   UNL A   1      32.476  34.612  28.652  1.00  0.00    -0.460 OA
BRANCH  27  28
ATOM     28  C   UNL A   1      33.479  35.235  29.318  1.00  0.00     0.338 C 
ATOM     29  O   UNL A   1      33.464  36.352  29.807  1.00  0.00    -0.246 OA
BRANCH  28  30
ATOM     30  C   UNL A   1      34.591  34.295  29.543  1.00  0.00     0.060 A 
ATOM     31  C   UNL A   1      34.343  33.175  30.347  1.00  0.00     0.016 A 
ATOM     32  C   UNL A   1      35.872  34.548  29.051  1.00  0.00     0.016 A 
ATOM     33  C   UNL A   1      35.389  32.326  30.703  1.00  0.00     0.010 A 
ATOM     34  C   UNL A   1      36.922  33.698  29.414  1.00  0.00     0.010 A 
ATOM     35  C   UNL A   1      36.692  32.604  30.271  1.00  0.00    -0.014 A 
BRANCH  35  36
ATOM     36  C   UNL A   1      37.832  31.835  30.825  1.00  0.00     0.031 A 
ATOM     37  C   UNL A   1      38.317  32.142  32.216  1.00  0.00     0.074 A 
ATOM     38  C   UNL A   1      38.408  30.852  30.112  1.00  0.00     0.049 A 
ATOM     39  N   UNL A   1      39.318  31.620  32.880  1.00  0.00    -0.248 NA
ATOM     40  C   UNL A   1      37.578  33.177  32.956  1.00  0.00     0.031 C 
ATOM     41  C   UNL A   1      37.999  30.422  28.774  1.00  0.00     0.029 A 
ATOM     42  N   UNL A   1      39.469  30.036  30.418  1.00  0.00    -0.354 N 
ATOM     43  C   UNL A   1      39.330  32.265  34.111  1.00  0.00     0.074 A 
ATOM     44  C   UNL A   1      38.264  33.243  34.088  1.00  0.00     0.031 C 
ATOM     45  C   UNL A   1      38.801  29.419  28.375  1.00  0.00     0.029 A 
ATOM     46  C   UNL A   1      39.802  29.166  29.408  1.00  0.00     0.049 A 
ATOM     47  H   UNL A   1      39.946  30.071  31.279  1.00  0.00     0.167 HD
ATOM     48  C   UNL A   1      40.146  32.054  35.171  1.00  0.00     0.031 A 
ATOM     49  C   UNL A   1      40.813  28.281  29.321  1.00  0.00     0.031 A 
ATOM     50  C   UNL A   1      41.218  31.094  35.188  1.00  0.00     0.049 A 
ATOM     51  C   UNL A   1      41.769  28.137  30.476  1.00  0.00     0.074 A 
ATOM     52  C   UNL A   1      42.104  30.808  36.214  1.00  0.00     0.029 A 
ATOM     53  N   UNL A   1      41.553  30.264  34.129  1.00  0.00    -0.354 N 
ATOM     54  N   UNL A   1      41.761  28.741  31.640  1.00  0.00    -0.248 NA
ATOM     55  C   UNL A   1      42.870  27.177  30.307  1.00  0.00     0.031 C 
ATOM     56  C   UNL A   1      43.012  29.848  35.753  1.00  0.00     0.029 A 
ATOM     57  C   UNL A   1      42.645  29.485  34.467  1.00  0.00     0.049 A 
ATOM     58  H   UNL A   1      41.082  30.236  33.264  1.00  0.00     0.167 HD
ATOM     59  C   UNL A   1      42.827  28.204  32.354  1.00  0.00     0.074 A 
ATOM     60  C   UNL A   1      43.448  27.216  31.498  1.00  0.00     0.031 C 
ATOM     61  C   UNL A   1      43.250  28.498  33.608  1.00  0.00     0.031 A 
BRANCH  48  62
ATOM     62  C   UNL A   1      39.927  32.902  36.395  1.00  0.00    -0.014 A 
ATOM     63  C   UNL A   1      40.630  34.102  36.586  1.00  0.00     0.009 A 
ATOM     64  C   UNL A   1      38.976  32.514  37.352  1.00  0.00     0.009 A 
ATOM     65  C   UNL A   1      40.410  34.877  37.727  1.00  0.00     0.001 A 
ATOM     66  C   UNL A   1      38.735  33.307  38.476  1.00  0.00     0.001 A 
ATOM     67  C   UNL A   1      39.460  34.483  38.667  1.00  0.00     0.000 A 
ENDBRANCH  48  62
BRANCH  49  68
ATOM     68  C   UNL A   1      40.997  27.468  28.088  1.00  0.00    -0.014 A 
ATOM     69  C   UNL A   1      41.749  27.961  27.010  1.00  0.00     0.009 A 
ATOM     70  C   UNL A   1      40.381  26.212  27.965  1.00  0.00     0.009 A 
ATOM     71  C   UNL A   1      41.849  27.230  25.823  1.00  0.00     0.001 A 
ATOM     72  C   UNL A   1      40.512  25.469  26.789  1.00  0.00     0.001 A 
ATOM     73  C   UNL A   1      41.233  25.985  25.715  1.00  0.00     0.000 A 
ENDBRANCH  49  68
BRANCH  61  74
ATOM     74  C   UNL A   1      44.403  27.699  34.153  1.00  0.00    -0.014 A 
ATOM     75  C   UNL A   1      44.205  26.501  34.857  1.00  0.00     0.009 A 
ATOM     76  C   UNL A   1      45.716  28.144  33.928  1.00  0.00     0.009 A 
ATOM     77  C   UNL A   1      45.297  25.790  35.362  1.00  0.00     0.001 A 
ATOM     78  C   UNL A   1      46.806  27.413  34.402  1.00  0.00     0.001 A 
ATOM     79  C   UNL A   1      46.595  26.244  35.131  1.00  0.00     0.000 A 
ENDBRANCH  61  74
ENDBRANCH  35  36
ENDBRANCH  28  30
ENDBRANCH  27  28
ENDBRANCH  26  27
ENDBRANCH  25  26
ENDBRANCH  24  25
ENDBRANCH   1  24
TORSDOF 17
ENDMDL
MODEL 2
REMARK VINA RESULT:     -10.4      0.917      5.857
REMARK SMILES CC[C@@H]1CCCN(S(=O)(=O)c2cc(C(=O)OCCOCCOC(=O)c3ccc(-c4c5nc(c(-c6ccccc6)c6ccc([nH]6)c(-c6ccccc6)c6nc(c(-c7ccccc7)c7ccc4[nH]7)C=C6)C=C5)cc3)ccc2F)C1
REMARK SMILES IDX 18 1 17 2 16 3 14 4 15 5 13 6 11 7 12 8 75 9 74 10 76 11
REMARK SMILES IDX 73 12 8 13 9 14 10 15 7 16 3 17 4 18 77 19 5 20 6 21 2 22
REMARK SMILES IDX 1 23 19 24 20 25 21 26 22 27 23 28 24 29 25 30 26 31 72 32
REMARK SMILES IDX 27 33 71 34 28 35 29 36 30 37 65 38 31 39 70 40 64 41 66 42
REMARK SMILES IDX 32 43 69 44 63 45 62 46 33 48 55 49 40 50 54 51 41 52 44 53
REMARK SMILES IDX 53 54 67 55 42 56 43 57 52 59 68 60 45 61 34 62 35 63 39 64
REMARK SMILES IDX 36 65 38 66 37 67 56 68 57 69 61 70 58 71 60 72 59 73 46 74
REMARK SMILES IDX 47 75 51 76 48 77 50 78 49 79
REMARK H PARENT 66 47 44 58
REMARK Flexibility Score: inf
ROOT
ATOM      1  C   UNL A   1      33.689  30.239  27.178  1.00  0.00     0.202 C 
ENDROOT
BRANCH   1   2
ATOM      2  C   UNL A   1      33.289  29.163  26.165  1.00  0.00     0.261 C 
BRANCH   2   3
ATOM      3  O   UNL A   1      31.866  28.982  26.119  1.00  0.00    -0.460 OA
BRANCH   3   4
ATOM      4  C   UNL A   1      31.404  27.919  26.822  1.00  0.00     0.338 C 
ATOM      5  O   UNL A   1      31.083  27.899  27.997  1.00  0.00    -0.246 OA
BRANCH   4   6
ATOM      6  C   UNL A   1      31.166  26.779  25.906  1.00  0.00     0.061 A 
ATOM      7  C   UNL A   1      31.155  24.378  25.604  1.00  0.00     0.119 A 
ATOM      8  C   UNL A   1      31.399  25.493  26.409  1.00  0.00     0.040 A 
ATOM      9  C   UNL A   1      30.649  24.544  24.319  1.00  0.00     0.143 A 
ATOM     10  C   UNL A   1      30.425  25.822  23.810  1.00  0.00     0.041 A 
ATOM     11  F   UNL A   1      30.417  23.497  23.517  1.00  0.00    -0.206 F 
ATOM     12  C   UNL A   1      30.679  26.944  24.603  1.00  0.00     0.019 A 
BRANCH   7  13
ATOM     13  S   UNL A   1      31.423  22.764  26.257  1.00  0.00     0.246 S 
ATOM     14  O   UNL A   1      30.286  21.929  25.950  1.00  0.00    -0.207 OA
ATOM     15  O   UNL A   1      31.849  22.931  27.635  1.00  0.00    -0.207 OA
BRANCH  13  16
ATOM     16  N   UNL A   1      32.786  22.183  25.360  1.00  0.00    -0.197 NA
ATOM     17  C   UNL A   1      35.208  22.604  24.798  1.00  0.00     0.004 C 
ATOM     18  C   UNL A   1      35.485  21.108  25.004  1.00  0.00     0.006 C 
ATOM     19  C   UNL A   1      33.988  23.035  25.627  1.00  0.00     0.106 C 
ATOM     20  C   UNL A   1      34.243  20.265  24.745  1.00  0.00     0.017 C 
ATOM     21  C   UNL A   1      33.073  20.737  25.596  1.00  0.00     0.102 C 
BRANCH  17  22
ATOM     22  C   UNL A   1      35.068  22.984  23.309  1.00  0.00     0.001 C 
ATOM     23  C   UNL A   1      34.189  24.216  23.117  1.00  0.00     0.004 C 
ENDBRANCH  17  22
ENDBRANCH  13  16
ENDBRANCH   7  13
ENDBRANCH   4   6
ENDBRANCH   3   4
ENDBRANCH   2   3
ENDBRANCH   1   2
BRANCH   1  24
ATOM     24  O   UNL A   1      32.855  31.390  27.283  1.00  0.00    -0.374 OA
BRANCH  24  25
ATOM     25  C   UNL A   1      33.478  32.659  27.472  1.00  0.00     0.202 C 
BRANCH  25  26
ATOM     26  C   UNL A   1      32.616  33.812  28.006  1.00  0.00     0.261 C 
BRANCH  26  27
ATOM     27  O   UNL A   1      33.389  34.862  28.613  1.00  0.00    -0.460 OA
BRANCH  27  28
ATOM     28  C   UNL A   1      33.635  34.684  29.934  1.00  0.00     0.338 C 
ATOM     29  O   UNL A   1      32.934  35.021  30.873  1.00  0.00    -0.246 OA
BRANCH  28  30
ATOM     30  C   UNL A   1      34.830  33.840  30.112  1.00  0.00     0.060 A 
ATOM     31  C   UNL A   1      34.730  32.744  30.978  1.00  0.00     0.016 A 
ATOM     32  C   UNL A   1      36.048  34.164  29.512  1.00  0.00     0.016 A 
ATOM     33  C   UNL A   1      35.861  31.993  31.288  1.00  0.00     0.010 A 
ATOM     34  C   UNL A   1      37.184  33.412  29.828  1.00  0.00     0.010 A 
ATOM     35  C   UNL A   1      37.104  32.346  30.745  1.00  0.00    -0.014 A 
BRANCH  35  36
ATOM     36  C   UNL A   1      38.337  31.690  31.242  1.00  0.00     0.031 A 
ATOM     37  C   UNL A   1      38.900  30.518  30.485  1.00  0.00     0.074 A 
ATOM     38  C   UNL A   1      38.967  32.153  32.336  1.00  0.00     0.049 A 
ATOM     39  N   UNL A   1      39.943  29.775  30.763  1.00  0.00    -0.248 NA
ATOM     40  C   UNL A   1      38.194  30.129  29.255  1.00  0.00     0.031 C 
ATOM     41  C   UNL A   1      38.553  33.311  33.128  1.00  0.00     0.029 A 
ATOM     42  N   UNL A   1      40.095  31.696  32.971  1.00  0.00    -0.354 N 
ATOM     43  C   UNL A   1      40.014  28.832  29.744  1.00  0.00     0.074 A 
ATOM     44  C   UNL A   1      38.888  29.069  28.867  1.00  0.00     0.031 C 
ATOM     45  C   UNL A   1      39.417  33.475  34.145  1.00  0.00     0.029 A 
ATOM     46  C   UNL A   1      40.418  32.411  34.099  1.00  0.00     0.049 A 
ATOM     47  H   UNL A   1      40.623  30.930  32.650  1.00  0.00     0.167 HD
ATOM     48  C   UNL A   1      40.939  27.862  29.549  1.00  0.00     0.031 A 
ATOM     49  C   UNL A   1      41.397  32.216  35.002  1.00  0.00     0.031 A 
ATOM     50  C   UNL A   1      42.049  27.614  30.431  1.00  0.00     0.049 A 
ATOM     51  C   UNL A   1      42.355  31.068  34.816  1.00  0.00     0.074 A 
ATOM     52  C   UNL A   1      43.040  26.652  30.322  1.00  0.00     0.029 A 
ATOM     53  N   UNL A   1      42.314  28.331  31.588  1.00  0.00    -0.354 N 
ATOM     54  N   UNL A   1      42.420  30.192  33.842  1.00  0.00    -0.248 NA
ATOM     55  C   UNL A   1      43.382  30.890  35.853  1.00  0.00     0.031 C 
ATOM     56  C   UNL A   1      43.869  26.749  31.445  1.00  0.00     0.029 A 
ATOM     57  C   UNL A   1      43.438  27.818  32.213  1.00  0.00     0.049 A 
ATOM     58  H   UNL A   1      41.782  29.091  31.915  1.00  0.00     0.167 HD
ATOM     59  C   UNL A   1      43.518  29.388  34.128  1.00  0.00     0.074 A 
ATOM     60  C   UNL A   1      44.096  29.891  35.356  1.00  0.00     0.031 C 
ATOM     61  C   UNL A   1      44.008  28.333  33.433  1.00  0.00     0.031 A 
BRANCH  48  62
ATOM     62  C   UNL A   1      40.772  26.976  28.344  1.00  0.00    -0.014 A 
ATOM     63  C   UNL A   1      41.409  27.272  27.128  1.00  0.00     0.009 A 
ATOM     64  C   UNL A   1      39.999  25.809  28.437  1.00  0.00     0.009 A 
ATOM     65  C   UNL A   1      41.245  26.436  26.021  1.00  0.00     0.001 A 
ATOM     66  C   UNL A   1      39.862  24.958  27.338  1.00  0.00     0.001 A 
ATOM     67  C   UNL A   1      40.477  25.277  26.129  1.00  0.00     0.000 A 
ENDBRANCH  48  62
BRANCH  49  68
ATOM     68  C   UNL A   1      41.521  33.113  36.184  1.00  0.00    -0.014 A 
ATOM     69  C   UNL A   1      42.333  34.257  36.133  1.00  0.00     0.009 A 
ATOM     70  C   UNL A   1      40.864  32.802  37.386  1.00  0.00     0.009 A 
ATOM     71  C   UNL A   1      42.513  35.049  37.270  1.00  0.00     0.001 A 
ATOM     72  C   UNL A   1      41.020  33.615  38.510  1.00  0.00     0.001 A 
ATOM     73  C   UNL A   1      41.854  34.729  38.456  1.00  0.00     0.000 A 
ENDBRANCH  49  68
BRANCH  61  74
ATOM     74  C   UNL A   1      45.265  27.688  33.951  1.00  0.00    -0.014 A 
ATOM     75  C   UNL A   1      46.538  28.184  33.629  1.00  0.00     0.009 A 
ATOM     76  C   UNL A   1      45.167  26.577  34.806  1.00  0.00     0.009 A 
ATOM     77  C   UNL A   1      47.686  27.554  34.116  1.00  0.00     0.001 A 
ATOM     78  C   UNL A   1      46.315  25.971  35.319  1.00  0.00     0.001 A 
ATOM     79  C   UNL A   1      47.573  26.452  34.963  1.00  0.00     0.000 A 
ENDBRANCH  61  74
ENDBRANCH  35  36
ENDBRANCH  28  30
ENDBRANCH  27  28
ENDBRANCH  26  27
ENDBRANCH  25  26
ENDBRANCH  24  25
ENDBRANCH   1  24
TORSDOF 17
ENDMDL
MODEL 3
REMARK VINA RESULT:     -10.4      4.296      9.399
REMARK SMILES CC[C@@H]1CCCN(S(=O)(=O)c2cc(C(=O)OCCOCCOC(=O)c3ccc(-c4c5nc(c(-c6ccccc6)c6ccc([nH]6)c(-c6ccccc6)c6nc(c(-c7ccccc7)c7ccc4[nH]7)C=C6)C=C5)cc3)ccc2F)C1
REMARK SMILES IDX 18 1 17 2 16 3 14 4 15 5 13 6 11 7 12 8 75 9 74 10 76 11
REMARK SMILES IDX 73 12 8 13 9 14 10 15 7 16 3 17 4 18 77 19 5 20 6 21 2 22
REMARK SMILES IDX 1 23 19 24 20 25 21 26 22 27 23 28 24 29 25 30 26 31 72 32
REMARK SMILES IDX 27 33 71 34 28 35 29 36 30 37 65 38 31 39 70 40 64 41 66 42
REMARK SMILES IDX 32 43 69 44 63 45 62 46 33 48 55 49 40 50 54 51 41 52 44 53
REMARK SMILES IDX 53 54 67 55 42 56 43 57 52 59 68 60 45 61 34 62 35 63 39 64
REMARK SMILES IDX 36 65 38 66 37 67 56 68 57 69 61 70 58 71 60 72 59 73 46 74
REMARK SMILES IDX 47 75 51 76 48 77 50 78 49 79
REMARK H PARENT 66 47 44 58
REMARK Flexibility Score: inf
ROOT
ATOM      1  C   UNL A   1      37.557  22.951  25.410  1.00  0.00     0.202 C 
ENDROOT
BRANCH   1   2
ATOM      2  C   UNL A   1      36.206  23.061  26.123  1.00  0.00     0.261 C 
BRANCH   2   3
ATOM      3  O   UNL A   1      35.397  21.896  25.905  1.00  0.00    -0.460 OA
BRANCH   3   4
ATOM      4  C   UNL A   1      34.219  21.887  26.577  1.00  0.00     0.338 C 
ATOM      5  O   UNL A   1      34.049  21.640  27.758  1.00  0.00    -0.246 OA
BRANCH   4   6
ATOM      6  C   UNL A   1      33.140  22.401  25.701  1.00  0.00     0.061 A 
ATOM      7  C   UNL A   1      31.566  24.180  25.241  1.00  0.00     0.119 A 
ATOM      8  C   UNL A   1      32.561  23.627  26.051  1.00  0.00     0.040 A 
ATOM      9  C   UNL A   1      31.176  23.532  24.075  1.00  0.00     0.143 A 
ATOM     10  C   UNL A   1      31.742  22.306  23.728  1.00  0.00     0.041 A 
ATOM     11  F   UNL A   1      30.216  24.028  23.284  1.00  0.00    -0.206 F 
ATOM     12  C   UNL A   1      32.729  21.738  24.538  1.00  0.00     0.019 A 
BRANCH   7  13
ATOM     13  S   UNL A   1      30.865  25.737  25.675  1.00  0.00     0.246 S 
ATOM     14  O   UNL A   1      31.506  26.234  26.870  1.00  0.00    -0.207 OA
ATOM     15  O   UNL A   1      29.423  25.577  25.639  1.00  0.00    -0.207 OA
BRANCH  13  16
ATOM     16  N   UNL A   1      31.305  26.765  24.352  1.00  0.00    -0.197 NA
ATOM     17  C   UNL A   1      31.259  29.133  23.485  1.00  0.00     0.004 C 
ATOM     18  C   UNL A   1      32.718  28.965  23.036  1.00  0.00     0.006 C 
ATOM     19  C   UNL A   1      30.954  28.188  24.658  1.00  0.00     0.106 C 
ATOM     20  C   UNL A   1      33.054  27.508  22.750  1.00  0.00     0.017 C 
ATOM     21  C   UNL A   1      32.735  26.625  23.947  1.00  0.00     0.102 C 
BRANCH  17  22
ATOM     22  C   UNL A   1      30.256  28.966  22.324  1.00  0.00     0.001 C 
ATOM     23  C   UNL A   1      29.540  30.272  21.999  1.00  0.00     0.004 C 
ENDBRANCH  17  22
ENDBRANCH  13  16
ENDBRANCH   7  13
ENDBRANCH   4   6
ENDBRANCH   3   4
ENDBRANCH   2   3
ENDBRANCH   1   2
BRANCH   1  24
ATOM     24  O   UNL A   1      38.381  21.832  25.726  1.00  0.00    -0.374 OA
BRANCH  24  25
ATOM     25  C   UNL A   1      38.152  20.608  25.029  1.00  0.00     0.202 C 
BRANCH  25  26
ATOM     26  C   UNL A   1      39.043  19.406  25.374  1.00  0.00     0.261 C 
BRANCH  26  27
ATOM     27  O   UNL A   1      39.915  19.650  26.492  1.00  0.00    -0.460 OA
BRANCH  27  28
ATOM     28  C   UNL A   1      41.234  19.665  26.181  1.00  0.00     0.338 C 
ATOM     29  O   UNL A   1      41.856  18.836  25.539  1.00  0.00    -0.246 OA
BRANCH  28  30
ATOM     30  C   UNL A   1      41.828  20.952  26.583  1.00  0.00     0.060 A 
ATOM     31  C   UNL A   1      41.912  21.229  27.954  1.00  0.00     0.016 A 
ATOM     32  C   UNL A   1      42.216  21.905  25.640  1.00  0.00     0.016 A 
ATOM     33  C   UNL A   1      42.340  22.482  28.388  1.00  0.00     0.010 A 
ATOM     34  C   UNL A   1      42.640  23.164  26.077  1.00  0.00     0.010 A 
ATOM     35  C   UNL A   1      42.669  23.470  27.451  1.00  0.00    -0.014 A 
BRANCH  35  36
ATOM     36  C   UNL A   1      42.910  24.862  27.903  1.00  0.00     0.031 A 
ATOM     37  C   UNL A   1      44.322  25.317  28.156  1.00  0.00     0.074 A 
ATOM     38  C   UNL A   1      41.887  25.721  28.056  1.00  0.00     0.049 A 
ATOM     39  N   UNL A   1      44.755  26.475  28.591  1.00  0.00    -0.248 NA
ATOM     40  C   UNL A   1      45.387  24.338  27.887  1.00  0.00     0.031 C 
ATOM     41  C   UNL A   1      40.479  25.419  27.794  1.00  0.00     0.029 A 
ATOM     42  N   UNL A   1      41.879  27.029  28.473  1.00  0.00    -0.354 N 
ATOM     43  C   UNL A   1      46.139  26.360  28.649  1.00  0.00     0.074 A 
ATOM     44  C   UNL A   1      46.471  25.011  28.246  1.00  0.00     0.031 C 
ATOM     45  C   UNL A   1      39.743  26.513  28.056  1.00  0.00     0.029 A 
ATOM     46  C   UNL A   1      40.621  27.575  28.543  1.00  0.00     0.049 A 
ATOM     47  H   UNL A   1      42.697  27.527  28.700  1.00  0.00     0.167 HD
ATOM     48  C   UNL A   1      47.054  27.297  28.995  1.00  0.00     0.031 A 
ATOM     49  C   UNL A   1      40.221  28.788  28.971  1.00  0.00     0.031 A 
ATOM     50  C   UNL A   1      46.724  28.634  29.414  1.00  0.00     0.049 A 
ATOM     51  C   UNL A   1      41.252  29.778  29.447  1.00  0.00     0.074 A 
ATOM     52  C   UNL A   1      47.579  29.656  29.789  1.00  0.00     0.029 A 
ATOM     53  N   UNL A   1      45.435  29.134  29.517  1.00  0.00    -0.354 N 
ATOM     54  N   UNL A   1      42.558  29.663  29.484  1.00  0.00    -0.248 NA
ATOM     55  C   UNL A   1      40.750  31.073  29.931  1.00  0.00     0.031 C 
ATOM     56  C   UNL A   1      46.804  30.755  30.176  1.00  0.00     0.029 A 
ATOM     57  C   UNL A   1      45.471  30.441  29.971  1.00  0.00     0.049 A 
ATOM     58  H   UNL A   1      44.616  28.632  29.298  1.00  0.00     0.167 HD
ATOM     59  C   UNL A   1      43.033  30.883  29.954  1.00  0.00     0.074 A 
ATOM     60  C   UNL A   1      41.877  31.726  30.173  1.00  0.00     0.031 C 
ATOM     61  C   UNL A   1      44.312  31.273  30.177  1.00  0.00     0.031 A 
BRANCH  48  62
ATOM     62  C   UNL A   1      48.504  26.896  28.962  1.00  0.00    -0.014 A 
ATOM     63  C   UNL A   1      49.309  27.164  27.843  1.00  0.00     0.009 A 
ATOM     64  C   UNL A   1      49.084  26.276  30.080  1.00  0.00     0.009 A 
ATOM     65  C   UNL A   1      50.654  26.787  27.832  1.00  0.00     0.001 A 
ATOM     66  C   UNL A   1      50.436  25.930  30.079  1.00  0.00     0.001 A 
ATOM     67  C   UNL A   1      51.217  26.177  28.951  1.00  0.00     0.000 A 
ENDBRANCH  48  62
BRANCH  49  68
ATOM     68  C   UNL A   1      38.776  29.140  28.994  1.00  0.00    -0.014 A 
ATOM     69  C   UNL A   1      38.158  29.705  27.867  1.00  0.00     0.009 A 
ATOM     70  C   UNL A   1      38.016  28.955  30.161  1.00  0.00     0.009 A 
ATOM     71  C   UNL A   1      36.822  30.112  27.921  1.00  0.00     0.001 A 
ATOM     72  C   UNL A   1      36.672  29.331  30.199  1.00  0.00     0.001 A 
ATOM     73  C   UNL A   1      36.080  29.922  29.085  1.00  0.00     0.000 A 
ENDBRANCH  49  68
BRANCH  61  74
ATOM     74  C   UNL A   1      44.533  32.691  30.628  1.00  0.00    -0.014 A 
ATOM     75  C   UNL A   1      44.597  33.034  31.987  1.00  0.00     0.009 A 
ATOM     76  C   UNL A   1      44.710  33.700  29.666  1.00  0.00     0.009 A 
ATOM     77  C   UNL A   1      44.789  34.363  32.373  1.00  0.00     0.001 A 
ATOM     78  C   UNL A   1      44.938  35.021  30.054  1.00  0.00     0.001 A 
ATOM     79  C   UNL A   1      44.963  35.354  31.406  1.00  0.00     0.000 A 
ENDBRANCH  61  74
ENDBRANCH  35  36
ENDBRANCH  28  30
ENDBRANCH  27  28
ENDBRANCH  26  27
ENDBRANCH  25  26
ENDBRANCH  24  25
ENDBRANCH   1  24
TORSDOF 17
ENDMDL
