MODEL 1
REMARK VINA RESULT:      -9.5      0.000      0.000
REMARK SMILES O=C(Cc1ccn(C(F)F)c(=O)c1)OCCOCCOC(=O)c1ccc(-c2c3nc(c(-c4ccccc4)c4ccc([nH]4)c(-c4ccccc4)c4nc(c(-c5ccccc5)c5ccc2[nH]5)C=C4)C=C3)cc1
REMARK SMILES IDX 17 1 16 2 15 3 14 4 2 5 1 6 3 7 4 8 5 9 13 10 6 11 11 12
REMARK SMILES IDX 7 13 12 14 8 15 9 16 10 17 18 18 19 19 20 20 21 21 22 22
REMARK SMILES IDX 23 23 24 24 70 25 25 26 69 27 26 28 27 29 28 30 63 31 29 32
REMARK SMILES IDX 68 33 62 34 64 35 30 36 67 37 61 38 60 39 31 41 53 42 38 43
REMARK SMILES IDX 52 44 39 45 42 46 51 47 65 48 40 49 41 50 50 52 66 53 43 54
REMARK SMILES IDX 32 55 33 56 37 57 34 58 36 59 35 60 54 61 55 62 59 63 56 64
REMARK SMILES IDX 58 65 57 66 44 67 45 68 49 69 46 70 48 71 47 72
REMARK H PARENT 64 40 42 51
REMARK Flexibility Score: inf
ROOT
ATOM      1  O   UNL A   1      36.822  20.730  24.978  1.00  0.00    -0.374 OA
ENDROOT
BRANCH   1   2
ATOM      2  C   UNL A   1      35.900  21.806  25.050  1.00  0.00     0.202 C 
BRANCH   2   3
ATOM      3  C   UNL A   1      35.654  22.617  23.781  1.00  0.00     0.261 C 
BRANCH   3   4
ATOM      4  O   UNL A   1      34.280  22.790  23.410  1.00  0.00    -0.463 OA
BRANCH   4   5
ATOM      5  C   UNL A   1      33.258  22.943  24.287  1.00  0.00     0.310 C 
ATOM      6  O   UNL A   1      33.299  23.855  25.112  1.00  0.00    -0.252 OA
BRANCH   5   7
ATOM      7  C   UNL A   1      32.103  21.953  24.284  1.00  0.00     0.158 C 
BRANCH   7   8
ATOM      8  C   UNL A   1      32.416  20.483  24.220  1.00  0.00    -0.030 A 
ATOM      9  C   UNL A   1      32.868  19.763  25.394  1.00  0.00     0.023 A 
ATOM     10  C   UNL A   1      32.234  19.807  23.072  1.00  0.00     0.076 A 
ATOM     11  C   UNL A   1      33.031  18.436  25.348  1.00  0.00     0.095 A 
ATOM     12  C   UNL A   1      32.510  18.347  22.981  1.00  0.00     0.255 A 
ATOM     13  N   UNL A   1      32.842  17.729  24.176  1.00  0.00    -0.258 N 
ATOM     14  O   UNL A   1      32.414  17.803  21.887  1.00  0.00    -0.269 OA
BRANCH  13  15
ATOM     15  C   UNL A   1      33.155  16.324  24.127  1.00  0.00     0.451 C 
ATOM     16  F   UNL A   1      34.427  16.096  23.722  1.00  0.00    -0.185 F 
ATOM     17  F   UNL A   1      32.995  15.765  25.350  1.00  0.00    -0.185 F 
ENDBRANCH  13  15
ENDBRANCH   7   8
ENDBRANCH   5   7
ENDBRANCH   4   5
ENDBRANCH   3   4
ENDBRANCH   2   3
ENDBRANCH   1   2
BRANCH   1  18
ATOM     18  C   UNL A   1      38.172  20.974  25.386  1.00  0.00     0.202 C 
BRANCH  18  19
ATOM     19  C   UNL A   1      39.156  19.802  25.313  1.00  0.00     0.261 C 
BRANCH  19  20
ATOM     20  O   UNL A   1      40.101  19.844  26.396  1.00  0.00    -0.460 OA
BRANCH  20  21
ATOM     21  C   UNL A   1      41.407  19.900  26.040  1.00  0.00     0.338 C 
ATOM     22  O   UNL A   1      41.995  19.174  25.256  1.00  0.00    -0.246 OA
BRANCH  21  23
ATOM     23  C   UNL A   1      41.974  21.154  26.570  1.00  0.00     0.060 A 
ATOM     24  C   UNL A   1      42.461  22.137  25.709  1.00  0.00     0.016 A 
ATOM     25  C   UNL A   1      42.002  21.341  27.960  1.00  0.00     0.016 A 
ATOM     26  C   UNL A   1      42.945  23.330  26.244  1.00  0.00     0.010 A 
ATOM     27  C   UNL A   1      42.488  22.533  28.492  1.00  0.00     0.010 A 
ATOM     28  C   UNL A   1      42.936  23.545  27.634  1.00  0.00    -0.014 A 
BRANCH  28  29
ATOM     29  C   UNL A   1      43.226  24.897  28.164  1.00  0.00     0.031 A 
ATOM     30  C   UNL A   1      44.621  25.349  28.454  1.00  0.00     0.074 A 
ATOM     31  C   UNL A   1      42.181  25.719  28.379  1.00  0.00     0.049 A 
ATOM     32  N   UNL A   1      45.034  26.536  28.821  1.00  0.00    -0.248 NA
ATOM     33  C   UNL A   1      45.693  24.351  28.321  1.00  0.00     0.031 C 
ATOM     34  C   UNL A   1      40.778  25.360  28.154  1.00  0.00     0.029 A 
ATOM     35  N   UNL A   1      42.129  27.019  28.809  1.00  0.00    -0.354 N 
ATOM     36  C   UNL A   1      46.412  26.437  28.943  1.00  0.00     0.074 A 
ATOM     37  C   UNL A   1      46.762  25.060  28.660  1.00  0.00     0.031 C 
ATOM     38  C   UNL A   1      40.009  26.429  28.403  1.00  0.00     0.029 A 
ATOM     39  C   UNL A   1      40.855  27.533  28.843  1.00  0.00     0.049 A 
ATOM     40  H   UNL A   1      42.927  27.534  29.070  1.00  0.00     0.167 HD
ATOM     41  C   UNL A   1      47.296  27.417  29.245  1.00  0.00     0.031 A 
ATOM     42  C   UNL A   1      40.413  28.760  29.180  1.00  0.00     0.031 A 
ATOM     43  C   UNL A   1      46.923  28.776  29.545  1.00  0.00     0.049 A 
ATOM     44  C   UNL A   1      41.416  29.813  29.556  1.00  0.00     0.074 A 
ATOM     45  C   UNL A   1      47.753  29.849  29.827  1.00  0.00     0.029 A 
ATOM     46  N   UNL A   1      45.620  29.249  29.618  1.00  0.00    -0.354 N 
ATOM     47  N   UNL A   1      42.723  29.731  29.586  1.00  0.00    -0.248 NA
ATOM     48  C   UNL A   1      40.887  31.132  29.929  1.00  0.00     0.031 C 
ATOM     49  C   UNL A   1      46.952  30.946  30.148  1.00  0.00     0.029 A 
ATOM     50  C   UNL A   1      45.624  30.586  29.980  1.00  0.00     0.049 A 
ATOM     51  H   UNL A   1      44.814  28.714  29.439  1.00  0.00     0.167 HD
ATOM     52  C   UNL A   1      43.177  30.988  29.958  1.00  0.00     0.074 A 
ATOM     53  C   UNL A   1      42.004  31.823  30.123  1.00  0.00     0.031 C 
ATOM     54  C   UNL A   1      44.451  31.409  30.146  1.00  0.00     0.031 A 
BRANCH  41  55
ATOM     55  C   UNL A   1      48.763  27.075  29.262  1.00  0.00    -0.014 A 
ATOM     56  C   UNL A   1      49.380  26.699  30.467  1.00  0.00     0.009 A 
ATOM     57  C   UNL A   1      49.559  27.251  28.120  1.00  0.00     0.009 A 
ATOM     58  C   UNL A   1      50.765  26.530  30.532  1.00  0.00     0.001 A 
ATOM     59  C   UNL A   1      50.940  27.050  28.181  1.00  0.00     0.001 A 
ATOM     60  C   UNL A   1      51.543  26.703  29.389  1.00  0.00     0.000 A 
ENDBRANCH  41  55
BRANCH  42  61
ATOM     61  C   UNL A   1      38.955  29.046  29.126  1.00  0.00    -0.014 A 
ATOM     62  C   UNL A   1      38.355  29.476  27.931  1.00  0.00     0.009 A 
ATOM     63  C   UNL A   1      38.168  28.962  30.284  1.00  0.00     0.009 A 
ATOM     64  C   UNL A   1      37.010  29.848  27.902  1.00  0.00     0.001 A 
ATOM     65  C   UNL A   1      36.812  29.300  30.244  1.00  0.00     0.001 A 
ATOM     66  C   UNL A   1      36.238  29.755  29.058  1.00  0.00     0.000 A 
ENDBRANCH  42  61
BRANCH  54  67
ATOM     67  C   UNL A   1      44.670  32.843  30.551  1.00  0.00    -0.014 A 
ATOM     68  C   UNL A   1      44.883  33.821  29.564  1.00  0.00     0.009 A 
ATOM     69  C   UNL A   1      44.785  33.207  31.900  1.00  0.00     0.009 A 
ATOM     70  C   UNL A   1      45.235  35.124  29.919  1.00  0.00     0.001 A 
ATOM     71  C   UNL A   1      45.102  34.521  32.253  1.00  0.00     0.001 A 
ATOM     72  C   UNL A   1      45.340  35.474  31.264  1.00  0.00     0.000 A 
ENDBRANCH  54  67
ENDBRANCH  28  29
ENDBRANCH  21  23
ENDBRANCH  20  21
ENDBRANCH  19  20
ENDBRANCH  18  19
ENDBRANCH   1  18
TORSDOF 16
ENDMDL
MODEL 2
REMARK VINA RESULT:      -9.5      6.455     11.127
REMARK SMILES O=C(Cc1ccn(C(F)F)c(=O)c1)OCCOCCOC(=O)c1ccc(-c2c3nc(c(-c4ccccc4)c4ccc([nH]4)c(-c4ccccc4)c4nc(c(-c5ccccc5)c5ccc2[nH]5)C=C4)C=C3)cc1
REMARK SMILES IDX 17 1 16 2 15 3 14 4 2 5 1 6 3 7 4 8 5 9 13 10 6 11 11 12
REMARK SMILES IDX 7 13 12 14 8 15 9 16 10 17 18 18 19 19 20 20 21 21 22 22
REMARK SMILES IDX 23 23 24 24 70 25 25 26 69 27 26 28 27 29 28 30 63 31 29 32
REMARK SMILES IDX 68 33 62 34 64 35 30 36 67 37 61 38 60 39 31 41 53 42 38 43
REMARK SMILES IDX 52 44 39 45 42 46 51 47 65 48 40 49 41 50 50 52 66 53 43 54
REMARK SMILES IDX 32 55 33 56 37 57 34 58 36 59 35 60 54 61 55 62 59 63 56 64
REMARK SMILES IDX 58 65 57 66 44 67 45 68 49 69 46 70 48 71 47 72
REMARK H PARENT 64 40 42 51
REMARK Flexibility Score: inf
ROOT
ATOM      1  O   UNL A   1      34.654  34.799  28.603  1.00  0.00    -0.374 OA
ENDROOT
BRANCH   1   2
ATOM      2  C   UNL A   1      35.425  33.683  29.022  1.00  0.00     0.202 C 
BRANCH   2   3
ATOM      3  C   UNL A   1      35.535  32.497  28.068  1.00  0.00     0.261 C 
BRANCH   3   4
ATOM      4  O   UNL A   1      34.786  31.331  28.437  1.00  0.00    -0.463 OA
BRANCH   4   5
ATOM      5  C   UNL A   1      34.215  30.473  27.557  1.00  0.00     0.310 C 
ATOM      6  O   UNL A   1      34.913  29.638  26.983  1.00  0.00    -0.252 OA
BRANCH   5   7
ATOM      7  C   UNL A   1      32.730  30.587  27.245  1.00  0.00     0.158 C 
BRANCH   7   8
ATOM      8  C   UNL A   1      32.077  29.491  26.449  1.00  0.00    -0.030 A 
ATOM      9  C   UNL A   1      31.713  29.689  25.060  1.00  0.00     0.023 A 
ATOM     10  C   UNL A   1      31.861  28.289  27.014  1.00  0.00     0.076 A 
ATOM     11  C   UNL A   1      31.239  28.668  24.336  1.00  0.00     0.095 A 
ATOM     12  C   UNL A   1      31.240  27.175  26.247  1.00  0.00     0.255 A 
ATOM     13  N   UNL A   1      31.019  27.426  24.903  1.00  0.00    -0.258 N 
ATOM     14  O   UNL A   1      30.984  26.131  26.839  1.00  0.00    -0.269 OA
BRANCH  13  15
ATOM     15  C   UNL A   1      30.383  26.389  24.133  1.00  0.00     0.451 C 
ATOM     16  F   UNL A   1      29.037  26.393  24.281  1.00  0.00    -0.185 F 
ATOM     17  F   UNL A   1      30.664  26.544  22.817  1.00  0.00    -0.185 F 
ENDBRANCH  13  15
ENDBRANCH   7   8
ENDBRANCH   5   7
ENDBRANCH   4   5
ENDBRANCH   3   4
ENDBRANCH   2   3
ENDBRANCH   1   2
BRANCH   1  18
ATOM     18  C   UNL A   1      33.269  34.830  28.961  1.00  0.00     0.202 C 
BRANCH  18  19
ATOM     19  C   UNL A   1      32.715  36.140  29.532  1.00  0.00     0.261 C 
BRANCH  19  20
ATOM     20  O   UNL A   1      33.276  36.425  30.825  1.00  0.00    -0.460 OA
BRANCH  20  21
ATOM     21  C   UNL A   1      32.842  35.645  31.843  1.00  0.00     0.338 C 
ATOM     22  O   UNL A   1      31.688  35.381  32.138  1.00  0.00    -0.246 OA
BRANCH  21  23
ATOM     23  C   UNL A   1      34.007  34.944  32.414  1.00  0.00     0.060 A 
ATOM     24  C   UNL A   1      33.857  33.716  33.058  1.00  0.00     0.016 A 
ATOM     25  C   UNL A   1      35.273  35.535  32.285  1.00  0.00     0.016 A 
ATOM     26  C   UNL A   1      34.988  33.059  33.542  1.00  0.00     0.010 A 
ATOM     27  C   UNL A   1      36.401  34.878  32.771  1.00  0.00     0.010 A 
ATOM     28  C   UNL A   1      36.267  33.623  33.378  1.00  0.00    -0.014 A 
BRANCH  28  29
ATOM     29  C   UNL A   1      37.466  32.809  33.679  1.00  0.00     0.031 A 
ATOM     30  C   UNL A   1      37.970  31.765  32.736  1.00  0.00     0.074 A 
ATOM     31  C   UNL A   1      38.098  33.042  34.846  1.00  0.00     0.049 A 
ATOM     32  N   UNL A   1      39.063  31.050  32.820  1.00  0.00    -0.248 NA
ATOM     33  C   UNL A   1      37.149  31.478  31.550  1.00  0.00     0.031 C 
ATOM     34  C   UNL A   1      37.667  34.021  35.847  1.00  0.00     0.029 A 
ATOM     35  N   UNL A   1      39.239  32.498  35.378  1.00  0.00    -0.354 N 
ATOM     36  C   UNL A   1      39.076  30.244  31.691  1.00  0.00     0.074 A 
ATOM     37  C   UNL A   1      37.856  30.521  30.961  1.00  0.00     0.031 C 
ATOM     38  C   UNL A   1      38.557  34.041  36.849  1.00  0.00     0.029 A 
ATOM     39  C   UNL A   1      39.597  33.051  36.583  1.00  0.00     0.049 A 
ATOM     40  H   UNL A   1      39.751  31.780  34.939  1.00  0.00     0.167 HD
ATOM     41  C   UNL A   1      40.034  29.371  31.299  1.00  0.00     0.031 A 
ATOM     42  C   UNL A   1      40.650  32.801  37.384  1.00  0.00     0.031 A 
ATOM     43  C   UNL A   1      41.231  29.094  32.052  1.00  0.00     0.049 A 
ATOM     44  C   UNL A   1      41.672  31.792  36.944  1.00  0.00     0.074 A 
ATOM     45  C   UNL A   1      42.277  28.252  31.717  1.00  0.00     0.029 A 
ATOM     46  N   UNL A   1      41.536  29.637  33.292  1.00  0.00    -0.354 N 
ATOM     47  N   UNL A   1      41.717  31.098  35.833  1.00  0.00    -0.248 NA
ATOM     48  C   UNL A   1      42.796  31.542  37.856  1.00  0.00     0.031 C 
ATOM     49  C   UNL A   1      43.174  28.223  32.786  1.00  0.00     0.029 A 
ATOM     50  C   UNL A   1      42.735  29.115  33.751  1.00  0.00     0.049 A 
ATOM     51  H   UNL A   1      40.985  30.294  33.773  1.00  0.00     0.167 HD
ATOM     52  C   UNL A   1      42.882  30.346  35.899  1.00  0.00     0.074 A 
ATOM     53  C   UNL A   1      43.526  30.686  37.152  1.00  0.00     0.031 C 
ATOM     54  C   UNL A   1      43.368  29.455  35.002  1.00  0.00     0.031 A 
BRANCH  41  55
ATOM     55  C   UNL A   1      39.848  28.646  29.992  1.00  0.00    -0.014 A 
ATOM     56  C   UNL A   1      39.312  27.348  29.981  1.00  0.00     0.009 A 
ATOM     57  C   UNL A   1      40.322  29.192  28.790  1.00  0.00     0.009 A 
ATOM     58  C   UNL A   1      39.276  26.604  28.799  1.00  0.00     0.001 A 
ATOM     59  C   UNL A   1      40.257  28.458  27.603  1.00  0.00     0.001 A 
ATOM     60  C   UNL A   1      39.746  27.160  27.611  1.00  0.00     0.000 A 
ENDBRANCH  41  55
BRANCH  42  61
ATOM     61  C   UNL A   1      40.792  33.561  38.654  1.00  0.00    -0.014 A 
ATOM     62  C   UNL A   1      40.225  33.076  39.845  1.00  0.00     0.009 A 
ATOM     63  C   UNL A   1      41.432  34.809  38.672  1.00  0.00     0.009 A 
ATOM     64  C   UNL A   1      40.264  33.837  41.015  1.00  0.00     0.001 A 
ATOM     65  C   UNL A   1      41.502  35.553  39.854  1.00  0.00     0.001 A 
ATOM     66  C   UNL A   1      40.908  35.072  41.019  1.00  0.00     0.000 A 
ENDBRANCH  42  61
BRANCH  54  67
ATOM     67  C   UNL A   1      44.671  28.770  35.321  1.00  0.00    -0.014 A 
ATOM     68  C   UNL A   1      44.667  27.577  36.065  1.00  0.00     0.009 A 
ATOM     69  C   UNL A   1      45.901  29.359  34.993  1.00  0.00     0.009 A 
ATOM     70  C   UNL A   1      45.865  27.006  36.498  1.00  0.00     0.001 A 
ATOM     71  C   UNL A   1      47.099  28.765  35.397  1.00  0.00     0.001 A 
ATOM     72  C   UNL A   1      47.079  27.599  36.160  1.00  0.00     0.000 A 
ENDBRANCH  54  67
ENDBRANCH  28  29
ENDBRANCH  21  23
ENDBRANCH  20  21
ENDBRANCH  19  20
ENDBRANCH  18  19
ENDBRANCH   1  18
TORSDOF 16
ENDMDL
MODEL 3
REMARK VINA RESULT:      -9.5      4.259      8.069
REMARK SMILES O=C(Cc1ccn(C(F)F)c(=O)c1)OCCOCCOC(=O)c1ccc(-c2c3nc(c(-c4ccccc4)c4ccc([nH]4)c(-c4ccccc4)c4nc(c(-c5ccccc5)c5ccc2[nH]5)C=C4)C=C3)cc1
REMARK SMILES IDX 17 1 16 2 15 3 14 4 2 5 1 6 3 7 4 8 5 9 13 10 6 11 11 12
REMARK SMILES IDX 7 13 12 14 8 15 9 16 10 17 18 18 19 19 20 20 21 21 22 22
REMARK SMILES IDX 23 23 24 24 70 25 25 26 69 27 26 28 27 29 28 30 63 31 29 32
REMARK SMILES IDX 68 33 62 34 64 35 30 36 67 37 61 38 60 39 31 41 53 42 38 43
REMARK SMILES IDX 52 44 39 45 42 46 51 47 65 48 40 49 41 50 50 52 66 53 43 54
REMARK SMILES IDX 32 55 33 56 37 57 34 58 36 59 35 60 54 61 55 62 59 63 56 64
REMARK SMILES IDX 58 65 57 66 44 67 45 68 49 69 46 70 48 71 47 72
REMARK H PARENT 64 40 42 51
REMARK Flexibility Score: inf
ROOT
ATOM      1  O   UNL A   1      42.061  21.368  27.217  1.00  0.00    -0.374 OA
ENDROOT
BRANCH   1   2
ATOM      2  C   UNL A   1      40.654  21.188  27.274  1.00  0.00     0.202 C 
BRANCH   2   3
ATOM      3  C   UNL A   1      39.827  21.683  26.091  1.00  0.00     0.261 C 
BRANCH   3   4
ATOM      4  O   UNL A   1      38.504  22.140  26.405  1.00  0.00    -0.463 OA
BRANCH   4   5
ATOM      5  C   UNL A   1      38.039  23.386  26.147  1.00  0.00     0.310 C 
ATOM      6  O   UNL A   1      38.458  24.338  26.805  1.00  0.00    -0.252 OA
BRANCH   5   7
ATOM      7  C   UNL A   1      36.964  23.589  25.090  1.00  0.00     0.158 C 
BRANCH   7   8
ATOM      8  C   UNL A   1      35.539  23.760  25.538  1.00  0.00    -0.030 A 
ATOM      9  C   UNL A   1      34.742  24.884  25.088  1.00  0.00     0.023 A 
ATOM     10  C   UNL A   1      34.970  22.837  26.335  1.00  0.00     0.076 A 
ATOM     11  C   UNL A   1      33.444  24.959  25.404  1.00  0.00     0.095 A 
ATOM     12  C   UNL A   1      33.554  22.962  26.776  1.00  0.00     0.255 A 
ATOM     13  N   UNL A   1      32.847  24.013  26.216  1.00  0.00    -0.258 N 
ATOM     14  O   UNL A   1      33.118  22.140  27.574  1.00  0.00    -0.269 OA
BRANCH  13  15
ATOM     15  C   UNL A   1      31.484  24.195  26.646  1.00  0.00     0.451 C 
ATOM     16  F   UNL A   1      31.089  25.488  26.565  1.00  0.00    -0.185 F 
ATOM     17  F   UNL A   1      30.649  23.450  25.882  1.00  0.00    -0.185 F 
ENDBRANCH  13  15
ENDBRANCH   7   8
ENDBRANCH   5   7
ENDBRANCH   4   5
ENDBRANCH   3   4
ENDBRANCH   2   3
ENDBRANCH   1   2
BRANCH   1  18
ATOM     18  C   UNL A   1      42.782  20.692  26.182  1.00  0.00     0.202 C 
BRANCH  18  19
ATOM     19  C   UNL A   1      43.482  21.557  25.128  1.00  0.00     0.261 C 
BRANCH  19  20
ATOM     20  O   UNL A   1      42.859  22.848  25.013  1.00  0.00    -0.460 OA
BRANCH  20  21
ATOM     21  C   UNL A   1      43.687  23.915  25.117  1.00  0.00     0.338 C 
ATOM     22  O   UNL A   1      44.661  24.170  24.430  1.00  0.00    -0.246 OA
BRANCH  21  23
ATOM     23  C   UNL A   1      43.078  24.879  26.054  1.00  0.00     0.060 A 
ATOM     24  C   UNL A   1      41.997  24.511  26.854  1.00  0.00     0.016 A 
ATOM     25  C   UNL A   1      43.620  26.171  26.129  1.00  0.00     0.016 A 
ATOM     26  C   UNL A   1      41.480  25.433  27.763  1.00  0.00     0.010 A 
ATOM     27  C   UNL A   1      43.099  27.091  27.037  1.00  0.00     0.010 A 
ATOM     28  C   UNL A   1      42.044  26.717  27.878  1.00  0.00    -0.014 A 
BRANCH  28  29
ATOM     29  C   UNL A   1      41.643  27.591  29.004  1.00  0.00     0.031 A 
ATOM     30  C   UNL A   1      40.467  28.509  28.910  1.00  0.00     0.074 A 
ATOM     31  C   UNL A   1      42.378  27.531  30.131  1.00  0.00     0.049 A 
ATOM     32  N   UNL A   1      39.937  29.253  29.848  1.00  0.00    -0.248 NA
ATOM     33  C   UNL A   1      39.799  28.614  27.605  1.00  0.00     0.031 C 
ATOM     34  C   UNL A   1      43.562  26.687  30.310  1.00  0.00     0.029 A 
ATOM     35  N   UNL A   1      42.235  28.167  31.337  1.00  0.00    -0.354 N 
ATOM     36  C   UNL A   1      38.862  29.899  29.256  1.00  0.00     0.074 A 
ATOM     37  C   UNL A   1      38.844  29.500  27.864  1.00  0.00     0.031 C 
ATOM     38  C   UNL A   1      44.008  26.822  31.567  1.00  0.00     0.029 A 
ATOM     39  C   UNL A   1      43.171  27.790  32.268  1.00  0.00     0.049 A 
ATOM     40  H   UNL A   1      41.529  28.831  31.517  1.00  0.00     0.167 HD
ATOM     41  C   UNL A   1      37.966  30.733  29.837  1.00  0.00     0.031 A 
ATOM     42  C   UNL A   1      43.335  28.169  33.550  1.00  0.00     0.031 A 
ATOM     43  C   UNL A   1      38.017  31.136  31.220  1.00  0.00     0.049 A 
ATOM     44  C   UNL A   1      42.352  29.132  34.153  1.00  0.00     0.074 A 
ATOM     45  C   UNL A   1      37.131  31.949  31.907  1.00  0.00     0.029 A 
ATOM     46  N   UNL A   1      39.007  30.772  32.121  1.00  0.00    -0.354 N 
ATOM     47  N   UNL A   1      41.289  29.671  33.607  1.00  0.00    -0.248 NA
ATOM     48  C   UNL A   1      42.577  29.528  35.549  1.00  0.00     0.031 C 
ATOM     49  C   UNL A   1      37.628  32.141  33.197  1.00  0.00     0.029 A 
ATOM     50  C   UNL A   1      38.774  31.377  33.345  1.00  0.00     0.049 A 
ATOM     51  H   UNL A   1      39.762  30.173  31.921  1.00  0.00     0.167 HD
ATOM     52  C   UNL A   1      40.705  30.451  34.595  1.00  0.00     0.074 A 
ATOM     53  C   UNL A   1      41.522  30.298  35.783  1.00  0.00     0.031 C 
ATOM     54  C   UNL A   1      39.595  31.223  34.522  1.00  0.00     0.031 A 
BRANCH  41  55
ATOM     55  C   UNL A   1      36.840  31.271  28.993  1.00  0.00    -0.014 A 
ATOM     56  C   UNL A   1      36.830  32.625  28.620  1.00  0.00     0.009 A 
ATOM     57  C   UNL A   1      35.729  30.474  28.679  1.00  0.00     0.009 A 
ATOM     58  C   UNL A   1      35.721  33.175  27.972  1.00  0.00     0.001 A 
ATOM     59  C   UNL A   1      34.634  31.018  28.003  1.00  0.00     0.001 A 
ATOM     60  C   UNL A   1      34.625  32.370  27.662  1.00  0.00     0.000 A 
ENDBRANCH  41  55
BRANCH  42  61
ATOM     61  C   UNL A   1      44.453  27.591  34.341  1.00  0.00    -0.014 A 
ATOM     62  C   UNL A   1      45.760  28.084  34.196  1.00  0.00     0.009 A 
ATOM     63  C   UNL A   1      44.236  26.496  35.190  1.00  0.00     0.009 A 
ATOM     64  C   UNL A   1      46.829  27.476  34.856  1.00  0.00     0.001 A 
ATOM     65  C   UNL A   1      45.303  25.910  35.878  1.00  0.00     0.001 A 
ATOM     66  C   UNL A   1      46.599  26.391  35.700  1.00  0.00     0.000 A 
ENDBRANCH  42  61
BRANCH  54  67
ATOM     67  C   UNL A   1      39.172  31.975  35.756  1.00  0.00    -0.014 A 
ATOM     68  C   UNL A   1      38.260  31.389  36.651  1.00  0.00     0.009 A 
ATOM     69  C   UNL A   1      39.579  33.299  35.976  1.00  0.00     0.009 A 
ATOM     70  C   UNL A   1      37.742  32.122  37.719  1.00  0.00     0.001 A 
ATOM     71  C   UNL A   1      39.086  34.019  37.067  1.00  0.00     0.001 A 
ATOM     72  C   UNL A   1      38.158  33.435  37.928  1.00  0.00     0.000 A 
ENDBRANCH  54  67
ENDBRANCH  28  29
ENDBRANCH  21  23
ENDBRANCH  20  21
ENDBRANCH  19  20
ENDBRANCH  18  19
ENDBRANCH   1  18
TORSDOF 16
ENDMDL
