MODEL 1
REMARK VINA RESULT:     -10.3      0.000      0.000
REMARK SMILES Cc1cc(C(=O)NC[C@@H]2CC[C@H](C(=O)OCCOCCOC(=O)c3ccc(-c4c5nc(c(-c6ccccc6)c6ccc([nH]6)c(-c6ccccc6)c6nc(c(-c7ccccc7)c7ccc4[nH]7)C=C6)C=C5)cc3)O2)on1
REMARK SMILES IDX 17 1 16 2 15 3 13 4 14 5 12 6 9 7 10 8 72 9 11 10 8 11 7 12
REMARK SMILES IDX 5 13 6 14 4 16 1 17 2 18 3 19 74 20 73 21 18 22 19 23 20 24
REMARK SMILES IDX 21 25 22 26 23 27 24 28 25 29 71 30 26 31 70 32 27 33 28 34
REMARK SMILES IDX 29 35 64 36 30 37 69 38 63 39 65 40 31 41 68 42 62 43 61 44
REMARK SMILES IDX 32 46 54 47 39 48 53 49 40 50 43 51 52 52 66 53 41 54 42 55
REMARK SMILES IDX 51 57 67 58 44 59 33 60 34 61 38 62 35 63 37 64 36 65 55 66
REMARK SMILES IDX 56 67 60 68 57 69 59 70 58 71 45 72 46 73 50 74 47 75 49 76
REMARK SMILES IDX 48 77
REMARK H PARENT 7 15 65 45 43 56
REMARK Flexibility Score: inf
ROOT
ATOM      1  C   UNL A   1      36.584  21.880  25.044  1.00  0.00     0.202 C 
ENDROOT
BRANCH   1   2
ATOM      2  C   UNL A   1      35.815  22.429  23.840  1.00  0.00     0.261 C 
BRANCH   2   3
ATOM      3  O   UNL A   1      34.695  23.227  24.261  1.00  0.00    -0.461 OA
BRANCH   3   4
ATOM      4  C   UNL A   1      33.898  23.701  23.263  1.00  0.00     0.335 C 
ATOM      5  O   UNL A   1      34.001  23.388  22.083  1.00  0.00    -0.249 OA
BRANCH   4   6
ATOM      6  C   UNL A   1      32.860  24.716  23.770  1.00  0.00     0.228 C 
ATOM      7  C   UNL A   1      31.123  23.648  24.902  1.00  0.00     0.138 C 
ATOM      8  C   UNL A   1      30.650  23.886  23.475  1.00  0.00     0.037 C 
ATOM      9  O   UNL A   1      32.382  24.330  25.061  1.00  0.00    -0.361 OA
ATOM     10  C   UNL A   1      31.607  24.921  22.938  1.00  0.00     0.047 C 
BRANCH   7  11
ATOM     11  C   UNL A   1      31.320  22.155  25.207  1.00  0.00     0.148 C 
BRANCH  11  12
ATOM     12  N   UNL A   1      32.378  21.953  26.178  1.00  0.00    -0.347 N 
ATOM     13  C   UNL A   1      33.263  20.920  26.359  1.00  0.00     0.289 C 
ATOM     14  O   UNL A   1      34.080  21.067  27.271  1.00  0.00    -0.266 OA
ATOM     15  H   UNL A   1      32.480  22.690  26.822  1.00  0.00     0.164 HD
BRANCH  13  16
ATOM     16  C   UNL A   1      33.234  19.746  25.516  1.00  0.00     0.224 A 
ATOM     17  C   UNL A   1      33.804  17.014  23.135  1.00  0.00     0.070 C 
ATOM     18  C   UNL A   1      33.382  18.006  24.148  1.00  0.00     0.081 A 
ATOM     19  C   UNL A   1      34.008  19.221  24.503  1.00  0.00     0.083 A 
ATOM     20  N   UNL A   1      32.275  17.807  24.867  1.00  0.00    -0.084 NA
ATOM     21  O   UNL A   1      32.176  18.897  25.710  1.00  0.00    -0.351 OA
ENDBRANCH  13  16
ENDBRANCH  11  12
ENDBRANCH   7  11
ENDBRANCH   4   6
ENDBRANCH   3   4
ENDBRANCH   2   3
ENDBRANCH   1   2
BRANCH   1  22
ATOM     22  O   UNL A   1      37.823  21.235  24.759  1.00  0.00    -0.374 OA
BRANCH  22  23
ATOM     23  C   UNL A   1      37.901  19.823  24.950  1.00  0.00     0.202 C 
BRANCH  23  24
ATOM     24  C   UNL A   1      39.115  19.299  25.727  1.00  0.00     0.261 C 
BRANCH  24  25
ATOM     25  O   UNL A   1      40.186  20.260  25.802  1.00  0.00    -0.460 OA
BRANCH  25  26
ATOM     26  C   UNL A   1      40.786  20.341  27.015  1.00  0.00     0.338 C 
ATOM     27  O   UNL A   1      41.299  19.430  27.652  1.00  0.00    -0.246 OA
BRANCH  26  28
ATOM     28  C   UNL A   1      40.902  21.747  27.439  1.00  0.00     0.060 A 
ATOM     29  C   UNL A   1      40.134  22.699  26.754  1.00  0.00     0.016 A 
ATOM     30  C   UNL A   1      41.822  22.143  28.411  1.00  0.00     0.016 A 
ATOM     31  C   UNL A   1      40.318  24.058  27.004  1.00  0.00     0.010 A 
ATOM     32  C   UNL A   1      42.013  23.508  28.651  1.00  0.00     0.010 A 
ATOM     33  C   UNL A   1      41.290  24.471  27.924  1.00  0.00    -0.014 A 
BRANCH  33  34
ATOM     34  C   UNL A   1      41.672  25.902  28.008  1.00  0.00     0.031 A 
ATOM     35  C   UNL A   1      42.944  26.352  27.343  1.00  0.00     0.074 A 
ATOM     36  C   UNL A   1      40.903  26.790  28.663  1.00  0.00     0.049 A 
ATOM     37  N   UNL A   1      43.526  27.523  27.374  1.00  0.00    -0.248 NA
ATOM     38  C   UNL A   1      43.654  25.346  26.537  1.00  0.00     0.031 C 
ATOM     39  C   UNL A   1      39.617  26.497  29.293  1.00  0.00     0.029 A 
ATOM     40  N   UNL A   1      41.108  28.124  28.914  1.00  0.00    -0.354 N 
ATOM     41  C   UNL A   1      44.677  27.391  26.608  1.00  0.00     0.074 A 
ATOM     42  C   UNL A   1      44.720  26.023  26.139  1.00  0.00     0.031 C 
ATOM     43  C   UNL A   1      39.155  27.618  29.874  1.00  0.00     0.029 A 
ATOM     44  C   UNL A   1      40.129  28.691  29.691  1.00  0.00     0.049 A 
ATOM     45  H   UNL A   1      41.883  28.625  28.568  1.00  0.00     0.167 HD
ATOM     46  C   UNL A   1      45.615  28.324  26.321  1.00  0.00     0.031 A 
ATOM     47  C   UNL A   1      40.046  29.927  30.220  1.00  0.00     0.031 A 
ATOM     48  C   UNL A   1      45.579  29.682  26.791  1.00  0.00     0.049 A 
ATOM     49  C   UNL A   1      41.145  30.923  29.961  1.00  0.00     0.074 A 
ATOM     50  C   UNL A   1      46.480  30.703  26.548  1.00  0.00     0.029 A 
ATOM     51  N   UNL A   1      44.587  30.206  27.604  1.00  0.00    -0.354 N 
ATOM     52  N   UNL A   1      42.229  30.787  29.235  1.00  0.00    -0.248 NA
ATOM     53  C   UNL A   1      41.010  32.243  30.595  1.00  0.00     0.031 C 
ATOM     54  C   UNL A   1      46.060  31.833  27.256  1.00  0.00     0.029 A 
ATOM     55  C   UNL A   1      44.868  31.530  27.894  1.00  0.00     0.049 A 
ATOM     56  H   UNL A   1      43.800  29.711  27.927  1.00  0.00     0.167 HD
ATOM     57  C   UNL A   1      42.884  32.010  29.298  1.00  0.00     0.074 A 
ATOM     58  C   UNL A   1      42.077  32.878  30.130  1.00  0.00     0.031 C 
ATOM     59  C   UNL A   1      44.049  32.383  28.714  1.00  0.00     0.031 A 
BRANCH  46  60
ATOM     60  C   UNL A   1      46.788  27.890  25.488  1.00  0.00    -0.014 A 
ATOM     61  C   UNL A   1      46.758  27.966  24.087  1.00  0.00     0.009 A 
ATOM     62  C   UNL A   1      47.953  27.429  26.120  1.00  0.00     0.009 A 
ATOM     63  C   UNL A   1      47.861  27.558  23.335  1.00  0.00     0.001 A 
ATOM     64  C   UNL A   1      49.064  27.046  25.367  1.00  0.00     0.001 A 
ATOM     65  C   UNL A   1      49.014  27.102  23.976  1.00  0.00     0.000 A 
ENDBRANCH  46  60
BRANCH  47  66
ATOM     66  C   UNL A   1      38.890  30.290  31.083  1.00  0.00    -0.014 A 
ATOM     67  C   UNL A   1      37.782  30.962  30.548  1.00  0.00     0.009 A 
ATOM     68  C   UNL A   1      38.902  29.979  32.452  1.00  0.00     0.009 A 
ATOM     69  C   UNL A   1      36.717  31.336  31.372  1.00  0.00     0.001 A 
ATOM     70  C   UNL A   1      37.824  30.329  33.267  1.00  0.00     0.001 A 
ATOM     71  C   UNL A   1      36.737  31.015  32.729  1.00  0.00     0.000 A 
ENDBRANCH  47  66
BRANCH  59  72
ATOM     72  C   UNL A   1      44.502  33.802  28.908  1.00  0.00    -0.014 A 
ATOM     73  C   UNL A   1      45.369  34.156  29.951  1.00  0.00     0.009 A 
ATOM     74  C   UNL A   1      44.107  34.785  27.986  1.00  0.00     0.009 A 
ATOM     75  C   UNL A   1      45.815  35.474  30.080  1.00  0.00     0.001 A 
ATOM     76  C   UNL A   1      44.574  36.095  28.102  1.00  0.00     0.001 A 
ATOM     77  C   UNL A   1      45.423  36.439  29.152  1.00  0.00     0.000 A 
ENDBRANCH  59  72
ENDBRANCH  33  34
ENDBRANCH  26  28
ENDBRANCH  25  26
ENDBRANCH  24  25
ENDBRANCH  23  24
ENDBRANCH  22  23
ENDBRANCH   1  22
TORSDOF 17
ENDMDL
MODEL 2
REMARK VINA RESULT:      -9.9      3.997      6.937
REMARK SMILES Cc1cc(C(=O)NC[C@@H]2CC[C@H](C(=O)OCCOCCOC(=O)c3ccc(-c4c5nc(c(-c6ccccc6)c6ccc([nH]6)c(-c6ccccc6)c6nc(c(-c7ccccc7)c7ccc4[nH]7)C=C6)C=C5)cc3)O2)on1
REMARK SMILES IDX 17 1 16 2 15 3 13 4 14 5 12 6 9 7 10 8 72 9 11 10 8 11 7 12
REMARK SMILES IDX 5 13 6 14 4 16 1 17 2 18 3 19 74 20 73 21 18 22 19 23 20 24
REMARK SMILES IDX 21 25 22 26 23 27 24 28 25 29 71 30 26 31 70 32 27 33 28 34
REMARK SMILES IDX 29 35 64 36 30 37 69 38 63 39 65 40 31 41 68 42 62 43 61 44
REMARK SMILES IDX 32 46 54 47 39 48 53 49 40 50 43 51 52 52 66 53 41 54 42 55
REMARK SMILES IDX 51 57 67 58 44 59 33 60 34 61 38 62 35 63 37 64 36 65 55 66
REMARK SMILES IDX 56 67 60 68 57 69 59 70 58 71 45 72 46 73 50 74 47 75 49 76
REMARK SMILES IDX 48 77
REMARK H PARENT 7 15 65 45 43 56
REMARK Flexibility Score: inf
ROOT
ATOM      1  C   UNL A   1      30.618  28.724  22.821  1.00  0.00     0.202 C 
ENDROOT
BRANCH   1   2
ATOM      2  C   UNL A   1      31.742  27.788  22.372  1.00  0.00     0.261 C 
BRANCH   2   3
ATOM      3  O   UNL A   1      31.329  26.412  22.441  1.00  0.00    -0.461 OA
BRANCH   3   4
ATOM      4  C   UNL A   1      31.882  25.678  23.447  1.00  0.00     0.335 C 
ATOM      5  O   UNL A   1      31.250  24.951  24.205  1.00  0.00    -0.249 OA
BRANCH   4   6
ATOM      6  C   UNL A   1      33.401  25.887  23.562  1.00  0.00     0.228 C 
ATOM      7  C   UNL A   1      34.534  23.848  23.531  1.00  0.00     0.138 C 
ATOM      8  C   UNL A   1      34.374  24.251  24.990  1.00  0.00     0.037 C 
ATOM      9  O   UNL A   1      34.092  24.957  22.724  1.00  0.00    -0.361 OA
ATOM     10  C   UNL A   1      34.035  25.720  24.931  1.00  0.00     0.047 C 
BRANCH   7  11
ATOM     11  C   UNL A   1      33.700  22.607  23.176  1.00  0.00     0.148 C 
BRANCH  11  12
ATOM     12  N   UNL A   1      32.693  22.346  24.185  1.00  0.00    -0.347 N 
ATOM     13  C   UNL A   1      32.173  21.172  24.672  1.00  0.00     0.289 C 
ATOM     14  O   UNL A   1      31.337  21.287  25.571  1.00  0.00    -0.266 OA
ATOM     15  H   UNL A   1      32.314  23.155  24.596  1.00  0.00     0.164 HD
BRANCH  13  16
ATOM     16  C   UNL A   1      32.599  19.890  24.158  1.00  0.00     0.224 A 
ATOM     17  C   UNL A   1      34.040  16.583  23.491  1.00  0.00     0.070 C 
ATOM     18  C   UNL A   1      33.358  17.894  23.557  1.00  0.00     0.081 A 
ATOM     19  C   UNL A   1      33.456  18.886  24.557  1.00  0.00     0.083 A 
ATOM     20  N   UNL A   1      32.524  18.271  22.585  1.00  0.00    -0.084 NA
ATOM     21  O   UNL A   1      32.062  19.519  22.954  1.00  0.00    -0.351 OA
ENDBRANCH  13  16
ENDBRANCH  11  12
ENDBRANCH   7  11
ENDBRANCH   4   6
ENDBRANCH   3   4
ENDBRANCH   2   3
ENDBRANCH   1   2
BRANCH   1  22
ATOM     22  O   UNL A   1      30.527  28.973  24.222  1.00  0.00    -0.374 OA
BRANCH  22  23
ATOM     23  C   UNL A   1      31.721  29.334  24.915  1.00  0.00     0.202 C 
BRANCH  23  24
ATOM     24  C   UNL A   1      31.650  30.581  25.806  1.00  0.00     0.261 C 
BRANCH  24  25
ATOM     25  O   UNL A   1      32.469  30.470  26.985  1.00  0.00    -0.460 OA
BRANCH  25  26
ATOM     26  C   UNL A   1      33.185  31.583  27.281  1.00  0.00     0.338 C 
ATOM     27  O   UNL A   1      32.777  32.736  27.332  1.00  0.00    -0.246 OA
BRANCH  26  28
ATOM     28  C   UNL A   1      34.546  31.221  27.712  1.00  0.00     0.060 A 
ATOM     29  C   UNL A   1      34.812  29.867  27.961  1.00  0.00     0.016 A 
ATOM     30  C   UNL A   1      35.512  32.194  27.974  1.00  0.00     0.016 A 
ATOM     31  C   UNL A   1      36.030  29.484  28.519  1.00  0.00     0.010 A 
ATOM     32  C   UNL A   1      36.729  31.808  28.546  1.00  0.00     0.010 A 
ATOM     33  C   UNL A   1      36.979  30.458  28.855  1.00  0.00    -0.014 A 
BRANCH  33  34
ATOM     34  C   UNL A   1      38.158  30.093  29.677  1.00  0.00     0.031 A 
ATOM     35  C   UNL A   1      39.219  29.214  29.074  1.00  0.00     0.074 A 
ATOM     36  C   UNL A   1      38.288  30.536  30.941  1.00  0.00     0.049 A 
ATOM     37  N   UNL A   1      40.276  28.686  29.635  1.00  0.00    -0.248 NA
ATOM     38  C   UNL A   1      39.064  28.886  27.648  1.00  0.00     0.031 C 
ATOM     39  C   UNL A   1      37.367  31.445  31.621  1.00  0.00     0.029 A 
ATOM     40  N   UNL A   1      39.251  30.263  31.880  1.00  0.00    -0.354 N 
ATOM     41  C   UNL A   1      40.902  27.950  28.638  1.00  0.00     0.074 A 
ATOM     42  C   UNL A   1      40.100  28.086  27.441  1.00  0.00     0.031 C 
ATOM     43  C   UNL A   1      37.802  31.641  32.878  1.00  0.00     0.029 A 
ATOM     44  C   UNL A   1      39.005  30.843  33.100  1.00  0.00     0.049 A 
ATOM     45  H   UNL A   1      40.042  29.706  31.696  1.00  0.00     0.167 HD
ATOM     46  C   UNL A   1      42.044  27.226  28.710  1.00  0.00     0.031 A 
ATOM     47  C   UNL A   1      39.660  30.717  34.271  1.00  0.00     0.031 A 
ATOM     48  C   UNL A   1      42.840  27.083  29.899  1.00  0.00     0.049 A 
ATOM     49  C   UNL A   1      40.877  29.834  34.351  1.00  0.00     0.074 A 
ATOM     50  C   UNL A   1      44.016  26.375  30.068  1.00  0.00     0.029 A 
ATOM     51  N   UNL A   1      42.537  27.659  31.121  1.00  0.00    -0.354 N 
ATOM     52  N   UNL A   1      41.461  29.144  33.401  1.00  0.00    -0.248 NA
ATOM     53  C   UNL A   1      41.526  29.714  35.665  1.00  0.00     0.031 C 
ATOM     54  C   UNL A   1      44.399  26.481  31.409  1.00  0.00     0.029 A 
ATOM     55  C   UNL A   1      43.490  27.301  32.058  1.00  0.00     0.049 A 
ATOM     56  H   UNL A   1      41.760  28.237  31.298  1.00  0.00     0.167 HD
ATOM     57  C   UNL A   1      42.561  28.537  33.994  1.00  0.00     0.074 A 
ATOM     58  C   UNL A   1      42.566  28.941  35.385  1.00  0.00     0.031 C 
ATOM     59  C   UNL A   1      43.488  27.721  33.435  1.00  0.00     0.031 A 
BRANCH  46  60
ATOM     60  C   UNL A   1      42.477  26.495  27.471  1.00  0.00    -0.014 A 
ATOM     61  C   UNL A   1      42.028  25.194  27.195  1.00  0.00     0.009 A 
ATOM     62  C   UNL A   1      43.321  27.134  26.549  1.00  0.00     0.009 A 
ATOM     63  C   UNL A   1      42.442  24.537  26.035  1.00  0.00     0.001 A 
ATOM     64  C   UNL A   1      43.712  26.484  25.377  1.00  0.00     0.001 A 
ATOM     65  C   UNL A   1      43.281  25.183  25.126  1.00  0.00     0.000 A 
ENDBRANCH  46  60
BRANCH  47  66
ATOM     66  C   UNL A   1      39.159  31.419  35.481  1.00  0.00    -0.014 A 
ATOM     67  C   UNL A   1      38.167  30.840  36.285  1.00  0.00     0.009 A 
ATOM     68  C   UNL A   1      39.660  32.685  35.825  1.00  0.00     0.009 A 
ATOM     69  C   UNL A   1      37.671  31.522  37.399  1.00  0.00     0.001 A 
ATOM     70  C   UNL A   1      39.181  33.353  36.955  1.00  0.00     0.001 A 
ATOM     71  C   UNL A   1      38.182  32.775  37.735  1.00  0.00     0.000 A 
ENDBRANCH  47  66
BRANCH  59  72
ATOM     72  C   UNL A   1      44.615  27.247  34.308  1.00  0.00    -0.014 A 
ATOM     73  C   UNL A   1      44.597  25.975  34.898  1.00  0.00     0.009 A 
ATOM     74  C   UNL A   1      45.744  28.063  34.480  1.00  0.00     0.009 A 
ATOM     75  C   UNL A   1      45.680  25.539  35.665  1.00  0.00     0.001 A 
ATOM     76  C   UNL A   1      46.836  27.615  35.225  1.00  0.00     0.001 A 
ATOM     77  C   UNL A   1      46.800  26.356  35.821  1.00  0.00     0.000 A 
ENDBRANCH  59  72
ENDBRANCH  33  34
ENDBRANCH  26  28
ENDBRANCH  25  26
ENDBRANCH  24  25
ENDBRANCH  23  24
ENDBRANCH  22  23
ENDBRANCH   1  22
TORSDOF 17
ENDMDL
MODEL 3
REMARK VINA RESULT:      -9.6      4.897      9.815
REMARK SMILES Cc1cc(C(=O)NC[C@@H]2CC[C@H](C(=O)OCCOCCOC(=O)c3ccc(-c4c5nc(c(-c6ccccc6)c6ccc([nH]6)c(-c6ccccc6)c6nc(c(-c7ccccc7)c7ccc4[nH]7)C=C6)C=C5)cc3)O2)on1
REMARK SMILES IDX 17 1 16 2 15 3 13 4 14 5 12 6 9 7 10 8 72 9 11 10 8 11 7 12
REMARK SMILES IDX 5 13 6 14 4 16 1 17 2 18 3 19 74 20 73 21 18 22 19 23 20 24
REMARK SMILES IDX 21 25 22 26 23 27 24 28 25 29 71 30 26 31 70 32 27 33 28 34
REMARK SMILES IDX 29 35 64 36 30 37 69 38 63 39 65 40 31 41 68 42 62 43 61 44
REMARK SMILES IDX 32 46 54 47 39 48 53 49 40 50 43 51 52 52 66 53 41 54 42 55
REMARK SMILES IDX 51 57 67 58 44 59 33 60 34 61 38 62 35 63 37 64 36 65 55 66
REMARK SMILES IDX 56 67 60 68 57 69 59 70 58 71 45 72 46 73 50 74 47 75 49 76
REMARK SMILES IDX 48 77
REMARK H PARENT 7 15 65 45 43 56
REMARK Flexibility Score: inf
ROOT
ATOM      1  C   UNL A   1      32.004  28.979  27.241  1.00  0.00     0.202 C 
ENDROOT
BRANCH   1   2
ATOM      2  C   UNL A   1      32.592  28.042  26.184  1.00  0.00     0.261 C 
BRANCH   2   3
ATOM      3  O   UNL A   1      32.361  26.664  26.528  1.00  0.00    -0.461 OA
BRANCH   3   4
ATOM      4  C   UNL A   1      31.433  26.013  25.771  1.00  0.00     0.335 C 
ATOM      5  O   UNL A   1      30.265  26.364  25.649  1.00  0.00    -0.249 OA
BRANCH   4   6
ATOM      6  C   UNL A   1      32.000  24.749  25.104  1.00  0.00     0.228 C 
ATOM      7  C   UNL A   1      31.773  24.850  22.784  1.00  0.00     0.138 C 
ATOM      8  C   UNL A   1      30.601  24.037  23.315  1.00  0.00     0.037 C 
ATOM      9  O   UNL A   1      32.668  25.091  23.886  1.00  0.00    -0.361 OA
ATOM     10  C   UNL A   1      31.021  23.657  24.714  1.00  0.00     0.047 C 
BRANCH   7  11
ATOM     11  C   UNL A   1      31.326  26.198  22.198  1.00  0.00     0.148 C 
BRANCH  11  12
ATOM     12  N   UNL A   1      32.297  27.239  22.475  1.00  0.00    -0.347 N 
ATOM     13  C   UNL A   1      32.148  28.578  22.734  1.00  0.00     0.289 C 
ATOM     14  O   UNL A   1      33.188  29.198  22.968  1.00  0.00    -0.266 OA
ATOM     15  H   UNL A   1      33.230  26.928  22.478  1.00  0.00     0.164 HD
BRANCH  13  16
ATOM     16  C   UNL A   1      30.845  29.204  22.740  1.00  0.00     0.224 A 
ATOM     17  C   UNL A   1      27.676  30.904  23.466  1.00  0.00     0.070 C 
ATOM     18  C   UNL A   1      28.879  30.207  22.959  1.00  0.00     0.081 A 
ATOM     19  C   UNL A   1      30.000  29.747  23.684  1.00  0.00     0.083 A 
ATOM     20  N   UNL A   1      29.003  29.936  21.658  1.00  0.00    -0.084 NA
ATOM     21  O   UNL A   1      30.222  29.300  21.524  1.00  0.00    -0.351 OA
ENDBRANCH  13  16
ENDBRANCH  11  12
ENDBRANCH   7  11
ENDBRANCH   4   6
ENDBRANCH   3   4
ENDBRANCH   2   3
ENDBRANCH   1   2
BRANCH   1  22
ATOM     22  O   UNL A   1      31.820  30.337  26.846  1.00  0.00    -0.374 OA
BRANCH  22  23
ATOM     23  C   UNL A   1      32.812  31.286  27.235  1.00  0.00     0.202 C 
BRANCH  23  24
ATOM     24  C   UNL A   1      32.383  32.758  27.265  1.00  0.00     0.261 C 
BRANCH  24  25
ATOM     25  O   UNL A   1      33.487  33.657  27.485  1.00  0.00    -0.460 OA
BRANCH  25  26
ATOM     26  C   UNL A   1      33.525  34.212  28.721  1.00  0.00     0.338 C 
ATOM     27  O   UNL A   1      32.690  34.950  29.229  1.00  0.00    -0.246 OA
BRANCH  26  28
ATOM     28  C   UNL A   1      34.663  33.680  29.490  1.00  0.00     0.060 A 
ATOM     29  C   UNL A   1      35.952  34.069  29.098  1.00  0.00     0.016 A 
ATOM     30  C   UNL A   1      34.483  32.736  30.502  1.00  0.00     0.016 A 
ATOM     31  C   UNL A   1      37.070  33.478  29.685  1.00  0.00     0.010 A 
ATOM     32  C   UNL A   1      35.607  32.136  31.080  1.00  0.00     0.010 A 
ATOM     33  C   UNL A   1      36.902  32.477  30.649  1.00  0.00    -0.014 A 
BRANCH  33  34
ATOM     34  C   UNL A   1      38.064  31.667  31.088  1.00  0.00     0.031 A 
ATOM     35  C   UNL A   1      38.765  32.039  32.366  1.00  0.00     0.074 A 
ATOM     36  C   UNL A   1      38.492  30.616  30.366  1.00  0.00     0.049 A 
ATOM     37  N   UNL A   1      39.858  31.543  32.887  1.00  0.00    -0.248 NA
ATOM     38  C   UNL A   1      38.152  33.116  33.160  1.00  0.00     0.031 C 
ATOM     39  C   UNL A   1      37.863  30.111  29.147  1.00  0.00     0.029 A 
ATOM     40  N   UNL A   1      39.573  29.792  30.557  1.00  0.00    -0.354 N 
ATOM     41  C   UNL A   1      40.073  32.257  34.059  1.00  0.00     0.074 A 
ATOM     42  C   UNL A   1      39.008  33.230  34.165  1.00  0.00     0.031 C 
ATOM     43  C   UNL A   1      38.581  29.071  28.688  1.00  0.00     0.029 A 
ATOM     44  C   UNL A   1      39.738  28.865  29.557  1.00  0.00     0.049 A 
ATOM     45  H   UNL A   1      40.172  29.858  31.336  1.00  0.00     0.167 HD
ATOM     46  C   UNL A   1      41.068  32.115  34.966  1.00  0.00     0.031 A 
ATOM     47  C   UNL A   1      40.728  27.974  29.351  1.00  0.00     0.031 A 
ATOM     48  C   UNL A   1      42.131  31.153  34.860  1.00  0.00     0.049 A 
ATOM     49  C   UNL A   1      41.872  27.895  30.326  1.00  0.00     0.074 A 
ATOM     50  C   UNL A   1      43.181  30.930  35.733  1.00  0.00     0.029 A 
ATOM     51  N   UNL A   1      42.280  30.257  33.815  1.00  0.00    -0.354 N 
ATOM     52  N   UNL A   1      42.064  28.574  31.432  1.00  0.00    -0.248 NA
ATOM     53  C   UNL A   1      42.935  26.925  30.026  1.00  0.00     0.031 C 
ATOM     54  C   UNL A   1      43.995  29.931  35.189  1.00  0.00     0.029 A 
ATOM     55  C   UNL A   1      43.419  29.496  34.006  1.00  0.00     0.049 A 
ATOM     56  H   UNL A   1      41.666  30.174  33.049  1.00  0.00     0.167 HD
ATOM     57  C   UNL A   1      43.249  28.091  31.972  1.00  0.00     0.074 A 
ATOM     58  C   UNL A   1      43.732  27.060  31.078  1.00  0.00     0.031 C 
ATOM     59  C   UNL A   1      43.879  28.465  33.113  1.00  0.00     0.031 A 
BRANCH  46  60
ATOM     60  C   UNL A   1      41.073  33.057  36.137  1.00  0.00    -0.014 A 
ATOM     61  C   UNL A   1      41.754  34.282  36.086  1.00  0.00     0.009 A 
ATOM     62  C   UNL A   1      40.355  32.724  37.296  1.00  0.00     0.009 A 
ATOM     63  C   UNL A   1      41.742  35.142  37.186  1.00  0.00     0.001 A 
ATOM     64  C   UNL A   1      40.323  33.597  38.385  1.00  0.00     0.001 A 
ATOM     65  C   UNL A   1      41.024  34.800  38.332  1.00  0.00     0.000 A 
ENDBRANCH  46  60
BRANCH  47  66
ATOM     66  C   UNL A   1      40.703  27.102  28.147  1.00  0.00    -0.014 A 
ATOM     67  C   UNL A   1      40.059  25.856  28.180  1.00  0.00     0.009 A 
ATOM     68  C   UNL A   1      41.341  27.507  26.965  1.00  0.00     0.009 A 
ATOM     69  C   UNL A   1      40.074  25.023  27.058  1.00  0.00     0.001 A 
ATOM     70  C   UNL A   1      41.330  26.684  25.836  1.00  0.00     0.001 A 
ATOM     71  C   UNL A   1      40.705  25.440  25.887  1.00  0.00     0.000 A 
ENDBRANCH  47  66
BRANCH  59  72
ATOM     72  C   UNL A   1      45.132  27.728  33.490  1.00  0.00    -0.014 A 
ATOM     73  C   UNL A   1      45.086  26.545  34.241  1.00  0.00     0.009 A 
ATOM     74  C   UNL A   1      46.373  28.191  33.022  1.00  0.00     0.009 A 
ATOM     75  C   UNL A   1      46.262  25.851  34.536  1.00  0.00     0.001 A 
ATOM     76  C   UNL A   1      47.543  27.483  33.297  1.00  0.00     0.001 A 
ATOM     77  C   UNL A   1      47.487  26.316  34.057  1.00  0.00     0.000 A 
ENDBRANCH  59  72
ENDBRANCH  33  34
ENDBRANCH  26  28
ENDBRANCH  25  26
ENDBRANCH  24  25
ENDBRANCH  23  24
ENDBRANCH  22  23
ENDBRANCH   1  22
TORSDOF 17
ENDMDL
