MODEL 1
REMARK VINA RESULT:     -11.1      0.000      0.000
REMARK SMILES O=C(OCCOCCOC(=O)c1cc(F)ccc1N1CCCc2ccccc21)c1ccc(-c2c3nc(c(-c4ccccc4)c4ccc([nH]4)c(-c4ccccc4)c4nc(c(-c5ccccc5)c5ccc2[nH]5)C=C4)C=C3)cc1
REMARK SMILES IDX 5 1 4 2 3 3 2 4 1 5 29 6 30 7 76 8 31 9 75 10 32 11 33 12
REMARK SMILES IDX 34 13 69 14 35 15 74 16 68 17 70 18 36 19 73 20 67 21 66 22
REMARK SMILES IDX 37 24 59 25 44 26 58 27 45 28 48 29 57 30 71 31 46 32 47 33
REMARK SMILES IDX 56 35 72 36 49 37 38 38 39 39 43 40 40 41 42 42 41 43 60 44
REMARK SMILES IDX 61 45 65 46 62 47 64 48 63 49 50 50 51 51 55 52 52 53 54 54
REMARK SMILES IDX 53 55 6 56 7 57 8 58 9 59 10 60 11 61 12 62 13 63 18 64
REMARK SMILES IDX 14 65 17 66 15 67 16 68 19 69 20 70 28 71 21 72 23 73 27 74
REMARK SMILES IDX 22 75 24 76 26 77 25 78
REMARK H PARENT 70 23 48 34
REMARK Flexibility Score: inf
ROOT
ATOM      1  C   UNL A   1      37.916  19.715  24.942  1.00  0.00     0.202 C 
ENDROOT
BRANCH   1   2
ATOM      2  C   UNL A   1      39.201  20.071  25.717  1.00  0.00     0.261 C 
BRANCH   2   3
ATOM      3  O   UNL A   1      40.256  19.095  25.634  1.00  0.00    -0.460 OA
BRANCH   3   4
ATOM      4  C   UNL A   1      41.538  19.392  25.983  1.00  0.00     0.338 C 
ATOM      5  O   UNL A   1      42.433  18.562  25.906  1.00  0.00    -0.246 OA
BRANCH   4   6
ATOM      6  C   UNL A   1      41.809  20.748  26.525  1.00  0.00     0.060 A 
ATOM      7  C   UNL A   1      41.897  21.829  25.667  1.00  0.00     0.016 A 
ATOM      8  C   UNL A   1      41.918  20.994  27.889  1.00  0.00     0.016 A 
ATOM      9  C   UNL A   1      42.357  23.059  26.053  1.00  0.00     0.010 A 
ATOM     10  C   UNL A   1      42.136  22.307  28.328  1.00  0.00     0.010 A 
ATOM     11  C   UNL A   1      42.383  23.340  27.402  1.00  0.00    -0.014 A 
BRANCH  11  12
ATOM     12  C   UNL A   1      42.688  24.727  27.790  1.00  0.00     0.031 A 
ATOM     13  C   UNL A   1      44.121  25.128  27.882  1.00  0.00     0.074 A 
ATOM     14  C   UNL A   1      41.687  25.615  27.960  1.00  0.00     0.049 A 
ATOM     15  N   UNL A   1      44.640  26.217  28.374  1.00  0.00    -0.248 NA
ATOM     16  C   UNL A   1      45.108  24.162  27.366  1.00  0.00     0.031 C 
ATOM     17  C   UNL A   1      40.255  25.354  27.742  1.00  0.00     0.029 A 
ATOM     18  N   UNL A   1      41.717  26.934  28.324  1.00  0.00    -0.354 N 
ATOM     19  C   UNL A   1      46.013  26.033  28.302  1.00  0.00     0.074 A 
ATOM     20  C   UNL A   1      46.248  24.732  27.720  1.00  0.00     0.031 C 
ATOM     21  C   UNL A   1      39.560  26.486  27.925  1.00  0.00     0.029 A 
ATOM     22  C   UNL A   1      40.472  27.515  28.392  1.00  0.00     0.049 A 
ATOM     23  H   UNL A   1      42.550  27.421  28.517  1.00  0.00     0.167 HD
ATOM     24  C   UNL A   1      46.983  26.881  28.711  1.00  0.00     0.031 A 
ATOM     25  C   UNL A   1      40.110  28.728  28.842  1.00  0.00     0.031 A 
ATOM     26  C   UNL A   1      46.698  28.172  29.272  1.00  0.00     0.049 A 
ATOM     27  C   UNL A   1      41.200  29.614  29.373  1.00  0.00     0.074 A 
ATOM     28  C   UNL A   1      47.576  29.113  29.771  1.00  0.00     0.029 A 
ATOM     29  N   UNL A   1      45.419  28.703  29.393  1.00  0.00    -0.354 N 
ATOM     30  N   UNL A   1      42.495  29.403  29.400  1.00  0.00    -0.248 NA
ATOM     31  C   UNL A   1      40.781  30.895  29.950  1.00  0.00     0.031 C 
ATOM     32  C   UNL A   1      46.822  30.192  30.245  1.00  0.00     0.029 A 
ATOM     33  C   UNL A   1      45.481  29.956  29.973  1.00  0.00     0.049 A 
ATOM     34  H   UNL A   1      44.592  28.253  29.107  1.00  0.00     0.167 HD
ATOM     35  C   UNL A   1      43.053  30.538  29.964  1.00  0.00     0.074 A 
ATOM     36  C   UNL A   1      41.952  31.439  30.251  1.00  0.00     0.031 C 
ATOM     37  C   UNL A   1      44.354  30.818  30.226  1.00  0.00     0.031 A 
BRANCH  24  38
ATOM     38  C   UNL A   1      48.393  26.371  28.653  1.00  0.00    -0.014 A 
ATOM     39  C   UNL A   1      48.993  25.712  29.738  1.00  0.00     0.009 A 
ATOM     40  C   UNL A   1      49.160  26.623  27.504  1.00  0.00     0.009 A 
ATOM     41  C   UNL A   1      50.347  25.367  29.694  1.00  0.00     0.001 A 
ATOM     42  C   UNL A   1      50.502  26.246  27.450  1.00  0.00     0.001 A 
ATOM     43  C   UNL A   1      51.098  25.632  28.549  1.00  0.00     0.000 A 
ENDBRANCH  24  38
BRANCH  25  44
ATOM     44  C   UNL A   1      38.680  29.143  28.876  1.00  0.00    -0.014 A 
ATOM     45  C   UNL A   1      38.084  29.746  27.757  1.00  0.00     0.009 A 
ATOM     46  C   UNL A   1      37.903  28.961  30.032  1.00  0.00     0.009 A 
ATOM     47  C   UNL A   1      36.758  30.190  27.810  1.00  0.00     0.001 A 
ATOM     48  C   UNL A   1      36.568  29.374  30.071  1.00  0.00     0.001 A 
ATOM     49  C   UNL A   1      36.001  30.000  28.964  1.00  0.00     0.000 A 
ENDBRANCH  25  44
BRANCH  37  50
ATOM     50  C   UNL A   1      44.646  32.180  30.782  1.00  0.00    -0.014 A 
ATOM     51  C   UNL A   1      44.864  33.285  29.947  1.00  0.00     0.009 A 
ATOM     52  C   UNL A   1      44.662  32.356  32.175  1.00  0.00     0.009 A 
ATOM     53  C   UNL A   1      45.133  34.537  30.499  1.00  0.00     0.001 A 
ATOM     54  C   UNL A   1      44.894  33.616  32.722  1.00  0.00     0.001 A 
ATOM     55  C   UNL A   1      45.140  34.702  31.885  1.00  0.00     0.000 A 
ENDBRANCH  37  50
ENDBRANCH  11  12
ENDBRANCH   4   6
ENDBRANCH   3   4
ENDBRANCH   2   3
ENDBRANCH   1   2
BRANCH   1  56
ATOM     56  O   UNL A   1      36.925  20.708  24.736  1.00  0.00    -0.374 OA
BRANCH  56  57
ATOM     57  C   UNL A   1      37.371  22.039  24.588  1.00  0.00     0.202 C 
BRANCH  57  58
ATOM     58  C   UNL A   1      36.629  22.709  23.442  1.00  0.00     0.261 C 
BRANCH  58  59
ATOM     59  O   UNL A   1      35.212  22.504  23.588  1.00  0.00    -0.460 OA
BRANCH  59  60
ATOM     60  C   UNL A   1      34.399  23.608  23.624  1.00  0.00     0.340 C 
ATOM     61  O   UNL A   1      34.350  24.513  22.825  1.00  0.00    -0.246 OA
BRANCH  60  62
ATOM     62  C   UNL A   1      33.586  23.478  24.864  1.00  0.00     0.086 A 
ATOM     63  C   UNL A   1      33.883  22.317  25.608  1.00  0.00     0.057 A 
ATOM     64  C   UNL A   1      32.595  24.388  25.318  1.00  0.00     0.056 A 
ATOM     65  C   UNL A   1      33.215  22.053  26.787  1.00  0.00     0.124 A 
ATOM     66  C   UNL A   1      31.967  24.090  26.550  1.00  0.00     0.030 A 
ATOM     67  F   UNL A   1      33.495  20.931  27.462  1.00  0.00    -0.207 F 
ATOM     68  C   UNL A   1      32.268  22.934  27.273  1.00  0.00     0.041 A 
BRANCH  64  69
ATOM     69  N   UNL A   1      32.126  25.551  24.638  1.00  0.00    -0.341 N 
ATOM     70  C   UNL A   1      30.826  25.357  23.951  1.00  0.00     0.123 C 
ATOM     71  C   UNL A   1      32.444  26.889  25.008  1.00  0.00     0.044 A 
ATOM     72  C   UNL A   1      29.768  26.397  24.280  1.00  0.00     0.027 C 
ATOM     73  C   UNL A   1      31.594  27.978  24.699  1.00  0.00    -0.024 A 
ATOM     74  C   UNL A   1      33.605  27.171  25.746  1.00  0.00     0.026 A 
ATOM     75  C   UNL A   1      30.318  27.768  23.935  1.00  0.00     0.039 C 
ATOM     76  C   UNL A   1      31.907  29.283  25.119  1.00  0.00     0.006 A 
ATOM     77  C   UNL A   1      33.896  28.468  26.187  1.00  0.00     0.002 A 
ATOM     78  C   UNL A   1      33.047  29.523  25.876  1.00  0.00     0.000 A 
ENDBRANCH  64  69
ENDBRANCH  60  62
ENDBRANCH  59  60
ENDBRANCH  58  59
ENDBRANCH  57  58
ENDBRANCH  56  57
ENDBRANCH   1  56
TORSDOF 15
ENDMDL
MODEL 2
REMARK VINA RESULT:     -11.0      3.590      8.159
REMARK SMILES O=C(OCCOCCOC(=O)c1cc(F)ccc1N1CCCc2ccccc21)c1ccc(-c2c3nc(c(-c4ccccc4)c4ccc([nH]4)c(-c4ccccc4)c4nc(c(-c5ccccc5)c5ccc2[nH]5)C=C4)C=C3)cc1
REMARK SMILES IDX 5 1 4 2 3 3 2 4 1 5 29 6 30 7 76 8 31 9 75 10 32 11 33 12
REMARK SMILES IDX 34 13 69 14 35 15 74 16 68 17 70 18 36 19 73 20 67 21 66 22
REMARK SMILES IDX 37 24 59 25 44 26 58 27 45 28 48 29 57 30 71 31 46 32 47 33
REMARK SMILES IDX 56 35 72 36 49 37 38 38 39 39 43 40 40 41 42 42 41 43 60 44
REMARK SMILES IDX 61 45 65 46 62 47 64 48 63 49 50 50 51 51 55 52 52 53 54 54
REMARK SMILES IDX 53 55 6 56 7 57 8 58 9 59 10 60 11 61 12 62 13 63 18 64
REMARK SMILES IDX 14 65 17 66 15 67 16 68 19 69 20 70 28 71 21 72 23 73 27 74
REMARK SMILES IDX 22 75 24 76 26 77 25 78
REMARK H PARENT 70 23 48 34
REMARK Flexibility Score: inf
ROOT
ATOM      1  C   UNL A   1      34.023  32.678  28.157  1.00  0.00     0.202 C 
ENDROOT
BRANCH   1   2
ATOM      2  C   UNL A   1      34.190  33.307  29.555  1.00  0.00     0.261 C 
BRANCH   2   3
ATOM      3  O   UNL A   1      34.432  32.372  30.622  1.00  0.00    -0.460 OA
BRANCH   3   4
ATOM      4  C   UNL A   1      35.500  32.497  31.459  1.00  0.00     0.338 C 
ATOM      5  O   UNL A   1      35.434  33.151  32.491  1.00  0.00    -0.246 OA
BRANCH   4   6
ATOM      6  C   UNL A   1      36.777  31.862  31.047  1.00  0.00     0.060 A 
ATOM      7  C   UNL A   1      37.341  32.177  29.824  1.00  0.00     0.016 A 
ATOM      8  C   UNL A   1      37.477  30.996  31.878  1.00  0.00     0.016 A 
ATOM      9  C   UNL A   1      38.386  31.482  29.278  1.00  0.00     0.010 A 
ATOM     10  C   UNL A   1      38.696  30.465  31.436  1.00  0.00     0.010 A 
ATOM     11  C   UNL A   1      39.139  30.690  30.117  1.00  0.00    -0.014 A 
BRANCH  11  12
ATOM     12  C   UNL A   1      40.372  30.109  29.561  1.00  0.00     0.031 A 
ATOM     13  C   UNL A   1      41.593  30.963  29.523  1.00  0.00     0.074 A 
ATOM     14  C   UNL A   1      40.398  28.811  29.191  1.00  0.00     0.049 A 
ATOM     15  N   UNL A   1      42.729  30.748  28.923  1.00  0.00    -0.248 NA
ATOM     16  C   UNL A   1      41.518  32.246  30.244  1.00  0.00     0.031 C 
ATOM     17  C   UNL A   1      39.293  27.850  29.334  1.00  0.00     0.029 A 
ATOM     18  N   UNL A   1      41.405  28.059  28.648  1.00  0.00    -0.354 N 
ATOM     19  C   UNL A   1      43.473  31.901  29.125  1.00  0.00     0.074 A 
ATOM     20  C   UNL A   1      42.664  32.812  29.902  1.00  0.00     0.031 C 
ATOM     21  C   UNL A   1      39.701  26.635  28.940  1.00  0.00     0.029 A 
ATOM     22  C   UNL A   1      41.045  26.754  28.403  1.00  0.00     0.049 A 
ATOM     23  H   UNL A   1      42.300  28.418  28.452  1.00  0.00     0.167 HD
ATOM     24  C   UNL A   1      44.719  32.169  28.676  1.00  0.00     0.031 A 
ATOM     25  C   UNL A   1      41.714  25.782  27.760  1.00  0.00     0.031 A 
ATOM     26  C   UNL A   1      45.490  31.224  27.918  1.00  0.00     0.049 A 
ATOM     27  C   UNL A   1      43.059  26.136  27.194  1.00  0.00     0.074 A 
ATOM     28  C   UNL A   1      46.744  31.377  27.359  1.00  0.00     0.029 A 
ATOM     29  N   UNL A   1      45.069  29.931  27.626  1.00  0.00    -0.354 N 
ATOM     30  N   UNL A   1      43.727  27.261  27.297  1.00  0.00    -0.248 NA
ATOM     31  C   UNL A   1      43.736  25.097  26.411  1.00  0.00     0.031 C 
ATOM     32  C   UNL A   1      47.057  30.193  26.682  1.00  0.00     0.029 A 
ATOM     33  C   UNL A   1      46.031  29.278  26.881  1.00  0.00     0.049 A 
ATOM     34  H   UNL A   1      44.211  29.540  27.909  1.00  0.00     0.167 HD
ATOM     35  C   UNL A   1      44.920  27.057  26.622  1.00  0.00     0.074 A 
ATOM     36  C   UNL A   1      44.885  25.693  26.127  1.00  0.00     0.031 C 
ATOM     37  C   UNL A   1      45.953  27.913  26.424  1.00  0.00     0.031 A 
BRANCH  24  38
ATOM     38  C   UNL A   1      45.238  33.557  28.913  1.00  0.00    -0.014 A 
ATOM     39  C   UNL A   1      45.008  34.604  28.006  1.00  0.00     0.009 A 
ATOM     40  C   UNL A   1      46.036  33.801  30.042  1.00  0.00     0.009 A 
ATOM     41  C   UNL A   1      45.615  35.849  28.196  1.00  0.00     0.001 A 
ATOM     42  C   UNL A   1      46.612  35.055  30.247  1.00  0.00     0.001 A 
ATOM     43  C   UNL A   1      46.414  36.072  29.317  1.00  0.00     0.000 A 
ENDBRANCH  24  38
BRANCH  25  44
ATOM     44  C   UNL A   1      41.112  24.434  27.559  1.00  0.00    -0.014 A 
ATOM     45  C   UNL A   1      41.626  23.314  28.229  1.00  0.00     0.009 A 
ATOM     46  C   UNL A   1      40.033  24.251  26.678  1.00  0.00     0.009 A 
ATOM     47  C   UNL A   1      41.098  22.039  27.995  1.00  0.00     0.001 A 
ATOM     48  C   UNL A   1      39.484  22.983  26.471  1.00  0.00     0.001 A 
ATOM     49  C   UNL A   1      40.027  21.876  27.119  1.00  0.00     0.000 A 
ENDBRANCH  25  44
BRANCH  37  50
ATOM     50  C   UNL A   1      47.148  27.363  25.704  1.00  0.00    -0.014 A 
ATOM     51  C   UNL A   1      48.195  26.732  26.392  1.00  0.00     0.009 A 
ATOM     52  C   UNL A   1      47.198  27.450  24.304  1.00  0.00     0.009 A 
ATOM     53  C   UNL A   1      49.292  26.232  25.690  1.00  0.00     0.001 A 
ATOM     54  C   UNL A   1      48.278  26.914  23.604  1.00  0.00     0.001 A 
ATOM     55  C   UNL A   1      49.328  26.317  24.298  1.00  0.00     0.000 A 
ENDBRANCH  37  50
ENDBRANCH  11  12
ENDBRANCH   4   6
ENDBRANCH   3   4
ENDBRANCH   2   3
ENDBRANCH   1   2
BRANCH   1  56
ATOM     56  O   UNL A   1      34.994  31.762  27.682  1.00  0.00    -0.374 OA
BRANCH  56  57
ATOM     57  C   UNL A   1      34.540  30.474  27.320  1.00  0.00     0.202 C 
BRANCH  57  58
ATOM     58  C   UNL A   1      33.022  30.461  27.251  1.00  0.00     0.261 C 
BRANCH  58  59
ATOM     59  O   UNL A   1      32.586  29.615  26.171  1.00  0.00    -0.460 OA
BRANCH  59  60
ATOM     60  C   UNL A   1      31.775  28.551  26.470  1.00  0.00     0.340 C 
ATOM     61  O   UNL A   1      31.405  28.191  27.562  1.00  0.00    -0.246 OA
BRANCH  60  62
ATOM     62  C   UNL A   1      31.446  27.907  25.169  1.00  0.00     0.086 A 
ATOM     63  C   UNL A   1      31.053  28.827  24.175  1.00  0.00     0.057 A 
ATOM     64  C   UNL A   1      31.497  26.517  24.882  1.00  0.00     0.056 A 
ATOM     65  C   UNL A   1      30.717  28.387  22.910  1.00  0.00     0.124 A 
ATOM     66  C   UNL A   1      31.179  26.123  23.561  1.00  0.00     0.030 A 
ATOM     67  F   UNL A   1      30.322  29.275  21.990  1.00  0.00    -0.207 F 
ATOM     68  C   UNL A   1      30.788  27.044  22.589  1.00  0.00     0.041 A 
BRANCH  64  69
ATOM     69  N   UNL A   1      31.788  25.464  25.800  1.00  0.00    -0.341 N 
ATOM     70  C   UNL A   1      30.592  24.705  26.238  1.00  0.00     0.123 C 
ATOM     71  C   UNL A   1      33.029  24.770  25.868  1.00  0.00     0.044 A 
ATOM     72  C   UNL A   1      30.702  23.197  26.088  1.00  0.00     0.027 C 
ATOM     73  C   UNL A   1      33.126  23.447  26.364  1.00  0.00    -0.024 A 
ATOM     74  C   UNL A   1      34.209  25.362  25.389  1.00  0.00     0.026 A 
ATOM     75  C   UNL A   1      31.912  22.723  26.872  1.00  0.00     0.039 C 
ATOM     76  C   UNL A   1      34.355  22.764  26.373  1.00  0.00     0.006 A 
ATOM     77  C   UNL A   1      35.424  24.667  25.374  1.00  0.00     0.002 A 
ATOM     78  C   UNL A   1      35.497  23.368  25.863  1.00  0.00     0.000 A 
ENDBRANCH  64  69
ENDBRANCH  60  62
ENDBRANCH  59  60
ENDBRANCH  58  59
ENDBRANCH  57  58
ENDBRANCH  56  57
ENDBRANCH   1  56
TORSDOF 15
ENDMDL
MODEL 3
REMARK VINA RESULT:     -10.9      4.301      9.367
REMARK SMILES O=C(OCCOCCOC(=O)c1cc(F)ccc1N1CCCc2ccccc21)c1ccc(-c2c3nc(c(-c4ccccc4)c4ccc([nH]4)c(-c4ccccc4)c4nc(c(-c5ccccc5)c5ccc2[nH]5)C=C4)C=C3)cc1
REMARK SMILES IDX 5 1 4 2 3 3 2 4 1 5 29 6 30 7 76 8 31 9 75 10 32 11 33 12
REMARK SMILES IDX 34 13 69 14 35 15 74 16 68 17 70 18 36 19 73 20 67 21 66 22
REMARK SMILES IDX 37 24 59 25 44 26 58 27 45 28 48 29 57 30 71 31 46 32 47 33
REMARK SMILES IDX 56 35 72 36 49 37 38 38 39 39 43 40 40 41 42 42 41 43 60 44
REMARK SMILES IDX 61 45 65 46 62 47 64 48 63 49 50 50 51 51 55 52 52 53 54 54
REMARK SMILES IDX 53 55 6 56 7 57 8 58 9 59 10 60 11 61 12 62 13 63 18 64
REMARK SMILES IDX 14 65 17 66 15 67 16 68 19 69 20 70 28 71 21 72 23 73 27 74
REMARK SMILES IDX 22 75 24 76 26 77 25 78
REMARK H PARENT 70 23 48 34
REMARK Flexibility Score: inf
ROOT
ATOM      1  C   UNL A   1      31.345  32.243  26.536  1.00  0.00     0.202 C 
ENDROOT
BRANCH   1   2
ATOM      2  C   UNL A   1      32.536  32.943  27.220  1.00  0.00     0.261 C 
BRANCH   2   3
ATOM      3  O   UNL A   1      32.206  34.136  27.955  1.00  0.00    -0.460 OA
BRANCH   3   4
ATOM      4  C   UNL A   1      33.157  34.876  28.589  1.00  0.00     0.338 C 
ATOM      5  O   UNL A   1      33.038  36.085  28.735  1.00  0.00    -0.246 OA
BRANCH   4   6
ATOM      6  C   UNL A   1      34.384  34.176  29.047  1.00  0.00     0.060 A 
ATOM      7  C   UNL A   1      34.284  33.105  29.916  1.00  0.00     0.016 A 
ATOM      8  C   UNL A   1      35.649  34.516  28.581  1.00  0.00     0.016 A 
ATOM      9  C   UNL A   1      35.363  32.552  30.553  1.00  0.00     0.010 A 
ATOM     10  C   UNL A   1      36.758  33.784  29.029  1.00  0.00     0.010 A 
ATOM     11  C   UNL A   1      36.615  32.814  30.041  1.00  0.00    -0.014 A 
BRANCH  11  12
ATOM     12  C   UNL A   1      37.742  32.057  30.609  1.00  0.00     0.031 A 
ATOM     13  C   UNL A   1      38.318  32.525  31.902  1.00  0.00     0.074 A 
ATOM     14  C   UNL A   1      38.161  30.922  30.010  1.00  0.00     0.049 A 
ATOM     15  N   UNL A   1      39.412  32.146  32.500  1.00  0.00    -0.248 NA
ATOM     16  C   UNL A   1      37.570  33.579  32.610  1.00  0.00     0.031 C 
ATOM     17  C   UNL A   1      37.558  30.299  28.822  1.00  0.00     0.029 A 
ATOM     18  N   UNL A   1      39.177  30.066  30.337  1.00  0.00    -0.354 N 
ATOM     19  C   UNL A   1      39.525  32.969  33.610  1.00  0.00     0.074 A 
ATOM     20  C   UNL A   1      38.393  33.867  33.605  1.00  0.00     0.031 C 
ATOM     21  C   UNL A   1      38.182  29.142  28.557  1.00  0.00     0.029 A 
ATOM     22  C   UNL A   1      39.300  29.002  29.472  1.00  0.00     0.049 A 
ATOM     23  H   UNL A   1      39.764  30.197  31.117  1.00  0.00     0.167 HD
ATOM     24  C   UNL A   1      40.510  32.977  34.535  1.00  0.00     0.031 A 
ATOM     25  C   UNL A   1      40.252  28.057  29.398  1.00  0.00     0.031 A 
ATOM     26  C   UNL A   1      41.609  32.054  34.506  1.00  0.00     0.049 A 
ATOM     27  C   UNL A   1      41.380  28.143  30.385  1.00  0.00     0.074 A 
ATOM     28  C   UNL A   1      42.700  31.976  35.348  1.00  0.00     0.029 A 
ATOM     29  N   UNL A   1      41.742  31.031  33.573  1.00  0.00    -0.354 N 
ATOM     30  N   UNL A   1      41.545  28.985  31.379  1.00  0.00    -0.248 NA
ATOM     31  C   UNL A   1      42.461  27.165  30.233  1.00  0.00     0.031 C 
ATOM     32  C   UNL A   1      43.521  30.939  34.891  1.00  0.00     0.029 A 
ATOM     33  C   UNL A   1      42.905  30.324  33.810  1.00  0.00     0.049 A 
ATOM     34  H   UNL A   1      41.100  30.839  32.851  1.00  0.00     0.167 HD
ATOM     35  C   UNL A   1      42.730  28.618  31.994  1.00  0.00     0.074 A 
ATOM     36  C   UNL A   1      43.234  27.468  31.266  1.00  0.00     0.031 C 
ATOM     37  C   UNL A   1      43.353  29.176  33.062  1.00  0.00     0.031 A 
BRANCH  24  38
ATOM     38  C   UNL A   1      40.467  34.075  35.558  1.00  0.00    -0.014 A 
ATOM     39  C   UNL A   1      39.813  33.920  36.791  1.00  0.00     0.009 A 
ATOM     40  C   UNL A   1      41.036  35.319  35.244  1.00  0.00     0.009 A 
ATOM     41  C   UNL A   1      39.682  35.005  37.663  1.00  0.00     0.001 A 
ATOM     42  C   UNL A   1      40.934  36.390  36.132  1.00  0.00     0.001 A 
ATOM     43  C   UNL A   1      40.244  36.237  37.332  1.00  0.00     0.000 A 
ENDBRANCH  24  38
BRANCH  25  44
ATOM     44  C   UNL A   1      40.219  27.012  28.337  1.00  0.00    -0.014 A 
ATOM     45  C   UNL A   1      39.551  25.796  28.551  1.00  0.00     0.009 A 
ATOM     46  C   UNL A   1      40.876  27.210  27.111  1.00  0.00     0.009 A 
ATOM     47  C   UNL A   1      39.572  24.792  27.577  1.00  0.00     0.001 A 
ATOM     48  C   UNL A   1      40.866  26.218  26.126  1.00  0.00     0.001 A 
ATOM     49  C   UNL A   1      40.225  25.005  26.365  1.00  0.00     0.000 A 
ENDBRANCH  25  44
BRANCH  37  50
ATOM     50  C   UNL A   1      44.602  28.495  33.538  1.00  0.00    -0.014 A 
ATOM     51  C   UNL A   1      44.559  27.445  34.467  1.00  0.00     0.009 A 
ATOM     52  C   UNL A   1      45.839  28.896  33.010  1.00  0.00     0.009 A 
ATOM     53  C   UNL A   1      45.741  26.835  34.888  1.00  0.00     0.001 A 
ATOM     54  C   UNL A   1      47.014  28.258  33.404  1.00  0.00     0.001 A 
ATOM     55  C   UNL A   1      46.964  27.236  34.350  1.00  0.00     0.000 A 
ENDBRANCH  37  50
ENDBRANCH  11  12
ENDBRANCH   4   6
ENDBRANCH   3   4
ENDBRANCH   2   3
ENDBRANCH   1   2
BRANCH   1  56
ATOM     56  O   UNL A   1      31.517  30.947  25.986  1.00  0.00    -0.374 OA
BRANCH  56  57
ATOM     57  C   UNL A   1      32.167  29.988  26.793  1.00  0.00     0.202 C 
BRANCH  57  58
ATOM     58  C   UNL A   1      33.263  29.298  25.996  1.00  0.00     0.261 C 
BRANCH  58  59
ATOM     59  O   UNL A   1      33.113  29.594  24.596  1.00  0.00    -0.460 OA
BRANCH  59  60
ATOM     60  C   UNL A   1      33.055  28.544  23.716  1.00  0.00     0.340 C 
ATOM     61  O   UNL A   1      33.973  28.031  23.121  1.00  0.00    -0.246 OA
BRANCH  60  62
ATOM     62  C   UNL A   1      31.619  28.164  23.624  1.00  0.00     0.086 A 
ATOM     63  C   UNL A   1      30.813  29.162  23.039  1.00  0.00     0.057 A 
ATOM     64  C   UNL A   1      31.045  26.940  24.061  1.00  0.00     0.056 A 
ATOM     65  C   UNL A   1      29.456  28.961  22.881  1.00  0.00     0.124 A 
ATOM     66  C   UNL A   1      29.657  26.769  23.842  1.00  0.00     0.030 A 
ATOM     67  F   UNL A   1      28.707  29.933  22.347  1.00  0.00    -0.207 F 
ATOM     68  C   UNL A   1      28.871  27.768  23.265  1.00  0.00     0.041 A 
BRANCH  64  69
ATOM     69  N   UNL A   1      31.709  25.879  24.744  1.00  0.00    -0.341 N 
ATOM     70  C   UNL A   1      31.258  25.696  26.145  1.00  0.00     0.123 C 
ATOM     71  C   UNL A   1      32.264  24.731  24.111  1.00  0.00     0.044 A 
ATOM     72  C   UNL A   1      30.851  24.277  26.505  1.00  0.00     0.027 C 
ATOM     73  C   UNL A   1      32.420  23.497  24.790  1.00  0.00    -0.024 A 
ATOM     74  C   UNL A   1      32.635  24.767  22.757  1.00  0.00     0.026 A 
ATOM     75  C   UNL A   1      32.025  23.356  26.232  1.00  0.00     0.039 C 
ATOM     76  C   UNL A   1      32.924  22.365  24.128  1.00  0.00     0.006 A 
ATOM     77  C   UNL A   1      33.110  23.629  22.096  1.00  0.00     0.002 A 
ATOM     78  C   UNL A   1      33.252  22.427  22.779  1.00  0.00     0.000 A 
ENDBRANCH  64  69
ENDBRANCH  60  62
ENDBRANCH  59  60
ENDBRANCH  58  59
ENDBRANCH  57  58
ENDBRANCH  56  57
ENDBRANCH   1  56
TORSDOF 15
ENDMDL
