MODEL 1
REMARK VINA RESULT:     -12.0      0.000      0.000
REMARK SMILES Cc1c(C(=O)Nc2ccc(C(=O)Nc3ccccc3C(=O)OCCOCCOC(=O)c3ccc(-c4c5nc(c(-c6ccccc6)c6ccc([nH]6)c(-c6ccccc6)c6nc(c(-c7ccccc7)c7ccc4[nH]7)C=C6)C=C5)cc3)cc2)cccc1[N+](=O)[O-]
REMARK SMILES IDX 23 1 22 2 20 3 21 4 19 5 14 6 15 7 16 8 18 9 17 10 13 11
REMARK SMILES IDX 11 12 12 13 10 15 7 16 8 17 80 18 9 19 79 20 6 21 4 22 5 23
REMARK SMILES IDX 3 25 1 26 2 27 84 28 81 29 83 30 82 31 85 32 86 33 87 34
REMARK SMILES IDX 24 35 25 36 26 37 27 38 28 39 29 40 30 41 31 42 32 43 78 44
REMARK SMILES IDX 33 45 77 46 34 47 35 48 36 49 71 50 37 51 76 52 70 53 72 54
REMARK SMILES IDX 38 55 75 56 69 57 68 58 39 60 61 61 46 62 60 63 47 64 50 65
REMARK SMILES IDX 59 66 73 67 48 68 49 69 58 71 74 72 51 73 40 74 41 75 45 76
REMARK SMILES IDX 42 77 44 78 43 79 62 80 63 81 67 82 64 83 66 84 65 85 52 86
REMARK SMILES IDX 53 87 57 88 54 89 56 90 55 91
REMARK H PARENT 13 14 6 24 72 59 50 70
REMARK Flexibility Score: inf
ROOT
ATOM      1  C   UNL A   1      32.869  34.237  28.010  1.00  0.00     0.261 C 
ENDROOT
BRANCH   1   2
ATOM      2  O   UNL A   1      33.262  32.850  28.064  1.00  0.00    -0.460 OA
BRANCH   2   3
ATOM      3  C   UNL A   1      34.478  32.395  27.633  1.00  0.00     0.340 C 
ATOM      4  O   UNL A   1      35.483  33.021  27.509  1.00  0.00    -0.246 OA
BRANCH   3   5
ATOM      5  C   UNL A   1      34.391  30.897  27.509  1.00  0.00     0.083 A 
ATOM      6  C   UNL A   1      33.220  30.271  27.022  1.00  0.00     0.056 A 
ATOM      7  C   UNL A   1      33.209  28.881  26.812  1.00  0.00     0.027 A 
ATOM      8  C   UNL A   1      34.368  28.127  26.986  1.00  0.00     0.002 A 
ATOM      9  C   UNL A   1      35.526  30.102  27.761  1.00  0.00     0.018 A 
ATOM     10  C   UNL A   1      35.522  28.734  27.469  1.00  0.00     0.001 A 
BRANCH   6  11
ATOM     11  N   UNL A   1      32.049  30.921  26.603  1.00  0.00    -0.321 N 
ATOM     12  C   UNL A   1      31.260  30.752  25.484  1.00  0.00     0.255 C 
ATOM     13  O   UNL A   1      30.295  31.510  25.344  1.00  0.00    -0.269 OA
ATOM     14  H   UNL A   1      31.734  31.622  27.218  1.00  0.00     0.170 HD
BRANCH  12  15
ATOM     15  C   UNL A   1      31.453  29.664  24.473  1.00  0.00     0.040 A 
ATOM     16  C   UNL A   1      32.079  27.521  22.737  1.00  0.00     0.041 A 
ATOM     17  C   UNL A   1      30.826  27.617  23.336  1.00  0.00     0.027 A 
ATOM     18  C   UNL A   1      33.019  28.518  22.982  1.00  0.00     0.027 A 
ATOM     19  C   UNL A   1      30.498  28.706  24.142  1.00  0.00     0.016 A 
ATOM     20  C   UNL A   1      32.698  29.591  23.824  1.00  0.00     0.016 A 
BRANCH  16  21
ATOM     21  N   UNL A   1      32.389  26.510  21.814  1.00  0.00    -0.322 N 
ATOM     22  C   UNL A   1      32.956  25.268  22.057  1.00  0.00     0.256 C 
ATOM     23  O   UNL A   1      33.342  24.572  21.122  1.00  0.00    -0.269 OA
ATOM     24  H   UNL A   1      32.178  26.708  20.873  1.00  0.00     0.170 HD
BRANCH  22  25
ATOM     25  C   UNL A   1      33.100  24.759  23.461  1.00  0.00     0.049 A 
ATOM     26  C   UNL A   1      30.772  23.731  23.586  1.00  0.00     0.053 C 
ATOM     27  C   UNL A   1      32.012  24.292  24.238  1.00  0.00     0.039 A 
ATOM     28  C   UNL A   1      32.153  24.384  25.639  1.00  0.00     0.273 A 
ATOM     29  C   UNL A   1      34.367  24.925  24.042  1.00  0.00     0.014 A 
ATOM     30  C   UNL A   1      33.417  24.588  26.222  1.00  0.00     0.086 A 
ATOM     31  C   UNL A   1      34.535  24.779  25.416  1.00  0.00     0.008 A 
BRANCH  28  32
ATOM     32  N   UNL A   1      30.981  24.516  26.531  1.00  0.00     0.063 N 
ATOM     33  O   UNL A   1      30.353  25.586  26.473  1.00  0.00    -0.258 OA
ATOM     34  O   UNL A   1      30.653  23.559  27.238  1.00  0.00    -0.258 OA
ENDBRANCH  28  32
ENDBRANCH  22  25
ENDBRANCH  16  21
ENDBRANCH  12  15
ENDBRANCH   6  11
ENDBRANCH   3   5
ENDBRANCH   2   3
ENDBRANCH   1   2
BRANCH   1  35
ATOM     35  C   UNL A   1      33.192  35.253  29.092  1.00  0.00     0.202 C 
BRANCH  35  36
ATOM     36  O   UNL A   1      32.606  35.092  30.361  1.00  0.00    -0.374 OA
BRANCH  36  37
ATOM     37  C   UNL A   1      32.538  36.187  31.258  1.00  0.00     0.202 C 
BRANCH  37  38
ATOM     38  C   UNL A   1      33.300  36.044  32.586  1.00  0.00     0.261 C 
BRANCH  38  39
ATOM     39  O   UNL A   1      34.694  35.721  32.402  1.00  0.00    -0.460 OA
BRANCH  39  40
ATOM     40  C   UNL A   1      35.223  34.835  33.292  1.00  0.00     0.338 C 
ATOM     41  O   UNL A   1      35.724  35.135  34.362  1.00  0.00    -0.246 OA
BRANCH  40  42
ATOM     42  C   UNL A   1      35.363  33.511  32.614  1.00  0.00     0.060 A 
ATOM     43  C   UNL A   1      35.677  32.402  33.406  1.00  0.00     0.016 A 
ATOM     44  C   UNL A   1      35.664  33.495  31.257  1.00  0.00     0.016 A 
ATOM     45  C   UNL A   1      36.641  31.500  32.943  1.00  0.00     0.010 A 
ATOM     46  C   UNL A   1      36.623  32.597  30.816  1.00  0.00     0.010 A 
ATOM     47  C   UNL A   1      37.277  31.751  31.730  1.00  0.00    -0.014 A 
BRANCH  47  48
ATOM     48  C   UNL A   1      38.705  31.413  31.468  1.00  0.00     0.031 A 
ATOM     49  C   UNL A   1      38.964  30.386  30.465  1.00  0.00     0.074 A 
ATOM     50  C   UNL A   1      39.827  32.021  31.921  1.00  0.00     0.049 A 
ATOM     51  N   UNL A   1      39.122  29.129  30.721  1.00  0.00    -0.248 NA
ATOM     52  C   UNL A   1      38.956  30.758  29.048  1.00  0.00     0.031 C 
ATOM     53  C   UNL A   1      41.217  31.755  31.536  1.00  0.00     0.029 A 
ATOM     54  N   UNL A   1      39.951  33.033  32.864  1.00  0.00    -0.354 N 
ATOM     55  C   UNL A   1      39.478  28.589  29.507  1.00  0.00     0.074 A 
ATOM     56  C   UNL A   1      39.066  29.552  28.491  1.00  0.00     0.031 C 
ATOM     57  C   UNL A   1      42.045  32.361  32.409  1.00  0.00     0.029 A 
ATOM     58  C   UNL A   1      41.234  33.012  33.430  1.00  0.00     0.049 A 
ATOM     59  H   UNL A   1      39.242  33.673  33.101  1.00  0.00     0.167 HD
ATOM     60  C   UNL A   1      40.584  27.807  29.365  1.00  0.00     0.031 A 
ATOM     61  C   UNL A   1      41.363  32.917  34.782  1.00  0.00     0.031 A 
ATOM     62  C   UNL A   1      41.567  28.041  30.427  1.00  0.00     0.049 A 
ATOM     63  C   UNL A   1      41.740  31.501  35.125  1.00  0.00     0.074 A 
ATOM     64  C   UNL A   1      42.797  28.684  30.401  1.00  0.00     0.029 A 
ATOM     65  N   UNL A   1      41.241  27.886  31.771  1.00  0.00    -0.354 N 
ATOM     66  N   UNL A   1      41.730  30.552  34.231  1.00  0.00    -0.248 NA
ATOM     67  C   UNL A   1      42.176  31.019  36.431  1.00  0.00     0.031 C 
ATOM     68  C   UNL A   1      43.206  28.919  31.739  1.00  0.00     0.029 A 
ATOM     69  C   UNL A   1      42.237  28.402  32.583  1.00  0.00     0.049 A 
ATOM     70  H   UNL A   1      40.414  27.466  32.101  1.00  0.00     0.167 HD
ATOM     71  C   UNL A   1      42.129  29.381  34.781  1.00  0.00     0.074 A 
ATOM     72  C   UNL A   1      42.395  29.715  36.170  1.00  0.00     0.031 C 
ATOM     73  C   UNL A   1      42.187  28.246  34.034  1.00  0.00     0.031 A 
BRANCH  60  74
ATOM     74  C   UNL A   1      40.905  27.193  28.023  1.00  0.00    -0.014 A 
ATOM     75  C   UNL A   1      40.159  26.115  27.527  1.00  0.00     0.009 A 
ATOM     76  C   UNL A   1      41.910  27.705  27.172  1.00  0.00     0.009 A 
ATOM     77  C   UNL A   1      40.460  25.520  26.296  1.00  0.00     0.001 A 
ATOM     78  C   UNL A   1      42.246  27.087  25.963  1.00  0.00     0.001 A 
ATOM     79  C   UNL A   1      41.520  25.990  25.526  1.00  0.00     0.000 A 
ENDBRANCH  60  74
BRANCH  61  80
ATOM     80  C   UNL A   1      40.414  33.831  35.495  1.00  0.00    -0.014 A 
ATOM     81  C   UNL A   1      39.112  33.334  35.732  1.00  0.00     0.009 A 
ATOM     82  C   UNL A   1      40.870  34.876  36.312  1.00  0.00     0.009 A 
ATOM     83  C   UNL A   1      38.359  33.762  36.835  1.00  0.00     0.001 A 
ATOM     84  C   UNL A   1      40.120  35.286  37.430  1.00  0.00     0.001 A 
ATOM     85  C   UNL A   1      38.885  34.702  37.713  1.00  0.00     0.000 A 
ENDBRANCH  61  80
BRANCH  73  86
ATOM     86  C   UNL A   1      42.281  26.870  34.609  1.00  0.00    -0.014 A 
ATOM     87  C   UNL A   1      41.253  26.289  35.360  1.00  0.00     0.009 A 
ATOM     88  C   UNL A   1      43.362  26.046  34.235  1.00  0.00     0.009 A 
ATOM     89  C   UNL A   1      41.319  24.949  35.750  1.00  0.00     0.001 A 
ATOM     90  C   UNL A   1      43.407  24.698  34.580  1.00  0.00     0.001 A 
ATOM     91  C   UNL A   1      42.387  24.153  35.349  1.00  0.00     0.000 A 
ENDBRANCH  73  86
ENDBRANCH  47  48
ENDBRANCH  40  42
ENDBRANCH  39  40
ENDBRANCH  38  39
ENDBRANCH  37  38
ENDBRANCH  36  37
ENDBRANCH  35  36
ENDBRANCH   1  35
TORSDOF 19
ENDMDL
MODEL 2
REMARK VINA RESULT:     -11.5      2.518      3.916
REMARK SMILES Cc1c(C(=O)Nc2ccc(C(=O)Nc3ccccc3C(=O)OCCOCCOC(=O)c3ccc(-c4c5nc(c(-c6ccccc6)c6ccc([nH]6)c(-c6ccccc6)c6nc(c(-c7ccccc7)c7ccc4[nH]7)C=C6)C=C5)cc3)cc2)cccc1[N+](=O)[O-]
REMARK SMILES IDX 23 1 22 2 20 3 21 4 19 5 14 6 15 7 16 8 18 9 17 10 13 11
REMARK SMILES IDX 11 12 12 13 10 15 7 16 8 17 80 18 9 19 79 20 6 21 4 22 5 23
REMARK SMILES IDX 3 25 1 26 2 27 84 28 81 29 83 30 82 31 85 32 86 33 87 34
REMARK SMILES IDX 24 35 25 36 26 37 27 38 28 39 29 40 30 41 31 42 32 43 78 44
REMARK SMILES IDX 33 45 77 46 34 47 35 48 36 49 71 50 37 51 76 52 70 53 72 54
REMARK SMILES IDX 38 55 75 56 69 57 68 58 39 60 61 61 46 62 60 63 47 64 50 65
REMARK SMILES IDX 59 66 73 67 48 68 49 69 58 71 74 72 51 73 40 74 41 75 45 76
REMARK SMILES IDX 42 77 44 78 43 79 62 80 63 81 67 82 64 83 66 84 65 85 52 86
REMARK SMILES IDX 53 87 57 88 54 89 56 90 55 91
REMARK H PARENT 13 14 6 24 72 59 50 70
REMARK Flexibility Score: inf
ROOT
ATOM      1  C   UNL A   1      32.535  33.474  27.263  1.00  0.00     0.261 C 
ENDROOT
BRANCH   1   2
ATOM      2  O   UNL A   1      32.502  32.031  27.273  1.00  0.00    -0.460 OA
BRANCH   2   3
ATOM      3  C   UNL A   1      31.755  31.289  26.399  1.00  0.00     0.340 C 
ATOM      4  O   UNL A   1      30.814  31.647  25.765  1.00  0.00    -0.246 OA
BRANCH   3   5
ATOM      5  C   UNL A   1      32.439  29.959  26.223  1.00  0.00     0.083 A 
ATOM      6  C   UNL A   1      32.287  29.212  25.032  1.00  0.00     0.056 A 
ATOM      7  C   UNL A   1      33.026  28.029  24.853  1.00  0.00     0.027 A 
ATOM      8  C   UNL A   1      33.978  27.637  25.792  1.00  0.00     0.002 A 
ATOM      9  C   UNL A   1      33.344  29.497  27.198  1.00  0.00     0.018 A 
ATOM     10  C   UNL A   1      34.130  28.364  26.967  1.00  0.00     0.001 A 
BRANCH   6  11
ATOM     11  N   UNL A   1      31.530  29.587  23.912  1.00  0.00    -0.321 N 
ATOM     12  C   UNL A   1      30.943  28.839  22.913  1.00  0.00     0.255 C 
ATOM     13  O   UNL A   1      30.365  29.446  22.006  1.00  0.00    -0.269 OA
ATOM     14  H   UNL A   1      31.392  30.558  23.825  1.00  0.00     0.170 HD
BRANCH  12  15
ATOM     15  C   UNL A   1      30.896  27.342  22.898  1.00  0.00     0.040 A 
ATOM     16  C   UNL A   1      31.129  24.524  22.926  1.00  0.00     0.041 A 
ATOM     17  C   UNL A   1      30.236  25.179  23.771  1.00  0.00     0.027 A 
ATOM     18  C   UNL A   1      31.891  25.277  22.039  1.00  0.00     0.027 A 
ATOM     19  C   UNL A   1      30.078  26.562  23.711  1.00  0.00     0.016 A 
ATOM     20  C   UNL A   1      31.757  26.672  22.011  1.00  0.00     0.016 A 
BRANCH  16  21
ATOM     21  N   UNL A   1      31.209  23.123  22.867  1.00  0.00    -0.322 N 
ATOM     22  C   UNL A   1      32.033  22.278  23.597  1.00  0.00     0.256 C 
ATOM     23  O   UNL A   1      32.121  21.091  23.294  1.00  0.00    -0.269 OA
ATOM     24  H   UNL A   1      30.605  22.685  22.226  1.00  0.00     0.170 HD
BRANCH  22  25
ATOM     25  C   UNL A   1      32.818  22.800  24.764  1.00  0.00     0.049 A 
ATOM     26  C   UNL A   1      34.789  23.626  23.378  1.00  0.00     0.053 C 
ATOM     27  C   UNL A   1      34.181  23.174  24.683  1.00  0.00     0.039 A 
ATOM     28  C   UNL A   1      34.928  23.097  25.878  1.00  0.00     0.273 A 
ATOM     29  C   UNL A   1      32.171  22.742  26.008  1.00  0.00     0.014 A 
ATOM     30  C   UNL A   1      34.281  23.002  27.123  1.00  0.00     0.086 A 
ATOM     31  C   UNL A   1      32.895  22.905  27.185  1.00  0.00     0.008 A 
BRANCH  28  32
ATOM     32  N   UNL A   1      36.388  22.867  25.868  1.00  0.00     0.063 N 
ATOM     33  O   UNL A   1      36.768  21.686  25.806  1.00  0.00    -0.258 OA
ATOM     34  O   UNL A   1      37.150  23.840  25.867  1.00  0.00    -0.258 OA
ENDBRANCH  28  32
ENDBRANCH  22  25
ENDBRANCH  16  21
ENDBRANCH  12  15
ENDBRANCH   6  11
ENDBRANCH   3   5
ENDBRANCH   2   3
ENDBRANCH   1   2
BRANCH   1  35
ATOM     35  C   UNL A   1      32.907  34.322  28.466  1.00  0.00     0.202 C 
BRANCH  35  36
ATOM     36  O   UNL A   1      34.081  34.006  29.173  1.00  0.00    -0.374 OA
BRANCH  36  37
ATOM     37  C   UNL A   1      35.339  34.457  28.702  1.00  0.00     0.202 C 
BRANCH  37  38
ATOM     38  C   UNL A   1      36.586  33.798  29.315  1.00  0.00     0.261 C 
BRANCH  38  39
ATOM     39  O   UNL A   1      36.728  32.411  28.946  1.00  0.00    -0.460 OA
BRANCH  39  40
ATOM     40  C   UNL A   1      36.305  31.501  29.868  1.00  0.00     0.338 C 
ATOM     41  O   UNL A   1      35.903  31.774  30.985  1.00  0.00    -0.246 OA
BRANCH  40  42
ATOM     42  C   UNL A   1      36.702  30.138  29.402  1.00  0.00     0.060 A 
ATOM     43  C   UNL A   1      37.047  29.192  30.371  1.00  0.00     0.016 A 
ATOM     44  C   UNL A   1      37.182  30.000  28.105  1.00  0.00     0.016 A 
ATOM     45  C   UNL A   1      38.171  28.388  30.153  1.00  0.00     0.010 A 
ATOM     46  C   UNL A   1      38.298  29.203  27.906  1.00  0.00     0.010 A 
ATOM     47  C   UNL A   1      38.927  28.578  28.999  1.00  0.00    -0.014 A 
BRANCH  47  48
ATOM     48  C   UNL A   1      40.408  28.420  28.953  1.00  0.00     0.031 A 
ATOM     49  C   UNL A   1      40.924  27.269  28.221  1.00  0.00     0.074 A 
ATOM     50  C   UNL A   1      41.374  29.270  29.374  1.00  0.00     0.049 A 
ATOM     51  N   UNL A   1      41.212  26.126  28.750  1.00  0.00    -0.248 NA
ATOM     52  C   UNL A   1      41.047  27.352  26.763  1.00  0.00     0.031 C 
ATOM     53  C   UNL A   1      42.824  29.152  29.190  1.00  0.00     0.029 A 
ATOM     54  N   UNL A   1      41.244  30.454  30.090  1.00  0.00    -0.354 N 
ATOM     55  C   UNL A   1      41.786  25.422  27.719  1.00  0.00     0.074 A 
ATOM     56  C   UNL A   1      41.383  26.092  26.487  1.00  0.00     0.031 C 
ATOM     57  C   UNL A   1      43.448  30.038  29.991  1.00  0.00     0.029 A 
ATOM     58  C   UNL A   1      42.437  30.742  30.768  1.00  0.00     0.049 A 
ATOM     59  H   UNL A   1      40.432  31.010  30.116  1.00  0.00     0.167 HD
ATOM     60  C   UNL A   1      42.995  24.807  27.852  1.00  0.00     0.031 A 
ATOM     61  C   UNL A   1      42.406  30.934  32.115  1.00  0.00     0.031 A 
ATOM     62  C   UNL A   1      43.796  25.393  28.931  1.00  0.00     0.049 A 
ATOM     63  C   UNL A   1      42.918  29.688  32.786  1.00  0.00     0.074 A 
ATOM     64  C   UNL A   1      44.924  26.200  28.889  1.00  0.00     0.029 A 
ATOM     65  N   UNL A   1      43.326  25.455  30.240  1.00  0.00    -0.354 N 
ATOM     66  N   UNL A   1      43.146  28.592  32.116  1.00  0.00    -0.248 NA
ATOM     67  C   UNL A   1      43.245  29.543  34.199  1.00  0.00     0.031 C 
ATOM     68  C   UNL A   1      45.126  26.752  30.179  1.00  0.00     0.029 A 
ATOM     69  C   UNL A   1      44.136  26.266  31.016  1.00  0.00     0.049 A 
ATOM     70  H   UNL A   1      42.526  24.985  30.569  1.00  0.00     0.167 HD
ATOM     71  C   UNL A   1      43.623  27.628  32.937  1.00  0.00     0.074 A 
ATOM     72  C   UNL A   1      43.665  28.263  34.243  1.00  0.00     0.031 C 
ATOM     73  C   UNL A   1      43.923  26.391  32.456  1.00  0.00     0.031 A 
BRANCH  60  74
ATOM     74  C   UNL A   1      43.560  24.000  26.708  1.00  0.00    -0.014 A 
ATOM     75  C   UNL A   1      44.399  24.591  25.754  1.00  0.00     0.009 A 
ATOM     76  C   UNL A   1      43.337  22.611  26.574  1.00  0.00     0.009 A 
ATOM     77  C   UNL A   1      44.911  23.860  24.675  1.00  0.00     0.001 A 
ATOM     78  C   UNL A   1      43.806  21.886  25.473  1.00  0.00     0.001 A 
ATOM     79  C   UNL A   1      44.593  22.515  24.520  1.00  0.00     0.000 A 
ENDBRANCH  60  74
BRANCH  61  80
ATOM     80  C   UNL A   1      41.262  31.812  32.525  1.00  0.00    -0.014 A 
ATOM     81  C   UNL A   1      41.291  33.148  32.067  1.00  0.00     0.009 A 
ATOM     82  C   UNL A   1      40.018  31.277  32.893  1.00  0.00     0.009 A 
ATOM     83  C   UNL A   1      40.109  33.868  31.844  1.00  0.00     0.001 A 
ATOM     84  C   UNL A   1      38.834  31.995  32.648  1.00  0.00     0.001 A 
ATOM     85  C   UNL A   1      38.877  33.272  32.088  1.00  0.00     0.000 A 
ENDBRANCH  61  80
BRANCH  73  86
ATOM     86  C   UNL A   1      44.124  25.186  33.315  1.00  0.00    -0.014 A 
ATOM     87  C   UNL A   1      43.226  24.813  34.322  1.00  0.00     0.009 A 
ATOM     88  C   UNL A   1      45.152  24.278  32.989  1.00  0.00     0.009 A 
ATOM     89  C   UNL A   1      43.372  23.600  35.000  1.00  0.00     0.001 A 
ATOM     90  C   UNL A   1      45.270  23.047  33.628  1.00  0.00     0.001 A 
ATOM     91  C   UNL A   1      44.383  22.714  34.643  1.00  0.00     0.000 A 
ENDBRANCH  73  86
ENDBRANCH  47  48
ENDBRANCH  40  42
ENDBRANCH  39  40
ENDBRANCH  38  39
ENDBRANCH  37  38
ENDBRANCH  36  37
ENDBRANCH  35  36
ENDBRANCH   1  35
TORSDOF 19
ENDMDL
MODEL 3
REMARK VINA RESULT:     -10.7      3.011      4.856
REMARK SMILES Cc1c(C(=O)Nc2ccc(C(=O)Nc3ccccc3C(=O)OCCOCCOC(=O)c3ccc(-c4c5nc(c(-c6ccccc6)c6ccc([nH]6)c(-c6ccccc6)c6nc(c(-c7ccccc7)c7ccc4[nH]7)C=C6)C=C5)cc3)cc2)cccc1[N+](=O)[O-]
REMARK SMILES IDX 23 1 22 2 20 3 21 4 19 5 14 6 15 7 16 8 18 9 17 10 13 11
REMARK SMILES IDX 11 12 12 13 10 15 7 16 8 17 80 18 9 19 79 20 6 21 4 22 5 23
REMARK SMILES IDX 3 25 1 26 2 27 84 28 81 29 83 30 82 31 85 32 86 33 87 34
REMARK SMILES IDX 24 35 25 36 26 37 27 38 28 39 29 40 30 41 31 42 32 43 78 44
REMARK SMILES IDX 33 45 77 46 34 47 35 48 36 49 71 50 37 51 76 52 70 53 72 54
REMARK SMILES IDX 38 55 75 56 69 57 68 58 39 60 61 61 46 62 60 63 47 64 50 65
REMARK SMILES IDX 59 66 73 67 48 68 49 69 58 71 74 72 51 73 40 74 41 75 45 76
REMARK SMILES IDX 42 77 44 78 43 79 62 80 63 81 67 82 64 83 66 84 65 85 52 86
REMARK SMILES IDX 53 87 57 88 54 89 56 90 55 91
REMARK H PARENT 13 14 6 24 72 59 50 70
REMARK Flexibility Score: inf
ROOT
ATOM      1  C   UNL A   1      34.639  33.493  28.447  1.00  0.00     0.261 C 
ENDROOT
BRANCH   1   2
ATOM      2  O   UNL A   1      33.677  32.420  28.496  1.00  0.00    -0.460 OA
BRANCH   2   3
ATOM      3  C   UNL A   1      32.851  32.100  27.453  1.00  0.00     0.340 C 
ATOM      4  O   UNL A   1      32.122  32.829  26.857  1.00  0.00    -0.246 OA
BRANCH   3   5
ATOM      5  C   UNL A   1      33.149  30.681  27.048  1.00  0.00     0.083 A 
ATOM      6  C   UNL A   1      32.334  30.003  26.112  1.00  0.00     0.056 A 
ATOM      7  C   UNL A   1      32.701  28.720  25.670  1.00  0.00     0.027 A 
ATOM      8  C   UNL A   1      33.908  28.150  26.069  1.00  0.00     0.002 A 
ATOM      9  C   UNL A   1      34.321  30.049  27.504  1.00  0.00     0.018 A 
ATOM     10  C   UNL A   1      34.713  28.808  26.992  1.00  0.00     0.001 A 
BRANCH   6  11
ATOM     11  N   UNL A   1      31.207  30.529  25.463  1.00  0.00    -0.321 N 
ATOM     12  C   UNL A   1      30.540  30.133  24.322  1.00  0.00     0.255 C 
ATOM     13  O   UNL A   1      29.588  30.823  23.946  1.00  0.00    -0.269 OA
ATOM     14  H   UNL A   1      30.823  31.323  25.901  1.00  0.00     0.170 HD
BRANCH  12  15
ATOM     15  C   UNL A   1      30.848  28.882  23.558  1.00  0.00     0.040 A 
ATOM     16  C   UNL A   1      31.724  26.530  22.255  1.00  0.00     0.041 A 
ATOM     17  C   UNL A   1      30.564  26.534  23.027  1.00  0.00     0.027 A 
ATOM     18  C   UNL A   1      32.437  27.715  22.108  1.00  0.00     0.027 A 
ATOM     19  C   UNL A   1      30.101  27.708  23.616  1.00  0.00     0.016 A 
ATOM     20  C   UNL A   1      31.988  28.885  22.735  1.00  0.00     0.016 A 
BRANCH  16  21
ATOM     21  N   UNL A   1      32.138  25.396  21.538  1.00  0.00    -0.322 N 
ATOM     22  C   UNL A   1      32.910  24.332  21.982  1.00  0.00     0.256 C 
ATOM     23  O   UNL A   1      33.348  23.512  21.181  1.00  0.00    -0.269 OA
ATOM     24  H   UNL A   1      31.845  25.351  20.600  1.00  0.00     0.170 HD
BRANCH  22  25
ATOM     25  C   UNL A   1      33.213  24.169  23.442  1.00  0.00     0.049 A 
ATOM     26  C   UNL A   1      31.042  22.961  24.007  1.00  0.00     0.053 C 
ATOM     27  C   UNL A   1      32.247  23.779  24.402  1.00  0.00     0.039 A 
ATOM     28  C   UNL A   1      32.473  24.197  25.731  1.00  0.00     0.273 A 
ATOM     29  C   UNL A   1      34.487  24.592  23.851  1.00  0.00     0.014 A 
ATOM     30  C   UNL A   1      33.740  24.657  26.132  1.00  0.00     0.086 A 
ATOM     31  C   UNL A   1      34.768  24.776  25.202  1.00  0.00     0.008 A 
BRANCH  28  32
ATOM     32  N   UNL A   1      31.360  24.405  26.680  1.00  0.00     0.063 N 
ATOM     33  O   UNL A   1      30.653  25.411  26.502  1.00  0.00    -0.258 OA
ATOM     34  O   UNL A   1      31.151  23.560  27.556  1.00  0.00    -0.258 OA
ENDBRANCH  28  32
ENDBRANCH  22  25
ENDBRANCH  16  21
ENDBRANCH  12  15
ENDBRANCH   6  11
ENDBRANCH   3   5
ENDBRANCH   2   3
ENDBRANCH   1   2
BRANCH   1  35
ATOM     35  C   UNL A   1      35.587  33.836  29.584  1.00  0.00     0.202 C 
BRANCH  35  36
ATOM     36  O   UNL A   1      36.216  32.784  30.273  1.00  0.00    -0.374 OA
BRANCH  36  37
ATOM     37  C   UNL A   1      36.278  32.798  31.689  1.00  0.00     0.202 C 
BRANCH  37  38
ATOM     38  C   UNL A   1      36.801  31.522  32.372  1.00  0.00     0.261 C 
BRANCH  38  39
ATOM     39  O   UNL A   1      36.549  30.329  31.602  1.00  0.00    -0.460 OA
BRANCH  39  40
ATOM     40  C   UNL A   1      37.635  29.548  31.339  1.00  0.00     0.338 C 
ATOM     41  O   UNL A   1      38.379  29.079  32.183  1.00  0.00    -0.246 OA
BRANCH  40  42
ATOM     42  C   UNL A   1      37.928  29.623  29.876  1.00  0.00     0.060 A 
ATOM     43  C   UNL A   1      37.596  28.518  29.087  1.00  0.00     0.016 A 
ATOM     44  C   UNL A   1      38.915  30.504  29.447  1.00  0.00     0.016 A 
ATOM     45  C   UNL A   1      38.515  28.082  28.125  1.00  0.00     0.010 A 
ATOM     46  C   UNL A   1      39.818  30.054  28.497  1.00  0.00     0.010 A 
ATOM     47  C   UNL A   1      39.737  28.737  28.009  1.00  0.00    -0.014 A 
BRANCH  47  48
ATOM     48  C   UNL A   1      41.010  28.043  27.664  1.00  0.00     0.031 A 
ATOM     49  C   UNL A   1      40.960  26.589  27.561  1.00  0.00     0.074 A 
ATOM     50  C   UNL A   1      42.199  28.571  27.286  1.00  0.00     0.049 A 
ATOM     51  N   UNL A   1      41.233  25.772  28.523  1.00  0.00    -0.248 NA
ATOM     52  C   UNL A   1      40.477  25.982  26.318  1.00  0.00     0.031 C 
ATOM     53  C   UNL A   1      43.394  27.862  26.818  1.00  0.00     0.029 A 
ATOM     54  N   UNL A   1      42.592  29.902  27.256  1.00  0.00    -0.354 N 
ATOM     55  C   UNL A   1      41.189  24.534  27.925  1.00  0.00     0.074 A 
ATOM     56  C   UNL A   1      40.436  24.701  26.686  1.00  0.00     0.031 C 
ATOM     57  C   UNL A   1      44.442  28.708  26.816  1.00  0.00     0.029 A 
ATOM     58  C   UNL A   1      43.990  29.995  27.327  1.00  0.00     0.049 A 
ATOM     59  H   UNL A   1      41.980  30.670  27.193  1.00  0.00     0.167 HD
ATOM     60  C   UNL A   1      42.212  23.642  28.042  1.00  0.00     0.031 A 
ATOM     61  C   UNL A   1      44.557  30.748  28.309  1.00  0.00     0.031 A 
ATOM     62  C   UNL A   1      43.480  24.297  28.377  1.00  0.00     0.049 A 
ATOM     63  C   UNL A   1      45.071  29.823  29.380  1.00  0.00     0.074 A 
ATOM     64  C   UNL A   1      44.613  24.529  27.609  1.00  0.00     0.029 A 
ATOM     65  N   UNL A   1      43.617  25.087  29.515  1.00  0.00    -0.354 N 
ATOM     66  N   UNL A   1      44.799  28.548  29.374  1.00  0.00    -0.248 NA
ATOM     67  C   UNL A   1      45.925  30.195  30.501  1.00  0.00     0.031 C 
ATOM     68  C   UNL A   1      45.429  25.468  28.290  1.00  0.00     0.029 A 
ATOM     69  C   UNL A   1      44.807  25.794  29.484  1.00  0.00     0.049 A 
ATOM     70  H   UNL A   1      42.957  25.136  30.244  1.00  0.00     0.167 HD
ATOM     71  C   UNL A   1      45.393  27.933  30.423  1.00  0.00     0.074 A 
ATOM     72  C   UNL A   1      46.088  29.006  31.114  1.00  0.00     0.031 C 
ATOM     73  C   UNL A   1      45.239  26.597  30.624  1.00  0.00     0.031 A 
BRANCH  60  74
ATOM     74  C   UNL A   1      42.095  22.275  27.411  1.00  0.00    -0.014 A 
ATOM     75  C   UNL A   1      42.970  21.873  26.394  1.00  0.00     0.009 A 
ATOM     76  C   UNL A   1      41.159  21.312  27.851  1.00  0.00     0.009 A 
ATOM     77  C   UNL A   1      42.858  20.618  25.783  1.00  0.00     0.001 A 
ATOM     78  C   UNL A   1      41.011  20.075  27.215  1.00  0.00     0.001 A 
ATOM     79  C   UNL A   1      41.862  19.729  26.176  1.00  0.00     0.000 A 
ENDBRANCH  60  74
BRANCH  61  80
ATOM     80  C   UNL A   1      43.865  32.068  28.467  1.00  0.00    -0.014 A 
ATOM     81  C   UNL A   1      43.127  32.258  29.657  1.00  0.00     0.009 A 
ATOM     82  C   UNL A   1      44.291  33.211  27.775  1.00  0.00     0.009 A 
ATOM     83  C   UNL A   1      42.953  33.535  30.210  1.00  0.00     0.001 A 
ATOM     84  C   UNL A   1      44.132  34.488  28.344  1.00  0.00     0.001 A 
ATOM     85  C   UNL A   1      43.501  34.645  29.577  1.00  0.00     0.000 A 
ENDBRANCH  61  80
BRANCH  73  86
ATOM     86  C   UNL A   1      45.560  25.902  31.907  1.00  0.00    -0.014 A 
ATOM     87  C   UNL A   1      46.872  25.656  32.331  1.00  0.00     0.009 A 
ATOM     88  C   UNL A   1      44.520  25.644  32.823  1.00  0.00     0.009 A 
ATOM     89  C   UNL A   1      47.130  25.140  33.602  1.00  0.00     0.001 A 
ATOM     90  C   UNL A   1      44.778  25.177  34.109  1.00  0.00     0.001 A 
ATOM     91  C   UNL A   1      46.086  24.915  34.494  1.00  0.00     0.000 A 
ENDBRANCH  73  86
ENDBRANCH  47  48
ENDBRANCH  40  42
ENDBRANCH  39  40
ENDBRANCH  38  39
ENDBRANCH  37  38
ENDBRANCH  36  37
ENDBRANCH  35  36
ENDBRANCH   1  35
TORSDOF 19
ENDMDL
