MODEL 1
REMARK VINA RESULT:     -11.5      0.000      0.000
REMARK SMILES Cc1c(CC(=O)OCCOCCOC(=O)c2ccc(-c3c4nc(c(-c5ccccc5)c5ccc([nH]5)c(-c5ccccc5)c5nc(c(-c6ccccc6)c6ccc3[nH]6)C=C5)C=C4)cc2)c2cc(O)ccc2n1C(=O)c1ccc(Cl)cc1
REMARK SMILES IDX 9 1 8 2 7 3 5 4 6 5 4 6 3 7 1 8 2 9 71 10 64 11 70 12 65 13
REMARK SMILES IDX 69 14 66 15 68 16 72 17 73 18 74 19 75 20 80 21 76 22 79 23
REMARK SMILES IDX 77 24 78 25 67 26 10 28 11 29 12 30 13 31 14 32 15 33 16 34
REMARK SMILES IDX 17 35 63 36 18 37 62 38 19 39 20 40 21 41 56 42 22 43 61 44
REMARK SMILES IDX 55 45 57 46 23 47 60 48 54 49 53 50 24 52 46 53 31 54 45 55
REMARK SMILES IDX 32 56 35 57 44 58 58 59 33 60 34 61 43 63 59 64 36 65 25 66
REMARK SMILES IDX 26 67 30 68 27 69 29 70 28 71 47 72 48 73 52 74 49 75 51 76
REMARK SMILES IDX 50 77 37 78 38 79 42 80 39 81 41 82 40 83
REMARK H PARENT 67 27 57 51 35 62
REMARK Flexibility Score: inf
ROOT
ATOM      1  C   UNL A   1      34.740  22.752  25.138  1.00  0.00     0.202 C 
ENDROOT
BRANCH   1   2
ATOM      2  C   UNL A   1      33.417  22.882  25.910  1.00  0.00     0.261 C 
BRANCH   2   3
ATOM      3  O   UNL A   1      33.056  24.232  26.254  1.00  0.00    -0.463 OA
BRANCH   3   4
ATOM      4  C   UNL A   1      31.748  24.402  26.585  1.00  0.00     0.310 C 
ATOM      5  O   UNL A   1      31.161  23.724  27.426  1.00  0.00    -0.252 OA
BRANCH   4   6
ATOM      6  C   UNL A   1      31.022  25.519  25.868  1.00  0.00     0.160 C 
BRANCH   6   7
ATOM      7  C   UNL A   1      31.720  26.831  25.619  1.00  0.00    -0.008 A 
ATOM      8  C   UNL A   1      31.325  27.989  27.904  1.00  0.00     0.065 C 
ATOM      9  C   UNL A   1      31.861  27.888  26.509  1.00  0.00     0.028 A 
ATOM     10  N   UNL A   1      32.660  28.888  25.927  1.00  0.00    -0.280 N 
ATOM     11  C   UNL A   1      32.484  27.166  24.461  1.00  0.00     0.008 A 
ATOM     12  C   UNL A   1      33.019  28.448  24.640  1.00  0.00     0.057 A 
ATOM     13  C   UNL A   1      32.759  26.469  23.260  1.00  0.00     0.056 A 
ATOM     14  C   UNL A   1      33.782  29.037  23.606  1.00  0.00     0.031 A 
ATOM     15  C   UNL A   1      33.417  27.112  22.217  1.00  0.00     0.116 A 
ATOM     16  C   UNL A   1      33.933  28.379  22.382  1.00  0.00     0.048 A 
BRANCH  10  17
ATOM     17  C   UNL A   1      33.053  30.107  26.563  1.00  0.00     0.262 C 
ATOM     18  O   UNL A   1      32.240  31.027  26.645  1.00  0.00    -0.268 OA
BRANCH  17  19
ATOM     19  C   UNL A   1      34.358  30.373  27.189  1.00  0.00     0.040 A 
ATOM     20  C   UNL A   1      34.691  31.663  27.617  1.00  0.00     0.015 A 
ATOM     21  C   UNL A   1      35.244  29.305  27.377  1.00  0.00     0.015 A 
ATOM     22  C   UNL A   1      35.958  31.897  28.156  1.00  0.00     0.021 A 
ATOM     23  C   UNL A   1      36.502  29.544  27.933  1.00  0.00     0.021 A 
ATOM     24  C   UNL A   1      36.860  30.841  28.304  1.00  0.00     0.041 A 
ATOM     25  Cl  UNL A   1      38.431  31.143  28.937  1.00  0.00    -0.084 Cl
ENDBRANCH  17  19
ENDBRANCH  10  17
BRANCH  15  26
ATOM     26  O   UNL A   1      33.467  26.477  21.011  1.00  0.00    -0.508 OA
ATOM     27  H   UNL A   1      34.274  26.434  20.538  1.00  0.00     0.293 HD
ENDBRANCH  15  26
ENDBRANCH   6   7
ENDBRANCH   4   6
ENDBRANCH   3   4
ENDBRANCH   2   3
ENDBRANCH   1   2
BRANCH   1  28
ATOM     28  O   UNL A   1      35.921  22.325  25.803  1.00  0.00    -0.374 OA
BRANCH  28  29
ATOM     29  C   UNL A   1      36.938  21.724  25.002  1.00  0.00     0.202 C 
BRANCH  29  30
ATOM     30  C   UNL A   1      38.360  21.588  25.579  1.00  0.00     0.261 C 
BRANCH  30  31
ATOM     31  O   UNL A   1      38.794  22.778  26.238  1.00  0.00    -0.460 OA
BRANCH  31  32
ATOM     32  C   UNL A   1      40.061  22.708  26.732  1.00  0.00     0.338 C 
ATOM     33  O   UNL A   1      40.878  21.828  26.577  1.00  0.00    -0.246 OA
BRANCH  32  34
ATOM     34  C   UNL A   1      40.367  24.103  27.094  1.00  0.00     0.060 A 
ATOM     35  C   UNL A   1      41.526  24.394  27.819  1.00  0.00     0.016 A 
ATOM     36  C   UNL A   1      39.283  24.994  27.042  1.00  0.00     0.016 A 
ATOM     37  C   UNL A   1      41.548  25.546  28.589  1.00  0.00     0.010 A 
ATOM     38  C   UNL A   1      39.303  26.135  27.832  1.00  0.00     0.010 A 
ATOM     39  C   UNL A   1      40.417  26.383  28.637  1.00  0.00    -0.014 A 
BRANCH  39  40
ATOM     40  C   UNL A   1      40.545  27.634  29.379  1.00  0.00     0.031 A 
ATOM     41  C   UNL A   1      41.536  28.547  28.757  1.00  0.00     0.074 A 
ATOM     42  C   UNL A   1      39.791  28.034  30.423  1.00  0.00     0.049 A 
ATOM     43  N   UNL A   1      42.628  29.007  29.268  1.00  0.00    -0.248 NA
ATOM     44  C   UNL A   1      41.347  28.864  27.331  1.00  0.00     0.031 C 
ATOM     45  C   UNL A   1      38.566  27.419  30.936  1.00  0.00     0.029 A 
ATOM     46  N   UNL A   1      39.917  29.161  31.190  1.00  0.00    -0.354 N 
ATOM     47  C   UNL A   1      43.201  29.794  28.272  1.00  0.00     0.074 A 
ATOM     48  C   UNL A   1      42.456  29.549  27.066  1.00  0.00     0.031 C 
ATOM     49  C   UNL A   1      37.946  28.285  31.772  1.00  0.00     0.029 A 
ATOM     50  C   UNL A   1      38.796  29.448  31.958  1.00  0.00     0.049 A 
ATOM     51  H   UNL A   1      40.728  29.718  31.196  1.00  0.00     0.167 HD
ATOM     52  C   UNL A   1      44.111  30.761  28.557  1.00  0.00     0.031 A 
ATOM     53  C   UNL A   1      38.558  30.585  32.655  1.00  0.00     0.031 A 
ATOM     54  C   UNL A   1      44.644  30.626  29.882  1.00  0.00     0.049 A 
ATOM     55  C   UNL A   1      39.844  31.268  32.898  1.00  0.00     0.074 A 
ATOM     56  C   UNL A   1      45.621  29.870  30.488  1.00  0.00     0.029 A 
ATOM     57  N   UNL A   1      43.850  31.147  30.870  1.00  0.00    -0.354 N 
ATOM     58  N   UNL A   1      40.781  30.783  33.659  1.00  0.00    -0.248 NA
ATOM     59  C   UNL A   1      40.240  32.388  32.053  1.00  0.00     0.031 C 
ATOM     60  C   UNL A   1      45.260  29.788  31.864  1.00  0.00     0.029 A 
ATOM     61  C   UNL A   1      44.089  30.519  32.065  1.00  0.00     0.049 A 
ATOM     62  H   UNL A   1      43.197  31.872  30.739  1.00  0.00     0.167 HD
ATOM     63  C   UNL A   1      41.953  31.240  33.092  1.00  0.00     0.074 A 
ATOM     64  C   UNL A   1      41.562  32.354  32.239  1.00  0.00     0.031 C 
ATOM     65  C   UNL A   1      43.084  30.482  33.108  1.00  0.00     0.031 A 
BRANCH  52  66
ATOM     66  C   UNL A   1      44.206  32.057  27.792  1.00  0.00    -0.014 A 
ATOM     67  C   UNL A   1      44.497  32.120  26.415  1.00  0.00     0.009 A 
ATOM     68  C   UNL A   1      43.734  33.238  28.389  1.00  0.00     0.009 A 
ATOM     69  C   UNL A   1      44.345  33.293  25.673  1.00  0.00     0.001 A 
ATOM     70  C   UNL A   1      43.541  34.407  27.640  1.00  0.00     0.001 A 
ATOM     71  C   UNL A   1      43.848  34.434  26.283  1.00  0.00     0.000 A 
ENDBRANCH  52  66
BRANCH  53  72
ATOM     72  C   UNL A   1      37.272  31.274  32.885  1.00  0.00    -0.014 A 
ATOM     73  C   UNL A   1      36.331  31.347  31.841  1.00  0.00     0.009 A 
ATOM     74  C   UNL A   1      37.094  32.118  33.992  1.00  0.00     0.009 A 
ATOM     75  C   UNL A   1      35.281  32.269  31.877  1.00  0.00     0.001 A 
ATOM     76  C   UNL A   1      36.040  33.040  34.029  1.00  0.00     0.001 A 
ATOM     77  C   UNL A   1      35.147  33.130  32.963  1.00  0.00     0.000 A 
ENDBRANCH  53  72
BRANCH  65  78
ATOM     78  C   UNL A   1      43.191  29.394  34.142  1.00  0.00    -0.014 A 
ATOM     79  C   UNL A   1      42.579  28.163  33.862  1.00  0.00     0.009 A 
ATOM     80  C   UNL A   1      43.773  29.579  35.407  1.00  0.00     0.009 A 
ATOM     81  C   UNL A   1      42.526  27.153  34.822  1.00  0.00     0.001 A 
ATOM     82  C   UNL A   1      43.744  28.554  36.361  1.00  0.00     0.001 A 
ATOM     83  C   UNL A   1      43.109  27.347  36.071  1.00  0.00     0.000 A 
ENDBRANCH  65  78
ENDBRANCH  39  40
ENDBRANCH  32  34
ENDBRANCH  31  32
ENDBRANCH  30  31
ENDBRANCH  29  30
ENDBRANCH  28  29
ENDBRANCH   1  28
TORSDOF 18
ENDMDL
MODEL 2
REMARK VINA RESULT:     -11.0      3.446      6.020
REMARK SMILES Cc1c(CC(=O)OCCOCCOC(=O)c2ccc(-c3c4nc(c(-c5ccccc5)c5ccc([nH]5)c(-c5ccccc5)c5nc(c(-c6ccccc6)c6ccc3[nH]6)C=C5)C=C4)cc2)c2cc(O)ccc2n1C(=O)c1ccc(Cl)cc1
REMARK SMILES IDX 9 1 8 2 7 3 5 4 6 5 4 6 3 7 1 8 2 9 71 10 64 11 70 12 65 13
REMARK SMILES IDX 69 14 66 15 68 16 72 17 73 18 74 19 75 20 80 21 76 22 79 23
REMARK SMILES IDX 77 24 78 25 67 26 10 28 11 29 12 30 13 31 14 32 15 33 16 34
REMARK SMILES IDX 17 35 63 36 18 37 62 38 19 39 20 40 21 41 56 42 22 43 61 44
REMARK SMILES IDX 55 45 57 46 23 47 60 48 54 49 53 50 24 52 46 53 31 54 45 55
REMARK SMILES IDX 32 56 35 57 44 58 58 59 33 60 34 61 43 63 59 64 36 65 25 66
REMARK SMILES IDX 26 67 30 68 27 69 29 70 28 71 47 72 48 73 52 74 49 75 51 76
REMARK SMILES IDX 50 77 37 78 38 79 42 80 39 81 41 82 40 83
REMARK H PARENT 67 27 57 51 35 62
REMARK Flexibility Score: inf
ROOT
ATOM      1  C   UNL A   1      40.912  20.477  26.777  1.00  0.00     0.202 C 
ENDROOT
BRANCH   1   2
ATOM      2  C   UNL A   1      40.028  21.712  26.537  1.00  0.00     0.261 C 
BRANCH   2   3
ATOM      3  O   UNL A   1      38.800  21.441  25.837  1.00  0.00    -0.463 OA
BRANCH   3   4
ATOM      4  C   UNL A   1      38.003  22.527  25.652  1.00  0.00     0.310 C 
ATOM      5  O   UNL A   1      38.161  23.600  26.230  1.00  0.00    -0.252 OA
BRANCH   4   6
ATOM      6  C   UNL A   1      36.883  22.364  24.647  1.00  0.00     0.160 C 
BRANCH   6   7
ATOM      7  C   UNL A   1      35.469  22.161  25.124  1.00  0.00    -0.008 A 
ATOM      8  C   UNL A   1      34.852  24.600  25.745  1.00  0.00     0.065 C 
ATOM      9  C   UNL A   1      34.590  23.135  25.582  1.00  0.00     0.028 A 
ATOM     10  N   UNL A   1      33.337  22.552  25.840  1.00  0.00    -0.280 N 
ATOM     11  C   UNL A   1      34.730  20.942  25.058  1.00  0.00     0.008 A 
ATOM     12  C   UNL A   1      33.437  21.181  25.542  1.00  0.00     0.057 A 
ATOM     13  C   UNL A   1      35.070  19.638  24.623  1.00  0.00     0.056 A 
ATOM     14  C   UNL A   1      32.515  20.112  25.629  1.00  0.00     0.031 A 
ATOM     15  C   UNL A   1      34.183  18.585  24.822  1.00  0.00     0.116 A 
ATOM     16  C   UNL A   1      32.915  18.811  25.311  1.00  0.00     0.048 A 
BRANCH  10  17
ATOM     17  C   UNL A   1      32.175  23.254  26.287  1.00  0.00     0.262 C 
ATOM     18  O   UNL A   1      31.750  23.044  27.423  1.00  0.00    -0.268 OA
BRANCH  17  19
ATOM     19  C   UNL A   1      31.431  24.268  25.523  1.00  0.00     0.040 A 
ATOM     20  C   UNL A   1      30.996  23.999  24.220  1.00  0.00     0.015 A 
ATOM     21  C   UNL A   1      31.139  25.493  26.136  1.00  0.00     0.015 A 
ATOM     22  C   UNL A   1      30.342  25.000  23.498  1.00  0.00     0.021 A 
ATOM     23  C   UNL A   1      30.469  26.482  25.413  1.00  0.00     0.021 A 
ATOM     24  C   UNL A   1      30.089  26.238  24.093  1.00  0.00     0.041 A 
ATOM     25  Cl  UNL A   1      29.313  27.478  23.187  1.00  0.00    -0.084 Cl
ENDBRANCH  17  19
ENDBRANCH  10  17
BRANCH  15  26
ATOM     26  O   UNL A   1      34.638  17.320  24.587  1.00  0.00    -0.508 OA
ATOM     27  H   UNL A   1      35.450  17.038  24.959  1.00  0.00     0.293 HD
ENDBRANCH  15  26
ENDBRANCH   6   7
ENDBRANCH   4   6
ENDBRANCH   3   4
ENDBRANCH   2   3
ENDBRANCH   1   2
BRANCH   1  28
ATOM     28  O   UNL A   1      41.967  20.163  25.879  1.00  0.00    -0.374 OA
BRANCH  28  29
ATOM     29  C   UNL A   1      42.778  19.032  26.197  1.00  0.00     0.202 C 
BRANCH  29  30
ATOM     30  C   UNL A   1      43.826  18.554  25.175  1.00  0.00     0.261 C 
BRANCH  30  31
ATOM     31  O   UNL A   1      44.937  19.446  25.079  1.00  0.00    -0.460 OA
BRANCH  31  32
ATOM     32  C   UNL A   1      44.898  20.264  23.990  1.00  0.00     0.338 C 
ATOM     33  O   UNL A   1      44.529  20.001  22.868  1.00  0.00    -0.246 OA
BRANCH  32  34
ATOM     34  C   UNL A   1      44.964  21.616  24.573  1.00  0.00     0.060 A 
ATOM     35  C   UNL A   1      45.691  21.831  25.746  1.00  0.00     0.016 A 
ATOM     36  C   UNL A   1      43.969  22.510  24.144  1.00  0.00     0.016 A 
ATOM     37  C   UNL A   1      45.337  22.902  26.552  1.00  0.00     0.010 A 
ATOM     38  C   UNL A   1      43.604  23.566  24.966  1.00  0.00     0.010 A 
ATOM     39  C   UNL A   1      44.259  23.731  26.188  1.00  0.00    -0.014 A 
BRANCH  39  40
ATOM     40  C   UNL A   1      44.008  24.903  27.024  1.00  0.00     0.031 A 
ATOM     41  C   UNL A   1      45.104  25.898  26.924  1.00  0.00     0.074 A 
ATOM     42  C   UNL A   1      42.883  25.175  27.714  1.00  0.00     0.049 A 
ATOM     43  N   UNL A   1      45.878  26.330  27.862  1.00  0.00    -0.248 NA
ATOM     44  C   UNL A   1      45.468  26.356  25.572  1.00  0.00     0.031 C 
ATOM     45  C   UNL A   1      41.595  24.482  27.647  1.00  0.00     0.029 A 
ATOM     46  N   UNL A   1      42.627  26.220  28.561  1.00  0.00    -0.354 N 
ATOM     47  C   UNL A   1      46.744  27.228  27.244  1.00  0.00     0.074 A 
ATOM     48  C   UNL A   1      46.547  27.091  25.825  1.00  0.00     0.031 C 
ATOM     49  C   UNL A   1      40.645  25.242  28.239  1.00  0.00     0.029 A 
ATOM     50  C   UNL A   1      41.280  26.400  28.845  1.00  0.00     0.049 A 
ATOM     51  H   UNL A   1      43.335  26.792  28.934  1.00  0.00     0.167 HD
ATOM     52  C   UNL A   1      47.408  28.183  27.946  1.00  0.00     0.031 A 
ATOM     53  C   UNL A   1      40.717  27.453  29.484  1.00  0.00     0.031 A 
ATOM     54  C   UNL A   1      47.388  27.926  29.357  1.00  0.00     0.049 A 
ATOM     55  C   UNL A   1      41.760  28.138  30.273  1.00  0.00     0.074 A 
ATOM     56  C   UNL A   1      48.095  27.135  30.234  1.00  0.00     0.029 A 
ATOM     57  N   UNL A   1      46.240  28.323  29.991  1.00  0.00    -0.354 N 
ATOM     58  N   UNL A   1      42.353  27.601  31.298  1.00  0.00    -0.248 NA
ATOM     59  C   UNL A   1      42.384  29.349  29.751  1.00  0.00     0.031 C 
ATOM     60  C   UNL A   1      47.230  26.904  31.343  1.00  0.00     0.029 A 
ATOM     61  C   UNL A   1      46.030  27.581  31.126  1.00  0.00     0.049 A 
ATOM     62  H   UNL A   1      45.646  29.041  29.675  1.00  0.00     0.167 HD
ATOM     63  C   UNL A   1      43.622  28.141  31.281  1.00  0.00     0.074 A 
ATOM     64  C   UNL A   1      43.527  29.327  30.441  1.00  0.00     0.031 C 
ATOM     65  C   UNL A   1      44.702  27.413  31.680  1.00  0.00     0.031 A 
BRANCH  52  66
ATOM     66  C   UNL A   1      47.713  29.552  27.394  1.00  0.00    -0.014 A 
ATOM     67  C   UNL A   1      46.724  30.527  27.158  1.00  0.00     0.009 A 
ATOM     68  C   UNL A   1      49.048  29.989  27.353  1.00  0.00     0.009 A 
ATOM     69  C   UNL A   1      47.039  31.859  26.880  1.00  0.00     0.001 A 
ATOM     70  C   UNL A   1      49.368  31.332  27.114  1.00  0.00     0.001 A 
ATOM     71  C   UNL A   1      48.364  32.266  26.877  1.00  0.00     0.000 A 
ENDBRANCH  52  66
BRANCH  53  72
ATOM     72  C   UNL A   1      39.403  28.084  29.245  1.00  0.00    -0.014 A 
ATOM     73  C   UNL A   1      39.209  28.854  28.083  1.00  0.00     0.009 A 
ATOM     74  C   UNL A   1      38.459  28.198  30.277  1.00  0.00     0.009 A 
ATOM     75  C   UNL A   1      38.139  29.749  27.980  1.00  0.00     0.001 A 
ATOM     76  C   UNL A   1      37.386  29.092  30.171  1.00  0.00     0.001 A 
ATOM     77  C   UNL A   1      37.238  29.882  29.033  1.00  0.00     0.000 A 
ENDBRANCH  53  72
BRANCH  65  78
ATOM     78  C   UNL A   1      44.465  26.228  32.575  1.00  0.00    -0.014 A 
ATOM     79  C   UNL A   1      44.494  24.952  31.993  1.00  0.00     0.009 A 
ATOM     80  C   UNL A   1      44.110  26.337  33.930  1.00  0.00     0.009 A 
ATOM     81  C   UNL A   1      44.158  23.818  32.731  1.00  0.00     0.001 A 
ATOM     82  C   UNL A   1      43.799  25.195  34.678  1.00  0.00     0.001 A 
ATOM     83  C   UNL A   1      43.811  23.939  34.074  1.00  0.00     0.000 A 
ENDBRANCH  65  78
ENDBRANCH  39  40
ENDBRANCH  32  34
ENDBRANCH  31  32
ENDBRANCH  30  31
ENDBRANCH  29  30
ENDBRANCH  28  29
ENDBRANCH   1  28
TORSDOF 18
ENDMDL
MODEL 3
REMARK VINA RESULT:     -10.8      4.376      9.891
REMARK SMILES Cc1c(CC(=O)OCCOCCOC(=O)c2ccc(-c3c4nc(c(-c5ccccc5)c5ccc([nH]5)c(-c5ccccc5)c5nc(c(-c6ccccc6)c6ccc3[nH]6)C=C5)C=C4)cc2)c2cc(O)ccc2n1C(=O)c1ccc(Cl)cc1
REMARK SMILES IDX 9 1 8 2 7 3 5 4 6 5 4 6 3 7 1 8 2 9 71 10 64 11 70 12 65 13
REMARK SMILES IDX 69 14 66 15 68 16 72 17 73 18 74 19 75 20 80 21 76 22 79 23
REMARK SMILES IDX 77 24 78 25 67 26 10 28 11 29 12 30 13 31 14 32 15 33 16 34
REMARK SMILES IDX 17 35 63 36 18 37 62 38 19 39 20 40 21 41 56 42 22 43 61 44
REMARK SMILES IDX 55 45 57 46 23 47 60 48 54 49 53 50 24 52 46 53 31 54 45 55
REMARK SMILES IDX 32 56 35 57 44 58 58 59 33 60 34 61 43 63 59 64 36 65 25 66
REMARK SMILES IDX 26 67 30 68 27 69 29 70 28 71 47 72 48 73 52 74 49 75 51 76
REMARK SMILES IDX 50 77 37 78 38 79 42 80 39 81 41 82 40 83
REMARK H PARENT 67 27 57 51 35 62
REMARK Flexibility Score: inf
ROOT
ATOM      1  C   UNL A   1      33.305  35.653  30.840  1.00  0.00     0.202 C 
ENDROOT
BRANCH   1   2
ATOM      2  C   UNL A   1      33.653  35.597  32.336  1.00  0.00     0.261 C 
BRANCH   2   3
ATOM      3  O   UNL A   1      34.230  34.353  32.770  1.00  0.00    -0.463 OA
BRANCH   3   4
ATOM      4  C   UNL A   1      35.574  34.392  32.975  1.00  0.00     0.310 C 
ATOM      5  O   UNL A   1      36.148  35.292  33.584  1.00  0.00    -0.252 OA
BRANCH   4   6
ATOM      6  C   UNL A   1      36.364  33.225  32.422  1.00  0.00     0.160 C 
BRANCH   6   7
ATOM      7  C   UNL A   1      37.835  33.103  32.725  1.00  0.00    -0.008 A 
ATOM      8  C   UNL A   1      38.797  34.705  30.928  1.00  0.00     0.065 C 
ATOM      9  C   UNL A   1      38.880  33.758  32.086  1.00  0.00     0.028 A 
ATOM     10  N   UNL A   1      40.092  33.447  32.729  1.00  0.00    -0.280 N 
ATOM     11  C   UNL A   1      38.407  32.392  33.822  1.00  0.00     0.008 A 
ATOM     12  C   UNL A   1      39.796  32.572  33.789  1.00  0.00     0.057 A 
ATOM     13  C   UNL A   1      37.841  31.597  34.847  1.00  0.00     0.056 A 
ATOM     14  C   UNL A   1      40.606  31.922  34.749  1.00  0.00     0.031 A 
ATOM     15  C   UNL A   1      38.667  30.882  35.710  1.00  0.00     0.116 A 
ATOM     16  C   UNL A   1      40.035  31.043  35.673  1.00  0.00     0.048 A 
BRANCH  10  17
ATOM     17  C   UNL A   1      41.374  33.968  32.373  1.00  0.00     0.262 C 
ATOM     18  O   UNL A   1      42.000  34.631  33.200  1.00  0.00    -0.268 OA
BRANCH  17  19
ATOM     19  C   UNL A   1      42.069  33.754  31.093  1.00  0.00     0.040 A 
ATOM     20  C   UNL A   1      42.321  32.458  30.629  1.00  0.00     0.015 A 
ATOM     21  C   UNL A   1      42.443  34.871  30.336  1.00  0.00     0.015 A 
ATOM     22  C   UNL A   1      43.032  32.285  29.440  1.00  0.00     0.021 A 
ATOM     23  C   UNL A   1      43.138  34.690  29.139  1.00  0.00     0.021 A 
ATOM     24  C   UNL A   1      43.445  33.399  28.705  1.00  0.00     0.041 A 
ATOM     25  Cl  UNL A   1      44.350  33.180  27.259  1.00  0.00    -0.084 Cl
ENDBRANCH  17  19
ENDBRANCH  10  17
BRANCH  15  26
ATOM     26  O   UNL A   1      38.082  29.968  36.535  1.00  0.00    -0.508 OA
ATOM     27  H   UNL A   1      38.613  29.378  37.032  1.00  0.00     0.293 HD
ENDBRANCH  15  26
ENDBRANCH   6   7
ENDBRANCH   4   6
ENDBRANCH   3   4
ENDBRANCH   2   3
ENDBRANCH   1   2
BRANCH   1  28
ATOM     28  O   UNL A   1      33.171  34.454  30.088  1.00  0.00    -0.374 OA
BRANCH  28  29
ATOM     29  C   UNL A   1      33.739  34.440  28.780  1.00  0.00     0.202 C 
BRANCH  29  30
ATOM     30  C   UNL A   1      35.269  34.338  28.630  1.00  0.00     0.261 C 
BRANCH  30  31
ATOM     31  O   UNL A   1      35.801  33.179  29.272  1.00  0.00    -0.460 OA
BRANCH  31  32
ATOM     32  C   UNL A   1      35.747  32.049  28.513  1.00  0.00     0.338 C 
ATOM     33  O   UNL A   1      35.290  31.916  27.399  1.00  0.00    -0.246 OA
BRANCH  32  34
ATOM     34  C   UNL A   1      36.750  31.168  29.135  1.00  0.00     0.060 A 
ATOM     35  C   UNL A   1      38.067  31.611  29.283  1.00  0.00     0.016 A 
ATOM     36  C   UNL A   1      36.420  29.803  29.168  1.00  0.00     0.016 A 
ATOM     37  C   UNL A   1      39.075  30.663  29.357  1.00  0.00     0.010 A 
ATOM     38  C   UNL A   1      37.436  28.859  29.219  1.00  0.00     0.010 A 
ATOM     39  C   UNL A   1      38.762  29.293  29.268  1.00  0.00    -0.014 A 
BRANCH  39  40
ATOM     40  C   UNL A   1      39.857  28.346  29.461  1.00  0.00     0.031 A 
ATOM     41  C   UNL A   1      40.286  28.279  30.880  1.00  0.00     0.074 A 
ATOM     42  C   UNL A   1      40.368  27.505  28.540  1.00  0.00     0.049 A 
ATOM     43  N   UNL A   1      41.442  28.561  31.379  1.00  0.00    -0.248 NA
ATOM     44  C   UNL A   1      39.242  27.999  31.880  1.00  0.00     0.031 C 
ATOM     45  C   UNL A   1      39.841  27.200  27.209  1.00  0.00     0.029 A 
ATOM     46  N   UNL A   1      41.433  26.652  28.654  1.00  0.00    -0.354 N 
ATOM     47  C   UNL A   1      41.315  28.356  32.750  1.00  0.00     0.074 A 
ATOM     48  C   UNL A   1      39.914  28.161  33.015  1.00  0.00     0.031 C 
ATOM     49  C   UNL A   1      40.446  26.088  26.731  1.00  0.00     0.029 A 
ATOM     50  C   UNL A   1      41.494  25.688  27.656  1.00  0.00     0.049 A 
ATOM     51  H   UNL A   1      42.095  26.715  29.378  1.00  0.00     0.167 HD
ATOM     52  C   UNL A   1      42.394  28.142  33.547  1.00  0.00     0.031 A 
ATOM     53  C   UNL A   1      42.308  24.607  27.617  1.00  0.00     0.031 A 
ATOM     54  C   UNL A   1      43.623  28.497  32.897  1.00  0.00     0.049 A 
ATOM     55  C   UNL A   1      43.457  24.850  28.512  1.00  0.00     0.074 A 
ATOM     56  C   UNL A   1      44.327  29.657  32.668  1.00  0.00     0.029 A 
ATOM     57  N   UNL A   1      44.115  27.539  32.050  1.00  0.00    -0.354 N 
ATOM     58  N   UNL A   1      44.357  25.763  28.292  1.00  0.00    -0.248 NA
ATOM     59  C   UNL A   1      43.470  24.267  29.848  1.00  0.00     0.031 C 
ATOM     60  C   UNL A   1      45.120  29.416  31.510  1.00  0.00     0.029 A 
ATOM     61  C   UNL A   1      44.899  28.108  31.078  1.00  0.00     0.049 A 
ATOM     62  H   UNL A   1      43.931  26.576  32.127  1.00  0.00     0.167 HD
ATOM     63  C   UNL A   1      44.755  26.162  29.552  1.00  0.00     0.074 A 
ATOM     64  C   UNL A   1      44.325  25.099  30.449  1.00  0.00     0.031 C 
ATOM     65  C   UNL A   1      45.106  27.454  29.802  1.00  0.00     0.031 A 
BRANCH  52  66
ATOM     66  C   UNL A   1      42.367  27.230  34.747  1.00  0.00    -0.014 A 
ATOM     67  C   UNL A   1      41.859  27.621  36.001  1.00  0.00     0.009 A 
ATOM     68  C   UNL A   1      42.606  25.857  34.566  1.00  0.00     0.009 A 
ATOM     69  C   UNL A   1      41.616  26.705  37.027  1.00  0.00     0.001 A 
ATOM     70  C   UNL A   1      42.327  24.929  35.578  1.00  0.00     0.001 A 
ATOM     71  C   UNL A   1      41.833  25.354  36.808  1.00  0.00     0.000 A 
ENDBRANCH  52  66
BRANCH  53  72
ATOM     72  C   UNL A   1      42.030  23.259  27.082  1.00  0.00    -0.014 A 
ATOM     73  C   UNL A   1      41.005  22.486  27.658  1.00  0.00     0.009 A 
ATOM     74  C   UNL A   1      42.948  22.613  26.239  1.00  0.00     0.009 A 
ATOM     75  C   UNL A   1      40.934  21.106  27.445  1.00  0.00     0.001 A 
ATOM     76  C   UNL A   1      42.874  21.231  26.024  1.00  0.00     0.001 A 
ATOM     77  C   UNL A   1      41.881  20.475  26.643  1.00  0.00     0.000 A 
ENDBRANCH  53  72
BRANCH  65  78
ATOM     78  C   UNL A   1      45.523  28.312  28.638  1.00  0.00    -0.014 A 
ATOM     79  C   UNL A   1      46.895  28.416  28.361  1.00  0.00     0.009 A 
ATOM     80  C   UNL A   1      44.629  29.093  27.889  1.00  0.00     0.009 A 
ATOM     81  C   UNL A   1      47.365  29.289  27.382  1.00  0.00     0.001 A 
ATOM     82  C   UNL A   1      45.099  29.950  26.887  1.00  0.00     0.001 A 
ATOM     83  C   UNL A   1      46.468  30.056  26.643  1.00  0.00     0.000 A 
ENDBRANCH  65  78
ENDBRANCH  39  40
ENDBRANCH  32  34
ENDBRANCH  31  32
ENDBRANCH  30  31
ENDBRANCH  29  30
ENDBRANCH  28  29
ENDBRANCH   1  28
TORSDOF 18
ENDMDL
