MODEL 1
REMARK VINA RESULT:     -10.3      0.000      0.000
REMARK SMILES C[C@H](NC(=O)c1ccc(C(C)(C)C)cc1)C(=O)N[C@@H](C(=O)OCCOCCOC(=O)c1ccc(-c2c3nc(c(-c4ccccc4)c4ccc([nH]4)c(-c4ccccc4)c4nc(c(-c5ccccc5)c5ccc2[nH]5)C=C4)C=C3)cc1)[C@H](C)O
REMARK SMILES IDX 23 1 22 2 20 3 21 4 19 5 18 6 16 7 17 8 2 10 1 11 3 12 4 13
REMARK SMILES IDX 5 15 6 16 7 17 15 18 8 19 14 20 9 21 10 22 11 23 12 24 13 25
REMARK SMILES IDX 79 26 80 27 81 28 24 30 25 31 26 32 27 33 28 34 29 35 30 36
REMARK SMILES IDX 31 37 32 38 78 39 33 40 77 41 34 42 35 43 36 44 71 45 37 46
REMARK SMILES IDX 76 47 70 48 72 49 38 50 75 51 69 52 68 53 39 55 61 56 46 57
REMARK SMILES IDX 60 58 47 59 50 60 59 61 73 62 48 63 49 64 58 66 74 67 51 68
REMARK SMILES IDX 40 69 41 70 45 71 42 72 44 73 43 74 62 75 63 76 67 77 64 78
REMARK SMILES IDX 66 79 65 80 52 81 53 82 57 83 54 84 56 85 55 86
REMARK H PARENT 18 9 3 14 81 29 72 54 50 65
REMARK Flexibility Score: inf
ROOT
ATOM      1  C   UNL A   1      36.780  22.251  25.724  1.00  0.00     0.261 C 
ENDROOT
BRANCH   1   2
ATOM      2  O   UNL A   1      36.387  23.367  24.910  1.00  0.00    -0.462 OA
BRANCH   2   3
ATOM      3  C   UNL A   1      35.830  23.018  23.719  1.00  0.00     0.331 C 
ATOM      4  O   UNL A   1      36.479  22.712  22.722  1.00  0.00    -0.250 OA
BRANCH   3   5
ATOM      5  C   UNL A   1      34.297  22.976  23.737  1.00  0.00     0.221 C 
BRANCH   5   6
ATOM      6  N   UNL A   1      33.735  21.666  24.031  1.00  0.00    -0.339 N 
ATOM      7  C   UNL A   1      33.276  21.168  25.207  1.00  0.00     0.243 C 
ATOM      8  O   UNL A   1      32.865  20.002  25.179  1.00  0.00    -0.273 OA
ATOM      9  H   UNL A   1      33.681  21.051  23.265  1.00  0.00     0.164 HD
BRANCH   7  10
ATOM     10  C   UNL A   1      33.091  22.024  26.490  1.00  0.00     0.168 C 
ATOM     11  C   UNL A   1      33.940  21.464  27.617  1.00  0.00     0.041 C 
BRANCH  10  12
ATOM     12  N   UNL A   1      31.741  22.540  26.816  1.00  0.00    -0.341 N 
ATOM     13  C   UNL A   1      30.945  23.645  26.644  1.00  0.00     0.251 C 
ATOM     14  H   UNL A   1      31.248  21.861  27.329  1.00  0.00     0.164 HD
ATOM     15  O   UNL A   1      29.861  23.653  27.230  1.00  0.00    -0.269 OA
BRANCH  13  16
ATOM     16  C   UNL A   1      31.345  24.861  25.906  1.00  0.00     0.039 A 
ATOM     17  C   UNL A   1      30.499  25.311  24.888  1.00  0.00     0.014 A 
ATOM     18  C   UNL A   1      32.470  25.610  26.210  1.00  0.00     0.014 A 
ATOM     19  C   UNL A   1      30.653  26.595  24.351  1.00  0.00     0.005 A 
ATOM     20  C   UNL A   1      32.624  26.897  25.672  1.00  0.00     0.005 A 
ATOM     21  C   UNL A   1      31.690  27.444  24.772  1.00  0.00    -0.043 A 
BRANCH  21  22
ATOM     22  C   UNL A   1      31.765  28.909  24.289  1.00  0.00    -0.013 C 
ATOM     23  C   UNL A   1      32.514  29.795  25.307  1.00  0.00     0.016 C 
ATOM     24  C   UNL A   1      32.520  28.994  22.946  1.00  0.00     0.016 C 
ATOM     25  C   UNL A   1      30.376  29.538  24.052  1.00  0.00     0.016 C 
ENDBRANCH  21  22
ENDBRANCH  13  16
ENDBRANCH  10  12
ENDBRANCH   7  10
ENDBRANCH   5   6
BRANCH   5  26
ATOM     26  C   UNL A   1      33.667  23.672  22.498  1.00  0.00     0.145 C 
ATOM     27  C   UNL A   1      33.497  25.182  22.536  1.00  0.00     0.041 C 
BRANCH  26  28
ATOM     28  O   UNL A   1      32.393  23.150  22.123  1.00  0.00    -0.391 OA
ATOM     29  H   UNL A   1      32.413  22.182  22.176  1.00  0.00     0.211 HD
ENDBRANCH  26  28
ENDBRANCH   5  26
ENDBRANCH   3   5
ENDBRANCH   2   3
ENDBRANCH   1   2
BRANCH   1  30
ATOM     30  C   UNL A   1      38.160  21.679  25.377  1.00  0.00     0.202 C 
BRANCH  30  31
ATOM     31  O   UNL A   1      39.284  21.956  26.204  1.00  0.00    -0.374 OA
BRANCH  31  32
ATOM     32  C   UNL A   1      40.331  21.002  26.313  1.00  0.00     0.202 C 
BRANCH  32  33
ATOM     33  C   UNL A   1      41.792  21.428  26.116  1.00  0.00     0.261 C 
BRANCH  33  34
ATOM     34  O   UNL A   1      41.940  22.731  25.539  1.00  0.00    -0.460 OA
BRANCH  34  35
ATOM     35  C   UNL A   1      42.834  23.506  26.201  1.00  0.00     0.338 C 
ATOM     36  O   UNL A   1      44.051  23.416  26.183  1.00  0.00    -0.246 OA
BRANCH  35  37
ATOM     37  C   UNL A   1      42.154  24.644  26.833  1.00  0.00     0.060 A 
ATOM     38  C   UNL A   1      42.732  25.907  26.641  1.00  0.00     0.016 A 
ATOM     39  C   UNL A   1      41.066  24.473  27.690  1.00  0.00     0.016 A 
ATOM     40  C   UNL A   1      42.272  26.995  27.366  1.00  0.00     0.010 A 
ATOM     41  C   UNL A   1      40.617  25.567  28.435  1.00  0.00     0.010 A 
ATOM     42  C   UNL A   1      41.258  26.812  28.312  1.00  0.00    -0.014 A 
BRANCH  42  43
ATOM     43  C   UNL A   1      41.054  27.875  29.319  1.00  0.00     0.031 A 
ATOM     44  C   UNL A   1      42.047  27.992  30.443  1.00  0.00     0.074 A 
ATOM     45  C   UNL A   1      40.066  28.774  29.179  1.00  0.00     0.049 A 
ATOM     46  N   UNL A   1      42.113  28.877  31.403  1.00  0.00    -0.248 NA
ATOM     47  C   UNL A   1      43.118  26.980  30.482  1.00  0.00     0.031 C 
ATOM     48  C   UNL A   1      39.086  28.791  28.094  1.00  0.00     0.029 A 
ATOM     49  N   UNL A   1      39.739  29.856  29.952  1.00  0.00    -0.354 N 
ATOM     50  C   UNL A   1      43.226  28.527  32.159  1.00  0.00     0.074 A 
ATOM     51  C   UNL A   1      43.789  27.335  31.567  1.00  0.00     0.031 C 
ATOM     52  C   UNL A   1      38.264  29.841  28.271  1.00  0.00     0.029 A 
ATOM     53  C   UNL A   1      38.648  30.548  29.490  1.00  0.00     0.049 A 
ATOM     54  H   UNL A   1      40.238  30.112  30.761  1.00  0.00     0.167 HD
ATOM     55  C   UNL A   1      43.739  29.149  33.246  1.00  0.00     0.031 A 
ATOM     56  C   UNL A   1      38.027  31.626  30.004  1.00  0.00     0.031 A 
ATOM     57  C   UNL A   1      43.167  30.326  33.842  1.00  0.00     0.049 A 
ATOM     58  C   UNL A   1      38.572  32.255  31.257  1.00  0.00     0.074 A 
ATOM     59  C   UNL A   1      43.602  31.034  34.948  1.00  0.00     0.029 A 
ATOM     60  N   UNL A   1      42.027  30.964  33.378  1.00  0.00    -0.354 N 
ATOM     61  N   UNL A   1      39.631  31.923  31.958  1.00  0.00    -0.248 NA
ATOM     62  C   UNL A   1      37.840  33.415  31.785  1.00  0.00     0.031 C 
ATOM     63  C   UNL A   1      42.696  32.073  35.183  1.00  0.00     0.029 A 
ATOM     64  C   UNL A   1      41.728  32.044  34.189  1.00  0.00     0.049 A 
ATOM     65  H   UNL A   1      41.507  30.689  32.588  1.00  0.00     0.167 HD
ATOM     66  C   UNL A   1      39.708  32.848  32.992  1.00  0.00     0.074 A 
ATOM     67  C   UNL A   1      38.597  33.763  32.816  1.00  0.00     0.031 C 
ATOM     68  C   UNL A   1      40.615  32.936  33.996  1.00  0.00     0.031 A 
BRANCH  55  69
ATOM     69  C   UNL A   1      44.956  28.536  33.879  1.00  0.00    -0.014 A 
ATOM     70  C   UNL A   1      44.846  27.555  34.877  1.00  0.00     0.009 A 
ATOM     71  C   UNL A   1      46.233  28.942  33.462  1.00  0.00     0.009 A 
ATOM     72  C   UNL A   1      45.992  27.017  35.469  1.00  0.00     0.001 A 
ATOM     73  C   UNL A   1      47.377  28.384  34.037  1.00  0.00     0.001 A 
ATOM     74  C   UNL A   1      47.255  27.429  35.045  1.00  0.00     0.000 A 
ENDBRANCH  55  69
BRANCH  56  75
ATOM     75  C   UNL A   1      36.815  32.172  29.343  1.00  0.00    -0.014 A 
ATOM     76  C   UNL A   1      36.887  33.316  28.537  1.00  0.00     0.009 A 
ATOM     77  C   UNL A   1      35.569  31.550  29.530  1.00  0.00     0.009 A 
ATOM     78  C   UNL A   1      35.734  33.843  27.950  1.00  0.00     0.001 A 
ATOM     79  C   UNL A   1      34.422  32.063  28.920  1.00  0.00     0.001 A 
ATOM     80  C   UNL A   1      34.503  33.214  28.139  1.00  0.00     0.000 A 
ENDBRANCH  56  75
BRANCH  68  81
ATOM     81  C   UNL A   1      40.457  34.078  34.958  1.00  0.00    -0.014 A 
ATOM     82  C   UNL A   1      41.034  35.332  34.703  1.00  0.00     0.009 A 
ATOM     83  C   UNL A   1      39.692  33.904  36.121  1.00  0.00     0.009 A 
ATOM     84  C   UNL A   1      40.879  36.377  35.615  1.00  0.00     0.001 A 
ATOM     85  C   UNL A   1      39.514  34.960  37.016  1.00  0.00     0.001 A 
ATOM     86  C   UNL A   1      40.116  36.192  36.767  1.00  0.00     0.000 A 
ENDBRANCH  68  81
ENDBRANCH  42  43
ENDBRANCH  35  37
ENDBRANCH  34  35
ENDBRANCH  33  34
ENDBRANCH  32  33
ENDBRANCH  31  32
ENDBRANCH  30  31
ENDBRANCH   1  30
TORSDOF 21
ENDMDL
MODEL 2
REMARK VINA RESULT:     -10.3      0.867      5.794
REMARK SMILES C[C@H](NC(=O)c1ccc(C(C)(C)C)cc1)C(=O)N[C@@H](C(=O)OCCOCCOC(=O)c1ccc(-c2c3nc(c(-c4ccccc4)c4ccc([nH]4)c(-c4ccccc4)c4nc(c(-c5ccccc5)c5ccc2[nH]5)C=C4)C=C3)cc1)[C@H](C)O
REMARK SMILES IDX 23 1 22 2 20 3 21 4 19 5 18 6 16 7 17 8 2 10 1 11 3 12 4 13
REMARK SMILES IDX 5 15 6 16 7 17 15 18 8 19 14 20 9 21 10 22 11 23 12 24 13 25
REMARK SMILES IDX 79 26 80 27 81 28 24 30 25 31 26 32 27 33 28 34 29 35 30 36
REMARK SMILES IDX 31 37 32 38 78 39 33 40 77 41 34 42 35 43 36 44 71 45 37 46
REMARK SMILES IDX 76 47 70 48 72 49 38 50 75 51 69 52 68 53 39 55 61 56 46 57
REMARK SMILES IDX 60 58 47 59 50 60 59 61 73 62 48 63 49 64 58 66 74 67 51 68
REMARK SMILES IDX 40 69 41 70 45 71 42 72 44 73 43 74 62 75 63 76 67 77 64 78
REMARK SMILES IDX 66 79 65 80 52 81 53 82 57 83 54 84 56 85 55 86
REMARK H PARENT 18 9 3 14 81 29 72 54 50 65
REMARK Flexibility Score: inf
ROOT
ATOM      1  C   UNL A   1      37.112  22.270  25.583  1.00  0.00     0.261 C 
ENDROOT
BRANCH   1   2
ATOM      2  O   UNL A   1      36.713  23.429  24.835  1.00  0.00    -0.462 OA
BRANCH   2   3
ATOM      3  C   UNL A   1      36.026  23.145  23.695  1.00  0.00     0.331 C 
ATOM      4  O   UNL A   1      36.560  22.883  22.620  1.00  0.00    -0.250 OA
BRANCH   3   5
ATOM      5  C   UNL A   1      34.503  23.118  23.876  1.00  0.00     0.221 C 
BRANCH   5   6
ATOM      6  N   UNL A   1      33.946  21.789  24.076  1.00  0.00    -0.339 N 
ATOM      7  C   UNL A   1      33.403  21.240  25.193  1.00  0.00     0.243 C 
ATOM      8  O   UNL A   1      33.019  20.069  25.089  1.00  0.00    -0.273 OA
ATOM      9  H   UNL A   1      33.964  21.202  23.287  1.00  0.00     0.164 HD
BRANCH   7  10
ATOM     10  C   UNL A   1      33.101  22.044  26.486  1.00  0.00     0.168 C 
ATOM     11  C   UNL A   1      34.065  21.643  27.588  1.00  0.00     0.041 C 
BRANCH  10  12
ATOM     12  N   UNL A   1      31.688  22.306  26.850  1.00  0.00    -0.341 N 
ATOM     13  C   UNL A   1      30.761  23.317  26.888  1.00  0.00     0.251 C 
ATOM     14  H   UNL A   1      31.274  21.474  27.173  1.00  0.00     0.164 HD
ATOM     15  O   UNL A   1      29.672  23.061  27.405  1.00  0.00    -0.269 OA
BRANCH  13  16
ATOM     16  C   UNL A   1      31.018  24.709  26.462  1.00  0.00     0.039 A 
ATOM     17  C   UNL A   1      32.309  25.214  26.640  1.00  0.00     0.014 A 
ATOM     18  C   UNL A   1      30.074  25.510  25.841  1.00  0.00     0.014 A 
ATOM     19  C   UNL A   1      32.704  26.398  26.004  1.00  0.00     0.005 A 
ATOM     20  C   UNL A   1      30.469  26.696  25.204  1.00  0.00     0.005 A 
ATOM     21  C   UNL A   1      31.804  27.141  25.222  1.00  0.00    -0.043 A 
BRANCH  21  22
ATOM     22  C   UNL A   1      32.283  28.360  24.403  1.00  0.00    -0.013 C 
ATOM     23  C   UNL A   1      31.505  28.481  23.075  1.00  0.00     0.016 C 
ATOM     24  C   UNL A   1      32.060  29.663  25.198  1.00  0.00     0.016 C 
ATOM     25  C   UNL A   1      33.787  28.306  24.062  1.00  0.00     0.016 C 
ENDBRANCH  21  22
ENDBRANCH  13  16
ENDBRANCH  10  12
ENDBRANCH   7  10
ENDBRANCH   5   6
BRANCH   5  26
ATOM     26  C   UNL A   1      33.760  23.962  22.802  1.00  0.00     0.145 C 
ATOM     27  C   UNL A   1      32.287  24.264  23.024  1.00  0.00     0.041 C 
BRANCH  26  28
ATOM     28  O   UNL A   1      33.851  23.433  21.481  1.00  0.00    -0.391 OA
ATOM     29  H   UNL A   1      34.134  22.506  21.523  1.00  0.00     0.211 HD
ENDBRANCH  26  28
ENDBRANCH   5  26
ENDBRANCH   3   5
ENDBRANCH   2   3
ENDBRANCH   1   2
BRANCH   1  30
ATOM     30  C   UNL A   1      38.630  22.057  25.643  1.00  0.00     0.202 C 
BRANCH  30  31
ATOM     31  O   UNL A   1      39.314  22.098  26.890  1.00  0.00    -0.374 OA
BRANCH  31  32
ATOM     32  C   UNL A   1      40.648  21.619  26.977  1.00  0.00     0.202 C 
BRANCH  32  33
ATOM     33  C   UNL A   1      41.691  22.031  25.929  1.00  0.00     0.261 C 
BRANCH  33  34
ATOM     34  O   UNL A   1      41.856  23.448  25.806  1.00  0.00    -0.460 OA
BRANCH  34  35
ATOM     35  C   UNL A   1      42.726  23.963  26.709  1.00  0.00     0.338 C 
ATOM     36  O   UNL A   1      43.887  23.636  26.891  1.00  0.00    -0.246 OA
BRANCH  35  37
ATOM     37  C   UNL A   1      42.147  25.147  27.359  1.00  0.00     0.060 A 
ATOM     38  C   UNL A   1      42.890  26.333  27.279  1.00  0.00     0.016 A 
ATOM     39  C   UNL A   1      40.986  25.074  28.129  1.00  0.00     0.016 A 
ATOM     40  C   UNL A   1      42.516  27.434  28.033  1.00  0.00     0.010 A 
ATOM     41  C   UNL A   1      40.621  26.179  28.903  1.00  0.00     0.010 A 
ATOM     42  C   UNL A   1      41.420  27.337  28.896  1.00  0.00    -0.014 A 
BRANCH  42  43
ATOM     43  C   UNL A   1      41.275  28.367  29.947  1.00  0.00     0.031 A 
ATOM     44  C   UNL A   1      40.141  29.348  29.831  1.00  0.00     0.074 A 
ATOM     45  C   UNL A   1      42.074  28.364  31.026  1.00  0.00     0.049 A 
ATOM     46  N   UNL A   1      39.775  30.295  30.655  1.00  0.00    -0.248 NA
ATOM     47  C   UNL A   1      39.298  29.239  28.627  1.00  0.00     0.031 C 
ATOM     48  C   UNL A   1      43.162  27.420  31.270  1.00  0.00     0.029 A 
ATOM     49  N   UNL A   1      42.075  29.179  32.127  1.00  0.00    -0.354 N 
ATOM     50  C   UNL A   1      38.666  30.894  30.070  1.00  0.00     0.074 A 
ATOM     51  C   UNL A   1      38.434  30.226  28.809  1.00  0.00     0.031 C 
ATOM     52  C   UNL A   1      43.729  27.710  32.455  1.00  0.00     0.029 A 
ATOM     53  C   UNL A   1      43.057  28.870  33.034  1.00  0.00     0.049 A 
ATOM     54  H   UNL A   1      41.434  29.915  32.255  1.00  0.00     0.167 HD
ATOM     55  C   UNL A   1      37.903  31.906  30.544  1.00  0.00     0.031 A 
ATOM     56  C   UNL A   1      43.378  29.467  34.198  1.00  0.00     0.031 A 
ATOM     57  C   UNL A   1      38.146  32.578  31.792  1.00  0.00     0.049 A 
ATOM     58  C   UNL A   1      42.560  30.639  34.667  1.00  0.00     0.074 A 
ATOM     59  C   UNL A   1      37.438  33.619  32.365  1.00  0.00     0.029 A 
ATOM     60  N   UNL A   1      39.186  32.274  32.656  1.00  0.00    -0.354 N 
ATOM     61  N   UNL A   1      41.507  31.190  34.112  1.00  0.00    -0.248 NA
ATOM     62  C   UNL A   1      42.971  31.266  35.932  1.00  0.00     0.031 C 
ATOM     63  C   UNL A   1      38.081  33.978  33.555  1.00  0.00     0.029 A 
ATOM     64  C   UNL A   1      39.155  33.122  33.748  1.00  0.00     0.049 A 
ATOM     65  H   UNL A   1      39.849  31.559  32.513  1.00  0.00     0.167 HD
ATOM     66  C   UNL A   1      41.113  32.209  34.970  1.00  0.00     0.074 A 
ATOM     67  C   UNL A   1      42.033  32.188  36.091  1.00  0.00     0.031 C 
ATOM     68  C   UNL A   1      40.084  33.083  34.847  1.00  0.00     0.031 A 
BRANCH  55  69
ATOM     69  C   UNL A   1      36.760  32.367  29.684  1.00  0.00    -0.014 A 
ATOM     70  C   UNL A   1      36.936  33.356  28.703  1.00  0.00     0.009 A 
ATOM     71  C   UNL A   1      35.490  31.796  29.854  1.00  0.00     0.009 A 
ATOM     72  C   UNL A   1      35.854  33.787  27.932  1.00  0.00     0.001 A 
ATOM     73  C   UNL A   1      34.415  32.211  29.063  1.00  0.00     0.001 A 
ATOM     74  C   UNL A   1      34.596  33.211  28.111  1.00  0.00     0.000 A 
ENDBRANCH  55  69
BRANCH  56  75
ATOM     75  C   UNL A   1      44.533  28.977  34.992  1.00  0.00    -0.014 A 
ATOM     76  C   UNL A   1      45.818  29.498  34.789  1.00  0.00     0.009 A 
ATOM     77  C   UNL A   1      44.351  27.969  35.953  1.00  0.00     0.009 A 
ATOM     78  C   UNL A   1      46.904  29.003  35.516  1.00  0.00     0.001 A 
ATOM     79  C   UNL A   1      45.434  27.495  36.697  1.00  0.00     0.001 A 
ATOM     80  C   UNL A   1      46.711  28.005  36.471  1.00  0.00     0.000 A 
ENDBRANCH  56  75
BRANCH  68  81
ATOM     81  C   UNL A   1      39.885  34.064  35.968  1.00  0.00    -0.014 A 
ATOM     82  C   UNL A   1      40.452  35.347  35.923  1.00  0.00     0.009 A 
ATOM     83  C   UNL A   1      39.090  33.707  37.067  1.00  0.00     0.009 A 
ATOM     84  C   UNL A   1      40.258  36.239  36.979  1.00  0.00     0.001 A 
ATOM     85  C   UNL A   1      38.874  34.612  38.108  1.00  0.00     0.001 A 
ATOM     86  C   UNL A   1      39.466  35.873  38.067  1.00  0.00     0.000 A 
ENDBRANCH  68  81
ENDBRANCH  42  43
ENDBRANCH  35  37
ENDBRANCH  34  35
ENDBRANCH  33  34
ENDBRANCH  32  33
ENDBRANCH  31  32
ENDBRANCH  30  31
ENDBRANCH   1  30
TORSDOF 21
ENDMDL
MODEL 3
REMARK VINA RESULT:      -9.7      3.989      9.585
REMARK SMILES C[C@H](NC(=O)c1ccc(C(C)(C)C)cc1)C(=O)N[C@@H](C(=O)OCCOCCOC(=O)c1ccc(-c2c3nc(c(-c4ccccc4)c4ccc([nH]4)c(-c4ccccc4)c4nc(c(-c5ccccc5)c5ccc2[nH]5)C=C4)C=C3)cc1)[C@H](C)O
REMARK SMILES IDX 23 1 22 2 20 3 21 4 19 5 18 6 16 7 17 8 2 10 1 11 3 12 4 13
REMARK SMILES IDX 5 15 6 16 7 17 15 18 8 19 14 20 9 21 10 22 11 23 12 24 13 25
REMARK SMILES IDX 79 26 80 27 81 28 24 30 25 31 26 32 27 33 28 34 29 35 30 36
REMARK SMILES IDX 31 37 32 38 78 39 33 40 77 41 34 42 35 43 36 44 71 45 37 46
REMARK SMILES IDX 76 47 70 48 72 49 38 50 75 51 69 52 68 53 39 55 61 56 46 57
REMARK SMILES IDX 60 58 47 59 50 60 59 61 73 62 48 63 49 64 58 66 74 67 51 68
REMARK SMILES IDX 40 69 41 70 45 71 42 72 44 73 43 74 62 75 63 76 67 77 64 78
REMARK SMILES IDX 66 79 65 80 52 81 53 82 57 83 54 84 56 85 55 86
REMARK H PARENT 18 9 3 14 81 29 72 54 50 65
REMARK Flexibility Score: inf
ROOT
ATOM      1  C   UNL A   1      34.300  34.826  28.681  1.00  0.00     0.261 C 
ENDROOT
BRANCH   1   2
ATOM      2  O   UNL A   1      33.844  33.676  27.951  1.00  0.00    -0.462 OA
BRANCH   2   3
ATOM      3  C   UNL A   1      34.038  32.495  28.598  1.00  0.00     0.331 C 
ATOM      4  O   UNL A   1      34.025  32.371  29.820  1.00  0.00    -0.250 OA
BRANCH   3   5
ATOM      5  C   UNL A   1      34.218  31.294  27.660  1.00  0.00     0.221 C 
BRANCH   5   6
ATOM      6  N   UNL A   1      33.277  30.208  27.888  1.00  0.00    -0.339 N 
ATOM      7  C   UNL A   1      32.149  29.885  27.204  1.00  0.00     0.243 C 
ATOM      8  O   UNL A   1      31.518  28.911  27.630  1.00  0.00    -0.273 OA
ATOM      9  H   UNL A   1      33.488  29.622  28.649  1.00  0.00     0.164 HD
BRANCH   7  10
ATOM     10  C   UNL A   1      31.735  30.553  25.865  1.00  0.00     0.168 C 
ATOM     11  C   UNL A   1      31.032  31.871  26.134  1.00  0.00     0.041 C 
BRANCH  10  12
ATOM     12  N   UNL A   1      31.227  29.696  24.767  1.00  0.00    -0.341 N 
ATOM     13  C   UNL A   1      31.347  28.431  24.251  1.00  0.00     0.251 C 
ATOM     14  H   UNL A   1      30.586  30.209  24.224  1.00  0.00     0.164 HD
ATOM     15  O   UNL A   1      30.767  28.199  23.190  1.00  0.00    -0.269 OA
BRANCH  13  16
ATOM     16  C   UNL A   1      32.212  27.373  24.816  1.00  0.00     0.039 A 
ATOM     17  C   UNL A   1      31.590  26.318  25.491  1.00  0.00     0.014 A 
ATOM     18  C   UNL A   1      33.587  27.337  24.656  1.00  0.00     0.014 A 
ATOM     19  C   UNL A   1      32.300  25.149  25.792  1.00  0.00     0.005 A 
ATOM     20  C   UNL A   1      34.299  26.165  24.957  1.00  0.00     0.005 A 
ATOM     21  C   UNL A   1      33.664  25.023  25.480  1.00  0.00    -0.043 A 
BRANCH  21  22
ATOM     22  C   UNL A   1      34.403  23.681  25.676  1.00  0.00    -0.013 C 
ATOM     23  C   UNL A   1      34.128  22.715  24.503  1.00  0.00     0.016 C 
ATOM     24  C   UNL A   1      35.926  23.911  25.747  1.00  0.00     0.016 C 
ATOM     25  C   UNL A   1      34.007  22.958  26.980  1.00  0.00     0.016 C 
ENDBRANCH  21  22
ENDBRANCH  13  16
ENDBRANCH  10  12
ENDBRANCH   7  10
ENDBRANCH   5   6
BRANCH   5  26
ATOM     26  C   UNL A   1      35.700  30.837  27.554  1.00  0.00     0.145 C 
ATOM     27  C   UNL A   1      36.011  29.364  27.763  1.00  0.00     0.041 C 
BRANCH  26  28
ATOM     28  O   UNL A   1      36.590  31.545  28.416  1.00  0.00    -0.391 OA
ATOM     29  H   UNL A   1      37.505  31.297  28.208  1.00  0.00     0.211 HD
ENDBRANCH  26  28
ENDBRANCH   5  26
ENDBRANCH   3   5
ENDBRANCH   2   3
ENDBRANCH   1   2
BRANCH   1  30
ATOM     30  C   UNL A   1      33.234  35.913  28.866  1.00  0.00     0.202 C 
BRANCH  30  31
ATOM     31  O   UNL A   1      33.305  36.812  29.966  1.00  0.00    -0.374 OA
BRANCH  31  32
ATOM     32  C   UNL A   1      32.882  36.385  31.253  1.00  0.00     0.202 C 
BRANCH  32  33
ATOM     33  C   UNL A   1      33.852  36.422  32.441  1.00  0.00     0.261 C 
BRANCH  33  34
ATOM     34  O   UNL A   1      34.966  35.531  32.305  1.00  0.00    -0.460 OA
BRANCH  34  35
ATOM     35  C   UNL A   1      34.681  34.262  32.686  1.00  0.00     0.338 C 
ATOM     36  O   UNL A   1      33.626  33.839  33.130  1.00  0.00    -0.246 OA
BRANCH  35  37
ATOM     37  C   UNL A   1      35.780  33.359  32.318  1.00  0.00     0.060 A 
ATOM     38  C   UNL A   1      35.751  32.074  32.878  1.00  0.00     0.016 A 
ATOM     39  C   UNL A   1      36.868  33.790  31.558  1.00  0.00     0.016 A 
ATOM     40  C   UNL A   1      36.848  31.238  32.745  1.00  0.00     0.010 A 
ATOM     41  C   UNL A   1      37.981  32.953  31.441  1.00  0.00     0.010 A 
ATOM     42  C   UNL A   1      37.990  31.701  32.083  1.00  0.00    -0.014 A 
BRANCH  42  43
ATOM     43  C   UNL A   1      39.252  30.957  32.281  1.00  0.00     0.031 A 
ATOM     44  C   UNL A   1      39.606  29.879  31.295  1.00  0.00     0.074 A 
ATOM     45  C   UNL A   1      40.107  31.303  33.258  1.00  0.00     0.049 A 
ATOM     46  N   UNL A   1      40.682  29.138  31.225  1.00  0.00    -0.248 NA
ATOM     47  C   UNL A   1      38.617  29.606  30.237  1.00  0.00     0.031 C 
ATOM     48  C   UNL A   1      39.893  32.374  34.230  1.00  0.00     0.029 A 
ATOM     49  N   UNL A   1      41.337  30.793  33.578  1.00  0.00    -0.354 N 
ATOM     50  C   UNL A   1      40.497  28.313  30.121  1.00  0.00     0.074 A 
ATOM     51  C   UNL A   1      39.198  28.621  29.569  1.00  0.00     0.031 C 
ATOM     52  C   UNL A   1      40.964  32.442  35.041  1.00  0.00     0.029 A 
ATOM     53  C   UNL A   1      41.920  31.407  34.657  1.00  0.00     0.049 A 
ATOM     54  H   UNL A   1      41.762  30.056  33.081  1.00  0.00     0.167 HD
ATOM     55  C   UNL A   1      41.340  27.386  29.609  1.00  0.00     0.031 A 
ATOM     56  C   UNL A   1      43.092  31.151  35.268  1.00  0.00     0.031 A 
ATOM     57  C   UNL A   1      42.626  27.072  30.171  1.00  0.00     0.049 A 
ATOM     58  C   UNL A   1      43.978  30.063  34.725  1.00  0.00     0.074 A 
ATOM     59  C   UNL A   1      43.557  26.147  29.735  1.00  0.00     0.029 A 
ATOM     60  N   UNL A   1      43.156  27.677  31.300  1.00  0.00    -0.354 N 
ATOM     61  N   UNL A   1      43.799  29.297  33.675  1.00  0.00    -0.248 NA
ATOM     62  C   UNL A   1      45.233  29.813  35.447  1.00  0.00     0.031 C 
ATOM     63  C   UNL A   1      44.631  26.158  30.631  1.00  0.00     0.029 A 
ATOM     64  C   UNL A   1      44.392  27.129  31.592  1.00  0.00     0.049 A 
ATOM     65  H   UNL A   1      42.717  28.391  31.818  1.00  0.00     0.167 HD
ATOM     66  C   UNL A   1      44.930  28.494  33.594  1.00  0.00     0.074 A 
ATOM     67  C   UNL A   1      45.794  28.878  34.693  1.00  0.00     0.031 C 
ATOM     68  C   UNL A   1      45.230  27.526  32.693  1.00  0.00     0.031 A 
BRANCH  55  69
ATOM     69  C   UNL A   1      40.871  26.622  28.404  1.00  0.00    -0.014 A 
ATOM     70  C   UNL A   1      39.993  25.534  28.524  1.00  0.00     0.009 A 
ATOM     71  C   UNL A   1      41.309  27.004  27.126  1.00  0.00     0.009 A 
ATOM     72  C   UNL A   1      39.589  24.822  27.391  1.00  0.00     0.001 A 
ATOM     73  C   UNL A   1      40.884  26.307  25.993  1.00  0.00     0.001 A 
ATOM     74  C   UNL A   1      40.032  25.212  26.128  1.00  0.00     0.000 A 
ENDBRANCH  55  69
BRANCH  56  75
ATOM     75  C   UNL A   1      43.489  31.928  36.470  1.00  0.00    -0.014 A 
ATOM     76  C   UNL A   1      44.332  33.043  36.360  1.00  0.00     0.009 A 
ATOM     77  C   UNL A   1      43.032  31.544  37.742  1.00  0.00     0.009 A 
ATOM     78  C   UNL A   1      44.729  33.744  37.501  1.00  0.00     0.001 A 
ATOM     79  C   UNL A   1      43.409  32.263  38.878  1.00  0.00     0.001 A 
ATOM     80  C   UNL A   1      44.265  33.356  38.758  1.00  0.00     0.000 A 
ENDBRANCH  56  75
BRANCH  68  81
ATOM     81  C   UNL A   1      46.559  26.842  32.844  1.00  0.00    -0.014 A 
ATOM     82  C   UNL A   1      46.692  25.663  33.594  1.00  0.00     0.009 A 
ATOM     83  C   UNL A   1      47.687  27.371  32.199  1.00  0.00     0.009 A 
ATOM     84  C   UNL A   1      47.938  25.049  33.726  1.00  0.00     0.001 A 
ATOM     85  C   UNL A   1      48.926  26.737  32.309  1.00  0.00     0.001 A 
ATOM     86  C   UNL A   1      49.052  25.583  33.080  1.00  0.00     0.000 A 
ENDBRANCH  68  81
ENDBRANCH  42  43
ENDBRANCH  35  37
ENDBRANCH  34  35
ENDBRANCH  33  34
ENDBRANCH  32  33
ENDBRANCH  31  32
ENDBRANCH  30  31
ENDBRANCH   1  30
TORSDOF 21
ENDMDL
