MODEL 1
REMARK VINA RESULT:      -8.1      0.000      0.000
REMARK SMILES CCC1C[NH+]([C@H](C(=O)OCCOCCOC(=O)c2ccc(-c3c4nc(c(-c5ccccc5)c5ccc([nH]5)c(-c5ccccc5)c5nc(c(-c6ccccc6)c6ccc3[nH]6)C=C5)C=C4)cc2)C(C)C)C1
REMARK SMILES IDX 12 1 11 2 10 3 9 4 7 5 8 6 6 7 5 8 3 9 4 10 69 11 2 13 1 14
REMARK SMILES IDX 66 15 67 16 68 17 13 18 14 19 15 20 16 21 17 22 18 23 19 24
REMARK SMILES IDX 65 25 20 26 64 27 21 28 22 29 23 30 58 31 24 32 63 33 57 34
REMARK SMILES IDX 59 35 25 36 62 37 56 38 55 39 26 41 48 42 33 43 47 44 34 45
REMARK SMILES IDX 37 46 46 47 60 48 35 49 36 50 45 52 61 53 38 54 27 55 28 56
REMARK SMILES IDX 32 57 29 58 31 59 30 60 49 61 50 62 54 63 51 64 53 65 52 66
REMARK SMILES IDX 39 67 40 68 44 69 41 70 43 71 42 72
REMARK H PARENT 5 12 59 40 37 51
REMARK Flexibility Score: inf
ROOT
ATOM      1  O   UNL A   1      34.505  35.163  33.284  1.00  0.00    -0.374 OA
ENDROOT
BRANCH   1   2
ATOM      2  C   UNL A   1      35.872  34.935  33.607  1.00  0.00     0.202 C 
BRANCH   2   3
ATOM      3  C   UNL A   1      36.235  33.597  34.264  1.00  0.00     0.261 C 
BRANCH   3   4
ATOM      4  O   UNL A   1      37.427  33.576  35.075  1.00  0.00    -0.459 OA
BRANCH   4   5
ATOM      5  C   UNL A   1      37.225  33.193  36.365  1.00  0.00     0.365 C 
ATOM      6  O   UNL A   1      36.206  33.469  36.998  1.00  0.00    -0.245 OA
BRANCH   5   7
ATOM      7  C   UNL A   1      38.416  32.538  37.056  1.00  0.00     0.297 C 
BRANCH   7   8
ATOM      8  N   UNL A   1      39.179  31.475  36.402  1.00  0.00    -0.322 N 
ATOM      9  C   UNL A   1      39.951  30.253  34.956  1.00  0.00     0.099 C 
ATOM     10  C   UNL A   1      40.218  31.749  35.388  1.00  0.00     0.272 C 
ATOM     11  C   UNL A   1      38.490  30.611  35.422  1.00  0.00     0.272 C 
ATOM     12  H   UNL A   1      39.471  31.143  37.321  1.00  0.00     0.348 HD
BRANCH   9  13
ATOM     13  C   UNL A   1      40.286  29.676  33.591  1.00  0.00     0.012 C 
ATOM     14  C   UNL A   1      41.093  28.403  33.645  1.00  0.00     0.004 C 
ENDBRANCH   9  13
ENDBRANCH   7   8
BRANCH   7  15
ATOM     15  C   UNL A   1      39.403  33.604  37.616  1.00  0.00     0.053 C 
ATOM     16  C   UNL A   1      39.011  35.038  37.234  1.00  0.00     0.014 C 
ATOM     17  C   UNL A   1      39.478  33.519  39.151  1.00  0.00     0.014 C 
ENDBRANCH   7  15
ENDBRANCH   5   7
ENDBRANCH   4   5
ENDBRANCH   3   4
ENDBRANCH   2   3
ENDBRANCH   1   2
BRANCH   1  18
ATOM     18  C   UNL A   1      34.150  36.432  32.736  1.00  0.00     0.202 C 
BRANCH  18  19
ATOM     19  C   UNL A   1      33.093  36.409  31.635  1.00  0.00     0.261 C 
BRANCH  19  20
ATOM     20  O   UNL A   1      32.892  35.073  31.137  1.00  0.00    -0.460 OA
BRANCH  20  21
ATOM     21  C   UNL A   1      33.238  34.914  29.841  1.00  0.00     0.338 C 
ATOM     22  O   UNL A   1      32.753  35.479  28.872  1.00  0.00    -0.246 OA
BRANCH  21  23
ATOM     23  C   UNL A   1      34.400  34.021  29.724  1.00  0.00     0.060 A 
ATOM     24  C   UNL A   1      34.545  33.010  30.679  1.00  0.00     0.016 A 
ATOM     25  C   UNL A   1      35.419  34.281  28.805  1.00  0.00     0.016 A 
ATOM     26  C   UNL A   1      35.747  32.307  30.766  1.00  0.00     0.010 A 
ATOM     27  C   UNL A   1      36.616  33.567  28.883  1.00  0.00     0.010 A 
ATOM     28  C   UNL A   1      36.805  32.616  29.899  1.00  0.00    -0.014 A 
BRANCH  28  29
ATOM     29  C   UNL A   1      38.149  32.042  30.143  1.00  0.00     0.031 A 
ATOM     30  C   UNL A   1      39.140  32.801  30.984  1.00  0.00     0.074 A 
ATOM     31  C   UNL A   1      38.480  30.848  29.624  1.00  0.00     0.049 A 
ATOM     32  N   UNL A   1      40.343  32.449  31.364  1.00  0.00    -0.248 NA
ATOM     33  C   UNL A   1      38.727  34.134  31.451  1.00  0.00     0.031 C 
ATOM     34  C   UNL A   1      37.618  30.029  28.774  1.00  0.00     0.029 A 
ATOM     35  N   UNL A   1      39.637  30.122  29.737  1.00  0.00    -0.354 N 
ATOM     36  C   UNL A   1      40.827  33.514  32.114  1.00  0.00     0.074 A 
ATOM     37  C   UNL A   1      39.808  34.540  32.100  1.00  0.00     0.031 C 
ATOM     38  C   UNL A   1      38.279  28.908  28.439  1.00  0.00     0.029 A 
ATOM     39  C   UNL A   1      39.608  28.937  29.046  1.00  0.00     0.049 A 
ATOM     40  H   UNL A   1      40.414  30.421  30.263  1.00  0.00     0.167 HD
ATOM     41  C   UNL A   1      42.008  33.623  32.770  1.00  0.00     0.031 A 
ATOM     42  C   UNL A   1      40.546  27.980  28.919  1.00  0.00     0.031 A 
ATOM     43  C   UNL A   1      43.029  32.610  32.776  1.00  0.00     0.049 A 
ATOM     44  C   UNL A   1      41.850  28.120  29.652  1.00  0.00     0.074 A 
ATOM     45  C   UNL A   1      44.242  32.606  33.443  1.00  0.00     0.029 A 
ATOM     46  N   UNL A   1      42.955  31.418  32.071  1.00  0.00    -0.354 N 
ATOM     47  N   UNL A   1      42.265  29.099  30.418  1.00  0.00    -0.248 NA
ATOM     48  C   UNL A   1      42.805  27.009  29.520  1.00  0.00     0.031 C 
ATOM     49  C   UNL A   1      44.921  31.429  33.109  1.00  0.00     0.029 A 
ATOM     50  C   UNL A   1      44.111  30.681  32.270  1.00  0.00     0.049 A 
ATOM     51  H   UNL A   1      42.195  31.138  31.513  1.00  0.00     0.167 HD
ATOM     52  C   UNL A   1      43.519  28.718  30.875  1.00  0.00     0.074 A 
ATOM     53  C   UNL A   1      43.791  27.410  30.311  1.00  0.00     0.031 C 
ATOM     54  C   UNL A   1      44.369  29.388  31.692  1.00  0.00     0.031 A 
BRANCH  41  55
ATOM     55  C   UNL A   1      42.257  34.896  33.530  1.00  0.00    -0.014 A 
ATOM     56  C   UNL A   1      41.788  35.060  34.844  1.00  0.00     0.009 A 
ATOM     57  C   UNL A   1      42.983  35.939  32.934  1.00  0.00     0.009 A 
ATOM     58  C   UNL A   1      42.007  36.256  35.530  1.00  0.00     0.001 A 
ATOM     59  C   UNL A   1      43.223  37.124  33.632  1.00  0.00     0.001 A 
ATOM     60  C   UNL A   1      42.726  37.286  34.925  1.00  0.00     0.000 A 
ENDBRANCH  41  55
BRANCH  42  61
ATOM     61  C   UNL A   1      40.262  26.791  28.078  1.00  0.00    -0.014 A 
ATOM     62  C   UNL A   1      40.777  26.697  26.778  1.00  0.00     0.009 A 
ATOM     63  C   UNL A   1      39.503  25.728  28.591  1.00  0.00     0.009 A 
ATOM     64  C   UNL A   1      40.528  25.563  26.002  1.00  0.00     0.001 A 
ATOM     65  C   UNL A   1      39.272  24.587  27.821  1.00  0.00     0.001 A 
ATOM     66  C   UNL A   1      39.781  24.507  26.526  1.00  0.00     0.000 A 
ENDBRANCH  42  61
BRANCH  54  67
ATOM     67  C   UNL A   1      45.664  28.711  32.033  1.00  0.00    -0.014 A 
ATOM     68  C   UNL A   1      46.813  28.914  31.253  1.00  0.00     0.009 A 
ATOM     69  C   UNL A   1      45.745  27.891  33.168  1.00  0.00     0.009 A 
ATOM     70  C   UNL A   1      48.013  28.282  31.589  1.00  0.00     0.001 A 
ATOM     71  C   UNL A   1      46.951  27.278  33.514  1.00  0.00     0.001 A 
ATOM     72  C   UNL A   1      48.081  27.469  32.719  1.00  0.00     0.000 A 
ENDBRANCH  54  67
ENDBRANCH  28  29
ENDBRANCH  21  23
ENDBRANCH  20  21
ENDBRANCH  19  20
ENDBRANCH  18  19
ENDBRANCH   1  18
TORSDOF 17
ENDMDL
MODEL 2
REMARK VINA RESULT:      -7.6      6.151     11.370
REMARK SMILES CCC1C[NH+]([C@H](C(=O)OCCOCCOC(=O)c2ccc(-c3c4nc(c(-c5ccccc5)c5ccc([nH]5)c(-c5ccccc5)c5nc(c(-c6ccccc6)c6ccc3[nH]6)C=C5)C=C4)cc2)C(C)C)C1
REMARK SMILES IDX 12 1 11 2 10 3 9 4 7 5 8 6 6 7 5 8 3 9 4 10 69 11 2 13 1 14
REMARK SMILES IDX 66 15 67 16 68 17 13 18 14 19 15 20 16 21 17 22 18 23 19 24
REMARK SMILES IDX 65 25 20 26 64 27 21 28 22 29 23 30 58 31 24 32 63 33 57 34
REMARK SMILES IDX 59 35 25 36 62 37 56 38 55 39 26 41 48 42 33 43 47 44 34 45
REMARK SMILES IDX 37 46 46 47 60 48 35 49 36 50 45 52 61 53 38 54 27 55 28 56
REMARK SMILES IDX 32 57 29 58 31 59 30 60 49 61 50 62 54 63 51 64 53 65 52 66
REMARK SMILES IDX 39 67 40 68 44 69 41 70 43 71 42 72
REMARK H PARENT 5 12 59 40 37 51
REMARK Flexibility Score: inf
ROOT
ATOM      1  O   UNL A   1      34.447  21.325  24.763  1.00  0.00    -0.374 OA
ENDROOT
BRANCH   1   2
ATOM      2  C   UNL A   1      33.459  21.793  23.852  1.00  0.00     0.202 C 
BRANCH   2   3
ATOM      3  C   UNL A   1      33.674  23.173  23.216  1.00  0.00     0.261 C 
BRANCH   3   4
ATOM      4  O   UNL A   1      32.976  24.280  23.820  1.00  0.00    -0.459 OA
BRANCH   4   5
ATOM      5  C   UNL A   1      33.013  25.432  23.097  1.00  0.00     0.365 C 
ATOM      6  O   UNL A   1      33.366  25.477  21.918  1.00  0.00    -0.245 OA
BRANCH   5   7
ATOM      7  C   UNL A   1      32.752  26.715  23.879  1.00  0.00     0.297 C 
BRANCH   7   8
ATOM      8  N   UNL A   1      31.529  27.492  23.670  1.00  0.00    -0.322 N 
ATOM      9  C   UNL A   1      30.227  28.903  22.968  1.00  0.00     0.099 C 
ATOM     10  C   UNL A   1      30.865  27.595  22.354  1.00  0.00     0.272 C 
ATOM     11  C   UNL A   1      31.613  28.966  23.711  1.00  0.00     0.272 C 
ATOM     12  H   UNL A   1      31.077  26.945  24.403  1.00  0.00     0.348 HD
BRANCH   9  13
ATOM     13  C   UNL A   1      29.652  30.047  22.150  1.00  0.00     0.012 C 
ATOM     14  C   UNL A   1      28.220  29.838  21.726  1.00  0.00     0.004 C 
ENDBRANCH   9  13
ENDBRANCH   7   8
BRANCH   7  15
ATOM     15  C   UNL A   1      32.965  26.501  25.406  1.00  0.00     0.053 C 
ATOM     16  C   UNL A   1      33.977  27.486  26.009  1.00  0.00     0.014 C 
ATOM     17  C   UNL A   1      31.634  26.653  26.165  1.00  0.00     0.014 C 
ENDBRANCH   7  15
ENDBRANCH   5   7
ENDBRANCH   4   5
ENDBRANCH   3   4
ENDBRANCH   2   3
ENDBRANCH   1   2
BRANCH   1  18
ATOM     18  C   UNL A   1      35.762  21.871  24.662  1.00  0.00     0.202 C 
BRANCH  18  19
ATOM     19  C   UNL A   1      36.903  20.936  25.052  1.00  0.00     0.261 C 
BRANCH  19  20
ATOM     20  O   UNL A   1      38.179  21.585  24.898  1.00  0.00    -0.460 OA
BRANCH  20  21
ATOM     21  C   UNL A   1      39.069  21.280  25.867  1.00  0.00     0.338 C 
ATOM     22  O   UNL A   1      39.588  20.194  26.080  1.00  0.00    -0.246 OA
BRANCH  21  23
ATOM     23  C   UNL A   1      39.451  22.488  26.614  1.00  0.00     0.060 A 
ATOM     24  C   UNL A   1      38.783  23.680  26.315  1.00  0.00     0.016 A 
ATOM     25  C   UNL A   1      40.564  22.491  27.458  1.00  0.00     0.016 A 
ATOM     26  C   UNL A   1      39.275  24.890  26.801  1.00  0.00     0.010 A 
ATOM     27  C   UNL A   1      41.047  23.702  27.957  1.00  0.00     0.010 A 
ATOM     28  C   UNL A   1      40.438  24.912  27.585  1.00  0.00    -0.014 A 
BRANCH  28  29
ATOM     29  C   UNL A   1      41.090  26.204  27.900  1.00  0.00     0.031 A 
ATOM     30  C   UNL A   1      42.454  26.505  27.339  1.00  0.00     0.074 A 
ATOM     31  C   UNL A   1      40.467  27.105  28.677  1.00  0.00     0.049 A 
ATOM     32  N   UNL A   1      43.170  27.596  27.447  1.00  0.00    -0.248 NA
ATOM     33  C   UNL A   1      43.099  25.435  26.561  1.00  0.00     0.031 C 
ATOM     34  C   UNL A   1      39.158  26.921  29.300  1.00  0.00     0.029 A 
ATOM     35  N   UNL A   1      40.861  28.357  29.074  1.00  0.00    -0.354 N 
ATOM     36  C   UNL A   1      44.346  27.344  26.750  1.00  0.00     0.074 A 
ATOM     37  C   UNL A   1      44.267  25.984  26.262  1.00  0.00     0.031 C 
ATOM     38  C   UNL A   1      38.855  28.023  30.007  1.00  0.00     0.029 A 
ATOM     39  C   UNL A   1      39.951  28.983  29.888  1.00  0.00     0.049 A 
ATOM     40  H   UNL A   1      41.714  28.766  28.803  1.00  0.00     0.167 HD
ATOM     41  C   UNL A   1      45.393  28.174  26.524  1.00  0.00     0.031 A 
ATOM     42  C   UNL A   1      39.994  30.197  30.469  1.00  0.00     0.031 A 
ATOM     43  C   UNL A   1      45.481  29.522  27.018  1.00  0.00     0.049 A 
ATOM     44  C   UNL A   1      41.164  31.101  30.208  1.00  0.00     0.074 A 
ATOM     45  C   UNL A   1      46.479  30.458  26.810  1.00  0.00     0.029 A 
ATOM     46  N   UNL A   1      44.531  30.123  27.831  1.00  0.00    -0.354 N 
ATOM     47  N   UNL A   1      42.235  30.878  29.487  1.00  0.00    -0.248 NA
ATOM     48  C   UNL A   1      41.117  32.436  30.823  1.00  0.00     0.031 C 
ATOM     49  C   UNL A   1      46.153  31.612  27.530  1.00  0.00     0.029 A 
ATOM     50  C   UNL A   1      44.931  31.410  28.149  1.00  0.00     0.049 A 
ATOM     51  H   UNL A   1      43.698  29.698  28.134  1.00  0.00     0.167 HD
ATOM     52  C   UNL A   1      42.982  32.046  29.545  1.00  0.00     0.074 A 
ATOM     53  C   UNL A   1      42.234  32.983  30.361  1.00  0.00     0.031 C 
ATOM     54  C   UNL A   1      44.179  32.322  28.972  1.00  0.00     0.031 A 
BRANCH  41  55
ATOM     55  C   UNL A   1      46.534  27.634  25.708  1.00  0.00    -0.014 A 
ATOM     56  C   UNL A   1      47.564  26.889  26.306  1.00  0.00     0.009 A 
ATOM     57  C   UNL A   1      46.573  27.855  24.322  1.00  0.00     0.009 A 
ATOM     58  C   UNL A   1      48.629  26.411  25.540  1.00  0.00     0.001 A 
ATOM     59  C   UNL A   1      47.627  27.354  23.555  1.00  0.00     0.001 A 
ATOM     60  C   UNL A   1      48.658  26.642  24.165  1.00  0.00     0.000 A 
ENDBRANCH  41  55
BRANCH  42  61
ATOM     61  C   UNL A   1      38.869  30.626  31.336  1.00  0.00    -0.014 A 
ATOM     62  C   UNL A   1      37.753  31.275  30.789  1.00  0.00     0.009 A 
ATOM     63  C   UNL A   1      38.894  30.355  32.713  1.00  0.00     0.009 A 
ATOM     64  C   UNL A   1      36.686  31.652  31.606  1.00  0.00     0.001 A 
ATOM     65  C   UNL A   1      37.817  30.715  33.525  1.00  0.00     0.001 A 
ATOM     66  C   UNL A   1      36.716  31.367  32.972  1.00  0.00     0.000 A 
ENDBRANCH  42  61
BRANCH  54  67
ATOM     67  C   UNL A   1      44.745  33.695  29.196  1.00  0.00    -0.014 A 
ATOM     68  C   UNL A   1      44.440  34.753  28.325  1.00  0.00     0.009 A 
ATOM     69  C   UNL A   1      45.562  33.939  30.309  1.00  0.00     0.009 A 
ATOM     70  C   UNL A   1      44.970  36.025  28.552  1.00  0.00     0.001 A 
ATOM     71  C   UNL A   1      46.072  35.217  30.545  1.00  0.00     0.001 A 
ATOM     72  C   UNL A   1      45.781  36.256  29.662  1.00  0.00     0.000 A 
ENDBRANCH  54  67
ENDBRANCH  28  29
ENDBRANCH  21  23
ENDBRANCH  20  21
ENDBRANCH  19  20
ENDBRANCH  18  19
ENDBRANCH   1  18
TORSDOF 17
ENDMDL
MODEL 3
REMARK VINA RESULT:      -7.6      5.832     11.554
REMARK SMILES CCC1C[NH+]([C@H](C(=O)OCCOCCOC(=O)c2ccc(-c3c4nc(c(-c5ccccc5)c5ccc([nH]5)c(-c5ccccc5)c5nc(c(-c6ccccc6)c6ccc3[nH]6)C=C5)C=C4)cc2)C(C)C)C1
REMARK SMILES IDX 12 1 11 2 10 3 9 4 7 5 8 6 6 7 5 8 3 9 4 10 69 11 2 13 1 14
REMARK SMILES IDX 66 15 67 16 68 17 13 18 14 19 15 20 16 21 17 22 18 23 19 24
REMARK SMILES IDX 65 25 20 26 64 27 21 28 22 29 23 30 58 31 24 32 63 33 57 34
REMARK SMILES IDX 59 35 25 36 62 37 56 38 55 39 26 41 48 42 33 43 47 44 34 45
REMARK SMILES IDX 37 46 46 47 60 48 35 49 36 50 45 52 61 53 38 54 27 55 28 56
REMARK SMILES IDX 32 57 29 58 31 59 30 60 49 61 50 62 54 63 51 64 53 65 52 66
REMARK SMILES IDX 39 67 40 68 44 69 41 70 43 71 42 72
REMARK H PARENT 5 12 59 40 37 51
REMARK Flexibility Score: inf
ROOT
ATOM      1  O   UNL A   1      44.685  20.529  24.412  1.00  0.00    -0.374 OA
ENDROOT
BRANCH   1   2
ATOM      2  C   UNL A   1      45.880  21.251  24.686  1.00  0.00     0.202 C 
BRANCH   2   3
ATOM      3  C   UNL A   1      45.858  22.250  25.850  1.00  0.00     0.261 C 
BRANCH   3   4
ATOM      4  O   UNL A   1      46.754  23.376  25.755  1.00  0.00    -0.459 OA
BRANCH   4   5
ATOM      5  C   UNL A   1      46.166  24.531  25.342  1.00  0.00     0.365 C 
ATOM      6  O   UNL A   1      45.405  24.592  24.376  1.00  0.00    -0.245 OA
BRANCH   5   7
ATOM      7  C   UNL A   1      46.638  25.801  26.041  1.00  0.00     0.297 C 
BRANCH   7   8
ATOM      8  N   UNL A   1      48.060  26.135  26.124  1.00  0.00    -0.322 N 
ATOM      9  C   UNL A   1      50.093  25.941  26.227  1.00  0.00     0.099 C 
ATOM     10  C   UNL A   1      49.029  25.761  25.073  1.00  0.00     0.272 C 
ATOM     11  C   UNL A   1      48.897  25.422  27.110  1.00  0.00     0.272 C 
ATOM     12  H   UNL A   1      47.805  27.118  26.224  1.00  0.00     0.348 HD
BRANCH   9  13
ATOM     13  C   UNL A   1      51.478  25.318  26.228  1.00  0.00     0.012 C 
ATOM     14  C   UNL A   1      52.540  26.185  26.855  1.00  0.00     0.004 C 
ENDBRANCH   9  13
ENDBRANCH   7   8
BRANCH   7  15
ATOM     15  C   UNL A   1      45.850  27.048  25.543  1.00  0.00     0.053 C 
ATOM     16  C   UNL A   1      45.715  28.136  26.618  1.00  0.00     0.014 C 
ATOM     17  C   UNL A   1      46.539  27.669  24.314  1.00  0.00     0.014 C 
ENDBRANCH   7  15
ENDBRANCH   5   7
ENDBRANCH   4   5
ENDBRANCH   3   4
ENDBRANCH   2   3
ENDBRANCH   1   2
BRANCH   1  18
ATOM     18  C   UNL A   1      44.573  19.202  24.923  1.00  0.00     0.202 C 
BRANCH  18  19
ATOM     19  C   UNL A   1      43.230  18.840  25.551  1.00  0.00     0.261 C 
BRANCH  19  20
ATOM     20  O   UNL A   1      42.199  19.751  25.127  1.00  0.00    -0.460 OA
BRANCH  20  21
ATOM     21  C   UNL A   1      41.452  20.242  26.140  1.00  0.00     0.338 C 
ATOM     22  O   UNL A   1      40.451  19.741  26.631  1.00  0.00    -0.246 OA
BRANCH  21  23
ATOM     23  C   UNL A   1      42.068  21.458  26.692  1.00  0.00     0.060 A 
ATOM     24  C   UNL A   1      42.200  21.550  28.082  1.00  0.00     0.016 A 
ATOM     25  C   UNL A   1      42.343  22.559  25.878  1.00  0.00     0.016 A 
ATOM     26  C   UNL A   1      42.535  22.771  28.666  1.00  0.00     0.010 A 
ATOM     27  C   UNL A   1      42.694  23.777  26.464  1.00  0.00     0.010 A 
ATOM     28  C   UNL A   1      42.736  23.902  27.862  1.00  0.00    -0.014 A 
BRANCH  28  29
ATOM     29  C   UNL A   1      42.857  25.239  28.488  1.00  0.00     0.031 A 
ATOM     30  C   UNL A   1      44.175  25.671  29.071  1.00  0.00     0.074 A 
ATOM     31  C   UNL A   1      41.798  26.066  28.530  1.00  0.00     0.049 A 
ATOM     32  N   UNL A   1      44.505  26.817  29.611  1.00  0.00    -0.248 NA
ATOM     33  C   UNL A   1      45.262  24.678  29.053  1.00  0.00     0.031 C 
ATOM     34  C   UNL A   1      40.463  25.754  28.023  1.00  0.00     0.029 A 
ATOM     35  N   UNL A   1      41.686  27.338  29.028  1.00  0.00    -0.354 N 
ATOM     36  C   UNL A   1      45.835  26.684  29.993  1.00  0.00     0.074 A 
ATOM     37  C   UNL A   1      46.237  25.334  29.664  1.00  0.00     0.031 C 
ATOM     38  C   UNL A   1      39.661  26.810  28.239  1.00  0.00     0.029 A 
ATOM     39  C   UNL A   1      40.425  27.864  28.902  1.00  0.00     0.049 A 
ATOM     40  H   UNL A   1      42.436  27.826  29.438  1.00  0.00     0.167 HD
ATOM     41  C   UNL A   1      46.654  27.608  30.553  1.00  0.00     0.031 A 
ATOM     42  C   UNL A   1      39.941  29.064  29.275  1.00  0.00     0.031 A 
ATOM     43  C   UNL A   1      46.254  28.947  30.892  1.00  0.00     0.049 A 
ATOM     44  C   UNL A   1      40.863  30.073  29.897  1.00  0.00     0.074 A 
ATOM     45  C   UNL A   1      47.018  29.971  31.425  1.00  0.00     0.029 A 
ATOM     46  N   UNL A   1      44.969  29.445  30.738  1.00  0.00    -0.354 N 
ATOM     47  N   UNL A   1      42.138  29.960  30.185  1.00  0.00    -0.248 NA
ATOM     48  C   UNL A   1      40.285  31.385  30.223  1.00  0.00     0.031 C 
ATOM     49  C   UNL A   1      46.186  31.076  31.630  1.00  0.00     0.029 A 
ATOM     50  C   UNL A   1      44.914  30.755  31.184  1.00  0.00     0.049 A 
ATOM     51  H   UNL A   1      44.210  28.942  30.365  1.00  0.00     0.167 HD
ATOM     52  C   UNL A   1      42.519  31.187  30.708  1.00  0.00     0.074 A 
ATOM     53  C   UNL A   1      41.344  32.037  30.685  1.00  0.00     0.031 C 
ATOM     54  C   UNL A   1      43.734  31.579  31.164  1.00  0.00     0.031 A 
BRANCH  41  55
ATOM     55  C   UNL A   1      48.068  27.187  30.840  1.00  0.00    -0.014 A 
ATOM     56  C   UNL A   1      49.097  27.420  29.912  1.00  0.00     0.009 A 
ATOM     57  C   UNL A   1      48.382  26.566  32.060  1.00  0.00     0.009 A 
ATOM     58  C   UNL A   1      50.402  27.005  30.183  1.00  0.00     0.001 A 
ATOM     59  C   UNL A   1      49.693  26.175  32.338  1.00  0.00     0.001 A 
ATOM     60  C   UNL A   1      50.700  26.386  31.396  1.00  0.00     0.000 A 
ENDBRANCH  41  55
BRANCH  42  61
ATOM     61  C   UNL A   1      38.510  29.375  29.040  1.00  0.00    -0.014 A 
ATOM     62  C   UNL A   1      38.065  29.774  27.772  1.00  0.00     0.009 A 
ATOM     63  C   UNL A   1      37.577  29.237  30.079  1.00  0.00     0.009 A 
ATOM     64  C   UNL A   1      36.712  30.038  27.551  1.00  0.00     0.001 A 
ATOM     65  C   UNL A   1      36.222  29.482  29.850  1.00  0.00     0.001 A 
ATOM     66  C   UNL A   1      35.791  29.887  28.588  1.00  0.00     0.000 A 
ENDBRANCH  42  61
BRANCH  54  67
ATOM     67  C   UNL A   1      43.855  32.991  31.661  1.00  0.00    -0.014 A 
ATOM     68  C   UNL A   1      44.182  34.039  30.787  1.00  0.00     0.009 A 
ATOM     69  C   UNL A   1      43.605  33.278  33.011  1.00  0.00     0.009 A 
ATOM     70  C   UNL A   1      44.284  35.347  31.265  1.00  0.00     0.001 A 
ATOM     71  C   UNL A   1      43.687  34.590  33.481  1.00  0.00     0.001 A 
ATOM     72  C   UNL A   1      44.034  35.622  32.609  1.00  0.00     0.000 A 
ENDBRANCH  54  67
ENDBRANCH  28  29
ENDBRANCH  21  23
ENDBRANCH  20  21
ENDBRANCH  19  20
ENDBRANCH  18  19
ENDBRANCH   1  18
TORSDOF 17
ENDMDL
