MODEL 1
REMARK VINA RESULT:     -12.4      0.000      0.000
REMARK SMILES C[C@]1(C(=O)OCCOCCOC(=O)c2ccc(-c3c4nc(c(-c5ccccc5)c5ccc([nH]5)c(-c5ccccc5)c5nc(c(-c6ccccc6)c6ccc3[nH]6)C=C5)C=C4)cc2)[NH2+]C2(C(=O)c3ccccc3C2=O)[C@@H]2C(=O)N(c3ccccc3)C(=O)[C@H]21
REMARK SMILES IDX 9 1 8 2 7 3 6 4 5 5 3 6 4 7 2 8 1 9 62 10 86 11 63 12 74 15
REMARK SMILES IDX 84 16 64 17 72 18 75 19 77 20 85 21 65 22 66 23 71 24 73 25
REMARK SMILES IDX 76 26 67 27 70 28 68 29 69 30 78 31 79 32 83 33 80 34 82 35
REMARK SMILES IDX 81 36 10 37 11 38 12 39 13 40 14 41 15 42 61 43 16 44 60 45
REMARK SMILES IDX 17 46 18 47 19 48 54 49 20 50 59 51 53 52 55 53 21 54 58 55
REMARK SMILES IDX 52 56 51 57 22 59 44 60 29 61 43 62 30 63 33 64 42 65 56 66
REMARK SMILES IDX 31 67 32 68 41 70 57 71 34 72 23 73 24 74 28 75 25 76 27 77
REMARK SMILES IDX 26 78 45 79 46 80 50 81 47 82 49 83 48 84 35 85 36 86 40 87
REMARK SMILES IDX 37 88 39 89 38 90
REMARK H PARENT 62 13 62 14 55 58 33 69
REMARK Flexibility Score: inf
ROOT
ATOM      1  C   UNL A   1      34.262  33.894  28.832  1.00  0.00     0.202 C 
ENDROOT
BRANCH   1   2
ATOM      2  O   UNL A   1      33.290  33.054  28.212  1.00  0.00    -0.374 OA
BRANCH   2   3
ATOM      3  C   UNL A   1      33.738  31.867  27.567  1.00  0.00     0.202 C 
BRANCH   3   4
ATOM      4  C   UNL A   1      32.707  30.773  27.287  1.00  0.00     0.261 C 
BRANCH   4   5
ATOM      5  O   UNL A   1      33.183  29.470  27.645  1.00  0.00    -0.459 OA
BRANCH   5   6
ATOM      6  C   UNL A   1      32.466  28.423  27.148  1.00  0.00     0.368 C 
ATOM      7  O   UNL A   1      31.309  28.174  27.465  1.00  0.00    -0.245 OA
BRANCH   6   8
ATOM      8  C   UNL A   1      33.292  27.559  26.151  1.00  0.00     0.205 C 
ATOM      9  C   UNL A   1      34.736  28.066  26.200  1.00  0.00     0.093 C 
ATOM     10  N   UNL A   1      33.294  26.057  26.462  1.00  0.00    -0.313 N 
ATOM     11  C   UNL A   1      32.673  27.599  24.779  1.00  0.00     0.172 C 
ATOM     12  C   UNL A   1      32.454  25.362  25.397  1.00  0.00     0.237 C 
ATOM     13  H   UNL A   1      32.891  25.892  27.384  1.00  0.00     0.348 HD
ATOM     14  H   UNL A   1      34.247  25.694  26.458  1.00  0.00     0.348 HD
ATOM     15  C   UNL A   1      31.638  26.495  24.892  1.00  0.00     0.177 C 
ATOM     16  C   UNL A   1      31.824  28.701  24.245  1.00  0.00     0.244 C 
ATOM     17  C   UNL A   1      33.321  24.628  24.376  1.00  0.00     0.232 C 
ATOM     18  C   UNL A   1      31.625  24.240  26.007  1.00  0.00     0.232 C 
ATOM     19  C   UNL A   1      30.891  26.684  23.628  1.00  0.00     0.245 C 
ATOM     20  N   UNL A   1      30.833  28.071  23.494  1.00  0.00    -0.250 N 
ATOM     21  O   UNL A   1      32.034  29.885  24.439  1.00  0.00    -0.273 OA
ATOM     22  O   UNL A   1      34.194  25.106  23.670  1.00  0.00    -0.286 OA
ATOM     23  C   UNL A   1      33.004  23.201  24.434  1.00  0.00     0.036 A 
ATOM     24  C   UNL A   1      32.036  22.972  25.404  1.00  0.00     0.036 A 
ATOM     25  O   UNL A   1      30.729  24.335  26.830  1.00  0.00    -0.286 OA
ATOM     26  O   UNL A   1      30.359  25.792  22.994  1.00  0.00    -0.273 OA
ATOM     27  C   UNL A   1      33.549  22.167  23.694  1.00  0.00     0.013 A 
ATOM     28  C   UNL A   1      31.581  21.696  25.686  1.00  0.00     0.013 A 
ATOM     29  C   UNL A   1      33.096  20.871  23.960  1.00  0.00     0.001 A 
ATOM     30  C   UNL A   1      32.125  20.636  24.952  1.00  0.00     0.001 A 
BRANCH  20  31
ATOM     31  C   UNL A   1      29.786  28.783  22.871  1.00  0.00     0.052 A 
ATOM     32  C   UNL A   1      30.063  29.792  21.940  1.00  0.00     0.027 A 
ATOM     33  C   UNL A   1      28.461  28.587  23.285  1.00  0.00     0.027 A 
ATOM     34  C   UNL A   1      29.040  30.596  21.438  1.00  0.00     0.002 A 
ATOM     35  C   UNL A   1      27.445  29.423  22.815  1.00  0.00     0.002 A 
ATOM     36  C   UNL A   1      27.734  30.423  21.889  1.00  0.00     0.000 A 
ENDBRANCH  20  31
ENDBRANCH   6   8
ENDBRANCH   5   6
ENDBRANCH   4   5
ENDBRANCH   3   4
ENDBRANCH   2   3
ENDBRANCH   1   2
BRANCH   1  37
ATOM     37  C   UNL A   1      34.562  33.679  30.320  1.00  0.00     0.261 C 
BRANCH  37  38
ATOM     38  O   UNL A   1      34.747  32.296  30.662  1.00  0.00    -0.460 OA
BRANCH  38  39
ATOM     39  C   UNL A   1      35.655  32.055  31.638  1.00  0.00     0.338 C 
ATOM     40  O   UNL A   1      35.535  32.272  32.831  1.00  0.00    -0.246 OA
BRANCH  39  41
ATOM     41  C   UNL A   1      36.789  31.292  31.078  1.00  0.00     0.060 A 
ATOM     42  C   UNL A   1      36.999  31.216  29.703  1.00  0.00     0.016 A 
ATOM     43  C   UNL A   1      37.679  30.677  31.968  1.00  0.00     0.016 A 
ATOM     44  C   UNL A   1      38.111  30.524  29.217  1.00  0.00     0.010 A 
ATOM     45  C   UNL A   1      38.796  29.998  31.482  1.00  0.00     0.010 A 
ATOM     46  C   UNL A   1      39.031  29.933  30.102  1.00  0.00    -0.014 A 
BRANCH  46  47
ATOM     47  C   UNL A   1      40.315  29.397  29.588  1.00  0.00     0.031 A 
ATOM     48  C   UNL A   1      40.456  27.983  29.119  1.00  0.00     0.074 A 
ATOM     49  C   UNL A   1      41.381  30.221  29.578  1.00  0.00     0.049 A 
ATOM     50  N   UNL A   1      41.500  27.400  28.584  1.00  0.00    -0.248 NA
ATOM     51  C   UNL A   1      39.287  27.104  29.272  1.00  0.00     0.031 C 
ATOM     52  C   UNL A   1      41.367  31.608  30.045  1.00  0.00     0.029 A 
ATOM     53  N   UNL A   1      42.670  30.024  29.153  1.00  0.00    -0.354 N 
ATOM     54  C   UNL A   1      41.114  26.093  28.323  1.00  0.00     0.074 A 
ATOM     55  C   UNL A   1      39.755  25.953  28.803  1.00  0.00     0.031 C 
ATOM     56  C   UNL A   1      42.575  32.151  29.841  1.00  0.00     0.029 A 
ATOM     57  C   UNL A   1      43.462  31.141  29.272  1.00  0.00     0.049 A 
ATOM     58  H   UNL A   1      42.996  29.166  28.798  1.00  0.00     0.167 HD
ATOM     59  C   UNL A   1      41.828  25.110  27.722  1.00  0.00     0.031 A 
ATOM     60  C   UNL A   1      44.756  31.339  28.956  1.00  0.00     0.031 A 
ATOM     61  C   UNL A   1      43.189  25.258  27.270  1.00  0.00     0.049 A 
ATOM     62  C   UNL A   1      45.539  30.221  28.331  1.00  0.00     0.074 A 
ATOM     63  C   UNL A   1      43.976  24.330  26.608  1.00  0.00     0.029 A 
ATOM     64  N   UNL A   1      43.971  26.390  27.443  1.00  0.00    -0.354 N 
ATOM     65  N   UNL A   1      45.135  29.016  28.008  1.00  0.00    -0.248 NA
ATOM     66  C   UNL A   1      46.947  30.488  28.010  1.00  0.00     0.031 C 
ATOM     67  C   UNL A   1      45.255  24.868  26.457  1.00  0.00     0.029 A 
ATOM     68  C   UNL A   1      45.243  26.168  26.939  1.00  0.00     0.049 A 
ATOM     69  H   UNL A   1      43.668  27.228  27.863  1.00  0.00     0.167 HD
ATOM     70  C   UNL A   1      46.228  28.390  27.427  1.00  0.00     0.074 A 
ATOM     71  C   UNL A   1      47.309  29.354  27.424  1.00  0.00     0.031 C 
ATOM     72  C   UNL A   1      46.321  27.128  26.940  1.00  0.00     0.031 A 
BRANCH  59  73
ATOM     73  C   UNL A   1      41.163  23.776  27.507  1.00  0.00    -0.014 A 
ATOM     74  C   UNL A   1      41.609  22.647  28.216  1.00  0.00     0.009 A 
ATOM     75  C   UNL A   1      40.182  23.606  26.516  1.00  0.00     0.009 A 
ATOM     76  C   UNL A   1      41.105  21.378  27.924  1.00  0.00     0.001 A 
ATOM     77  C   UNL A   1      39.655  22.339  26.250  1.00  0.00     0.001 A 
ATOM     78  C   UNL A   1      40.126  21.226  26.944  1.00  0.00     0.000 A 
ENDBRANCH  59  73
BRANCH  60  79
ATOM     79  C   UNL A   1      45.358  32.680  29.192  1.00  0.00    -0.014 A 
ATOM     80  C   UNL A   1      45.966  32.984  30.420  1.00  0.00     0.009 A 
ATOM     81  C   UNL A   1      45.250  33.688  28.223  1.00  0.00     0.009 A 
ATOM     82  C   UNL A   1      46.419  34.277  30.689  1.00  0.00     0.001 A 
ATOM     83  C   UNL A   1      45.736  34.972  28.481  1.00  0.00     0.001 A 
ATOM     84  C   UNL A   1      46.306  35.269  29.717  1.00  0.00     0.000 A 
ENDBRANCH  60  79
BRANCH  72  85
ATOM     85  C   UNL A   1      47.633  26.690  26.344  1.00  0.00    -0.014 A 
ATOM     86  C   UNL A   1      48.624  26.135  27.173  1.00  0.00     0.009 A 
ATOM     87  C   UNL A   1      47.940  26.935  24.997  1.00  0.00     0.009 A 
ATOM     88  C   UNL A   1      49.900  25.864  26.676  1.00  0.00     0.001 A 
ATOM     89  C   UNL A   1      49.206  26.628  24.492  1.00  0.00     0.001 A 
ATOM     90  C   UNL A   1      50.188  26.107  25.335  1.00  0.00     0.000 A 
ENDBRANCH  72  85
ENDBRANCH  46  47
ENDBRANCH  39  41
ENDBRANCH  38  39
ENDBRANCH  37  38
ENDBRANCH   1  37
TORSDOF 15
ENDMDL
MODEL 2
REMARK VINA RESULT:     -12.3      3.965      9.561
REMARK SMILES C[C@]1(C(=O)OCCOCCOC(=O)c2ccc(-c3c4nc(c(-c5ccccc5)c5ccc([nH]5)c(-c5ccccc5)c5nc(c(-c6ccccc6)c6ccc3[nH]6)C=C5)C=C4)cc2)[NH2+]C2(C(=O)c3ccccc3C2=O)[C@@H]2C(=O)N(c3ccccc3)C(=O)[C@H]21
REMARK SMILES IDX 9 1 8 2 7 3 6 4 5 5 3 6 4 7 2 8 1 9 62 10 86 11 63 12 74 15
REMARK SMILES IDX 84 16 64 17 72 18 75 19 77 20 85 21 65 22 66 23 71 24 73 25
REMARK SMILES IDX 76 26 67 27 70 28 68 29 69 30 78 31 79 32 83 33 80 34 82 35
REMARK SMILES IDX 81 36 10 37 11 38 12 39 13 40 14 41 15 42 61 43 16 44 60 45
REMARK SMILES IDX 17 46 18 47 19 48 54 49 20 50 59 51 53 52 55 53 21 54 58 55
REMARK SMILES IDX 52 56 51 57 22 59 44 60 29 61 43 62 30 63 33 64 42 65 56 66
REMARK SMILES IDX 31 67 32 68 41 70 57 71 34 72 23 73 24 74 28 75 25 76 27 77
REMARK SMILES IDX 26 78 45 79 46 80 50 81 47 82 49 83 48 84 35 85 36 86 40 87
REMARK SMILES IDX 37 88 39 89 38 90
REMARK H PARENT 62 13 62 14 55 58 33 69
REMARK Flexibility Score: inf
ROOT
ATOM      1  C   UNL A   1      41.943  20.847  26.227  1.00  0.00     0.202 C 
ENDROOT
BRANCH   1   2
ATOM      2  O   UNL A   1      40.846  21.383  25.490  1.00  0.00    -0.374 OA
BRANCH   2   3
ATOM      3  C   UNL A   1      39.602  21.553  26.160  1.00  0.00     0.202 C 
BRANCH   3   4
ATOM      4  C   UNL A   1      38.336  21.640  25.307  1.00  0.00     0.261 C 
BRANCH   4   5
ATOM      5  O   UNL A   1      37.762  22.953  25.315  1.00  0.00    -0.459 OA
BRANCH   5   6
ATOM      6  C   UNL A   1      36.625  23.104  24.580  1.00  0.00     0.368 C 
ATOM      7  O   UNL A   1      36.510  22.743  23.415  1.00  0.00    -0.245 OA
BRANCH   6   8
ATOM      8  C   UNL A   1      35.494  23.815  25.379  1.00  0.00     0.205 C 
ATOM      9  C   UNL A   1      36.103  24.298  26.698  1.00  0.00     0.093 C 
ATOM     10  N   UNL A   1      34.870  25.020  24.662  1.00  0.00    -0.313 N 
ATOM     11  C   UNL A   1      34.311  22.899  25.547  1.00  0.00     0.172 C 
ATOM     12  C   UNL A   1      33.462  24.625  24.231  1.00  0.00     0.237 C 
ATOM     13  H   UNL A   1      35.428  25.264  23.844  1.00  0.00     0.348 HD
ATOM     14  H   UNL A   1      34.840  25.827  25.284  1.00  0.00     0.348 HD
ATOM     15  C   UNL A   1      33.562  23.143  24.250  1.00  0.00     0.177 C 
ATOM     16  C   UNL A   1      34.362  21.410  25.543  1.00  0.00     0.244 C 
ATOM     17  C   UNL A   1      32.395  25.257  25.122  1.00  0.00     0.232 C 
ATOM     18  C   UNL A   1      33.137  25.195  22.857  1.00  0.00     0.232 C 
ATOM     19  C   UNL A   1      32.526  22.089  24.323  1.00  0.00     0.245 C 
ATOM     20  N   UNL A   1      33.212  21.003  24.869  1.00  0.00    -0.250 N 
ATOM     21  O   UNL A   1      35.243  20.752  26.069  1.00  0.00    -0.273 OA
ATOM     22  O   UNL A   1      32.280  25.139  26.331  1.00  0.00    -0.286 OA
ATOM     23  C   UNL A   1      31.553  26.126  24.299  1.00  0.00     0.036 A 
ATOM     24  C   UNL A   1      32.003  26.111  22.986  1.00  0.00     0.036 A 
ATOM     25  O   UNL A   1      33.671  24.931  21.792  1.00  0.00    -0.286 OA
ATOM     26  O   UNL A   1      31.405  22.180  23.859  1.00  0.00    -0.273 OA
ATOM     27  C   UNL A   1      30.473  26.898  24.689  1.00  0.00     0.013 A 
ATOM     28  C   UNL A   1      31.401  26.879  22.005  1.00  0.00     0.013 A 
ATOM     29  C   UNL A   1      29.846  27.675  23.710  1.00  0.00     0.001 A 
ATOM     30  C   UNL A   1      30.310  27.670  22.380  1.00  0.00     0.001 A 
BRANCH  20  31
ATOM     31  C   UNL A   1      32.930  19.648  24.599  1.00  0.00     0.052 A 
ATOM     32  C   UNL A   1      32.904  18.704  25.634  1.00  0.00     0.027 A 
ATOM     33  C   UNL A   1      32.816  19.204  23.275  1.00  0.00     0.027 A 
ATOM     34  C   UNL A   1      32.775  17.344  25.354  1.00  0.00     0.002 A 
ATOM     35  C   UNL A   1      32.732  17.838  22.993  1.00  0.00     0.002 A 
ATOM     36  C   UNL A   1      32.707  16.910  24.033  1.00  0.00     0.000 A 
ENDBRANCH  20  31
ENDBRANCH   6   8
ENDBRANCH   5   6
ENDBRANCH   4   5
ENDBRANCH   3   4
ENDBRANCH   2   3
ENDBRANCH   1   2
BRANCH   1  37
ATOM     37  C   UNL A   1      43.359  21.292  25.844  1.00  0.00     0.261 C 
BRANCH  37  38
ATOM     38  O   UNL A   1      43.774  22.490  26.519  1.00  0.00    -0.460 OA
BRANCH  38  39
ATOM     39  C   UNL A   1      43.587  23.641  25.829  1.00  0.00     0.338 C 
ATOM     40  O   UNL A   1      43.738  23.819  24.633  1.00  0.00    -0.246 OA
BRANCH  39  41
ATOM     41  C   UNL A   1      42.970  24.651  26.713  1.00  0.00     0.060 A 
ATOM     42  C   UNL A   1      41.880  24.334  27.520  1.00  0.00     0.016 A 
ATOM     43  C   UNL A   1      43.536  25.932  26.752  1.00  0.00     0.016 A 
ATOM     44  C   UNL A   1      41.357  25.305  28.377  1.00  0.00     0.010 A 
ATOM     45  C   UNL A   1      43.021  26.896  27.619  1.00  0.00     0.010 A 
ATOM     46  C   UNL A   1      41.939  26.583  28.453  1.00  0.00    -0.014 A 
BRANCH  46  47
ATOM     47  C   UNL A   1      41.520  27.527  29.518  1.00  0.00     0.031 A 
ATOM     48  C   UNL A   1      40.368  28.466  29.340  1.00  0.00     0.074 A 
ATOM     49  C   UNL A   1      42.231  27.539  30.662  1.00  0.00     0.049 A 
ATOM     50  N   UNL A   1      39.851  29.297  30.210  1.00  0.00    -0.248 NA
ATOM     51  C   UNL A   1      39.714  28.486  28.023  1.00  0.00     0.031 C 
ATOM     52  C   UNL A   1      43.395  26.693  30.930  1.00  0.00     0.029 A 
ATOM     53  N   UNL A   1      42.079  28.272  31.812  1.00  0.00    -0.354 N 
ATOM     54  C   UNL A   1      38.804  29.931  29.555  1.00  0.00     0.074 A 
ATOM     55  C   UNL A   1      38.789  29.423  28.199  1.00  0.00     0.031 C 
ATOM     56  C   UNL A   1      43.824  26.921  32.178  1.00  0.00     0.029 A 
ATOM     57  C   UNL A   1      42.997  27.960  32.785  1.00  0.00     0.049 A 
ATOM     58  H   UNL A   1      41.379  28.955  31.927  1.00  0.00     0.167 HD
ATOM     59  C   UNL A   1      37.929  30.838  30.052  1.00  0.00     0.031 A 
ATOM     60  C   UNL A   1      43.159  28.448  34.030  1.00  0.00     0.031 A 
ATOM     61  C   UNL A   1      37.970  31.352  31.398  1.00  0.00     0.049 A 
ATOM     62  C   UNL A   1      42.202  29.485  34.542  1.00  0.00     0.074 A 
ATOM     63  C   UNL A   1      37.095  32.239  32.003  1.00  0.00     0.029 A 
ATOM     64  N   UNL A   1      38.938  31.042  32.343  1.00  0.00    -0.354 N 
ATOM     65  N   UNL A   1      41.162  30.011  33.942  1.00  0.00    -0.248 NA
ATOM     66  C   UNL A   1      42.427  29.986  35.904  1.00  0.00     0.031 C 
ATOM     67  C   UNL A   1      37.579  32.530  33.280  1.00  0.00     0.029 A 
ATOM     68  C   UNL A   1      38.705  31.754  33.509  1.00  0.00     0.049 A 
ATOM     69  H   UNL A   1      39.682  30.411  32.205  1.00  0.00     0.167 HD
ATOM     70  C   UNL A   1      40.595  30.885  34.858  1.00  0.00     0.074 A 
ATOM     71  C   UNL A   1      41.396  30.806  36.062  1.00  0.00     0.031 C 
ATOM     72  C   UNL A   1      39.506  31.679  34.708  1.00  0.00     0.031 A 
BRANCH  59  73
ATOM     73  C   UNL A   1      36.838  31.346  29.146  1.00  0.00    -0.014 A 
ATOM     74  C   UNL A   1      36.849  32.685  28.717  1.00  0.00     0.009 A 
ATOM     75  C   UNL A   1      35.735  30.542  28.817  1.00  0.00     0.009 A 
ATOM     76  C   UNL A   1      35.773  33.211  27.999  1.00  0.00     0.001 A 
ATOM     77  C   UNL A   1      34.675  31.062  28.069  1.00  0.00     0.001 A 
ATOM     78  C   UNL A   1      34.689  32.399  27.672  1.00  0.00     0.000 A 
ENDBRANCH  59  73
BRANCH  60  79
ATOM     79  C   UNL A   1      44.255  27.906  34.878  1.00  0.00    -0.014 A 
ATOM     80  C   UNL A   1      44.030  26.804  35.719  1.00  0.00     0.009 A 
ATOM     81  C   UNL A   1      45.505  28.541  34.915  1.00  0.00     0.009 A 
ATOM     82  C   UNL A   1      45.018  26.373  36.606  1.00  0.00     0.001 A 
ATOM     83  C   UNL A   1      46.504  28.084  35.778  1.00  0.00     0.001 A 
ATOM     84  C   UNL A   1      46.256  27.011  36.633  1.00  0.00     0.000 A 
ENDBRANCH  60  79
BRANCH  72  85
ATOM     85  C   UNL A   1      39.086  32.537  35.872  1.00  0.00    -0.014 A 
ATOM     86  C   UNL A   1      39.603  33.838  36.000  1.00  0.00     0.009 A 
ATOM     87  C   UNL A   1      38.282  32.026  36.902  1.00  0.00     0.009 A 
ATOM     88  C   UNL A   1      39.350  34.596  37.145  1.00  0.00     0.001 A 
ATOM     89  C   UNL A   1      38.000  32.800  38.031  1.00  0.00     0.001 A 
ATOM     90  C   UNL A   1      38.546  34.078  38.157  1.00  0.00     0.000 A 
ENDBRANCH  72  85
ENDBRANCH  46  47
ENDBRANCH  39  41
ENDBRANCH  38  39
ENDBRANCH  37  38
ENDBRANCH   1  37
TORSDOF 15
ENDMDL
MODEL 3
REMARK VINA RESULT:     -12.2      0.816      5.599
REMARK SMILES C[C@]1(C(=O)OCCOCCOC(=O)c2ccc(-c3c4nc(c(-c5ccccc5)c5ccc([nH]5)c(-c5ccccc5)c5nc(c(-c6ccccc6)c6ccc3[nH]6)C=C5)C=C4)cc2)[NH2+]C2(C(=O)c3ccccc3C2=O)[C@@H]2C(=O)N(c3ccccc3)C(=O)[C@H]21
REMARK SMILES IDX 9 1 8 2 7 3 6 4 5 5 3 6 4 7 2 8 1 9 62 10 86 11 63 12 74 15
REMARK SMILES IDX 84 16 64 17 72 18 75 19 77 20 85 21 65 22 66 23 71 24 73 25
REMARK SMILES IDX 76 26 67 27 70 28 68 29 69 30 78 31 79 32 83 33 80 34 82 35
REMARK SMILES IDX 81 36 10 37 11 38 12 39 13 40 14 41 15 42 61 43 16 44 60 45
REMARK SMILES IDX 17 46 18 47 19 48 54 49 20 50 59 51 53 52 55 53 21 54 58 55
REMARK SMILES IDX 52 56 51 57 22 59 44 60 29 61 43 62 30 63 33 64 42 65 56 66
REMARK SMILES IDX 31 67 32 68 41 70 57 71 34 72 23 73 24 74 28 75 25 76 27 77
REMARK SMILES IDX 26 78 45 79 46 80 50 81 47 82 49 83 48 84 35 85 36 86 40 87
REMARK SMILES IDX 37 88 39 89 38 90
REMARK H PARENT 62 13 62 14 55 58 33 69
REMARK Flexibility Score: inf
ROOT
ATOM      1  C   UNL A   1      33.925  34.292  28.460  1.00  0.00     0.202 C 
ENDROOT
BRANCH   1   2
ATOM      2  O   UNL A   1      33.113  33.271  27.880  1.00  0.00    -0.374 OA
BRANCH   2   3
ATOM      3  C   UNL A   1      33.642  31.952  27.805  1.00  0.00     0.202 C 
BRANCH   3   4
ATOM      4  C   UNL A   1      32.708  30.834  27.338  1.00  0.00     0.261 C 
BRANCH   4   5
ATOM      5  O   UNL A   1      33.261  29.531  27.561  1.00  0.00    -0.459 OA
BRANCH   5   6
ATOM      6  C   UNL A   1      32.529  28.489  27.079  1.00  0.00     0.368 C 
ATOM      7  O   UNL A   1      31.372  28.256  27.405  1.00  0.00    -0.245 OA
BRANCH   6   8
ATOM      8  C   UNL A   1      33.339  27.606  26.084  1.00  0.00     0.205 C 
ATOM      9  C   UNL A   1      34.784  28.113  26.101  1.00  0.00     0.093 C 
ATOM     10  N   UNL A   1      33.345  26.110  26.421  1.00  0.00    -0.313 N 
ATOM     11  C   UNL A   1      32.698  27.622  24.722  1.00  0.00     0.172 C 
ATOM     12  C   UNL A   1      32.488  25.397  25.382  1.00  0.00     0.237 C 
ATOM     13  H   UNL A   1      32.957  25.962  27.353  1.00  0.00     0.348 HD
ATOM     14  H   UNL A   1      34.298  25.746  26.409  1.00  0.00     0.348 HD
ATOM     15  C   UNL A   1      31.664  26.522  24.871  1.00  0.00     0.177 C 
ATOM     16  C   UNL A   1      31.841  28.715  24.182  1.00  0.00     0.244 C 
ATOM     17  C   UNL A   1      33.338  24.644  24.361  1.00  0.00     0.232 C 
ATOM     18  C   UNL A   1      31.668  24.287  26.026  1.00  0.00     0.232 C 
ATOM     19  C   UNL A   1      30.897  26.688  23.616  1.00  0.00     0.245 C 
ATOM     20  N   UNL A   1      30.838  28.073  23.458  1.00  0.00    -0.250 N 
ATOM     21  O   UNL A   1      32.056  29.903  24.352  1.00  0.00    -0.273 OA
ATOM     22  O   UNL A   1      34.199  25.109  23.633  1.00  0.00    -0.286 OA
ATOM     23  C   UNL A   1      33.021  23.218  24.450  1.00  0.00     0.036 A 
ATOM     24  C   UNL A   1      32.069  23.008  25.439  1.00  0.00     0.036 A 
ATOM     25  O   UNL A   1      30.786  24.397  26.861  1.00  0.00    -0.286 OA
ATOM     26  O   UNL A   1      30.354  25.786  23.007  1.00  0.00    -0.273 OA
ATOM     27  C   UNL A   1      33.554  22.171  23.720  1.00  0.00     0.013 A 
ATOM     28  C   UNL A   1      31.617  21.738  25.751  1.00  0.00     0.013 A 
ATOM     29  C   UNL A   1      33.104  20.881  24.016  1.00  0.00     0.001 A 
ATOM     30  C   UNL A   1      32.148  20.665  25.027  1.00  0.00     0.001 A 
BRANCH  20  31
ATOM     31  C   UNL A   1      29.782  28.775  22.840  1.00  0.00     0.052 A 
ATOM     32  C   UNL A   1      30.045  29.807  21.930  1.00  0.00     0.027 A 
ATOM     33  C   UNL A   1      28.458  28.544  23.238  1.00  0.00     0.027 A 
ATOM     34  C   UNL A   1      29.010  30.599  21.434  1.00  0.00     0.002 A 
ATOM     35  C   UNL A   1      27.428  29.367  22.775  1.00  0.00     0.002 A 
ATOM     36  C   UNL A   1      27.705  30.390  21.870  1.00  0.00     0.000 A 
ENDBRANCH  20  31
ENDBRANCH   6   8
ENDBRANCH   5   6
ENDBRANCH   4   5
ENDBRANCH   3   4
ENDBRANCH   2   3
ENDBRANCH   1   2
BRANCH   1  37
ATOM     37  C   UNL A   1      33.982  34.391  29.989  1.00  0.00     0.261 C 
BRANCH  37  38
ATOM     38  O   UNL A   1      35.245  33.975  30.533  1.00  0.00    -0.460 OA
BRANCH  38  39
ATOM     39  C   UNL A   1      35.242  32.770  31.153  1.00  0.00     0.338 C 
ATOM     40  O   UNL A   1      34.351  32.289  31.831  1.00  0.00    -0.246 OA
BRANCH  39  41
ATOM     41  C   UNL A   1      36.428  31.997  30.733  1.00  0.00     0.060 A 
ATOM     42  C   UNL A   1      36.836  31.968  29.401  1.00  0.00     0.016 A 
ATOM     43  C   UNL A   1      37.163  31.324  31.717  1.00  0.00     0.016 A 
ATOM     44  C   UNL A   1      37.991  31.264  29.054  1.00  0.00     0.010 A 
ATOM     45  C   UNL A   1      38.325  30.633  31.371  1.00  0.00     0.010 A 
ATOM     46  C   UNL A   1      38.758  30.614  30.038  1.00  0.00    -0.014 A 
BRANCH  46  47
ATOM     47  C   UNL A   1      40.092  30.063  29.695  1.00  0.00     0.031 A 
ATOM     48  C   UNL A   1      41.345  30.871  29.828  1.00  0.00     0.074 A 
ATOM     49  C   UNL A   1      40.148  28.801  29.227  1.00  0.00     0.049 A 
ATOM     50  N   UNL A   1      42.583  30.495  29.628  1.00  0.00    -0.248 NA
ATOM     51  C   UNL A   1      41.198  32.278  30.229  1.00  0.00     0.031 C 
ATOM     52  C   UNL A   1      38.987  27.934  29.022  1.00  0.00     0.029 A 
ATOM     53  N   UNL A   1      41.215  28.025  28.850  1.00  0.00    -0.354 N 
ATOM     54  C   UNL A   1      43.367  31.611  29.889  1.00  0.00     0.074 A 
ATOM     55  C   UNL A   1      42.460  32.692  30.216  1.00  0.00     0.031 C 
ATOM     56  C   UNL A   1      39.406  26.733  28.601  1.00  0.00     0.029 A 
ATOM     57  C   UNL A   1      40.859  26.757  28.461  1.00  0.00     0.049 A 
ATOM     58  H   UNL A   1      42.146  28.346  28.858  1.00  0.00     0.167 HD
ATOM     59  C   UNL A   1      44.717  31.711  29.873  1.00  0.00     0.031 A 
ATOM     60  C   UNL A   1      41.610  25.721  28.042  1.00  0.00     0.031 A 
ATOM     61  C   UNL A   1      45.607  30.632  29.523  1.00  0.00     0.049 A 
ATOM     62  C   UNL A   1      43.103  25.871  27.991  1.00  0.00     0.074 A 
ATOM     63  C   UNL A   1      46.992  30.629  29.525  1.00  0.00     0.029 A 
ATOM     64  N   UNL A   1      45.208  29.373  29.097  1.00  0.00    -0.354 N 
ATOM     65  N   UNL A   1      43.837  26.905  28.326  1.00  0.00    -0.248 NA
ATOM     66  C   UNL A   1      43.876  24.714  27.522  1.00  0.00     0.031 C 
ATOM     67  C   UNL A   1      47.429  29.403  29.020  1.00  0.00     0.029 A 
ATOM     68  C   UNL A   1      46.319  28.603  28.792  1.00  0.00     0.049 A 
ATOM     69  H   UNL A   1      44.273  29.072  29.020  1.00  0.00     0.167 HD
ATOM     70  C   UNL A   1      45.155  26.517  28.131  1.00  0.00     0.074 A 
ATOM     71  C   UNL A   1      45.122  25.145  27.666  1.00  0.00     0.031 C 
ATOM     72  C   UNL A   1      46.286  27.238  28.324  1.00  0.00     0.031 A 
BRANCH  59  73
ATOM     73  C   UNL A   1      45.339  33.032  30.246  1.00  0.00    -0.014 A 
ATOM     74  C   UNL A   1      45.675  33.957  29.242  1.00  0.00     0.009 A 
ATOM     75  C   UNL A   1      45.706  33.313  31.572  1.00  0.00     0.009 A 
ATOM     76  C   UNL A   1      46.382  35.121  29.554  1.00  0.00     0.001 A 
ATOM     77  C   UNL A   1      46.384  34.494  31.886  1.00  0.00     0.001 A 
ATOM     78  C   UNL A   1      46.732  35.389  30.876  1.00  0.00     0.000 A 
ENDBRANCH  59  73
BRANCH  60  79
ATOM     79  C   UNL A   1      40.939  24.441  27.687  1.00  0.00    -0.014 A 
ATOM     80  C   UNL A   1      41.403  23.222  28.210  1.00  0.00     0.009 A 
ATOM     81  C   UNL A   1      39.888  24.422  26.759  1.00  0.00     0.009 A 
ATOM     82  C   UNL A   1      40.855  22.011  27.782  1.00  0.00     0.001 A 
ATOM     83  C   UNL A   1      39.319  23.211  26.360  1.00  0.00     0.001 A 
ATOM     84  C   UNL A   1      39.811  22.007  26.860  1.00  0.00     0.000 A 
ENDBRANCH  60  79
BRANCH  72  85
ATOM     85  C   UNL A   1      47.609  26.573  28.046  1.00  0.00    -0.014 A 
ATOM     86  C   UNL A   1      48.140  26.597  26.745  1.00  0.00     0.009 A 
ATOM     87  C   UNL A   1      48.269  25.823  29.031  1.00  0.00     0.009 A 
ATOM     88  C   UNL A   1      49.284  25.861  26.429  1.00  0.00     0.001 A 
ATOM     89  C   UNL A   1      49.434  25.117  28.721  1.00  0.00     0.001 A 
ATOM     90  C   UNL A   1      49.932  25.125  27.418  1.00  0.00     0.000 A 
ENDBRANCH  72  85
ENDBRANCH  46  47
ENDBRANCH  39  41
ENDBRANCH  38  39
ENDBRANCH  37  38
ENDBRANCH   1  37
TORSDOF 15
ENDMDL
