MODEL 1
REMARK VINA RESULT:     -11.1      0.000      0.000
REMARK SMILES O=C(OCCOCCOC(=O)[C@@H]1CN(C(=O)CCC(F)(F)F)C[C@H]1c1ccc2c(c1)OCO2)c1ccc(-c2c3nc(c(-c4ccccc4)c4ccc([nH]4)c(-c4ccccc4)c4nc(c(-c5ccccc5)c5ccc2[nH]5)C=C4)C=C3)cc1
REMARK SMILES IDX 7 1 6 2 5 3 4 4 3 5 2 6 1 7 34 8 35 9 81 10 36 11 80 12
REMARK SMILES IDX 37 13 38 14 39 15 74 16 40 17 79 18 73 19 75 20 41 21 78 22
REMARK SMILES IDX 72 23 71 24 42 26 64 27 49 28 63 29 50 30 53 31 62 32 76 33
REMARK SMILES IDX 51 34 52 35 61 37 77 38 54 39 43 40 44 41 48 42 45 43 47 44
REMARK SMILES IDX 46 45 65 46 66 47 70 48 67 49 69 50 68 51 55 52 56 53 60 54
REMARK SMILES IDX 57 55 59 56 58 57 8 58 9 59 10 60 11 61 12 62 13 63 24 64
REMARK SMILES IDX 14 65 23 66 25 67 26 68 30 69 27 70 29 71 28 72 31 73 33 74
REMARK SMILES IDX 32 75 15 76 16 77 17 78 18 79 19 80 20 81 21 82 22 83
REMARK H PARENT 75 25 53 36
REMARK Flexibility Score: inf
ROOT
ATOM      1  C   UNL A   1      32.736  22.682  26.854  1.00  0.00     0.202 C 
ENDROOT
BRANCH   1   2
ATOM      2  O   UNL A   1      33.666  21.724  26.351  1.00  0.00    -0.374 OA
BRANCH   2   3
ATOM      3  C   UNL A   1      34.267  22.026  25.104  1.00  0.00     0.202 C 
BRANCH   3   4
ATOM      4  C   UNL A   1      35.618  21.370  24.838  1.00  0.00     0.261 C 
BRANCH   4   5
ATOM      5  O   UNL A   1      36.556  21.619  25.904  1.00  0.00    -0.460 OA
BRANCH   5   6
ATOM      6  C   UNL A   1      37.905  21.465  25.790  1.00  0.00     0.338 C 
ATOM      7  O   UNL A   1      38.398  20.463  25.290  1.00  0.00    -0.246 OA
BRANCH   6   8
ATOM      8  C   UNL A   1      38.781  22.558  26.258  1.00  0.00     0.060 A 
ATOM      9  C   UNL A   1      38.397  23.877  26.070  1.00  0.00     0.016 A 
ATOM     10  C   UNL A   1      39.982  22.291  26.907  1.00  0.00     0.016 A 
ATOM     11  C   UNL A   1      39.280  24.913  26.249  1.00  0.00     0.010 A 
ATOM     12  C   UNL A   1      40.781  23.363  27.322  1.00  0.00     0.010 A 
ATOM     13  C   UNL A   1      40.437  24.683  26.974  1.00  0.00    -0.014 A 
BRANCH  13  14
ATOM     14  C   UNL A   1      41.227  25.857  27.391  1.00  0.00     0.031 A 
ATOM     15  C   UNL A   1      40.672  26.772  28.429  1.00  0.00     0.074 A 
ATOM     16  C   UNL A   1      42.460  26.041  26.870  1.00  0.00     0.049 A 
ATOM     17  N   UNL A   1      41.087  27.956  28.785  1.00  0.00    -0.248 NA
ATOM     18  C   UNL A   1      39.479  26.302  29.154  1.00  0.00     0.031 C 
ATOM     19  C   UNL A   1      43.140  25.133  25.933  1.00  0.00     0.029 A 
ATOM     20  N   UNL A   1      43.382  27.032  27.077  1.00  0.00    -0.354 N 
ATOM     21  C   UNL A   1      40.161  28.408  29.713  1.00  0.00     0.074 A 
ATOM     22  C   UNL A   1      39.174  27.365  29.883  1.00  0.00     0.031 C 
ATOM     23  C   UNL A   1      44.385  25.572  25.707  1.00  0.00     0.029 A 
ATOM     24  C   UNL A   1      44.540  26.860  26.356  1.00  0.00     0.049 A 
ATOM     25  H   UNL A   1      43.230  27.793  27.682  1.00  0.00     0.167 HD
ATOM     26  C   UNL A   1      40.137  29.607  30.338  1.00  0.00     0.031 A 
ATOM     27  C   UNL A   1      45.584  27.690  26.178  1.00  0.00     0.031 A 
ATOM     28  C   UNL A   1      41.152  30.606  30.144  1.00  0.00     0.049 A 
ATOM     29  C   UNL A   1      45.501  29.036  26.830  1.00  0.00     0.074 A 
ATOM     30  C   UNL A   1      41.227  31.883  30.667  1.00  0.00     0.029 A 
ATOM     31  N   UNL A   1      42.287  30.420  29.363  1.00  0.00    -0.354 N 
ATOM     32  N   UNL A   1      44.568  29.510  27.623  1.00  0.00    -0.248 NA
ATOM     33  C   UNL A   1      46.590  29.975  26.542  1.00  0.00     0.031 C 
ATOM     34  C   UNL A   1      42.388  32.485  30.166  1.00  0.00     0.029 A 
ATOM     35  C   UNL A   1      43.064  31.562  29.379  1.00  0.00     0.049 A 
ATOM     36  H   UNL A   1      42.506  29.596  28.871  1.00  0.00     0.167 HD
ATOM     37  C   UNL A   1      44.958  30.801  27.938  1.00  0.00     0.074 A 
ATOM     38  C   UNL A   1      46.229  31.023  27.270  1.00  0.00     0.031 C 
ATOM     39  C   UNL A   1      44.326  31.727  28.698  1.00  0.00     0.031 A 
BRANCH  26  40
ATOM     40  C   UNL A   1      38.935  29.908  31.184  1.00  0.00    -0.014 A 
ATOM     41  C   UNL A   1      37.631  29.878  30.665  1.00  0.00     0.009 A 
ATOM     42  C   UNL A   1      39.121  30.289  32.524  1.00  0.00     0.009 A 
ATOM     43  C   UNL A   1      36.546  30.270  31.454  1.00  0.00     0.001 A 
ATOM     44  C   UNL A   1      38.033  30.652  33.319  1.00  0.00     0.001 A 
ATOM     45  C   UNL A   1      36.748  30.656  32.779  1.00  0.00     0.000 A 
ENDBRANCH  26  40
BRANCH  27  46
ATOM     46  C   UNL A   1      46.713  27.309  25.287  1.00  0.00    -0.014 A 
ATOM     47  C   UNL A   1      47.698  26.408  25.718  1.00  0.00     0.009 A 
ATOM     48  C   UNL A   1      46.811  27.839  23.988  1.00  0.00     0.009 A 
ATOM     49  C   UNL A   1      48.761  26.062  24.878  1.00  0.00     0.001 A 
ATOM     50  C   UNL A   1      47.855  27.466  23.138  1.00  0.00     0.001 A 
ATOM     51  C   UNL A   1      48.836  26.586  23.588  1.00  0.00     0.000 A 
ENDBRANCH  27  46
BRANCH  39  52
ATOM     52  C   UNL A   1      45.032  33.037  28.873  1.00  0.00    -0.014 A 
ATOM     53  C   UNL A   1      44.787  34.115  28.011  1.00  0.00     0.009 A 
ATOM     54  C   UNL A   1      45.918  33.200  29.948  1.00  0.00     0.009 A 
ATOM     55  C   UNL A   1      45.445  35.329  28.207  1.00  0.00     0.001 A 
ATOM     56  C   UNL A   1      46.548  34.424  30.159  1.00  0.00     0.001 A 
ATOM     57  C   UNL A   1      46.318  35.484  29.283  1.00  0.00     0.000 A 
ENDBRANCH  39  52
ENDBRANCH  13  14
ENDBRANCH   6   8
ENDBRANCH   5   6
ENDBRANCH   4   5
ENDBRANCH   3   4
ENDBRANCH   2   3
ENDBRANCH   1   2
BRANCH   1  58
ATOM     58  C   UNL A   1      32.324  23.583  25.700  1.00  0.00     0.261 C 
BRANCH  58  59
ATOM     59  O   UNL A   1      32.003  24.879  26.232  1.00  0.00    -0.463 OA
BRANCH  59  60
ATOM     60  C   UNL A   1      32.862  25.893  25.933  1.00  0.00     0.311 C 
ATOM     61  O   UNL A   1      34.075  25.795  25.789  1.00  0.00    -0.252 OA
BRANCH  60  62
ATOM     62  C   UNL A   1      32.139  27.215  25.885  1.00  0.00     0.128 C 
ATOM     63  C   UNL A   1      30.936  26.989  24.999  1.00  0.00     0.135 C 
ATOM     64  C   UNL A   1      32.955  28.374  25.266  1.00  0.00     0.055 C 
ATOM     65  N   UNL A   1      30.920  28.052  24.030  1.00  0.00    -0.341 N 
ATOM     66  C   UNL A   1      31.979  29.018  24.263  1.00  0.00     0.128 C 
BRANCH  64  67
ATOM     67  C   UNL A   1      33.590  29.328  26.285  1.00  0.00    -0.038 A 
ATOM     68  C   UNL A   1      34.800  28.986  26.944  1.00  0.00     0.008 A 
ATOM     69  C   UNL A   1      33.043  30.600  26.543  1.00  0.00     0.054 A 
ATOM     70  C   UNL A   1      35.455  29.866  27.814  1.00  0.00     0.051 A 
ATOM     71  C   UNL A   1      33.679  31.428  27.453  1.00  0.00     0.166 A 
ATOM     72  C   UNL A   1      34.858  31.075  28.062  1.00  0.00     0.165 A 
ATOM     73  O   UNL A   1      33.243  32.652  27.859  1.00  0.00    -0.454 OA
ATOM     74  O   UNL A   1      35.319  32.031  28.910  1.00  0.00    -0.454 OA
ATOM     75  C   UNL A   1      34.212  32.955  28.887  1.00  0.00     0.468 C 
ENDBRANCH  64  67
BRANCH  65  76
ATOM     76  C   UNL A   1      30.038  28.168  22.982  1.00  0.00     0.222 C 
ATOM     77  O   UNL A   1      30.327  27.832  21.835  1.00  0.00    -0.275 OA
BRANCH  76  78
ATOM     78  C   UNL A   1      28.661  28.738  23.291  1.00  0.00     0.109 C 
BRANCH  78  79
ATOM     79  C   UNL A   1      28.371  30.039  22.550  1.00  0.00     0.125 C 
BRANCH  79  80
ATOM     80  C   UNL A   1      28.267  31.253  23.444  1.00  0.00     0.389 C 
ATOM     81  F   UNL A   1      29.283  31.288  24.336  1.00  0.00    -0.171 F 
ATOM     82  F   UNL A   1      28.341  32.388  22.715  1.00  0.00    -0.171 F 
ATOM     83  F   UNL A   1      27.109  31.286  24.133  1.00  0.00    -0.171 F 
ENDBRANCH  79  80
ENDBRANCH  78  79
ENDBRANCH  76  78
ENDBRANCH  65  76
ENDBRANCH  60  62
ENDBRANCH  59  60
ENDBRANCH  58  59
ENDBRANCH   1  58
TORSDOF 19
ENDMDL
MODEL 2
REMARK VINA RESULT:     -10.8      4.133      6.148
REMARK SMILES O=C(OCCOCCOC(=O)[C@@H]1CN(C(=O)CCC(F)(F)F)C[C@H]1c1ccc2c(c1)OCO2)c1ccc(-c2c3nc(c(-c4ccccc4)c4ccc([nH]4)c(-c4ccccc4)c4nc(c(-c5ccccc5)c5ccc2[nH]5)C=C4)C=C3)cc1
REMARK SMILES IDX 7 1 6 2 5 3 4 4 3 5 2 6 1 7 34 8 35 9 81 10 36 11 80 12
REMARK SMILES IDX 37 13 38 14 39 15 74 16 40 17 79 18 73 19 75 20 41 21 78 22
REMARK SMILES IDX 72 23 71 24 42 26 64 27 49 28 63 29 50 30 53 31 62 32 76 33
REMARK SMILES IDX 51 34 52 35 61 37 77 38 54 39 43 40 44 41 48 42 45 43 47 44
REMARK SMILES IDX 46 45 65 46 66 47 70 48 67 49 69 50 68 51 55 52 56 53 60 54
REMARK SMILES IDX 57 55 59 56 58 57 8 58 9 59 10 60 11 61 12 62 13 63 24 64
REMARK SMILES IDX 14 65 23 66 25 67 26 68 30 69 27 70 29 71 28 72 31 73 33 74
REMARK SMILES IDX 32 75 15 76 16 77 17 78 18 79 19 80 20 81 21 82 22 83
REMARK H PARENT 75 25 53 36
REMARK Flexibility Score: inf
ROOT
ATOM      1  C   UNL A   1      38.185  23.371  26.030  1.00  0.00     0.202 C 
ENDROOT
BRANCH   1   2
ATOM      2  O   UNL A   1      38.554  22.166  25.363  1.00  0.00    -0.374 OA
BRANCH   2   3
ATOM      3  C   UNL A   1      39.076  21.131  26.176  1.00  0.00     0.202 C 
BRANCH   3   4
ATOM      4  C   UNL A   1      39.470  19.847  25.453  1.00  0.00     0.261 C 
BRANCH   4   5
ATOM      5  O   UNL A   1      40.621  19.222  26.055  1.00  0.00    -0.460 OA
BRANCH   5   6
ATOM      6  C   UNL A   1      41.910  19.580  25.798  1.00  0.00     0.338 C 
ATOM      7  O   UNL A   1      42.664  18.856  25.164  1.00  0.00    -0.246 OA
BRANCH   6   8
ATOM      8  C   UNL A   1      42.386  20.893  26.280  1.00  0.00     0.060 A 
ATOM      9  C   UNL A   1      42.659  21.902  25.370  1.00  0.00     0.016 A 
ATOM     10  C   UNL A   1      42.547  21.148  27.637  1.00  0.00     0.016 A 
ATOM     11  C   UNL A   1      43.342  23.035  25.738  1.00  0.00     0.010 A 
ATOM     12  C   UNL A   1      43.012  22.405  28.041  1.00  0.00     0.010 A 
ATOM     13  C   UNL A   1      43.429  23.349  27.084  1.00  0.00    -0.014 A 
BRANCH  13  14
ATOM     14  C   UNL A   1      43.915  24.696  27.441  1.00  0.00     0.031 A 
ATOM     15  C   UNL A   1      42.948  25.696  27.978  1.00  0.00     0.074 A 
ATOM     16  C   UNL A   1      45.233  24.971  27.335  1.00  0.00     0.049 A 
ATOM     17  N   UNL A   1      43.107  26.979  28.152  1.00  0.00    -0.248 NA
ATOM     18  C   UNL A   1      41.616  25.191  28.354  1.00  0.00     0.031 C 
ATOM     19  C   UNL A   1      46.279  24.019  26.930  1.00  0.00     0.029 A 
ATOM     20  N   UNL A   1      45.932  26.121  27.590  1.00  0.00    -0.354 N 
ATOM     21  C   UNL A   1      41.873  27.448  28.577  1.00  0.00     0.074 A 
ATOM     22  C   UNL A   1      40.981  26.313  28.656  1.00  0.00     0.031 C 
ATOM     23  C   UNL A   1      47.481  24.602  27.034  1.00  0.00     0.029 A 
ATOM     24  C   UNL A   1      47.283  26.001  27.363  1.00  0.00     0.049 A 
ATOM     25  H   UNL A   1      45.508  26.952  27.904  1.00  0.00     0.167 HD
ATOM     26  C   UNL A   1      41.525  28.727  28.846  1.00  0.00     0.031 A 
ATOM     27  C   UNL A   1      48.248  26.938  27.347  1.00  0.00     0.031 A 
ATOM     28  C   UNL A   1      42.455  29.820  28.765  1.00  0.00     0.049 A 
ATOM     29  C   UNL A   1      47.823  28.355  27.585  1.00  0.00     0.074 A 
ATOM     30  C   UNL A   1      42.230  31.170  28.955  1.00  0.00     0.029 A 
ATOM     31  N   UNL A   1      43.808  29.671  28.478  1.00  0.00    -0.354 N 
ATOM     32  N   UNL A   1      46.631  28.818  27.879  1.00  0.00    -0.248 NA
ATOM     33  C   UNL A   1      48.862  29.383  27.457  1.00  0.00     0.031 C 
ATOM     34  C   UNL A   1      43.439  31.842  28.740  1.00  0.00     0.029 A 
ATOM     35  C   UNL A   1      44.429  30.905  28.474  1.00  0.00     0.049 A 
ATOM     36  H   UNL A   1      44.257  28.812  28.305  1.00  0.00     0.167 HD
ATOM     37  C   UNL A   1      46.773  30.192  27.982  1.00  0.00     0.074 A 
ATOM     38  C   UNL A   1      48.176  30.481  27.744  1.00  0.00     0.031 C 
ATOM     39  C   UNL A   1      45.833  31.135  28.236  1.00  0.00     0.031 A 
BRANCH  26  40
ATOM     40  C   UNL A   1      40.077  28.990  29.141  1.00  0.00    -0.014 A 
ATOM     41  C   UNL A   1      39.548  28.881  30.437  1.00  0.00     0.009 A 
ATOM     42  C   UNL A   1      39.209  29.297  28.079  1.00  0.00     0.009 A 
ATOM     43  C   UNL A   1      38.175  29.026  30.655  1.00  0.00     0.001 A 
ATOM     44  C   UNL A   1      37.843  29.470  28.304  1.00  0.00     0.001 A 
ATOM     45  C   UNL A   1      37.325  29.321  29.589  1.00  0.00     0.000 A 
ENDBRANCH  26  40
BRANCH  27  46
ATOM     46  C   UNL A   1      49.651  26.577  27.007  1.00  0.00    -0.014 A 
ATOM     47  C   UNL A   1      50.084  26.550  25.673  1.00  0.00     0.009 A 
ATOM     48  C   UNL A   1      50.576  26.265  28.019  1.00  0.00     0.009 A 
ATOM     49  C   UNL A   1      51.401  26.201  25.360  1.00  0.00     0.001 A 
ATOM     50  C   UNL A   1      51.901  25.951  27.707  1.00  0.00     0.001 A 
ATOM     51  C   UNL A   1      52.310  25.908  26.376  1.00  0.00     0.000 A 
ENDBRANCH  27  46
BRANCH  39  52
ATOM     52  C   UNL A   1      46.317  32.551  28.312  1.00  0.00    -0.014 A 
ATOM     53  C   UNL A   1      46.320  33.379  27.181  1.00  0.00     0.009 A 
ATOM     54  C   UNL A   1      46.732  33.068  29.549  1.00  0.00     0.009 A 
ATOM     55  C   UNL A   1      46.758  34.699  27.283  1.00  0.00     0.001 A 
ATOM     56  C   UNL A   1      47.139  34.396  29.652  1.00  0.00     0.001 A 
ATOM     57  C   UNL A   1      47.160  35.207  28.518  1.00  0.00     0.000 A 
ENDBRANCH  39  52
ENDBRANCH  13  14
ENDBRANCH   6   8
ENDBRANCH   5   6
ENDBRANCH   4   5
ENDBRANCH   3   4
ENDBRANCH   2   3
ENDBRANCH   1   2
BRANCH   1  58
ATOM     58  C   UNL A   1      36.678  23.531  25.907  1.00  0.00     0.261 C 
BRANCH  58  59
ATOM     59  O   UNL A   1      36.176  22.461  25.090  1.00  0.00    -0.463 OA
BRANCH  59  60
ATOM     60  C   UNL A   1      35.476  22.817  23.976  1.00  0.00     0.311 C 
ATOM     61  O   UNL A   1      35.938  23.336  22.967  1.00  0.00    -0.252 OA
BRANCH  60  62
ATOM     62  C   UNL A   1      34.001  22.573  24.167  1.00  0.00     0.128 C 
ATOM     63  C   UNL A   1      33.879  21.128  24.592  1.00  0.00     0.135 C 
ATOM     64  C   UNL A   1      33.148  22.750  22.888  1.00  0.00     0.055 C 
ATOM     65  N   UNL A   1      32.878  20.524  23.753  1.00  0.00    -0.341 N 
ATOM     66  C   UNL A   1      32.265  21.488  22.856  1.00  0.00     0.128 C 
BRANCH  64  67
ATOM     67  C   UNL A   1      32.404  24.087  22.793  1.00  0.00    -0.038 A 
ATOM     68  C   UNL A   1      32.893  25.133  21.966  1.00  0.00     0.008 A 
ATOM     69  C   UNL A   1      31.179  24.297  23.454  1.00  0.00     0.054 A 
ATOM     70  C   UNL A   1      32.197  26.334  21.784  1.00  0.00     0.051 A 
ATOM     71  C   UNL A   1      30.541  25.518  23.305  1.00  0.00     0.166 A 
ATOM     72  C   UNL A   1      31.030  26.503  22.485  1.00  0.00     0.165 A 
ATOM     73  O   UNL A   1      29.391  25.898  23.928  1.00  0.00    -0.454 OA
ATOM     74  O   UNL A   1      30.249  27.614  22.472  1.00  0.00    -0.454 OA
ATOM     75  C   UNL A   1      29.300  27.277  23.505  1.00  0.00     0.468 C 
ENDBRANCH  64  67
BRANCH  65  76
ATOM     76  C   UNL A   1      32.528  19.195  23.753  1.00  0.00     0.222 C 
ATOM     77  O   UNL A   1      32.107  18.623  22.749  1.00  0.00    -0.275 OA
BRANCH  76  78
ATOM     78  C   UNL A   1      32.678  18.436  25.064  1.00  0.00     0.109 C 
BRANCH  78  79
ATOM     79  C   UNL A   1      32.950  16.949  24.868  1.00  0.00     0.125 C 
BRANCH  79  80
ATOM     80  C   UNL A   1      34.353  16.630  24.404  1.00  0.00     0.389 C 
ATOM     81  F   UNL A   1      35.175  17.690  24.580  1.00  0.00    -0.171 F 
ATOM     82  F   UNL A   1      34.869  15.606  25.118  1.00  0.00    -0.171 F 
ATOM     83  F   UNL A   1      34.397  16.283  23.103  1.00  0.00    -0.171 F 
ENDBRANCH  79  80
ENDBRANCH  78  79
ENDBRANCH  76  78
ENDBRANCH  65  76
ENDBRANCH  60  62
ENDBRANCH  59  60
ENDBRANCH  58  59
ENDBRANCH   1  58
TORSDOF 19
ENDMDL
MODEL 3
REMARK VINA RESULT:     -10.7      2.919      7.731
REMARK SMILES O=C(OCCOCCOC(=O)[C@@H]1CN(C(=O)CCC(F)(F)F)C[C@H]1c1ccc2c(c1)OCO2)c1ccc(-c2c3nc(c(-c4ccccc4)c4ccc([nH]4)c(-c4ccccc4)c4nc(c(-c5ccccc5)c5ccc2[nH]5)C=C4)C=C3)cc1
REMARK SMILES IDX 7 1 6 2 5 3 4 4 3 5 2 6 1 7 34 8 35 9 81 10 36 11 80 12
REMARK SMILES IDX 37 13 38 14 39 15 74 16 40 17 79 18 73 19 75 20 41 21 78 22
REMARK SMILES IDX 72 23 71 24 42 26 64 27 49 28 63 29 50 30 53 31 62 32 76 33
REMARK SMILES IDX 51 34 52 35 61 37 77 38 54 39 43 40 44 41 48 42 45 43 47 44
REMARK SMILES IDX 46 45 65 46 66 47 70 48 67 49 69 50 68 51 55 52 56 53 60 54
REMARK SMILES IDX 57 55 59 56 58 57 8 58 9 59 10 60 11 61 12 62 13 63 24 64
REMARK SMILES IDX 14 65 23 66 25 67 26 68 30 69 27 70 29 71 28 72 31 73 33 74
REMARK SMILES IDX 32 75 15 76 16 77 17 78 18 79 19 80 20 81 21 82 22 83
REMARK H PARENT 75 25 53 36
REMARK Flexibility Score: inf
ROOT
ATOM      1  C   UNL A   1      37.486  23.325  25.540  1.00  0.00     0.202 C 
ENDROOT
BRANCH   1   2
ATOM      2  O   UNL A   1      38.411  22.258  25.739  1.00  0.00    -0.374 OA
BRANCH   2   3
ATOM      3  C   UNL A   1      37.892  20.945  25.622  1.00  0.00     0.202 C 
BRANCH   3   4
ATOM      4  C   UNL A   1      38.798  19.927  24.936  1.00  0.00     0.261 C 
BRANCH   4   5
ATOM      5  O   UNL A   1      39.694  19.290  25.868  1.00  0.00    -0.460 OA
BRANCH   5   6
ATOM      6  C   UNL A   1      41.009  19.613  26.009  1.00  0.00     0.338 C 
ATOM      7  O   UNL A   1      41.900  18.830  25.707  1.00  0.00    -0.246 OA
BRANCH   6   8
ATOM      8  C   UNL A   1      41.355  20.958  26.513  1.00  0.00     0.060 A 
ATOM      9  C   UNL A   1      41.710  21.957  25.621  1.00  0.00     0.016 A 
ATOM     10  C   UNL A   1      41.313  21.251  27.872  1.00  0.00     0.016 A 
ATOM     11  C   UNL A   1      42.283  23.130  26.048  1.00  0.00     0.010 A 
ATOM     12  C   UNL A   1      41.660  22.537  28.300  1.00  0.00     0.010 A 
ATOM     13  C   UNL A   1      42.167  23.478  27.383  1.00  0.00    -0.014 A 
BRANCH  13  14
ATOM     14  C   UNL A   1      42.538  24.854  27.765  1.00  0.00     0.031 A 
ATOM     15  C   UNL A   1      43.982  25.218  27.850  1.00  0.00     0.074 A 
ATOM     16  C   UNL A   1      41.565  25.769  27.967  1.00  0.00     0.049 A 
ATOM     17  N   UNL A   1      44.531  26.284  28.363  1.00  0.00    -0.248 NA
ATOM     18  C   UNL A   1      44.941  24.245  27.299  1.00  0.00     0.031 C 
ATOM     19  C   UNL A   1      40.122  25.539  27.793  1.00  0.00     0.029 A 
ATOM     20  N   UNL A   1      41.635  27.087  28.329  1.00  0.00    -0.354 N 
ATOM     21  C   UNL A   1      45.899  26.073  28.273  1.00  0.00     0.074 A 
ATOM     22  C   UNL A   1      46.099  24.790  27.638  1.00  0.00     0.031 C 
ATOM     23  C   UNL A   1      39.459  26.688  27.977  1.00  0.00     0.029 A 
ATOM     24  C   UNL A   1      40.405  27.693  28.428  1.00  0.00     0.049 A 
ATOM     25  H   UNL A   1      42.483  27.556  28.502  1.00  0.00     0.167 HD
ATOM     26  C   UNL A   1      46.888  26.882  28.715  1.00  0.00     0.031 A 
ATOM     27  C   UNL A   1      40.068  28.905  28.903  1.00  0.00     0.031 A 
ATOM     28  C   UNL A   1      46.636  28.157  29.329  1.00  0.00     0.049 A 
ATOM     29  C   UNL A   1      41.178  29.754  29.446  1.00  0.00     0.074 A 
ATOM     30  C   UNL A   1      47.535  29.054  29.873  1.00  0.00     0.029 A 
ATOM     31  N   UNL A   1      45.371  28.718  29.463  1.00  0.00    -0.354 N 
ATOM     32  N   UNL A   1      42.467  29.509  29.464  1.00  0.00    -0.248 NA
ATOM     33  C   UNL A   1      40.790  31.027  30.063  1.00  0.00     0.031 C 
ATOM     34  C   UNL A   1      46.808  30.140  30.376  1.00  0.00     0.029 A 
ATOM     35  C   UNL A   1      45.462  29.945  30.092  1.00  0.00     0.049 A 
ATOM     36  H   UNL A   1      44.533  28.304  29.155  1.00  0.00     0.167 HD
ATOM     37  C   UNL A   1      43.051  30.600  30.086  1.00  0.00     0.074 A 
ATOM     38  C   UNL A   1      41.973  31.520  30.404  1.00  0.00     0.031 C 
ATOM     39  C   UNL A   1      44.355  30.823  30.380  1.00  0.00     0.031 A 
BRANCH  26  40
ATOM     40  C   UNL A   1      48.289  26.348  28.635  1.00  0.00    -0.014 A 
ATOM     41  C   UNL A   1      48.891  25.668  29.706  1.00  0.00     0.009 A 
ATOM     42  C   UNL A   1      49.045  26.587  27.475  1.00  0.00     0.009 A 
ATOM     43  C   UNL A   1      50.232  25.282  29.634  1.00  0.00     0.001 A 
ATOM     44  C   UNL A   1      50.375  26.175  27.395  1.00  0.00     0.001 A 
ATOM     45  C   UNL A   1      50.972  25.535  28.480  1.00  0.00     0.000 A 
ENDBRANCH  26  40
BRANCH  27  46
ATOM     46  C   UNL A   1      38.642  29.325  28.973  1.00  0.00    -0.014 A 
ATOM     47  C   UNL A   1      38.005  29.898  27.862  1.00  0.00     0.009 A 
ATOM     48  C   UNL A   1      37.900  29.148  30.154  1.00  0.00     0.009 A 
ATOM     49  C   UNL A   1      36.668  30.298  27.938  1.00  0.00     0.001 A 
ATOM     50  C   UNL A   1      36.554  29.517  30.217  1.00  0.00     0.001 A 
ATOM     51  C   UNL A   1      35.942  30.102  29.112  1.00  0.00     0.000 A 
ENDBRANCH  27  46
BRANCH  39  52
ATOM     52  C   UNL A   1      44.672  32.131  31.039  1.00  0.00    -0.014 A 
ATOM     53  C   UNL A   1      44.704  32.253  32.435  1.00  0.00     0.009 A 
ATOM     54  C   UNL A   1      44.988  33.242  30.241  1.00  0.00     0.009 A 
ATOM     55  C   UNL A   1      45.020  33.478  33.022  1.00  0.00     0.001 A 
ATOM     56  C   UNL A   1      45.333  34.454  30.832  1.00  0.00     0.001 A 
ATOM     57  C   UNL A   1      45.341  34.574  32.221  1.00  0.00     0.000 A 
ENDBRANCH  39  52
ENDBRANCH  13  14
ENDBRANCH   6   8
ENDBRANCH   5   6
ENDBRANCH   4   5
ENDBRANCH   3   4
ENDBRANCH   2   3
ENDBRANCH   1   2
BRANCH   1  58
ATOM     58  C   UNL A   1      36.599  22.959  24.360  1.00  0.00     0.261 C 
BRANCH  58  59
ATOM     59  O   UNL A   1      35.238  23.261  24.708  1.00  0.00    -0.463 OA
BRANCH  59  60
ATOM     60  C   UNL A   1      34.422  23.665  23.694  1.00  0.00     0.311 C 
ATOM     61  O   UNL A   1      34.702  24.476  22.819  1.00  0.00    -0.252 OA
BRANCH  60  62
ATOM     62  C   UNL A   1      33.054  23.045  23.825  1.00  0.00     0.128 C 
ATOM     63  C   UNL A   1      32.140  24.166  24.263  1.00  0.00     0.135 C 
ATOM     64  C   UNL A   1      32.952  21.926  24.888  1.00  0.00     0.055 C 
ATOM     65  N   UNL A   1      31.396  23.685  25.396  1.00  0.00    -0.341 N 
ATOM     66  C   UNL A   1      31.689  22.294  25.691  1.00  0.00     0.128 C 
BRANCH  64  67
ATOM     67  C   UNL A   1      32.994  20.501  24.325  1.00  0.00    -0.038 A 
ATOM     68  C   UNL A   1      32.161  20.124  23.239  1.00  0.00     0.008 A 
ATOM     69  C   UNL A   1      33.907  19.544  24.809  1.00  0.00     0.054 A 
ATOM     70  C   UNL A   1      32.233  18.860  22.641  1.00  0.00     0.051 A 
ATOM     71  C   UNL A   1      33.916  18.282  24.240  1.00  0.00     0.166 A 
ATOM     72  C   UNL A   1      33.110  17.953  23.179  1.00  0.00     0.165 A 
ATOM     73  O   UNL A   1      34.688  17.232  24.637  1.00  0.00    -0.454 OA
ATOM     74  O   UNL A   1      33.282  16.671  22.764  1.00  0.00    -0.454 OA
ATOM     75  C   UNL A   1      34.169  16.182  23.791  1.00  0.00     0.468 C 
ENDBRANCH  64  67
BRANCH  65  76
ATOM     76  C   UNL A   1      30.517  24.426  26.151  1.00  0.00     0.222 C 
ATOM     77  O   UNL A   1      30.041  24.011  27.206  1.00  0.00    -0.275 OA
BRANCH  76  78
ATOM     78  C   UNL A   1      30.142  25.805  25.628  1.00  0.00     0.109 C 
BRANCH  78  79
ATOM     79  C   UNL A   1      29.762  25.804  24.152  1.00  0.00     0.125 C 
BRANCH  79  80
ATOM     80  C   UNL A   1      29.766  27.172  23.508  1.00  0.00     0.389 C 
ATOM     81  F   UNL A   1      28.525  27.707  23.496  1.00  0.00    -0.171 F 
ATOM     82  F   UNL A   1      30.556  28.020  24.202  1.00  0.00    -0.171 F 
ATOM     83  F   UNL A   1      30.217  27.141  22.239  1.00  0.00    -0.171 F 
ENDBRANCH  79  80
ENDBRANCH  78  79
ENDBRANCH  76  78
ENDBRANCH  65  76
ENDBRANCH  60  62
ENDBRANCH  59  60
ENDBRANCH  58  59
ENDBRANCH   1  58
TORSDOF 19
ENDMDL
