MODEL 1
REMARK VINA RESULT:      -9.4      0.000      0.000
REMARK SMILES CCC(CC)([NH2+]Cc1ccc(Cl)cc1[N+](=O)[O-])C(=O)OCCOCCOC(=O)c1ccc(-c2c3nc(c(-c4ccccc4)c4ccc([nH]4)c(-c4ccccc4)c4nc(c(-c5ccccc5)c5ccc2[nH]5)C=C4)C=C3)cc1
REMARK SMILES IDX 22 1 21 2 20 3 18 4 19 5 3 6 2 7 1 8 4 9 5 10 6 11 7 14 8 15
REMARK SMILES IDX 9 16 14 17 10 18 13 19 11 20 12 21 15 22 16 23 17 24 23 25
REMARK SMILES IDX 24 26 25 27 26 28 27 29 28 30 29 31 30 32 76 33 31 34 75 35
REMARK SMILES IDX 32 36 33 37 34 38 69 39 35 40 74 41 68 42 70 43 36 44 73 45
REMARK SMILES IDX 67 46 66 47 37 49 59 50 44 51 58 52 45 53 48 54 57 55 71 56
REMARK SMILES IDX 46 57 47 58 56 60 72 61 49 62 38 63 39 64 43 65 40 66 42 67
REMARK SMILES IDX 41 68 60 69 61 70 65 71 62 72 64 73 63 74 50 75 51 76 55 77
REMARK SMILES IDX 52 78 54 79 53 80
REMARK H PARENT 6 12 6 13 70 48 48 59
REMARK Flexibility Score: inf
ROOT
ATOM      1  C   UNL A   1      36.567  23.358  25.076  1.00  0.00     0.202 C 
ENDROOT
BRANCH   1   2
ATOM      2  C   UNL A   1      35.091  23.741  25.191  1.00  0.00     0.261 C 
BRANCH   2   3
ATOM      3  O   UNL A   1      34.721  24.697  24.189  1.00  0.00    -0.459 OA
BRANCH   3   4
ATOM      4  C   UNL A   1      33.978  25.733  24.660  1.00  0.00     0.368 C 
ATOM      5  O   UNL A   1      34.004  26.083  25.836  1.00  0.00    -0.245 OA
BRANCH   4   6
ATOM      6  C   UNL A   1      33.016  26.360  23.607  1.00  0.00     0.194 C 
BRANCH   6   7
ATOM      7  C   UNL A   1      33.608  26.037  22.185  1.00  0.00     0.077 C 
ATOM      8  C   UNL A   1      32.666  25.603  21.070  1.00  0.00     0.011 C 
ENDBRANCH   6   7
BRANCH   6   9
ATOM      9  C   UNL A   1      33.044  27.876  23.960  1.00  0.00     0.077 C 
ATOM     10  C   UNL A   1      33.748  28.855  23.033  1.00  0.00     0.011 C 
ENDBRANCH   6   9
BRANCH   6  11
ATOM     11  N   UNL A   1      31.685  25.688  23.485  1.00  0.00    -0.328 N 
ATOM     12  H   UNL A   1      31.769  25.093  22.660  1.00  0.00     0.347 HD
ATOM     13  H   UNL A   1      31.086  26.512  23.537  1.00  0.00     0.347 HD
BRANCH  11  14
ATOM     14  C   UNL A   1      31.017  24.859  24.474  1.00  0.00     0.305 C 
BRANCH  14  15
ATOM     15  C   UNL A   1      31.380  23.399  24.432  1.00  0.00     0.084 A 
ATOM     16  C   UNL A   1      31.728  22.824  23.201  1.00  0.00     0.018 A 
ATOM     17  C   UNL A   1      31.454  22.587  25.579  1.00  0.00     0.279 A 
ATOM     18  C   UNL A   1      32.323  21.563  23.155  1.00  0.00     0.021 A 
ATOM     19  C   UNL A   1      32.124  21.361  25.559  1.00  0.00     0.106 A 
ATOM     20  C   UNL A   1      32.586  20.876  24.341  1.00  0.00     0.047 A 
ATOM     21  Cl  UNL A   1      33.492  19.415  24.290  1.00  0.00    -0.084 Cl
BRANCH  17  22
ATOM     22  N   UNL A   1      30.784  22.988  26.811  1.00  0.00     0.063 N 
ATOM     23  O   UNL A   1      31.418  23.675  27.621  1.00  0.00    -0.258 OA
ATOM     24  O   UNL A   1      29.619  22.600  26.969  1.00  0.00    -0.258 OA
ENDBRANCH  17  22
ENDBRANCH  14  15
ENDBRANCH  11  14
ENDBRANCH   6  11
ENDBRANCH   4   6
ENDBRANCH   3   4
ENDBRANCH   2   3
ENDBRANCH   1   2
BRANCH   1  25
ATOM     25  O   UNL A   1      36.941  22.029  25.427  1.00  0.00    -0.374 OA
BRANCH  25  26
ATOM     26  C   UNL A   1      38.317  21.776  25.715  1.00  0.00     0.202 C 
BRANCH  26  27
ATOM     27  C   UNL A   1      38.881  20.390  25.378  1.00  0.00     0.261 C 
BRANCH  27  28
ATOM     28  O   UNL A   1      39.662  19.840  26.455  1.00  0.00    -0.460 OA
BRANCH  28  29
ATOM     29  C   UNL A   1      40.989  19.763  26.205  1.00  0.00     0.338 C 
ATOM     30  O   UNL A   1      41.578  18.894  25.571  1.00  0.00    -0.246 OA
BRANCH  29  31
ATOM     31  C   UNL A   1      41.649  21.011  26.621  1.00  0.00     0.060 A 
ATOM     32  C   UNL A   1      41.633  21.325  27.988  1.00  0.00     0.016 A 
ATOM     33  C   UNL A   1      42.206  21.892  25.695  1.00  0.00     0.016 A 
ATOM     34  C   UNL A   1      42.127  22.548  28.429  1.00  0.00     0.010 A 
ATOM     35  C   UNL A   1      42.687  23.128  26.138  1.00  0.00     0.010 A 
ATOM     36  C   UNL A   1      42.611  23.476  27.500  1.00  0.00    -0.014 A 
BRANCH  36  37
ATOM     37  C   UNL A   1      42.866  24.869  27.934  1.00  0.00     0.031 A 
ATOM     38  C   UNL A   1      44.286  25.308  28.158  1.00  0.00     0.074 A 
ATOM     39  C   UNL A   1      41.856  25.744  28.083  1.00  0.00     0.049 A 
ATOM     40  N   UNL A   1      44.744  26.464  28.568  1.00  0.00    -0.248 NA
ATOM     41  C   UNL A   1      45.333  24.309  27.885  1.00  0.00     0.031 C 
ATOM     42  C   UNL A   1      40.443  25.458  27.833  1.00  0.00     0.029 A 
ATOM     43  N   UNL A   1      41.870  27.055  28.483  1.00  0.00    -0.354 N 
ATOM     44  C   UNL A   1      46.126  26.327  28.614  1.00  0.00     0.074 A 
ATOM     45  C   UNL A   1      46.431  24.969  28.221  1.00  0.00     0.031 C 
ATOM     46  C   UNL A   1      39.724  26.563  28.093  1.00  0.00     0.029 A 
ATOM     47  C   UNL A   1      40.621  27.619  28.563  1.00  0.00     0.049 A 
ATOM     48  H   UNL A   1      42.697  27.545  28.694  1.00  0.00     0.167 HD
ATOM     49  C   UNL A   1      47.057  27.250  28.951  1.00  0.00     0.031 A 
ATOM     50  C   UNL A   1      40.243  28.840  28.987  1.00  0.00     0.031 A 
ATOM     51  C   UNL A   1      46.751  28.596  29.352  1.00  0.00     0.049 A 
ATOM     52  C   UNL A   1      41.293  29.820  29.441  1.00  0.00     0.074 A 
ATOM     53  C   UNL A   1      47.625  29.612  29.701  1.00  0.00     0.029 A 
ATOM     54  N   UNL A   1      45.470  29.112  29.469  1.00  0.00    -0.354 N 
ATOM     55  N   UNL A   1      42.597  29.686  29.464  1.00  0.00    -0.248 NA
ATOM     56  C   UNL A   1      40.814  31.125  29.920  1.00  0.00     0.031 C 
ATOM     57  C   UNL A   1      46.869  30.722  30.090  1.00  0.00     0.029 A 
ATOM     58  C   UNL A   1      45.528  30.422  29.915  1.00  0.00     0.049 A 
ATOM     59  H   UNL A   1      44.642  28.621  29.264  1.00  0.00     0.167 HD
ATOM     60  C   UNL A   1      43.095  30.897  29.930  1.00  0.00     0.074 A 
ATOM     61  C   UNL A   1      41.953  31.757  30.163  1.00  0.00     0.031 C 
ATOM     62  C   UNL A   1      44.382  31.265  30.144  1.00  0.00     0.031 A 
BRANCH  49  63
ATOM     63  C   UNL A   1      48.497  26.816  28.938  1.00  0.00    -0.014 A 
ATOM     64  C   UNL A   1      49.112  26.277  30.078  1.00  0.00     0.009 A 
ATOM     65  C   UNL A   1      49.242  26.923  27.752  1.00  0.00     0.009 A 
ATOM     66  C   UNL A   1      50.454  25.888  30.041  1.00  0.00     0.001 A 
ATOM     67  C   UNL A   1      50.573  26.505  27.710  1.00  0.00     0.001 A 
ATOM     68  C   UNL A   1      51.181  25.997  28.857  1.00  0.00     0.000 A 
ENDBRANCH  49  63
BRANCH  50  69
ATOM     69  C   UNL A   1      38.802  29.200  29.028  1.00  0.00    -0.014 A 
ATOM     70  C   UNL A   1      38.164  29.741  27.901  1.00  0.00     0.009 A 
ATOM     71  C   UNL A   1      38.059  29.026  30.207  1.00  0.00     0.009 A 
ATOM     72  C   UNL A   1      36.822  30.122  27.961  1.00  0.00     0.001 A 
ATOM     73  C   UNL A   1      36.709  29.378  30.255  1.00  0.00     0.001 A 
ATOM     74  C   UNL A   1      36.095  29.936  29.136  1.00  0.00     0.000 A 
ENDBRANCH  50  69
BRANCH  62  75
ATOM     75  C   UNL A   1      44.630  32.673  30.615  1.00  0.00    -0.014 A 
ATOM     76  C   UNL A   1      44.800  33.731  29.707  1.00  0.00     0.009 A 
ATOM     77  C   UNL A   1      44.652  32.949  31.991  1.00  0.00     0.009 A 
ATOM     78  C   UNL A   1      45.022  35.030  30.172  1.00  0.00     0.001 A 
ATOM     79  C   UNL A   1      44.840  34.252  32.451  1.00  0.00     0.001 A 
ATOM     80  C   UNL A   1      45.036  35.290  31.541  1.00  0.00     0.000 A 
ENDBRANCH  62  75
ENDBRANCH  36  37
ENDBRANCH  29  31
ENDBRANCH  28  29
ENDBRANCH  27  28
ENDBRANCH  26  27
ENDBRANCH  25  26
ENDBRANCH   1  25
TORSDOF 20
ENDMDL
MODEL 2
REMARK VINA RESULT:      -9.4      0.691      5.905
REMARK SMILES CCC(CC)([NH2+]Cc1ccc(Cl)cc1[N+](=O)[O-])C(=O)OCCOCCOC(=O)c1ccc(-c2c3nc(c(-c4ccccc4)c4ccc([nH]4)c(-c4ccccc4)c4nc(c(-c5ccccc5)c5ccc2[nH]5)C=C4)C=C3)cc1
REMARK SMILES IDX 22 1 21 2 20 3 18 4 19 5 3 6 2 7 1 8 4 9 5 10 6 11 7 14 8 15
REMARK SMILES IDX 9 16 14 17 10 18 13 19 11 20 12 21 15 22 16 23 17 24 23 25
REMARK SMILES IDX 24 26 25 27 26 28 27 29 28 30 29 31 30 32 76 33 31 34 75 35
REMARK SMILES IDX 32 36 33 37 34 38 69 39 35 40 74 41 68 42 70 43 36 44 73 45
REMARK SMILES IDX 67 46 66 47 37 49 59 50 44 51 58 52 45 53 48 54 57 55 71 56
REMARK SMILES IDX 46 57 47 58 56 60 72 61 49 62 38 63 39 64 43 65 40 66 42 67
REMARK SMILES IDX 41 68 60 69 61 70 65 71 62 72 64 73 63 74 50 75 51 76 55 77
REMARK SMILES IDX 52 78 54 79 53 80
REMARK H PARENT 6 12 6 13 70 48 48 59
REMARK Flexibility Score: inf
ROOT
ATOM      1  C   UNL A   1      36.702  22.934  25.065  1.00  0.00     0.202 C 
ENDROOT
BRANCH   1   2
ATOM      2  C   UNL A   1      35.252  23.111  24.613  1.00  0.00     0.261 C 
BRANCH   2   3
ATOM      3  O   UNL A   1      34.707  24.351  25.086  1.00  0.00    -0.459 OA
BRANCH   3   4
ATOM      4  C   UNL A   1      34.085  25.084  24.125  1.00  0.00     0.368 C 
ATOM      5  O   UNL A   1      34.341  24.961  22.932  1.00  0.00    -0.245 OA
BRANCH   4   6
ATOM      6  C   UNL A   1      33.106  26.162  24.679  1.00  0.00     0.194 C 
BRANCH   6   7
ATOM      7  C   UNL A   1      32.663  27.058  23.464  1.00  0.00     0.077 C 
ATOM      8  C   UNL A   1      33.515  28.261  23.080  1.00  0.00     0.011 C 
ENDBRANCH   6   7
BRANCH   6   9
ATOM      9  C   UNL A   1      33.973  26.923  25.725  1.00  0.00     0.077 C 
ATOM     10  C   UNL A   1      33.312  27.886  26.698  1.00  0.00     0.011 C 
ENDBRANCH   6   9
BRANCH   6  11
ATOM     11  N   UNL A   1      31.771  25.644  25.112  1.00  0.00    -0.328 N 
ATOM     12  H   UNL A   1      31.226  26.478  25.331  1.00  0.00     0.347 HD
ATOM     13  H   UNL A   1      32.082  24.964  25.807  1.00  0.00     0.347 HD
BRANCH  11  14
ATOM     14  C   UNL A   1      30.863  24.797  24.358  1.00  0.00     0.305 C 
BRANCH  14  15
ATOM     15  C   UNL A   1      31.223  23.336  24.336  1.00  0.00     0.084 A 
ATOM     16  C   UNL A   1      31.550  22.738  23.109  1.00  0.00     0.018 A 
ATOM     17  C   UNL A   1      31.317  22.544  25.496  1.00  0.00     0.279 A 
ATOM     18  C   UNL A   1      32.143  21.475  23.077  1.00  0.00     0.021 A 
ATOM     19  C   UNL A   1      31.986  21.318  25.487  1.00  0.00     0.106 A 
ATOM     20  C   UNL A   1      32.426  20.810  24.270  1.00  0.00     0.047 A 
ATOM     21  Cl  UNL A   1      33.330  19.348  24.230  1.00  0.00    -0.084 Cl
BRANCH  17  22
ATOM     22  N   UNL A   1      30.669  22.968  26.732  1.00  0.00     0.063 N 
ATOM     23  O   UNL A   1      31.312  23.681  27.512  1.00  0.00    -0.258 OA
ATOM     24  O   UNL A   1      29.511  22.573  26.924  1.00  0.00    -0.258 OA
ENDBRANCH  17  22
ENDBRANCH  14  15
ENDBRANCH  11  14
ENDBRANCH   6  11
ENDBRANCH   4   6
ENDBRANCH   3   4
ENDBRANCH   2   3
ENDBRANCH   1   2
BRANCH   1  25
ATOM     25  O   UNL A   1      37.485  21.936  24.418  1.00  0.00    -0.374 OA
BRANCH  25  26
ATOM     26  C   UNL A   1      37.322  20.581  24.838  1.00  0.00     0.202 C 
BRANCH  26  27
ATOM     27  C   UNL A   1      38.583  19.770  25.163  1.00  0.00     0.261 C 
BRANCH  27  28
ATOM     28  O   UNL A   1      39.355  20.360  26.226  1.00  0.00    -0.460 OA
BRANCH  28  29
ATOM     29  C   UNL A   1      40.676  20.080  26.184  1.00  0.00     0.338 C 
ATOM     30  O   UNL A   1      41.215  19.099  25.681  1.00  0.00    -0.246 OA
BRANCH  29  31
ATOM     31  C   UNL A   1      41.449  21.244  26.649  1.00  0.00     0.060 A 
ATOM     32  C   UNL A   1      41.511  21.467  28.032  1.00  0.00     0.016 A 
ATOM     33  C   UNL A   1      42.037  22.140  25.756  1.00  0.00     0.016 A 
ATOM     34  C   UNL A   1      42.116  22.618  28.526  1.00  0.00     0.010 A 
ATOM     35  C   UNL A   1      42.630  23.303  26.254  1.00  0.00     0.010 A 
ATOM     36  C   UNL A   1      42.635  23.566  27.637  1.00  0.00    -0.014 A 
BRANCH  36  37
ATOM     37  C   UNL A   1      43.015  24.904  28.146  1.00  0.00     0.031 A 
ATOM     38  C   UNL A   1      41.936  25.928  28.366  1.00  0.00     0.074 A 
ATOM     39  C   UNL A   1      44.292  25.191  28.451  1.00  0.00     0.049 A 
ATOM     40  N   UNL A   1      42.038  27.167  28.773  1.00  0.00    -0.248 NA
ATOM     41  C   UNL A   1      40.555  25.496  28.089  1.00  0.00     0.031 C 
ATOM     42  C   UNL A   1      45.419  24.263  28.344  1.00  0.00     0.029 A 
ATOM     43  N   UNL A   1      44.854  26.353  28.916  1.00  0.00    -0.354 N 
ATOM     44  C   UNL A   1      40.741  27.666  28.788  1.00  0.00     0.074 A 
ATOM     45  C   UNL A   1      39.874  26.607  28.321  1.00  0.00     0.031 C 
ATOM     46  C   UNL A   1      46.541  24.897  28.726  1.00  0.00     0.029 A 
ATOM     47  C   UNL A   1      46.216  26.281  29.068  1.00  0.00     0.049 A 
ATOM     48  H   UNL A   1      44.329  27.160  29.121  1.00  0.00     0.167 HD
ATOM     49  C   UNL A   1      40.311  28.895  29.160  1.00  0.00     0.031 A 
ATOM     50  C   UNL A   1      47.103  27.232  29.423  1.00  0.00     0.031 A 
ATOM     51  C   UNL A   1      41.176  29.950  29.613  1.00  0.00     0.049 A 
ATOM     52  C   UNL A   1      46.608  28.617  29.746  1.00  0.00     0.074 A 
ATOM     53  C   UNL A   1      40.835  31.227  30.025  1.00  0.00     0.029 A 
ATOM     54  N   UNL A   1      42.555  29.854  29.705  1.00  0.00    -0.354 N 
ATOM     55  N   UNL A   1      45.378  29.073  29.773  1.00  0.00    -0.248 NA
ATOM     56  C   UNL A   1      47.627  29.617  30.096  1.00  0.00     0.031 C 
ATOM     57  C   UNL A   1      42.015  31.923  30.305  1.00  0.00     0.029 A 
ATOM     58  C   UNL A   1      43.085  31.058  30.136  1.00  0.00     0.049 A 
ATOM     59  H   UNL A   1      43.081  29.048  29.495  1.00  0.00     0.167 HD
ATOM     60  C   UNL A   1      45.474  30.400  30.173  1.00  0.00     0.074 A 
ATOM     61  C   UNL A   1      46.880  30.671  30.390  1.00  0.00     0.031 C 
ATOM     62  C   UNL A   1      44.487  31.313  30.347  1.00  0.00     0.031 A 
BRANCH  49  63
ATOM     63  C   UNL A   1      38.837  29.174  29.050  1.00  0.00    -0.014 A 
ATOM     64  C   UNL A   1      37.983  29.060  30.158  1.00  0.00     0.009 A 
ATOM     65  C   UNL A   1      38.300  29.586  27.820  1.00  0.00     0.009 A 
ATOM     66  C   UNL A   1      36.616  29.318  30.026  1.00  0.00     0.001 A 
ATOM     67  C   UNL A   1      36.940  29.873  27.699  1.00  0.00     0.001 A 
ATOM     68  C   UNL A   1      36.097  29.729  28.799  1.00  0.00     0.000 A 
ENDBRANCH  49  63
BRANCH  50  69
ATOM     69  C   UNL A   1      48.554  26.916  29.466  1.00  0.00    -0.014 A 
ATOM     70  C   UNL A   1      49.362  27.093  28.332  1.00  0.00     0.009 A 
ATOM     71  C   UNL A   1      49.137  26.413  30.640  1.00  0.00     0.009 A 
ATOM     72  C   UNL A   1      50.715  26.749  28.366  1.00  0.00     0.001 A 
ATOM     73  C   UNL A   1      50.497  26.099  30.680  1.00  0.00     0.001 A 
ATOM     74  C   UNL A   1      51.282  26.258  29.540  1.00  0.00     0.000 A 
ENDBRANCH  50  69
BRANCH  62  75
ATOM     75  C   UNL A   1      44.886  32.680  30.835  1.00  0.00    -0.014 A 
ATOM     76  C   UNL A   1      45.172  33.724  29.940  1.00  0.00     0.009 A 
ATOM     77  C   UNL A   1      44.932  32.937  32.214  1.00  0.00     0.009 A 
ATOM     78  C   UNL A   1      45.533  34.985  30.420  1.00  0.00     0.001 A 
ATOM     79  C   UNL A   1      45.259  34.206  32.690  1.00  0.00     0.001 A 
ATOM     80  C   UNL A   1      45.570  35.227  31.793  1.00  0.00     0.000 A 
ENDBRANCH  62  75
ENDBRANCH  36  37
ENDBRANCH  29  31
ENDBRANCH  28  29
ENDBRANCH  27  28
ENDBRANCH  26  27
ENDBRANCH  25  26
ENDBRANCH   1  25
TORSDOF 20
ENDMDL
MODEL 3
REMARK VINA RESULT:      -9.2      1.694      2.846
REMARK SMILES CCC(CC)([NH2+]Cc1ccc(Cl)cc1[N+](=O)[O-])C(=O)OCCOCCOC(=O)c1ccc(-c2c3nc(c(-c4ccccc4)c4ccc([nH]4)c(-c4ccccc4)c4nc(c(-c5ccccc5)c5ccc2[nH]5)C=C4)C=C3)cc1
REMARK SMILES IDX 22 1 21 2 20 3 18 4 19 5 3 6 2 7 1 8 4 9 5 10 6 11 7 14 8 15
REMARK SMILES IDX 9 16 14 17 10 18 13 19 11 20 12 21 15 22 16 23 17 24 23 25
REMARK SMILES IDX 24 26 25 27 26 28 27 29 28 30 29 31 30 32 76 33 31 34 75 35
REMARK SMILES IDX 32 36 33 37 34 38 69 39 35 40 74 41 68 42 70 43 36 44 73 45
REMARK SMILES IDX 67 46 66 47 37 49 59 50 44 51 58 52 45 53 48 54 57 55 71 56
REMARK SMILES IDX 46 57 47 58 56 60 72 61 49 62 38 63 39 64 43 65 40 66 42 67
REMARK SMILES IDX 41 68 60 69 61 70 65 71 62 72 64 73 63 74 50 75 51 76 55 77
REMARK SMILES IDX 52 78 54 79 53 80
REMARK H PARENT 6 12 6 13 70 48 48 59
REMARK Flexibility Score: inf
ROOT
ATOM      1  C   UNL A   1      36.817  22.594  25.705  1.00  0.00     0.202 C 
ENDROOT
BRANCH   1   2
ATOM      2  C   UNL A   1      36.186  23.393  24.564  1.00  0.00     0.261 C 
BRANCH   2   3
ATOM      3  O   UNL A   1      35.181  22.628  23.886  1.00  0.00    -0.459 OA
BRANCH   3   4
ATOM      4  C   UNL A   1      34.167  23.375  23.376  1.00  0.00     0.368 C 
ATOM      5  O   UNL A   1      34.287  24.042  22.353  1.00  0.00    -0.245 OA
BRANCH   4   6
ATOM      6  C   UNL A   1      32.884  23.398  24.261  1.00  0.00     0.194 C 
BRANCH   6   7
ATOM      7  C   UNL A   1      32.922  22.114  25.170  1.00  0.00     0.077 C 
ATOM      8  C   UNL A   1      32.272  20.831  24.670  1.00  0.00     0.011 C 
ENDBRANCH   6   7
BRANCH   6   9
ATOM      9  C   UNL A   1      31.732  23.380  23.213  1.00  0.00     0.077 C 
ATOM     10  C   UNL A   1      30.565  24.344  23.355  1.00  0.00     0.011 C 
ENDBRANCH   6   9
BRANCH   6  11
ATOM     11  N   UNL A   1      32.861  24.456  25.318  1.00  0.00    -0.328 N 
ATOM     12  H   UNL A   1      33.120  23.971  26.177  1.00  0.00     0.347 HD
ATOM     13  H   UNL A   1      31.934  24.842  25.136  1.00  0.00     0.347 HD
BRANCH  11  14
ATOM     14  C   UNL A   1      33.619  25.695  25.348  1.00  0.00     0.305 C 
BRANCH  14  15
ATOM     15  C   UNL A   1      32.959  26.864  24.667  1.00  0.00     0.084 A 
ATOM     16  C   UNL A   1      33.379  27.220  23.377  1.00  0.00     0.018 A 
ATOM     17  C   UNL A   1      31.888  27.583  25.229  1.00  0.00     0.279 A 
ATOM     18  C   UNL A   1      32.626  28.111  22.611  1.00  0.00     0.021 A 
ATOM     19  C   UNL A   1      31.078  28.410  24.448  1.00  0.00     0.106 A 
ATOM     20  C   UNL A   1      31.440  28.637  23.125  1.00  0.00     0.047 A 
ATOM     21  Cl  UNL A   1      30.420  29.576  22.108  1.00  0.00    -0.084 Cl
BRANCH  17  22
ATOM     22  N   UNL A   1      31.631  27.521  26.664  1.00  0.00     0.063 N 
ATOM     23  O   UNL A   1      30.799  26.700  27.071  1.00  0.00    -0.258 OA
ATOM     24  O   UNL A   1      32.260  28.308  27.383  1.00  0.00    -0.258 OA
ENDBRANCH  17  22
ENDBRANCH  14  15
ENDBRANCH  11  14
ENDBRANCH   6  11
ENDBRANCH   4   6
ENDBRANCH   3   4
ENDBRANCH   2   3
ENDBRANCH   1   2
BRANCH   1  25
ATOM     25  O   UNL A   1      37.964  21.802  25.410  1.00  0.00    -0.374 OA
BRANCH  25  26
ATOM     26  C   UNL A   1      37.759  20.432  25.062  1.00  0.00     0.202 C 
BRANCH  26  27
ATOM     27  C   UNL A   1      38.927  19.457  25.257  1.00  0.00     0.261 C 
BRANCH  27  28
ATOM     28  O   UNL A   1      39.779  19.835  26.354  1.00  0.00    -0.460 OA
BRANCH  28  29
ATOM     29  C   UNL A   1      41.100  19.833  26.067  1.00  0.00     0.338 C 
ATOM     30  O   UNL A   1      41.702  19.059  25.330  1.00  0.00    -0.246 OA
BRANCH  29  31
ATOM     31  C   UNL A   1      41.729  21.054  26.600  1.00  0.00     0.060 A 
ATOM     32  C   UNL A   1      41.501  21.361  27.949  1.00  0.00     0.016 A 
ATOM     33  C   UNL A   1      42.463  21.917  25.787  1.00  0.00     0.016 A 
ATOM     34  C   UNL A   1      41.960  22.562  28.478  1.00  0.00     0.010 A 
ATOM     35  C   UNL A   1      42.910  23.131  26.316  1.00  0.00     0.010 A 
ATOM     36  C   UNL A   1      42.624  23.476  27.651  1.00  0.00    -0.014 A 
BRANCH  36  37
ATOM     37  C   UNL A   1      42.855  24.856  28.136  1.00  0.00     0.031 A 
ATOM     38  C   UNL A   1      44.256  25.274  28.486  1.00  0.00     0.074 A 
ATOM     39  C   UNL A   1      41.844  25.738  28.223  1.00  0.00     0.049 A 
ATOM     40  N   UNL A   1      44.689  26.415  28.958  1.00  0.00    -0.248 NA
ATOM     41  C   UNL A   1      45.313  24.270  28.277  1.00  0.00     0.031 C 
ATOM     42  C   UNL A   1      40.454  25.473  27.851  1.00  0.00     0.029 A 
ATOM     43  N   UNL A   1      41.838  27.041  28.652  1.00  0.00    -0.354 N 
ATOM     44  C   UNL A   1      46.061  26.262  29.114  1.00  0.00     0.074 A 
ATOM     45  C   UNL A   1      46.385  24.910  28.716  1.00  0.00     0.031 C 
ATOM     46  C   UNL A   1      39.727  26.581  28.077  1.00  0.00     0.029 A 
ATOM     47  C   UNL A   1      40.591  27.616  28.642  1.00  0.00     0.049 A 
ATOM     48  H   UNL A   1      42.649  27.517  28.941  1.00  0.00     0.167 HD
ATOM     49  C   UNL A   1      46.971  27.167  29.547  1.00  0.00     0.031 A 
ATOM     50  C   UNL A   1      40.191  28.832  29.061  1.00  0.00     0.031 A 
ATOM     51  C   UNL A   1      46.645  28.508  29.953  1.00  0.00     0.049 A 
ATOM     52  C   UNL A   1      41.209  29.789  29.623  1.00  0.00     0.074 A 
ATOM     53  C   UNL A   1      47.497  29.506  30.396  1.00  0.00     0.029 A 
ATOM     54  N   UNL A   1      45.364  29.035  29.976  1.00  0.00    -0.354 N 
ATOM     55  N   UNL A   1      42.506  29.640  29.749  1.00  0.00    -0.248 NA
ATOM     56  C   UNL A   1      40.705  31.089  30.091  1.00  0.00     0.031 C 
ATOM     57  C   UNL A   1      46.722  30.615  30.747  1.00  0.00     0.029 A 
ATOM     58  C   UNL A   1      45.396  30.334  30.456  1.00  0.00     0.049 A 
ATOM     59  H   UNL A   1      44.551  28.558  29.693  1.00  0.00     0.167 HD
ATOM     60  C   UNL A   1      42.975  30.835  30.282  1.00  0.00     0.074 A 
ATOM     61  C   UNL A   1      41.826  31.702  30.440  1.00  0.00     0.031 C 
ATOM     62  C   UNL A   1      44.244  31.185  30.609  1.00  0.00     0.031 A 
BRANCH  49  63
ATOM     63  C   UNL A   1      48.403  26.717  29.642  1.00  0.00    -0.014 A 
ATOM     64  C   UNL A   1      48.908  26.116  30.805  1.00  0.00     0.009 A 
ATOM     65  C   UNL A   1      49.252  26.874  28.535  1.00  0.00     0.009 A 
ATOM     66  C   UNL A   1      50.245  25.714  30.870  1.00  0.00     0.001 A 
ATOM     67  C   UNL A   1      50.579  26.443  28.592  1.00  0.00     0.001 A 
ATOM     68  C   UNL A   1      51.077  25.872  29.762  1.00  0.00     0.000 A 
ENDBRANCH  49  63
BRANCH  50  69
ATOM     69  C   UNL A   1      38.755  29.207  28.993  1.00  0.00    -0.014 A 
ATOM     70  C   UNL A   1      37.912  29.027  30.100  1.00  0.00     0.009 A 
ATOM     71  C   UNL A   1      38.213  29.728  27.806  1.00  0.00     0.009 A 
ATOM     72  C   UNL A   1      36.553  29.337  30.012  1.00  0.00     0.001 A 
ATOM     73  C   UNL A   1      36.860  30.066  27.732  1.00  0.00     0.001 A 
ATOM     74  C   UNL A   1      36.030  29.860  28.831  1.00  0.00     0.000 A 
ENDBRANCH  50  69
BRANCH  62  75
ATOM     75  C   UNL A   1      44.466  32.579  31.131  1.00  0.00    -0.014 A 
ATOM     76  C   UNL A   1      44.704  33.657  30.264  1.00  0.00     0.009 A 
ATOM     77  C   UNL A   1      44.391  32.821  32.512  1.00  0.00     0.009 A 
ATOM     78  C   UNL A   1      44.899  34.943  30.775  1.00  0.00     0.001 A 
ATOM     79  C   UNL A   1      44.553  34.111  33.016  1.00  0.00     0.001 A 
ATOM     80  C   UNL A   1      44.818  35.170  32.148  1.00  0.00     0.000 A 
ENDBRANCH  62  75
ENDBRANCH  36  37
ENDBRANCH  29  31
ENDBRANCH  28  29
ENDBRANCH  27  28
ENDBRANCH  26  27
ENDBRANCH  25  26
ENDBRANCH   1  25
TORSDOF 20
ENDMDL
