MODEL 1
REMARK VINA RESULT:      -9.7      0.000      0.000
REMARK SMILES O=C(OCCOCCOC(=O)[C@H]1CC[C@@H]2CCCC[C@H]2[NH2+]1)c1ccc(-c2c3nc(c(-c4ccccc4)c4ccc([nH]4)c(-c4ccccc4)c4nc(c(-c5ccccc5)c5ccc2[nH]5)C=C4)C=C3)cc1
REMARK SMILES IDX 5 1 4 2 3 3 2 4 1 5 22 6 23 7 69 8 24 9 68 10 25 11 26 12
REMARK SMILES IDX 27 13 62 14 28 15 67 16 61 17 63 18 29 19 66 20 60 21 59 22
REMARK SMILES IDX 30 24 52 25 37 26 51 27 38 28 41 29 50 30 64 31 39 32 40 33
REMARK SMILES IDX 49 35 65 36 42 37 31 38 32 39 36 40 33 41 35 42 34 43 53 44
REMARK SMILES IDX 54 45 58 46 55 47 57 48 56 49 43 50 44 51 48 52 45 53 47 54
REMARK SMILES IDX 46 55 6 56 7 57 8 58 9 59 10 60 11 61 12 62 13 63 21 64
REMARK SMILES IDX 14 65 20 66 15 69 19 70 16 71 18 72 17 73
REMARK H PARENT 63 23 41 34 21 67 21 68
REMARK Flexibility Score: inf
ROOT
ATOM      1  C   UNL A   1      37.729  20.881  25.573  1.00  0.00     0.202 C 
ENDROOT
BRANCH   1   2
ATOM      2  C   UNL A   1      38.584  19.874  24.799  1.00  0.00     0.261 C 
BRANCH   2   3
ATOM      3  O   UNL A   1      39.504  19.199  25.672  1.00  0.00    -0.460 OA
BRANCH   3   4
ATOM      4  C   UNL A   1      40.801  19.513  25.906  1.00  0.00     0.338 C 
ATOM      5  O   UNL A   1      41.664  18.669  25.669  1.00  0.00    -0.246 OA
BRANCH   4   6
ATOM      6  C   UNL A   1      41.254  20.840  26.428  1.00  0.00     0.060 A 
ATOM      7  C   UNL A   1      41.651  21.914  25.632  1.00  0.00     0.016 A 
ATOM      8  C   UNL A   1      41.177  21.051  27.817  1.00  0.00     0.016 A 
ATOM      9  C   UNL A   1      42.015  23.134  26.182  1.00  0.00     0.010 A 
ATOM     10  C   UNL A   1      41.489  22.296  28.378  1.00  0.00     0.010 A 
ATOM     11  C   UNL A   1      41.915  23.342  27.555  1.00  0.00    -0.014 A 
BRANCH  11  12
ATOM     12  C   UNL A   1      42.306  24.668  28.069  1.00  0.00     0.031 A 
ATOM     13  C   UNL A   1      43.757  25.018  28.153  1.00  0.00     0.074 A 
ATOM     14  C   UNL A   1      41.348  25.591  28.282  1.00  0.00     0.049 A 
ATOM     15  N   UNL A   1      44.314  26.142  28.517  1.00  0.00    -0.248 NA
ATOM     16  C   UNL A   1      44.712  23.970  27.755  1.00  0.00     0.031 C 
ATOM     17  C   UNL A   1      39.909  25.366  28.111  1.00  0.00     0.029 A 
ATOM     18  N   UNL A   1      41.438  26.911  28.630  1.00  0.00    -0.354 N 
ATOM     19  C   UNL A   1      45.681  25.935  28.402  1.00  0.00     0.074 A 
ATOM     20  C   UNL A   1      45.874  24.576  27.947  1.00  0.00     0.031 C 
ATOM     21  C   UNL A   1      39.258  26.523  28.305  1.00  0.00     0.029 A 
ATOM     22  C   UNL A   1      40.222  27.550  28.679  1.00  0.00     0.049 A 
ATOM     23  H   UNL A   1      42.292  27.361  28.825  1.00  0.00     0.167 HD
ATOM     24  C   UNL A   1      46.684  26.806  28.659  1.00  0.00     0.031 A 
ATOM     25  C   UNL A   1      39.924  28.820  29.010  1.00  0.00     0.031 A 
ATOM     26  C   UNL A   1      46.471  28.145  29.135  1.00  0.00     0.049 A 
ATOM     27  C   UNL A   1      41.057  29.735  29.383  1.00  0.00     0.074 A 
ATOM     28  C   UNL A   1      47.404  29.085  29.532  1.00  0.00     0.029 A 
ATOM     29  N   UNL A   1      45.221  28.734  29.271  1.00  0.00    -0.354 N 
ATOM     30  N   UNL A   1      42.349  29.503  29.355  1.00  0.00    -0.248 NA
ATOM     31  C   UNL A   1      40.694  31.079  29.847  1.00  0.00     0.031 C 
ATOM     32  C   UNL A   1      46.714  30.232  29.943  1.00  0.00     0.029 A 
ATOM     33  C   UNL A   1      45.355  30.022  29.755  1.00  0.00     0.049 A 
ATOM     34  H   UNL A   1      44.365  28.298  29.054  1.00  0.00     0.167 HD
ATOM     35  C   UNL A   1      42.952  30.670  29.799  1.00  0.00     0.074 A 
ATOM     36  C   UNL A   1      41.887  31.620  30.050  1.00  0.00     0.031 C 
ATOM     37  C   UNL A   1      44.267  30.932  29.999  1.00  0.00     0.031 A 
BRANCH  24  38
ATOM     38  C   UNL A   1      48.084  26.293  28.492  1.00  0.00    -0.014 A 
ATOM     39  C   UNL A   1      48.748  26.369  27.257  1.00  0.00     0.009 A 
ATOM     40  C   UNL A   1      48.736  25.692  29.579  1.00  0.00     0.009 A 
ATOM     41  C   UNL A   1      50.024  25.822  27.106  1.00  0.00     0.001 A 
ATOM     42  C   UNL A   1      50.021  25.165  29.431  1.00  0.00     0.001 A 
ATOM     43  C   UNL A   1      50.659  25.221  28.193  1.00  0.00     0.000 A 
ENDBRANCH  24  38
BRANCH  25  44
ATOM     44  C   UNL A   1      38.509  29.275  29.074  1.00  0.00    -0.014 A 
ATOM     45  C   UNL A   1      37.853  29.776  27.941  1.00  0.00     0.009 A 
ATOM     46  C   UNL A   1      37.810  29.232  30.293  1.00  0.00     0.009 A 
ATOM     47  C   UNL A   1      36.540  30.249  28.032  1.00  0.00     0.001 A 
ATOM     48  C   UNL A   1      36.488  29.674  30.376  1.00  0.00     0.001 A 
ATOM     49  C   UNL A   1      35.858  30.193  29.248  1.00  0.00     0.000 A 
ENDBRANCH  25  44
BRANCH  37  50
ATOM     50  C   UNL A   1      44.605  32.304  30.504  1.00  0.00    -0.014 A 
ATOM     51  C   UNL A   1      44.699  32.562  31.880  1.00  0.00     0.009 A 
ATOM     52  C   UNL A   1      44.853  33.339  29.591  1.00  0.00     0.009 A 
ATOM     53  C   UNL A   1      45.000  33.846  32.333  1.00  0.00     0.001 A 
ATOM     54  C   UNL A   1      45.181  34.615  30.048  1.00  0.00     0.001 A 
ATOM     55  C   UNL A   1      45.244  34.870  31.418  1.00  0.00     0.000 A 
ENDBRANCH  37  50
ENDBRANCH  11  12
ENDBRANCH   4   6
ENDBRANCH   3   4
ENDBRANCH   2   3
ENDBRANCH   1   2
BRANCH   1  56
ATOM     56  O   UNL A   1      38.204  22.226  25.480  1.00  0.00    -0.374 OA
BRANCH  56  57
ATOM     57  C   UNL A   1      37.189  23.205  25.236  1.00  0.00     0.202 C 
BRANCH  57  58
ATOM     58  C   UNL A   1      36.289  22.730  24.094  1.00  0.00     0.261 C 
BRANCH  58  59
ATOM     59  O   UNL A   1      34.925  23.059  24.405  1.00  0.00    -0.459 OA
BRANCH  59  60
ATOM     60  C   UNL A   1      34.264  23.766  23.437  1.00  0.00     0.364 C 
ATOM     61  O   UNL A   1      34.381  23.580  22.230  1.00  0.00    -0.245 OA
BRANCH  60  62
ATOM     62  C   UNL A   1      33.373  24.862  24.041  1.00  0.00     0.293 C 
ATOM     63  C   UNL A   1      32.162  24.234  24.742  1.00  0.00     0.078 C 
ATOM     64  N   UNL A   1      34.111  25.703  25.018  1.00  0.00    -0.332 N 
ATOM     65  C   UNL A   1      31.253  25.289  25.369  1.00  0.00     0.016 C 
ATOM     66  C   UNL A   1      33.269  26.814  25.462  1.00  0.00     0.186 C 
ATOM     67  H   UNL A   1      34.953  26.073  24.577  1.00  0.00     0.347 HD
ATOM     68  H   UNL A   1      34.364  25.134  25.826  1.00  0.00     0.347 HD
ATOM     69  C   UNL A   1      32.054  26.271  26.237  1.00  0.00     0.048 C 
ATOM     70  C   UNL A   1      34.076  27.780  26.335  1.00  0.00     0.065 C 
ATOM     71  C   UNL A   1      31.166  27.423  26.722  1.00  0.00     0.010 C 
ATOM     72  C   UNL A   1      33.196  28.942  26.792  1.00  0.00     0.006 C 
ATOM     73  C   UNL A   1      31.954  28.451  27.532  1.00  0.00     0.001 C 
ENDBRANCH  60  62
ENDBRANCH  59  60
ENDBRANCH  58  59
ENDBRANCH  57  58
ENDBRANCH  56  57
ENDBRANCH   1  56
TORSDOF 14
ENDMDL
MODEL 2
REMARK VINA RESULT:      -9.6      4.727     10.030
REMARK SMILES O=C(OCCOCCOC(=O)[C@H]1CC[C@@H]2CCCC[C@H]2[NH2+]1)c1ccc(-c2c3nc(c(-c4ccccc4)c4ccc([nH]4)c(-c4ccccc4)c4nc(c(-c5ccccc5)c5ccc2[nH]5)C=C4)C=C3)cc1
REMARK SMILES IDX 5 1 4 2 3 3 2 4 1 5 22 6 23 7 69 8 24 9 68 10 25 11 26 12
REMARK SMILES IDX 27 13 62 14 28 15 67 16 61 17 63 18 29 19 66 20 60 21 59 22
REMARK SMILES IDX 30 24 52 25 37 26 51 27 38 28 41 29 50 30 64 31 39 32 40 33
REMARK SMILES IDX 49 35 65 36 42 37 31 38 32 39 36 40 33 41 35 42 34 43 53 44
REMARK SMILES IDX 54 45 58 46 55 47 57 48 56 49 43 50 44 51 48 52 45 53 47 54
REMARK SMILES IDX 46 55 6 56 7 57 8 58 9 59 10 60 11 61 12 62 13 63 21 64
REMARK SMILES IDX 14 65 20 66 15 69 19 70 16 71 18 72 17 73
REMARK H PARENT 63 23 41 34 21 67 21 68
REMARK Flexibility Score: inf
ROOT
ATOM      1  C   UNL A   1      33.800  34.812  28.885  1.00  0.00     0.202 C 
ENDROOT
BRANCH   1   2
ATOM      2  C   UNL A   1      33.716  33.543  28.031  1.00  0.00     0.261 C 
BRANCH   2   3
ATOM      3  O   UNL A   1      34.132  32.389  28.778  1.00  0.00    -0.460 OA
BRANCH   3   4
ATOM      4  C   UNL A   1      34.618  31.222  28.289  1.00  0.00     0.338 C 
ATOM      5  O   UNL A   1      33.933  30.589  27.487  1.00  0.00    -0.246 OA
BRANCH   4   6
ATOM      6  C   UNL A   1      35.952  30.657  28.660  1.00  0.00     0.060 A 
ATOM      7  C   UNL A   1      37.169  31.073  28.121  1.00  0.00     0.016 A 
ATOM      8  C   UNL A   1      35.989  29.708  29.698  1.00  0.00     0.016 A 
ATOM      9  C   UNL A   1      38.376  30.537  28.545  1.00  0.00     0.010 A 
ATOM     10  C   UNL A   1      37.206  29.201  30.172  1.00  0.00     0.010 A 
ATOM     11  C   UNL A   1      38.406  29.615  29.587  1.00  0.00    -0.014 A 
BRANCH  11  12
ATOM     12  C   UNL A   1      39.725  29.097  29.995  1.00  0.00     0.031 A 
ATOM     13  C   UNL A   1      40.363  29.627  31.239  1.00  0.00     0.074 A 
ATOM     14  C   UNL A   1      40.239  28.038  29.339  1.00  0.00     0.049 A 
ATOM     15  N   UNL A   1      41.484  29.269  31.807  1.00  0.00    -0.248 NA
ATOM     16  C   UNL A   1      39.634  30.688  31.953  1.00  0.00     0.031 C 
ATOM     17  C   UNL A   1      39.620  27.383  28.182  1.00  0.00     0.029 A 
ATOM     18  N   UNL A   1      41.360  27.292  29.582  1.00  0.00    -0.354 N 
ATOM     19  C   UNL A   1      41.599  30.066  32.937  1.00  0.00     0.074 A 
ATOM     20  C   UNL A   1      40.444  30.935  32.971  1.00  0.00     0.031 C 
ATOM     21  C   UNL A   1      40.345  26.304  27.849  1.00  0.00     0.029 A 
ATOM     22  C   UNL A   1      41.510  26.230  28.723  1.00  0.00     0.049 A 
ATOM     23  H   UNL A   1      41.998  27.495  30.305  1.00  0.00     0.167 HD
ATOM     24  C   UNL A   1      42.588  30.070  33.860  1.00  0.00     0.031 A 
ATOM     25  C   UNL A   1      42.492  25.314  28.641  1.00  0.00     0.031 A 
ATOM     26  C   UNL A   1      43.742  29.216  33.794  1.00  0.00     0.049 A 
ATOM     27  C   UNL A   1      43.625  25.407  29.625  1.00  0.00     0.074 A 
ATOM     28  C   UNL A   1      44.860  29.199  34.606  1.00  0.00     0.029 A 
ATOM     29  N   UNL A   1      43.914  28.212  32.849  1.00  0.00    -0.354 N 
ATOM     30  N   UNL A   1      43.769  26.223  30.642  1.00  0.00    -0.248 NA
ATOM     31  C   UNL A   1      44.736  24.465  29.442  1.00  0.00     0.031 C 
ATOM     32  C   UNL A   1      45.726  28.207  34.131  1.00  0.00     0.029 A 
ATOM     33  C   UNL A   1      45.125  27.575  33.052  1.00  0.00     0.049 A 
ATOM     34  H   UNL A   1      43.269  27.987  32.140  1.00  0.00     0.167 HD
ATOM     35  C   UNL A   1      44.988  25.896  31.219  1.00  0.00     0.074 A 
ATOM     36  C   UNL A   1      45.520  24.780  30.462  1.00  0.00     0.031 C 
ATOM     37  C   UNL A   1      45.621  26.473  32.269  1.00  0.00     0.031 A 
BRANCH  24  38
ATOM     38  C   UNL A   1      42.479  31.081  34.964  1.00  0.00    -0.014 A 
ATOM     39  C   UNL A   1      41.484  30.981  35.950  1.00  0.00     0.009 A 
ATOM     40  C   UNL A   1      43.363  32.170  34.997  1.00  0.00     0.009 A 
ATOM     41  C   UNL A   1      41.356  31.971  36.927  1.00  0.00     0.001 A 
ATOM     42  C   UNL A   1      43.247  33.146  35.988  1.00  0.00     0.001 A 
ATOM     43  C   UNL A   1      42.238  33.052  36.945  1.00  0.00     0.000 A 
ENDBRANCH  24  38
BRANCH  25  44
ATOM     44  C   UNL A   1      42.486  24.289  27.562  1.00  0.00    -0.014 A 
ATOM     45  C   UNL A   1      43.084  24.538  26.318  1.00  0.00     0.009 A 
ATOM     46  C   UNL A   1      41.850  23.053  27.768  1.00  0.00     0.009 A 
ATOM     47  C   UNL A   1      43.021  23.583  25.298  1.00  0.00     0.001 A 
ATOM     48  C   UNL A   1      41.816  22.088  26.760  1.00  0.00     0.001 A 
ATOM     49  C   UNL A   1      42.392  22.358  25.521  1.00  0.00     0.000 A 
ENDBRANCH  25  44
BRANCH  37  50
ATOM     50  C   UNL A   1      46.949  25.890  32.650  1.00  0.00    -0.014 A 
ATOM     51  C   UNL A   1      48.131  26.321  32.027  1.00  0.00     0.009 A 
ATOM     52  C   UNL A   1      47.019  24.918  33.658  1.00  0.00     0.009 A 
ATOM     53  C   UNL A   1      49.357  25.758  32.383  1.00  0.00     0.001 A 
ATOM     54  C   UNL A   1      48.249  24.377  34.031  1.00  0.00     0.001 A 
ATOM     55  C   UNL A   1      49.415  24.791  33.386  1.00  0.00     0.000 A 
ENDBRANCH  37  50
ENDBRANCH  11  12
ENDBRANCH   4   6
ENDBRANCH   3   4
ENDBRANCH   2   3
ENDBRANCH   1   2
BRANCH   1  56
ATOM     56  O   UNL A   1      32.665  35.009  29.731  1.00  0.00    -0.374 OA
BRANCH  56  57
ATOM     57  C   UNL A   1      32.851  35.977  30.768  1.00  0.00     0.202 C 
BRANCH  57  58
ATOM     58  C   UNL A   1      32.990  35.259  32.113  1.00  0.00     0.261 C 
BRANCH  58  59
ATOM     59  O   UNL A   1      34.378  34.972  32.350  1.00  0.00    -0.459 OA
BRANCH  59  60
ATOM     60  C   UNL A   1      34.738  33.664  32.167  1.00  0.00     0.364 C 
ATOM     61  O   UNL A   1      33.955  32.722  32.123  1.00  0.00    -0.245 OA
BRANCH  60  62
ATOM     62  C   UNL A   1      36.262  33.503  32.059  1.00  0.00     0.293 C 
ATOM     63  C   UNL A   1      36.735  33.871  30.647  1.00  0.00     0.078 C 
ATOM     64  N   UNL A   1      36.982  34.353  33.043  1.00  0.00    -0.332 N 
ATOM     65  C   UNL A   1      38.249  33.737  30.498  1.00  0.00     0.016 C 
ATOM     66  C   UNL A   1      38.416  34.066  33.000  1.00  0.00     0.186 C 
ATOM     67  H   UNL A   1      36.626  34.159  33.980  1.00  0.00     0.347 HD
ATOM     68  H   UNL A   1      36.831  35.334  32.811  1.00  0.00     0.347 HD
ATOM     69  C   UNL A   1      38.988  34.468  31.628  1.00  0.00     0.048 C 
ATOM     70  C   UNL A   1      39.143  34.809  34.125  1.00  0.00     0.065 C 
ATOM     71  C   UNL A   1      40.494  34.187  31.569  1.00  0.00     0.010 C 
ATOM     72  C   UNL A   1      40.639  34.503  34.082  1.00  0.00     0.006 C 
ATOM     73  C   UNL A   1      41.245  34.848  32.724  1.00  0.00     0.001 C 
ENDBRANCH  60  62
ENDBRANCH  59  60
ENDBRANCH  58  59
ENDBRANCH  57  58
ENDBRANCH  56  57
ENDBRANCH   1  56
TORSDOF 14
ENDMDL
MODEL 3
REMARK VINA RESULT:      -9.6      0.734      6.192
REMARK SMILES O=C(OCCOCCOC(=O)[C@H]1CC[C@@H]2CCCC[C@H]2[NH2+]1)c1ccc(-c2c3nc(c(-c4ccccc4)c4ccc([nH]4)c(-c4ccccc4)c4nc(c(-c5ccccc5)c5ccc2[nH]5)C=C4)C=C3)cc1
REMARK SMILES IDX 5 1 4 2 3 3 2 4 1 5 22 6 23 7 69 8 24 9 68 10 25 11 26 12
REMARK SMILES IDX 27 13 62 14 28 15 67 16 61 17 63 18 29 19 66 20 60 21 59 22
REMARK SMILES IDX 30 24 52 25 37 26 51 27 38 28 41 29 50 30 64 31 39 32 40 33
REMARK SMILES IDX 49 35 65 36 42 37 31 38 32 39 36 40 33 41 35 42 34 43 53 44
REMARK SMILES IDX 54 45 58 46 55 47 57 48 56 49 43 50 44 51 48 52 45 53 47 54
REMARK SMILES IDX 46 55 6 56 7 57 8 58 9 59 10 60 11 61 12 62 13 63 21 64
REMARK SMILES IDX 14 65 20 66 15 69 19 70 16 71 18 72 17 73
REMARK H PARENT 63 23 41 34 21 67 21 68
REMARK Flexibility Score: inf
ROOT
ATOM      1  C   UNL A   1      37.688  21.026  25.671  1.00  0.00     0.202 C 
ENDROOT
BRANCH   1   2
ATOM      2  C   UNL A   1      38.580  20.040  24.911  1.00  0.00     0.261 C 
BRANCH   2   3
ATOM      3  O   UNL A   1      39.490  19.373  25.801  1.00  0.00    -0.460 OA
BRANCH   3   4
ATOM      4  C   UNL A   1      40.795  19.665  26.017  1.00  0.00     0.338 C 
ATOM      5  O   UNL A   1      41.637  18.798  25.791  1.00  0.00    -0.246 OA
BRANCH   4   6
ATOM      6  C   UNL A   1      41.280  20.993  26.507  1.00  0.00     0.060 A 
ATOM      7  C   UNL A   1      41.788  22.004  25.691  1.00  0.00     0.016 A 
ATOM      8  C   UNL A   1      41.121  21.278  27.874  1.00  0.00     0.016 A 
ATOM      9  C   UNL A   1      42.178  23.230  26.206  1.00  0.00     0.010 A 
ATOM     10  C   UNL A   1      41.459  22.532  28.397  1.00  0.00     0.010 A 
ATOM     11  C   UNL A   1      41.996  23.513  27.557  1.00  0.00    -0.014 A 
BRANCH  11  12
ATOM     12  C   UNL A   1      42.420  24.842  28.034  1.00  0.00     0.031 A 
ATOM     13  C   UNL A   1      41.390  25.905  28.241  1.00  0.00     0.074 A 
ATOM     14  C   UNL A   1      43.694  25.011  28.440  1.00  0.00     0.049 A 
ATOM     15  N   UNL A   1      41.538  27.116  28.708  1.00  0.00    -0.248 NA
ATOM     16  C   UNL A   1      40.002  25.554  27.896  1.00  0.00     0.031 C 
ATOM     17  C   UNL A   1      44.740  23.984  28.382  1.00  0.00     0.029 A 
ATOM     18  N   UNL A   1      44.312  26.079  29.032  1.00  0.00    -0.354 N 
ATOM     19  C   UNL A   1      40.267  27.675  28.703  1.00  0.00     0.074 A 
ATOM     20  C   UNL A   1      39.361  26.679  28.177  1.00  0.00     0.031 C 
ATOM     21  C   UNL A   1      45.853  24.457  28.962  1.00  0.00     0.029 A 
ATOM     22  C   UNL A   1      45.621  25.837  29.371  1.00  0.00     0.049 A 
ATOM     23  H   UNL A   1      43.860  26.938  29.200  1.00  0.00     0.167 HD
ATOM     24  C   UNL A   1      39.897  28.914  29.101  1.00  0.00     0.031 A 
ATOM     25  C   UNL A   1      46.535  26.651  29.930  1.00  0.00     0.031 A 
ATOM     26  C   UNL A   1      40.818  29.898  29.597  1.00  0.00     0.049 A 
ATOM     27  C   UNL A   1      46.114  28.054  30.272  1.00  0.00     0.074 A 
ATOM     28  C   UNL A   1      40.583  31.219  29.931  1.00  0.00     0.029 A 
ATOM     29  N   UNL A   1      42.164  29.654  29.837  1.00  0.00    -0.354 N 
ATOM     30  N   UNL A   1      44.925  28.603  30.183  1.00  0.00    -0.248 NA
ATOM     31  C   UNL A   1      47.159  28.952  30.778  1.00  0.00     0.031 C 
ATOM     32  C   UNL A   1      41.797  31.785  30.340  1.00  0.00     0.029 A 
ATOM     33  C   UNL A   1      42.776  30.803  30.306  1.00  0.00     0.049 A 
ATOM     34  H   UNL A   1      42.616  28.791  29.694  1.00  0.00     0.167 HD
ATOM     35  C   UNL A   1      45.080  29.911  30.618  1.00  0.00     0.074 A 
ATOM     36  C   UNL A   1      46.467  30.058  31.008  1.00  0.00     0.031 C 
ATOM     37  C   UNL A   1      44.164  30.908  30.675  1.00  0.00     0.031 A 
BRANCH  24  38
ATOM     38  C   UNL A   1      38.448  29.270  28.939  1.00  0.00    -0.014 A 
ATOM     39  C   UNL A   1      37.938  29.710  27.708  1.00  0.00     0.009 A 
ATOM     40  C   UNL A   1      37.589  29.200  30.046  1.00  0.00     0.009 A 
ATOM     41  C   UNL A   1      36.602  30.104  27.597  1.00  0.00     0.001 A 
ATOM     42  C   UNL A   1      36.249  29.574  29.927  1.00  0.00     0.001 A 
ATOM     43  C   UNL A   1      35.759  30.035  28.706  1.00  0.00     0.000 A 
ENDBRANCH  24  38
BRANCH  25  44
ATOM     44  C   UNL A   1      47.936  26.193  30.133  1.00  0.00    -0.014 A 
ATOM     45  C   UNL A   1      48.869  26.215  29.086  1.00  0.00     0.009 A 
ATOM     46  C   UNL A   1      48.342  25.702  31.386  1.00  0.00     0.009 A 
ATOM     47  C   UNL A   1      50.166  25.730  29.281  1.00  0.00     0.001 A 
ATOM     48  C   UNL A   1      49.647  25.248  31.588  1.00  0.00     0.001 A 
ATOM     49  C   UNL A   1      50.555  25.252  30.533  1.00  0.00     0.000 A 
ENDBRANCH  25  44
BRANCH  37  50
ATOM     50  C   UNL A   1      44.649  32.232  31.188  1.00  0.00    -0.014 A 
ATOM     51  C   UNL A   1      45.175  33.195  30.313  1.00  0.00     0.009 A 
ATOM     52  C   UNL A   1      44.558  32.523  32.556  1.00  0.00     0.009 A 
ATOM     53  C   UNL A   1      45.636  34.415  30.807  1.00  0.00     0.001 A 
ATOM     54  C   UNL A   1      44.994  33.755  33.043  1.00  0.00     0.001 A 
ATOM     55  C   UNL A   1      45.541  34.695  32.170  1.00  0.00     0.000 A 
ENDBRANCH  37  50
ENDBRANCH  11  12
ENDBRANCH   4   6
ENDBRANCH   3   4
ENDBRANCH   2   3
ENDBRANCH   1   2
BRANCH   1  56
ATOM     56  O   UNL A   1      38.180  22.367  25.663  1.00  0.00    -0.374 OA
BRANCH  56  57
ATOM     57  C   UNL A   1      37.206  23.362  25.331  1.00  0.00     0.202 C 
BRANCH  57  58
ATOM     58  C   UNL A   1      36.279  22.821  24.241  1.00  0.00     0.261 C 
BRANCH  58  59
ATOM     59  O   UNL A   1      34.920  23.142  24.580  1.00  0.00    -0.459 OA
BRANCH  59  60
ATOM     60  C   UNL A   1      34.265  23.927  23.671  1.00  0.00     0.364 C 
ATOM     61  O   UNL A   1      34.395  23.847  22.454  1.00  0.00    -0.245 OA
BRANCH  60  62
ATOM     62  C   UNL A   1      33.363  24.964  24.358  1.00  0.00     0.293 C 
ATOM     63  C   UNL A   1      32.779  24.383  25.652  1.00  0.00     0.078 C 
ATOM     64  N   UNL A   1      34.099  26.214  24.681  1.00  0.00    -0.332 N 
ATOM     65  C   UNL A   1      31.884  25.386  26.377  1.00  0.00     0.016 C 
ATOM     66  C   UNL A   1      33.175  27.220  25.205  1.00  0.00     0.186 C 
ATOM     67  H   UNL A   1      34.544  26.572  23.836  1.00  0.00     0.347 HD
ATOM     68  H   UNL A   1      34.807  26.012  25.387  1.00  0.00     0.347 HD
ATOM     69  C   UNL A   1      32.588  26.741  26.546  1.00  0.00     0.048 C 
ATOM     70  C   UNL A   1      33.890  28.562  25.380  1.00  0.00     0.065 C 
ATOM     71  C   UNL A   1      31.625  27.790  27.118  1.00  0.00     0.010 C 
ATOM     72  C   UNL A   1      32.921  29.612  25.921  1.00  0.00     0.006 C 
ATOM     73  C   UNL A   1      32.281  29.165  27.232  1.00  0.00     0.001 C 
ENDBRANCH  60  62
ENDBRANCH  59  60
ENDBRANCH  58  59
ENDBRANCH  57  58
ENDBRANCH  56  57
ENDBRANCH   1  56
TORSDOF 14
ENDMDL
