MODEL 1
REMARK VINA RESULT:     -11.6      0.000      0.000
REMARK SMILES O=C(OCCOCCOC(=O)[C@H]1[C@H]2CC[C@H](CC2)[C@@H]1C(=O)Nc1ccc(Cc2ccncc2)cc1)c1ccc(-c2c3nc(c(-c4ccccc4)c4ccc([nH]4)c(-c4ccccc4)c4nc(c(-c5ccccc5)c5ccc2[nH]5)C=C4)C=C3)cc1
REMARK SMILES IDX 7 1 6 2 5 3 4 4 3 5 2 6 1 7 36 8 37 9 83 10 38 11 82 12
REMARK SMILES IDX 39 13 40 14 41 15 76 16 42 17 81 18 75 19 77 20 43 21 80 22
REMARK SMILES IDX 74 23 73 24 44 26 66 27 51 28 65 29 52 30 55 31 64 32 78 33
REMARK SMILES IDX 53 34 54 35 63 37 79 38 56 39 45 40 46 41 50 42 47 43 49 44
REMARK SMILES IDX 48 45 67 46 68 47 72 48 69 49 71 50 70 51 57 52 58 53 62 54
REMARK SMILES IDX 59 55 61 56 60 57 8 58 9 59 10 60 11 61 12 62 13 63 19 64
REMARK SMILES IDX 18 65 14 66 16 67 17 68 15 69 20 70 21 71 22 72 23 74 24 75
REMARK SMILES IDX 35 76 25 77 34 78 26 79 27 80 28 81 29 82 33 83 30 84 32 85
REMARK SMILES IDX 31 86
REMARK H PARENT 77 25 55 36 22 73
REMARK Flexibility Score: inf
ROOT
ATOM      1  C   UNL A   1      38.329  21.510  25.681  1.00  0.00     0.202 C 
ENDROOT
BRANCH   1   2
ATOM      2  O   UNL A   1      39.765  21.494  25.752  1.00  0.00    -0.374 OA
BRANCH   2   3
ATOM      3  C   UNL A   1      40.306  20.235  26.155  1.00  0.00     0.202 C 
BRANCH   3   4
ATOM      4  C   UNL A   1      41.821  20.236  26.353  1.00  0.00     0.261 C 
BRANCH   4   5
ATOM      5  O   UNL A   1      42.515  21.170  25.522  1.00  0.00    -0.460 OA
BRANCH   5   6
ATOM      6  C   UNL A   1      43.125  22.305  25.931  1.00  0.00     0.338 C 
ATOM      7  O   UNL A   1      44.350  22.371  25.817  1.00  0.00    -0.246 OA
BRANCH   6   8
ATOM      8  C   UNL A   1      42.402  23.510  26.478  1.00  0.00     0.060 A 
ATOM      9  C   UNL A   1      41.853  23.681  27.755  1.00  0.00     0.016 A 
ATOM     10  C   UNL A   1      42.354  24.611  25.613  1.00  0.00     0.016 A 
ATOM     11  C   UNL A   1      41.461  24.945  28.230  1.00  0.00     0.010 A 
ATOM     12  C   UNL A   1      41.937  25.863  26.062  1.00  0.00     0.010 A 
ATOM     13  C   UNL A   1      41.615  26.074  27.421  1.00  0.00    -0.014 A 
BRANCH  13  14
ATOM     14  C   UNL A   1      41.312  27.645  28.021  1.00  0.00     0.031 A 
ATOM     15  C   UNL A   1      43.101  27.953  28.306  1.00  0.00     0.074 A 
ATOM     16  C   UNL A   1      39.821  28.691  28.422  1.00  0.00     0.049 A 
ATOM     17  N   UNL A   1      43.688  29.092  28.623  1.00  0.00    -0.248 NA
ATOM     18  C   UNL A   1      44.113  26.868  28.214  1.00  0.00     0.031 C 
ATOM     19  C   UNL A   1      38.165  28.619  28.323  1.00  0.00     0.029 A 
ATOM     20  N   UNL A   1      39.681  30.022  29.105  1.00  0.00    -0.354 N 
ATOM     21  C   UNL A   1      44.961  28.831  29.010  1.00  0.00     0.074 A 
ATOM     22  C   UNL A   1      45.227  27.467  28.630  1.00  0.00     0.031 C 
ATOM     23  C   UNL A   1      37.548  29.757  28.665  1.00  0.00     0.029 A 
ATOM     24  C   UNL A   1      38.508  30.674  29.190  1.00  0.00     0.049 A 
ATOM     25  H   UNL A   1      40.480  30.434  29.507  1.00  0.00     0.167 HD
ATOM     26  C   UNL A   1      45.743  29.658  29.733  1.00  0.00     0.031 A 
ATOM     27  C   UNL A   1      38.305  31.895  29.702  1.00  0.00     0.031 A 
ATOM     28  C   UNL A   1      45.280  30.912  30.306  1.00  0.00     0.049 A 
ATOM     29  C   UNL A   1      39.503  32.647  30.234  1.00  0.00     0.074 A 
ATOM     30  C   UNL A   1      46.040  31.832  31.001  1.00  0.00     0.029 A 
ATOM     31  N   UNL A   1      43.950  31.383  30.340  1.00  0.00    -0.354 N 
ATOM     32  N   UNL A   1      40.773  32.295  30.284  1.00  0.00    -0.248 NA
ATOM     33  C   UNL A   1      39.221  33.969  30.789  1.00  0.00     0.031 C 
ATOM     34  C   UNL A   1      45.187  32.815  31.502  1.00  0.00     0.029 A 
ATOM     35  C   UNL A   1      43.891  32.593  31.041  1.00  0.00     0.049 A 
ATOM     36  H   UNL A   1      43.178  30.928  29.931  1.00  0.00     0.167 HD
ATOM     37  C   UNL A   1      41.450  33.342  30.893  1.00  0.00     0.074 A 
ATOM     38  C   UNL A   1      40.437  34.366  31.136  1.00  0.00     0.031 C 
ATOM     39  C   UNL A   1      42.756  33.485  31.254  1.00  0.00     0.031 A 
BRANCH  26  40
ATOM     40  C   UNL A   1      47.129  29.156  30.011  1.00  0.00    -0.014 A 
ATOM     41  C   UNL A   1      48.170  29.392  29.098  1.00  0.00     0.009 A 
ATOM     42  C   UNL A   1      47.400  28.416  31.170  1.00  0.00     0.009 A 
ATOM     43  C   UNL A   1      49.440  28.857  29.314  1.00  0.00     0.001 A 
ATOM     44  C   UNL A   1      48.680  27.907  31.400  1.00  0.00     0.001 A 
ATOM     45  C   UNL A   1      49.694  28.116  30.467  1.00  0.00     0.000 A 
ENDBRANCH  26  40
BRANCH  27  46
ATOM     46  C   UNL A   1      36.931  32.446  29.664  1.00  0.00    -0.014 A 
ATOM     47  C   UNL A   1      36.062  32.263  30.748  1.00  0.00     0.009 A 
ATOM     48  C   UNL A   1      36.535  33.284  28.608  1.00  0.00     0.009 A 
ATOM     49  C   UNL A   1      34.830  32.920  30.781  1.00  0.00     0.001 A 
ATOM     50  C   UNL A   1      35.324  33.972  28.663  1.00  0.00     0.001 A 
ATOM     51  C   UNL A   1      34.471  33.788  29.750  1.00  0.00     0.000 A 
ENDBRANCH  27  46
BRANCH  39  52
ATOM     52  C   UNL A   1      43.065  34.793  31.963  1.00  0.00    -0.014 A 
ATOM     53  C   UNL A   1      43.570  35.903  31.263  1.00  0.00     0.009 A 
ATOM     54  C   UNL A   1      42.841  34.909  33.345  1.00  0.00     0.009 A 
ATOM     55  C   UNL A   1      43.898  37.079  31.942  1.00  0.00     0.001 A 
ATOM     56  C   UNL A   1      43.130  36.100  34.012  1.00  0.00     0.001 A 
ATOM     57  C   UNL A   1      43.674  37.178  33.315  1.00  0.00     0.000 A 
ENDBRANCH  39  52
ENDBRANCH  13  14
ENDBRANCH   6   8
ENDBRANCH   5   6
ENDBRANCH   4   5
ENDBRANCH   3   4
ENDBRANCH   2   3
ENDBRANCH   1   2
BRANCH   1  58
ATOM     58  C   UNL A   1      37.806  22.922  25.413  1.00  0.00     0.261 C 
BRANCH  58  59
ATOM     59  O   UNL A   1      36.834  22.827  24.361  1.00  0.00    -0.463 OA
BRANCH  59  60
ATOM     60  C   UNL A   1      35.616  23.347  24.648  1.00  0.00     0.310 C 
ATOM     61  O   UNL A   1      35.416  24.530  24.886  1.00  0.00    -0.252 OA
BRANCH  60  62
ATOM     62  C   UNL A   1      34.521  22.289  24.503  1.00  0.00     0.115 C 
ATOM     63  C   UNL A   1      34.493  21.222  25.633  1.00  0.00     0.004 C 
ATOM     64  C   UNL A   1      33.155  22.982  24.342  1.00  0.00     0.096 C 
ATOM     65  C   UNL A   1      34.241  21.887  26.987  1.00  0.00     0.005 C 
ATOM     66  C   UNL A   1      33.335  20.249  25.343  1.00  0.00     0.005 C 
ATOM     67  C   UNL A   1      32.258  22.513  25.541  1.00  0.00     0.002 C 
ATOM     68  C   UNL A   1      33.017  22.799  26.866  1.00  0.00     0.005 C 
ATOM     69  C   UNL A   1      32.005  20.993  25.478  1.00  0.00     0.005 C 
BRANCH  64  70
ATOM     70  C   UNL A   1      32.438  22.864  22.962  1.00  0.00     0.228 C 
ATOM     71  O   UNL A   1      32.657  21.891  22.230  1.00  0.00    -0.274 OA
ATOM     72  N   UNL A   1      31.369  23.658  22.613  1.00  0.00    -0.326 N 
ATOM     73  H   UNL A   1      30.693  23.198  22.065  1.00  0.00     0.169 HD
BRANCH  72  74
ATOM     74  C   UNL A   1      31.062  24.998  22.889  1.00  0.00     0.041 A 
ATOM     75  C   UNL A   1      30.198  25.323  23.936  1.00  0.00     0.026 A 
ATOM     76  C   UNL A   1      31.507  26.022  22.070  1.00  0.00     0.026 A 
ATOM     77  C   UNL A   1      30.015  26.669  24.311  1.00  0.00     0.006 A 
ATOM     78  C   UNL A   1      31.354  27.350  22.455  1.00  0.00     0.006 A 
ATOM     79  C   UNL A   1      30.677  27.694  23.619  1.00  0.00    -0.043 A 
BRANCH  79  80
ATOM     80  C   UNL A   1      30.789  29.104  24.153  1.00  0.00     0.071 C 
BRANCH  80  81
ATOM     81  C   UNL A   1      31.739  29.376  25.309  1.00  0.00    -0.041 A 
ATOM     82  C   UNL A   1      33.169  28.258  25.614  1.00  0.00     0.024 A 
ATOM     83  C   UNL A   1      31.622  31.021  26.201  1.00  0.00     0.024 A 
ATOM     84  C   UNL A   1      34.461  28.761  26.798  1.00  0.00     0.111 A 
ATOM     85  C   UNL A   1      32.940  31.491  27.399  1.00  0.00     0.111 A 
ATOM     86  N   UNL A   1      34.352  30.384  27.701  1.00  0.00    -0.265 NA
ENDBRANCH  80  81
ENDBRANCH  79  80
ENDBRANCH  72  74
ENDBRANCH  64  70
ENDBRANCH  60  62
ENDBRANCH  59  60
ENDBRANCH  58  59
ENDBRANCH   1  58
TORSDOF 18
ENDMDL
MODEL 2
REMARK VINA RESULT:     -11.5      2.336      8.035
REMARK SMILES O=C(OCCOCCOC(=O)[C@H]1[C@H]2CC[C@H](CC2)[C@@H]1C(=O)Nc1ccc(Cc2ccncc2)cc1)c1ccc(-c2c3nc(c(-c4ccccc4)c4ccc([nH]4)c(-c4ccccc4)c4nc(c(-c5ccccc5)c5ccc2[nH]5)C=C4)C=C3)cc1
REMARK SMILES IDX 7 1 6 2 5 3 4 4 3 5 2 6 1 7 36 8 37 9 83 10 38 11 82 12
REMARK SMILES IDX 39 13 40 14 41 15 76 16 42 17 81 18 75 19 77 20 43 21 80 22
REMARK SMILES IDX 74 23 73 24 44 26 66 27 51 28 65 29 52 30 55 31 64 32 78 33
REMARK SMILES IDX 53 34 54 35 63 37 79 38 56 39 45 40 46 41 50 42 47 43 49 44
REMARK SMILES IDX 48 45 67 46 68 47 72 48 69 49 71 50 70 51 57 52 58 53 62 54
REMARK SMILES IDX 59 55 61 56 60 57 8 58 9 59 10 60 11 61 12 62 13 63 19 64
REMARK SMILES IDX 18 65 14 66 16 67 17 68 15 69 20 70 21 71 22 72 23 74 24 75
REMARK SMILES IDX 35 76 25 77 34 78 26 79 27 80 28 81 29 82 33 83 30 84 32 85
REMARK SMILES IDX 31 86
REMARK H PARENT 77 25 55 36 22 73
REMARK Flexibility Score: inf
ROOT
ATOM      1  C   UNL A   1      35.599  22.640  26.091  1.00  0.00     0.202 C 
ENDROOT
BRANCH   1   2
ATOM      2  O   UNL A   1      35.690  21.907  24.858  1.00  0.00    -0.374 OA
BRANCH   2   3
ATOM      3  C   UNL A   1      37.027  21.745  24.382  1.00  0.00     0.202 C 
BRANCH   3   4
ATOM      4  C   UNL A   1      38.105  22.154  25.382  1.00  0.00     0.261 C 
BRANCH   4   5
ATOM      5  O   UNL A   1      38.659  21.062  26.120  1.00  0.00    -0.460 OA
BRANCH   5   6
ATOM      6  C   UNL A   1      39.956  20.677  26.128  1.00  0.00     0.338 C 
ATOM      7  O   UNL A   1      40.216  19.532  25.757  1.00  0.00    -0.246 OA
BRANCH   6   8
ATOM      8  C   UNL A   1      41.106  21.571  26.519  1.00  0.00     0.060 A 
ATOM      9  C   UNL A   1      41.948  22.311  25.680  1.00  0.00     0.016 A 
ATOM     10  C   UNL A   1      41.287  21.727  27.899  1.00  0.00     0.016 A 
ATOM     11  C   UNL A   1      42.791  23.318  26.179  1.00  0.00     0.010 A 
ATOM     12  C   UNL A   1      42.145  22.700  28.407  1.00  0.00     0.010 A 
ATOM     13  C   UNL A   1      42.806  23.604  27.546  1.00  0.00    -0.014 A 
BRANCH  13  14
ATOM     14  C   UNL A   1      43.686  24.931  28.168  1.00  0.00     0.031 A 
ATOM     15  C   UNL A   1      42.147  25.858  28.550  1.00  0.00     0.074 A 
ATOM     16  C   UNL A   1      45.475  25.434  28.318  1.00  0.00     0.049 A 
ATOM     17  N   UNL A   1      42.022  26.973  29.246  1.00  0.00    -0.248 NA
ATOM     18  C   UNL A   1      40.815  25.412  28.063  1.00  0.00     0.031 C 
ATOM     19  C   UNL A   1      46.988  24.828  27.999  1.00  0.00     0.029 A 
ATOM     20  N   UNL A   1      46.126  26.718  28.748  1.00  0.00    -0.354 N 
ATOM     21  C   UNL A   1      40.773  27.465  29.057  1.00  0.00     0.074 A 
ATOM     22  C   UNL A   1      40.018  26.416  28.421  1.00  0.00     0.031 C 
ATOM     23  C   UNL A   1      47.989  25.604  28.431  1.00  0.00     0.029 A 
ATOM     24  C   UNL A   1      47.456  26.841  28.905  1.00  0.00     0.049 A 
ATOM     25  H   UNL A   1      45.556  27.502  28.922  1.00  0.00     0.167 HD
ATOM     26  C   UNL A   1      40.390  28.736  29.295  1.00  0.00     0.031 A 
ATOM     27  C   UNL A   1      48.112  27.914  29.363  1.00  0.00     0.031 A 
ATOM     28  C   UNL A   1      41.306  29.797  29.682  1.00  0.00     0.049 A 
ATOM     29  C   UNL A   1      47.299  29.123  29.766  1.00  0.00     0.074 A 
ATOM     30  C   UNL A   1      40.973  31.099  30.000  1.00  0.00     0.029 A 
ATOM     31  N   UNL A   1      42.715  29.723  29.716  1.00  0.00    -0.354 N 
ATOM     32  N   UNL A   1      45.995  29.314  29.745  1.00  0.00    -0.248 NA
ATOM     33  C   UNL A   1      48.069  30.268  30.249  1.00  0.00     0.031 C 
ATOM     34  C   UNL A   1      42.153  31.824  30.168  1.00  0.00     0.029 A 
ATOM     35  C   UNL A   1      43.248  30.969  30.066  1.00  0.00     0.049 A 
ATOM     36  H   UNL A   1      43.244  28.915  29.523  1.00  0.00     0.167 HD
ATOM     37  C   UNL A   1      45.778  30.609  30.194  1.00  0.00     0.074 A 
ATOM     38  C   UNL A   1      47.100  31.126  30.535  1.00  0.00     0.031 C 
ATOM     39  C   UNL A   1      44.637  31.345  30.311  1.00  0.00     0.031 A 
BRANCH  26  40
ATOM     40  C   UNL A   1      38.942  29.031  29.036  1.00  0.00    -0.014 A 
ATOM     41  C   UNL A   1      38.502  29.373  27.746  1.00  0.00     0.009 A 
ATOM     42  C   UNL A   1      38.010  29.003  30.083  1.00  0.00     0.009 A 
ATOM     43  C   UNL A   1      37.173  29.726  27.519  1.00  0.00     0.001 A 
ATOM     44  C   UNL A   1      36.673  29.328  29.848  1.00  0.00     0.001 A 
ATOM     45  C   UNL A   1      36.258  29.702  28.570  1.00  0.00     0.000 A 
ENDBRANCH  26  40
BRANCH  27  46
ATOM     46  C   UNL A   1      49.585  27.825  29.494  1.00  0.00    -0.014 A 
ATOM     47  C   UNL A   1      50.163  27.243  30.630  1.00  0.00     0.009 A 
ATOM     48  C   UNL A   1      50.413  28.185  28.418  1.00  0.00     0.009 A 
ATOM     49  C   UNL A   1      51.539  27.012  30.680  1.00  0.00     0.001 A 
ATOM     50  C   UNL A   1      51.780  27.913  28.452  1.00  0.00     0.001 A 
ATOM     51  C   UNL A   1      52.342  27.328  29.584  1.00  0.00     0.000 A 
ENDBRANCH  27  46
BRANCH  39  52
ATOM     52  C   UNL A   1      44.862  32.766  30.799  1.00  0.00    -0.014 A 
ATOM     53  C   UNL A   1      44.850  33.080  32.170  1.00  0.00     0.009 A 
ATOM     54  C   UNL A   1      45.093  33.795  29.870  1.00  0.00     0.009 A 
ATOM     55  C   UNL A   1      45.007  34.402  32.594  1.00  0.00     0.001 A 
ATOM     56  C   UNL A   1      45.291  35.108  30.302  1.00  0.00     0.001 A 
ATOM     57  C   UNL A   1      45.231  35.414  31.661  1.00  0.00     0.000 A 
ENDBRANCH  39  52
ENDBRANCH  13  14
ENDBRANCH   6   8
ENDBRANCH   5   6
ENDBRANCH   4   5
ENDBRANCH   3   4
ENDBRANCH   2   3
ENDBRANCH   1   2
BRANCH   1  58
ATOM     58  C   UNL A   1      34.609  23.800  25.972  1.00  0.00     0.261 C 
BRANCH  58  59
ATOM     59  O   UNL A   1      35.000  24.583  24.835  1.00  0.00    -0.463 OA
BRANCH  59  60
ATOM     60  C   UNL A   1      34.025  25.360  24.303  1.00  0.00     0.310 C 
ATOM     61  O   UNL A   1      33.767  25.413  23.109  1.00  0.00    -0.252 OA
BRANCH  60  62
ATOM     62  C   UNL A   1      33.214  26.050  25.402  1.00  0.00     0.115 C 
ATOM     63  C   UNL A   1      33.792  27.410  25.882  1.00  0.00     0.004 C 
ATOM     64  C   UNL A   1      31.747  26.183  24.951  1.00  0.00     0.096 C 
ATOM     65  C   UNL A   1      33.839  28.407  24.723  1.00  0.00     0.005 C 
ATOM     66  C   UNL A   1      32.858  27.969  26.971  1.00  0.00     0.005 C 
ATOM     67  C   UNL A   1      31.412  27.715  24.929  1.00  0.00     0.002 C 
ATOM     68  C   UNL A   1      32.466  28.439  24.047  1.00  0.00     0.005 C 
ATOM     69  C   UNL A   1      31.507  28.321  26.344  1.00  0.00     0.005 C 
BRANCH  64  70
ATOM     70  C   UNL A   1      30.676  25.335  25.702  1.00  0.00     0.228 C 
ATOM     71  O   UNL A   1      29.903  25.877  26.502  1.00  0.00    -0.274 OA
ATOM     72  N   UNL A   1      30.364  24.045  25.336  1.00  0.00    -0.326 N 
ATOM     73  H   UNL A   1      29.412  23.819  25.447  1.00  0.00     0.169 HD
BRANCH  72  74
ATOM     74  C   UNL A   1      31.144  22.994  24.836  1.00  0.00     0.041 A 
ATOM     75  C   UNL A   1      31.644  22.013  25.696  1.00  0.00     0.026 A 
ATOM     76  C   UNL A   1      31.539  22.958  23.509  1.00  0.00     0.026 A 
ATOM     77  C   UNL A   1      32.293  20.878  25.174  1.00  0.00     0.006 A 
ATOM     78  C   UNL A   1      32.152  21.824  22.986  1.00  0.00     0.006 A 
ATOM     79  C   UNL A   1      32.467  20.734  23.789  1.00  0.00    -0.043 A 
BRANCH  79  80
ATOM     80  C   UNL A   1      32.851  19.423  23.143  1.00  0.00     0.071 C 
BRANCH  80  81
ATOM     81  C   UNL A   1      33.207  18.243  24.035  1.00  0.00    -0.041 A 
ATOM     82  C   UNL A   1      31.891  17.100  24.625  1.00  0.00     0.024 A 
ATOM     83  C   UNL A   1      35.014  17.792  24.251  1.00  0.00     0.024 A 
ATOM     84  C   UNL A   1      32.361  15.533  25.430  1.00  0.00     0.111 A 
ATOM     85  C   UNL A   1      35.453  16.206  25.079  1.00  0.00     0.111 A 
ATOM     86  N   UNL A   1      34.150  15.078  25.664  1.00  0.00    -0.265 NA
ENDBRANCH  80  81
ENDBRANCH  79  80
ENDBRANCH  72  74
ENDBRANCH  64  70
ENDBRANCH  60  62
ENDBRANCH  59  60
ENDBRANCH  58  59
ENDBRANCH   1  58
TORSDOF 18
ENDMDL
MODEL 3
REMARK VINA RESULT:     -11.3      2.746      5.667
REMARK SMILES O=C(OCCOCCOC(=O)[C@H]1[C@H]2CC[C@H](CC2)[C@@H]1C(=O)Nc1ccc(Cc2ccncc2)cc1)c1ccc(-c2c3nc(c(-c4ccccc4)c4ccc([nH]4)c(-c4ccccc4)c4nc(c(-c5ccccc5)c5ccc2[nH]5)C=C4)C=C3)cc1
REMARK SMILES IDX 7 1 6 2 5 3 4 4 3 5 2 6 1 7 36 8 37 9 83 10 38 11 82 12
REMARK SMILES IDX 39 13 40 14 41 15 76 16 42 17 81 18 75 19 77 20 43 21 80 22
REMARK SMILES IDX 74 23 73 24 44 26 66 27 51 28 65 29 52 30 55 31 64 32 78 33
REMARK SMILES IDX 53 34 54 35 63 37 79 38 56 39 45 40 46 41 50 42 47 43 49 44
REMARK SMILES IDX 48 45 67 46 68 47 72 48 69 49 71 50 70 51 57 52 58 53 62 54
REMARK SMILES IDX 59 55 61 56 60 57 8 58 9 59 10 60 11 61 12 62 13 63 19 64
REMARK SMILES IDX 18 65 14 66 16 67 17 68 15 69 20 70 21 71 22 72 23 74 24 75
REMARK SMILES IDX 35 76 25 77 34 78 26 79 27 80 28 81 29 82 33 83 30 84 32 85
REMARK SMILES IDX 31 86
REMARK H PARENT 77 25 55 36 22 73
REMARK Flexibility Score: inf
ROOT
ATOM      1  C   UNL A   1      35.844  22.915  23.603  1.00  0.00     0.202 C 
ENDROOT
BRANCH   1   2
ATOM      2  O   UNL A   1      36.992  22.712  24.443  1.00  0.00    -0.374 OA
BRANCH   2   3
ATOM      3  C   UNL A   1      36.869  21.596  25.326  1.00  0.00     0.202 C 
BRANCH   3   4
ATOM      4  C   UNL A   1      38.073  20.656  25.324  1.00  0.00     0.261 C 
BRANCH   4   5
ATOM      5  O   UNL A   1      39.335  21.327  25.363  1.00  0.00    -0.460 OA
BRANCH   5   6
ATOM      6  C   UNL A   1      40.124  21.486  26.450  1.00  0.00     0.338 C 
ATOM      7  O   UNL A   1      40.785  20.517  26.825  1.00  0.00    -0.246 OA
BRANCH   6   8
ATOM      8  C   UNL A   1      40.280  22.781  27.206  1.00  0.00     0.060 A 
ATOM      9  C   UNL A   1      41.256  23.115  28.155  1.00  0.00     0.016 A 
ATOM     10  C   UNL A   1      39.375  23.787  26.844  1.00  0.00     0.016 A 
ATOM     11  C   UNL A   1      41.460  24.441  28.571  1.00  0.00     0.010 A 
ATOM     12  C   UNL A   1      39.548  25.101  27.277  1.00  0.00     0.010 A 
ATOM     13  C   UNL A   1      40.679  25.471  28.039  1.00  0.00    -0.014 A 
BRANCH  13  14
ATOM     14  C   UNL A   1      41.009  27.110  28.388  1.00  0.00     0.031 A 
ATOM     15  C   UNL A   1      42.490  27.113  27.301  1.00  0.00     0.074 A 
ATOM     16  C   UNL A   1      40.324  28.431  29.511  1.00  0.00     0.049 A 
ATOM     17  N   UNL A   1      43.211  28.149  26.916  1.00  0.00    -0.248 NA
ATOM     18  C   UNL A   1      43.054  25.861  26.732  1.00  0.00     0.031 C 
ATOM     19  C   UNL A   1      39.085  28.650  30.596  1.00  0.00     0.029 A 
ATOM     20  N   UNL A   1      40.809  29.813  29.851  1.00  0.00    -0.354 N 
ATOM     21  C   UNL A   1      44.360  27.694  26.357  1.00  0.00     0.074 A 
ATOM     22  C   UNL A   1      44.176  26.280  26.150  1.00  0.00     0.031 C 
ATOM     23  C   UNL A   1      38.980  29.901  31.059  1.00  0.00     0.029 A 
ATOM     24  C   UNL A   1      40.094  30.668  30.603  1.00  0.00     0.049 A 
ATOM     25  H   UNL A   1      41.685  30.104  29.509  1.00  0.00     0.167 HD
ATOM     26  C   UNL A   1      45.483  28.419  26.179  1.00  0.00     0.031 A 
ATOM     27  C   UNL A   1      40.406  31.940  30.885  1.00  0.00     0.031 A 
ATOM     28  C   UNL A   1      45.658  29.774  26.677  1.00  0.00     0.049 A 
ATOM     29  C   UNL A   1      41.680  32.503  30.299  1.00  0.00     0.074 A 
ATOM     30  C   UNL A   1      46.752  30.592  26.478  1.00  0.00     0.029 A 
ATOM     31  N   UNL A   1      44.783  30.476  27.534  1.00  0.00    -0.354 N 
ATOM     32  N   UNL A   1      42.581  31.934  29.521  1.00  0.00    -0.248 NA
ATOM     33  C   UNL A   1      41.974  33.891  30.648  1.00  0.00     0.031 C 
ATOM     34  C   UNL A   1      46.582  31.746  27.242  1.00  0.00     0.029 A 
ATOM     35  C   UNL A   1      45.329  31.725  27.851  1.00  0.00     0.049 A 
ATOM     36  H   UNL A   1      43.917  30.138  27.860  1.00  0.00     0.167 HD
ATOM     37  C   UNL A   1      43.565  32.886  29.296  1.00  0.00     0.074 A 
ATOM     38  C   UNL A   1      43.103  34.089  29.982  1.00  0.00     0.031 C 
ATOM     39  C   UNL A   1      44.749  32.819  28.624  1.00  0.00     0.031 A 
BRANCH  26  40
ATOM     40  C   UNL A   1      46.615  27.699  25.509  1.00  0.00    -0.014 A 
ATOM     41  C   UNL A   1      47.483  26.882  26.253  1.00  0.00     0.009 A 
ATOM     42  C   UNL A   1      46.844  27.854  24.134  1.00  0.00     0.009 A 
ATOM     43  C   UNL A   1      48.583  26.276  25.646  1.00  0.00     0.001 A 
ATOM     44  C   UNL A   1      47.929  27.222  23.523  1.00  0.00     0.001 A 
ATOM     45  C   UNL A   1      48.805  26.445  24.281  1.00  0.00     0.000 A 
ENDBRANCH  26  40
BRANCH  27  46
ATOM     46  C   UNL A   1      39.455  32.723  31.707  1.00  0.00    -0.014 A 
ATOM     47  C   UNL A   1      39.632  32.827  33.093  1.00  0.00     0.009 A 
ATOM     48  C   UNL A   1      38.454  33.493  31.089  1.00  0.00     0.009 A 
ATOM     49  C   UNL A   1      38.835  33.696  33.842  1.00  0.00     0.001 A 
ATOM     50  C   UNL A   1      37.690  34.391  31.832  1.00  0.00     0.001 A 
ATOM     51  C   UNL A   1      37.880  34.490  33.208  1.00  0.00     0.000 A 
ENDBRANCH  27  46
BRANCH  39  52
ATOM     52  C   UNL A   1      45.566  34.099  28.676  1.00  0.00    -0.014 A 
ATOM     53  C   UNL A   1      46.497  34.332  29.704  1.00  0.00     0.009 A 
ATOM     54  C   UNL A   1      45.399  35.075  27.679  1.00  0.00     0.009 A 
ATOM     55  C   UNL A   1      47.200  35.538  29.763  1.00  0.00     0.001 A 
ATOM     56  C   UNL A   1      46.135  36.261  27.719  1.00  0.00     0.001 A 
ATOM     57  C   UNL A   1      47.021  36.499  28.769  1.00  0.00     0.000 A 
ENDBRANCH  39  52
ENDBRANCH  13  14
ENDBRANCH   6   8
ENDBRANCH   5   6
ENDBRANCH   4   5
ENDBRANCH   3   4
ENDBRANCH   2   3
ENDBRANCH   1   2
BRANCH   1  58
ATOM     58  C   UNL A   1      35.019  24.113  24.076  1.00  0.00     0.261 C 
BRANCH  58  59
ATOM     59  O   UNL A   1      34.291  24.607  22.942  1.00  0.00    -0.463 OA
BRANCH  59  60
ATOM     60  C   UNL A   1      33.025  25.016  23.200  1.00  0.00     0.310 C 
ATOM     61  O   UNL A   1      32.026  24.471  22.754  1.00  0.00    -0.252 OA
BRANCH  60  62
ATOM     62  C   UNL A   1      33.014  26.156  24.220  1.00  0.00     0.115 C 
ATOM     63  C   UNL A   1      33.464  27.535  23.660  1.00  0.00     0.004 C 
ATOM     64  C   UNL A   1      31.628  26.238  24.885  1.00  0.00     0.096 C 
ATOM     65  C   UNL A   1      32.528  27.984  22.537  1.00  0.00     0.005 C 
ATOM     66  C   UNL A   1      33.385  28.564  24.803  1.00  0.00     0.005 C 
ATOM     67  C   UNL A   1      31.050  27.661  24.568  1.00  0.00     0.002 C 
ATOM     68  C   UNL A   1      31.082  27.876  23.029  1.00  0.00     0.005 C 
ATOM     69  C   UNL A   1      31.921  28.765  25.201  1.00  0.00     0.005 C 
BRANCH  64  70
ATOM     70  C   UNL A   1      31.523  25.860  26.395  1.00  0.00     0.228 C 
ATOM     71  O   UNL A   1      31.360  26.743  27.246  1.00  0.00    -0.274 OA
ATOM     72  N   UNL A   1      31.342  24.564  26.822  1.00  0.00    -0.326 N 
ATOM     73  H   UNL A   1      30.771  24.483  27.620  1.00  0.00     0.169 HD
BRANCH  72  74
ATOM     74  C   UNL A   1      31.817  23.338  26.336  1.00  0.00     0.041 A 
ATOM     75  C   UNL A   1      31.118  22.653  25.341  1.00  0.00     0.026 A 
ATOM     76  C   UNL A   1      32.918  22.718  26.903  1.00  0.00     0.026 A 
ATOM     77  C   UNL A   1      31.676  21.505  24.745  1.00  0.00     0.006 A 
ATOM     78  C   UNL A   1      33.489  21.602  26.297  1.00  0.00     0.006 A 
ATOM     79  C   UNL A   1      32.925  21.025  25.164  1.00  0.00    -0.043 A 
BRANCH  79  80
ATOM     80  C   UNL A   1      33.725  20.017  24.370  1.00  0.00     0.071 C 
BRANCH  80  81
ATOM     81  C   UNL A   1      33.787  18.579  24.864  1.00  0.00    -0.041 A 
ATOM     82  C   UNL A   1      32.236  17.662  25.239  1.00  0.00     0.024 A 
ATOM     83  C   UNL A   1      35.423  17.668  24.774  1.00  0.00     0.024 A 
ATOM     84  C   UNL A   1      32.309  15.864  25.532  1.00  0.00     0.111 A 
ATOM     85  C   UNL A   1      35.461  15.853  25.087  1.00  0.00     0.111 A 
ATOM     86  N   UNL A   1      33.927  14.947  25.460  1.00  0.00    -0.265 NA
ENDBRANCH  80  81
ENDBRANCH  79  80
ENDBRANCH  72  74
ENDBRANCH  64  70
ENDBRANCH  60  62
ENDBRANCH  59  60
ENDBRANCH  58  59
ENDBRANCH   1  58
TORSDOF 18
ENDMDL
