MODEL 1
REMARK VINA RESULT:     -10.5      0.000      0.000
REMARK SMILES Cc1cc(Br)cc2c1O[C@H](C(F)(F)F)C(C(=O)OCCOCCOC(=O)c1ccc(-c3c4nc(c(-c5ccccc5)c5ccc([nH]5)c(-c5ccccc5)c5nc(c(-c6ccccc6)c6ccc3[nH]6)C=C5)C=C4)cc1)=C2
REMARK SMILES IDX 22 1 21 2 20 3 19 4 18 5 16 6 17 7 15 8 1 9 2 10 3 11 8 12
REMARK SMILES IDX 4 13 7 14 9 15 5 16 6 17 75 18 10 19 11 20 12 21 13 22 14 23
REMARK SMILES IDX 23 24 24 25 25 26 26 27 27 28 28 29 74 30 29 31 73 32 30 33
REMARK SMILES IDX 31 34 32 35 67 36 33 37 72 38 66 39 68 40 34 41 71 42 65 43
REMARK SMILES IDX 64 44 35 46 57 47 42 48 56 49 43 50 46 51 55 52 69 53 44 54
REMARK SMILES IDX 45 55 54 57 70 58 47 59 36 60 37 61 41 62 38 63 40 64 39 65
REMARK SMILES IDX 58 66 59 67 63 68 60 69 62 70 61 71 48 72 49 73 53 74 50 75
REMARK SMILES IDX 52 76 51 77
REMARK H PARENT 68 45 46 56
REMARK Flexibility Score: inf
ROOT
ATOM      1  C   UNL A   1      37.523  20.643  24.742  1.00  0.00     0.202 C 
ENDROOT
BRANCH   1   2
ATOM      2  O   UNL A   1      36.200  20.176  25.017  1.00  0.00    -0.374 OA
BRANCH   2   3
ATOM      3  C   UNL A   1      35.345  21.028  25.777  1.00  0.00     0.202 C 
BRANCH   3   4
ATOM      4  C   UNL A   1      34.255  21.762  24.991  1.00  0.00     0.261 C 
BRANCH   4   5
ATOM      5  O   UNL A   1      34.494  23.179  24.966  1.00  0.00    -0.460 OA
BRANCH   5   6
ATOM      6  C   UNL A   1      34.473  23.734  23.732  1.00  0.00     0.338 C 
ATOM      7  O   UNL A   1      35.037  23.315  22.732  1.00  0.00    -0.246 OA
BRANCH   6   8
ATOM      8  C   UNL A   1      33.559  24.890  23.716  1.00  0.00     0.087 C 
ATOM      9  C   UNL A   1      29.545  28.112  23.371  1.00  0.00     0.048 C 
ATOM     10  C   UNL A   1      30.885  28.090  24.051  1.00  0.00    -0.007 A 
ATOM     11  C   UNL A   1      31.204  29.143  24.925  1.00  0.00     0.023 A 
ATOM     12  C   UNL A   1      31.811  27.048  23.871  1.00  0.00     0.130 A 
ATOM     13  C   UNL A   1      32.424  29.157  25.599  1.00  0.00     0.019 A 
ATOM     14  C   UNL A   1      33.019  27.055  24.577  1.00  0.00     0.019 A 
ATOM     15  O   UNL A   1      31.482  26.061  22.983  1.00  0.00    -0.475 OA
ATOM     16  Br  UNL A   1      32.835  30.579  26.774  1.00  0.00    -0.051 Br
ATOM     17  C   UNL A   1      33.332  28.118  25.430  1.00  0.00     0.027 A 
ATOM     18  C   UNL A   1      33.930  25.930  24.471  1.00  0.00     0.027 C 
ATOM     19  C   UNL A   1      32.293  24.856  22.909  1.00  0.00     0.316 C 
BRANCH  19  20
ATOM     20  C   UNL A   1      31.401  23.654  23.257  1.00  0.00     0.430 C 
ATOM     21  F   UNL A   1      31.373  23.437  24.595  1.00  0.00    -0.167 F 
ATOM     22  F   UNL A   1      30.118  23.853  22.874  1.00  0.00    -0.167 F 
ATOM     23  F   UNL A   1      31.830  22.515  22.669  1.00  0.00    -0.167 F 
ENDBRANCH  19  20
ENDBRANCH   6   8
ENDBRANCH   5   6
ENDBRANCH   4   5
ENDBRANCH   3   4
ENDBRANCH   2   3
ENDBRANCH   1   2
BRANCH   1  24
ATOM     24  C   UNL A   1      38.662  19.641  24.960  1.00  0.00     0.261 C 
BRANCH  24  25
ATOM     25  O   UNL A   1      39.362  19.886  26.195  1.00  0.00    -0.460 OA
BRANCH  25  26
ATOM     26  C   UNL A   1      40.708  19.739  26.125  1.00  0.00     0.338 C 
ATOM     27  O   UNL A   1      41.329  18.824  25.604  1.00  0.00    -0.246 OA
BRANCH  26  28
ATOM     28  C   UNL A   1      41.373  20.955  26.620  1.00  0.00     0.060 A 
ATOM     29  C   UNL A   1      41.273  21.236  27.988  1.00  0.00     0.016 A 
ATOM     30  C   UNL A   1      42.002  21.850  25.754  1.00  0.00     0.016 A 
ATOM     31  C   UNL A   1      41.761  22.440  28.491  1.00  0.00     0.010 A 
ATOM     32  C   UNL A   1      42.479  23.067  26.256  1.00  0.00     0.010 A 
ATOM     33  C   UNL A   1      42.327  23.380  27.619  1.00  0.00    -0.014 A 
BRANCH  33  34
ATOM     34  C   UNL A   1      42.612  24.747  28.116  1.00  0.00     0.031 A 
ATOM     35  C   UNL A   1      44.036  25.133  28.407  1.00  0.00     0.074 A 
ATOM     36  C   UNL A   1      41.626  25.650  28.253  1.00  0.00     0.049 A 
ATOM     37  N   UNL A   1      44.512  26.273  28.838  1.00  0.00    -0.248 NA
ATOM     38  C   UNL A   1      45.060  24.101  28.173  1.00  0.00     0.031 C 
ATOM     39  C   UNL A   1      40.217  25.417  27.946  1.00  0.00     0.029 A 
ATOM     40  N   UNL A   1      41.668  26.952  28.682  1.00  0.00    -0.354 N 
ATOM     41  C   UNL A   1      45.888  26.097  28.921  1.00  0.00     0.074 A 
ATOM     42  C   UNL A   1      46.169  24.735  28.527  1.00  0.00     0.031 C 
ATOM     43  C   UNL A   1      39.526  26.545  28.189  1.00  0.00     0.029 A 
ATOM     44  C   UNL A   1      40.440  27.565  28.699  1.00  0.00     0.049 A 
ATOM     45  H   UNL A   1      42.500  27.404  28.951  1.00  0.00     0.167 HD
ATOM     46  C   UNL A   1      46.835  26.994  29.284  1.00  0.00     0.031 A 
ATOM     47  C   UNL A   1      40.092  28.806  29.093  1.00  0.00     0.031 A 
ATOM     48  C   UNL A   1      46.559  28.344  29.694  1.00  0.00     0.049 A 
ATOM     49  C   UNL A   1      41.151  29.751  29.593  1.00  0.00     0.074 A 
ATOM     50  C   UNL A   1      47.454  29.325  30.084  1.00  0.00     0.029 A 
ATOM     51  N   UNL A   1      45.293  28.901  29.771  1.00  0.00    -0.354 N 
ATOM     52  N   UNL A   1      42.449  29.573  29.663  1.00  0.00    -0.248 NA
ATOM     53  C   UNL A   1      40.697  31.066  30.068  1.00  0.00     0.031 C 
ATOM     54  C   UNL A   1      46.724  30.461  30.447  1.00  0.00     0.029 A 
ATOM     55  C   UNL A   1      45.379  30.204  30.230  1.00  0.00     0.049 A 
ATOM     56  H   UNL A   1      44.456  28.438  29.536  1.00  0.00     0.167 HD
ATOM     57  C   UNL A   1      42.966  30.759  30.169  1.00  0.00     0.074 A 
ATOM     58  C   UNL A   1      41.845  31.654  30.376  1.00  0.00     0.031 C 
ATOM     59  C   UNL A   1      44.255  31.079  30.437  1.00  0.00     0.031 A 
BRANCH  46  60
ATOM     60  C   UNL A   1      48.265  26.535  29.275  1.00  0.00    -0.014 A 
ATOM     61  C   UNL A   1      48.837  25.932  30.405  1.00  0.00     0.009 A 
ATOM     62  C   UNL A   1      49.031  26.658  28.106  1.00  0.00     0.009 A 
ATOM     63  C   UNL A   1      50.157  25.479  30.370  1.00  0.00     0.001 A 
ATOM     64  C   UNL A   1      50.342  26.183  28.066  1.00  0.00     0.001 A 
ATOM     65  C   UNL A   1      50.907  25.600  29.200  1.00  0.00     0.000 A 
ENDBRANCH  46  60
BRANCH  47  66
ATOM     66  C   UNL A   1      38.668  29.227  29.040  1.00  0.00    -0.014 A 
ATOM     67  C   UNL A   1      37.828  29.042  30.149  1.00  0.00     0.009 A 
ATOM     68  C   UNL A   1      38.141  29.814  27.879  1.00  0.00     0.009 A 
ATOM     69  C   UNL A   1      36.486  29.425  30.089  1.00  0.00     0.001 A 
ATOM     70  C   UNL A   1      36.806  30.218  27.831  1.00  0.00     0.001 A 
ATOM     71  C   UNL A   1      35.977  30.017  28.934  1.00  0.00     0.000 A 
ENDBRANCH  47  66
BRANCH  59  72
ATOM     72  C   UNL A   1      44.536  32.455  30.967  1.00  0.00    -0.014 A 
ATOM     73  C   UNL A   1      44.738  33.539  30.099  1.00  0.00     0.009 A 
ATOM     74  C   UNL A   1      44.522  32.685  32.353  1.00  0.00     0.009 A 
ATOM     75  C   UNL A   1      44.938  34.823  30.610  1.00  0.00     0.001 A 
ATOM     76  C   UNL A   1      44.697  33.974  32.859  1.00  0.00     0.001 A 
ATOM     77  C   UNL A   1      44.911  35.040  31.988  1.00  0.00     0.000 A 
ENDBRANCH  59  72
ENDBRANCH  33  34
ENDBRANCH  26  28
ENDBRANCH  25  26
ENDBRANCH  24  25
ENDBRANCH   1  24
TORSDOF 15
ENDMDL
MODEL 2
REMARK VINA RESULT:     -10.4      4.364      9.156
REMARK SMILES Cc1cc(Br)cc2c1O[C@H](C(F)(F)F)C(C(=O)OCCOCCOC(=O)c1ccc(-c3c4nc(c(-c5ccccc5)c5ccc([nH]5)c(-c5ccccc5)c5nc(c(-c6ccccc6)c6ccc3[nH]6)C=C5)C=C4)cc1)=C2
REMARK SMILES IDX 22 1 21 2 20 3 19 4 18 5 16 6 17 7 15 8 1 9 2 10 3 11 8 12
REMARK SMILES IDX 4 13 7 14 9 15 5 16 6 17 75 18 10 19 11 20 12 21 13 22 14 23
REMARK SMILES IDX 23 24 24 25 25 26 26 27 27 28 28 29 74 30 29 31 73 32 30 33
REMARK SMILES IDX 31 34 32 35 67 36 33 37 72 38 66 39 68 40 34 41 71 42 65 43
REMARK SMILES IDX 64 44 35 46 57 47 42 48 56 49 43 50 46 51 55 52 69 53 44 54
REMARK SMILES IDX 45 55 54 57 70 58 47 59 36 60 37 61 41 62 38 63 40 64 39 65
REMARK SMILES IDX 58 66 59 67 63 68 60 69 62 70 61 71 48 72 49 73 53 74 50 75
REMARK SMILES IDX 52 76 51 77
REMARK H PARENT 68 45 46 56
REMARK Flexibility Score: inf
ROOT
ATOM      1  C   UNL A   1      31.287  31.963  26.745  1.00  0.00     0.202 C 
ENDROOT
BRANCH   1   2
ATOM      2  O   UNL A   1      31.588  30.781  26.000  1.00  0.00    -0.374 OA
BRANCH   2   3
ATOM      3  C   UNL A   1      32.914  30.264  26.091  1.00  0.00     0.202 C 
BRANCH   3   4
ATOM      4  C   UNL A   1      33.086  28.992  26.925  1.00  0.00     0.261 C 
BRANCH   4   5
ATOM      5  O   UNL A   1      32.952  27.813  26.114  1.00  0.00    -0.460 OA
BRANCH   5   6
ATOM      6  C   UNL A   1      32.025  26.929  26.551  1.00  0.00     0.338 C 
ATOM      7  O   UNL A   1      31.029  27.181  27.212  1.00  0.00    -0.246 OA
BRANCH   6   8
ATOM      8  C   UNL A   1      32.318  25.588  26.014  1.00  0.00     0.087 C 
ATOM      9  C   UNL A   1      32.405  21.125  23.427  1.00  0.00     0.048 C 
ATOM     10  C   UNL A   1      33.374  21.962  24.215  1.00  0.00    -0.007 A 
ATOM     11  C   UNL A   1      34.719  21.559  24.255  1.00  0.00     0.023 A 
ATOM     12  C   UNL A   1      32.993  23.138  24.883  1.00  0.00     0.130 A 
ATOM     13  C   UNL A   1      35.663  22.313  24.951  1.00  0.00     0.019 A 
ATOM     14  C   UNL A   1      33.953  23.905  25.552  1.00  0.00     0.019 A 
ATOM     15  O   UNL A   1      31.668  23.477  24.855  1.00  0.00    -0.475 OA
ATOM     16  Br  UNL A   1      37.469  21.759  24.990  1.00  0.00    -0.051 Br
ATOM     17  C   UNL A   1      35.287  23.484  25.599  1.00  0.00     0.027 A 
ATOM     18  C   UNL A   1      33.582  25.173  26.154  1.00  0.00     0.027 C 
ATOM     19  C   UNL A   1      31.245  24.781  25.341  1.00  0.00     0.316 C 
BRANCH  19  20
ATOM     20  C   UNL A   1      30.579  25.533  24.179  1.00  0.00     0.430 C 
ATOM     21  F   UNL A   1      29.919  24.681  23.357  1.00  0.00    -0.167 F 
ATOM     22  F   UNL A   1      29.662  26.428  24.619  1.00  0.00    -0.167 F 
ATOM     23  F   UNL A   1      31.478  26.208  23.428  1.00  0.00    -0.167 F 
ENDBRANCH  19  20
ENDBRANCH   6   8
ENDBRANCH   5   6
ENDBRANCH   4   5
ENDBRANCH   3   4
ENDBRANCH   2   3
ENDBRANCH   1   2
BRANCH   1  24
ATOM     24  C   UNL A   1      32.441  32.950  26.960  1.00  0.00     0.261 C 
BRANCH  24  25
ATOM     25  O   UNL A   1      32.193  33.830  28.072  1.00  0.00    -0.460 OA
BRANCH  25  26
ATOM     26  C   UNL A   1      33.251  34.592  28.441  1.00  0.00     0.338 C 
ATOM     27  O   UNL A   1      33.255  35.791  28.682  1.00  0.00    -0.246 OA
BRANCH  26  28
ATOM     28  C   UNL A   1      34.421  33.737  28.702  1.00  0.00     0.060 A 
ATOM     29  C   UNL A   1      34.190  32.487  29.288  1.00  0.00     0.016 A 
ATOM     30  C   UNL A   1      35.721  34.183  28.464  1.00  0.00     0.016 A 
ATOM     31  C   UNL A   1      35.264  31.694  29.686  1.00  0.00     0.010 A 
ATOM     32  C   UNL A   1      36.801  33.394  28.877  1.00  0.00     0.010 A 
ATOM     33  C   UNL A   1      36.575  32.164  29.521  1.00  0.00    -0.014 A 
BRANCH  33  34
ATOM     34  C   UNL A   1      37.691  31.434  30.167  1.00  0.00     0.031 A 
ATOM     35  C   UNL A   1      37.988  31.693  31.618  1.00  0.00     0.074 A 
ATOM     36  C   UNL A   1      38.396  30.512  29.488  1.00  0.00     0.049 A 
ATOM     37  N   UNL A   1      38.907  31.161  32.382  1.00  0.00    -0.248 NA
ATOM     38  C   UNL A   1      37.129  32.675  32.301  1.00  0.00     0.031 C 
ATOM     39  C   UNL A   1      38.166  30.127  28.097  1.00  0.00     0.029 A 
ATOM     40  N   UNL A   1      39.447  29.726  29.887  1.00  0.00    -0.354 N 
ATOM     41  C   UNL A   1      38.734  31.738  33.634  1.00  0.00     0.074 A 
ATOM     42  C   UNL A   1      37.645  32.682  33.522  1.00  0.00     0.031 C 
ATOM     43  C   UNL A   1      39.047  29.170  27.760  1.00  0.00     0.029 A 
ATOM     44  C   UNL A   1      39.922  28.900  28.900  1.00  0.00     0.049 A 
ATOM     45  H   UNL A   1      39.824  29.753  30.796  1.00  0.00     0.167 HD
ATOM     46  C   UNL A   1      39.415  31.496  34.778  1.00  0.00     0.031 A 
ATOM     47  C   UNL A   1      40.953  28.033  28.911  1.00  0.00     0.031 A 
ATOM     48  C   UNL A   1      40.511  30.572  34.890  1.00  0.00     0.049 A 
ATOM     49  C   UNL A   1      41.763  27.859  30.167  1.00  0.00     0.074 A 
ATOM     50  C   UNL A   1      41.266  30.263  36.009  1.00  0.00     0.029 A 
ATOM     51  N   UNL A   1      41.010  29.812  33.846  1.00  0.00    -0.354 N 
ATOM     52  N   UNL A   1      41.587  28.408  31.345  1.00  0.00    -0.248 NA
ATOM     53  C   UNL A   1      42.913  26.947  30.095  1.00  0.00     0.031 C 
ATOM     54  C   UNL A   1      42.256  29.353  35.627  1.00  0.00     0.029 A 
ATOM     55  C   UNL A   1      42.082  29.055  34.285  1.00  0.00     0.049 A 
ATOM     56  H   UNL A   1      40.656  29.811  32.927  1.00  0.00     0.167 HD
ATOM     57  C   UNL A   1      42.589  27.893  32.157  1.00  0.00     0.074 A 
ATOM     58  C   UNL A   1      43.362  26.977  31.343  1.00  0.00     0.031 C 
ATOM     59  C   UNL A   1      42.845  28.153  33.462  1.00  0.00     0.031 A 
BRANCH  46  60
ATOM     60  C   UNL A   1      39.008  32.263  36.004  1.00  0.00    -0.014 A 
ATOM     61  C   UNL A   1      38.047  31.752  36.889  1.00  0.00     0.009 A 
ATOM     62  C   UNL A   1      39.631  33.484  36.304  1.00  0.00     0.009 A 
ATOM     63  C   UNL A   1      37.703  32.460  38.042  1.00  0.00     0.001 A 
ATOM     64  C   UNL A   1      39.303  34.178  37.469  1.00  0.00     0.001 A 
ATOM     65  C   UNL A   1      38.335  33.668  38.334  1.00  0.00     0.000 A 
ENDBRANCH  46  60
BRANCH  47  66
ATOM     66  C   UNL A   1      41.288  27.265  27.684  1.00  0.00    -0.014 A 
ATOM     67  C   UNL A   1      40.859  25.937  27.535  1.00  0.00     0.009 A 
ATOM     68  C   UNL A   1      42.039  27.855  26.656  1.00  0.00     0.009 A 
ATOM     69  C   UNL A   1      41.190  25.213  26.387  1.00  0.00     0.001 A 
ATOM     70  C   UNL A   1      42.348  27.137  25.499  1.00  0.00     0.001 A 
ATOM     71  C   UNL A   1      41.928  25.815  25.368  1.00  0.00     0.000 A 
ENDBRANCH  47  66
BRANCH  59  72
ATOM     72  C   UNL A   1      43.995  27.433  34.104  1.00  0.00    -0.014 A 
ATOM     73  C   UNL A   1      45.272  28.012  34.160  1.00  0.00     0.009 A 
ATOM     74  C   UNL A   1      43.781  26.193  34.728  1.00  0.00     0.009 A 
ATOM     75  C   UNL A   1      46.317  27.354  34.813  1.00  0.00     0.001 A 
ATOM     76  C   UNL A   1      44.821  25.550  35.402  1.00  0.00     0.001 A 
ATOM     77  C   UNL A   1      46.088  26.128  35.439  1.00  0.00     0.000 A 
ENDBRANCH  59  72
ENDBRANCH  33  34
ENDBRANCH  26  28
ENDBRANCH  25  26
ENDBRANCH  24  25
ENDBRANCH   1  24
TORSDOF 15
ENDMDL
MODEL 3
REMARK VINA RESULT:     -10.3      2.433      3.363
REMARK SMILES Cc1cc(Br)cc2c1O[C@H](C(F)(F)F)C(C(=O)OCCOCCOC(=O)c1ccc(-c3c4nc(c(-c5ccccc5)c5ccc([nH]5)c(-c5ccccc5)c5nc(c(-c6ccccc6)c6ccc3[nH]6)C=C5)C=C4)cc1)=C2
REMARK SMILES IDX 22 1 21 2 20 3 19 4 18 5 16 6 17 7 15 8 1 9 2 10 3 11 8 12
REMARK SMILES IDX 4 13 7 14 9 15 5 16 6 17 75 18 10 19 11 20 12 21 13 22 14 23
REMARK SMILES IDX 23 24 24 25 25 26 26 27 27 28 28 29 74 30 29 31 73 32 30 33
REMARK SMILES IDX 31 34 32 35 67 36 33 37 72 38 66 39 68 40 34 41 71 42 65 43
REMARK SMILES IDX 64 44 35 46 57 47 42 48 56 49 43 50 46 51 55 52 69 53 44 54
REMARK SMILES IDX 45 55 54 57 70 58 47 59 36 60 37 61 41 62 38 63 40 64 39 65
REMARK SMILES IDX 58 66 59 67 63 68 60 69 62 70 61 71 48 72 49 73 53 74 50 75
REMARK SMILES IDX 52 76 51 77
REMARK H PARENT 68 45 46 56
REMARK Flexibility Score: inf
ROOT
ATOM      1  C   UNL A   1      35.249  21.258  24.626  1.00  0.00     0.202 C 
ENDROOT
BRANCH   1   2
ATOM      2  O   UNL A   1      34.858  22.600  24.326  1.00  0.00    -0.374 OA
BRANCH   2   3
ATOM      3  C   UNL A   1      34.128  22.820  23.121  1.00  0.00     0.202 C 
BRANCH   3   4
ATOM      4  C   UNL A   1      32.660  22.382  23.133  1.00  0.00     0.261 C 
BRANCH   4   5
ATOM      5  O   UNL A   1      31.782  23.502  23.335  1.00  0.00    -0.460 OA
BRANCH   5   6
ATOM      6  C   UNL A   1      31.550  23.812  24.631  1.00  0.00     0.338 C 
ATOM      7  O   UNL A   1      31.573  23.045  25.582  1.00  0.00    -0.246 OA
BRANCH   6   8
ATOM      8  C   UNL A   1      31.369  25.268  24.775  1.00  0.00     0.087 C 
ATOM      9  C   UNL A   1      31.840  30.315  25.731  1.00  0.00     0.048 C 
ATOM     10  C   UNL A   1      31.025  29.437  24.824  1.00  0.00    -0.007 A 
ATOM     11  C   UNL A   1      30.192  30.053  23.875  1.00  0.00     0.023 A 
ATOM     12  C   UNL A   1      31.089  28.034  24.868  1.00  0.00     0.130 A 
ATOM     13  C   UNL A   1      29.434  29.284  22.994  1.00  0.00     0.019 A 
ATOM     14  C   UNL A   1      30.348  27.271  23.958  1.00  0.00     0.019 A 
ATOM     15  O   UNL A   1      31.881  27.470  25.830  1.00  0.00    -0.475 OA
ATOM     16  Br  UNL A   1      28.321  30.130  21.723  1.00  0.00    -0.051 Br
ATOM     17  C   UNL A   1      29.509  27.896  23.030  1.00  0.00     0.027 A 
ATOM     18  C   UNL A   1      30.491  25.826  23.934  1.00  0.00     0.027 C 
ATOM     19  C   UNL A   1      32.154  26.041  25.795  1.00  0.00     0.316 C 
BRANCH  19  20
ATOM     20  C   UNL A   1      33.671  25.846  25.648  1.00  0.00     0.430 C 
ATOM     21  F   UNL A   1      34.027  25.742  24.344  1.00  0.00    -0.167 F 
ATOM     22  F   UNL A   1      34.364  26.894  26.153  1.00  0.00    -0.167 F 
ATOM     23  F   UNL A   1      34.103  24.731  26.278  1.00  0.00    -0.167 F 
ENDBRANCH  19  20
ENDBRANCH   6   8
ENDBRANCH   5   6
ENDBRANCH   4   5
ENDBRANCH   3   4
ENDBRANCH   2   3
ENDBRANCH   1   2
BRANCH   1  24
ATOM     24  C   UNL A   1      36.430  21.088  25.589  1.00  0.00     0.261 C 
BRANCH  24  25
ATOM     25  O   UNL A   1      37.654  21.604  25.034  1.00  0.00    -0.460 OA
BRANCH  25  26
ATOM     26  C   UNL A   1      38.768  21.322  25.752  1.00  0.00     0.338 C 
ATOM     27  O   UNL A   1      39.408  20.280  25.752  1.00  0.00    -0.246 OA
BRANCH  26  28
ATOM     28  C   UNL A   1      39.245  22.534  26.438  1.00  0.00     0.060 A 
ATOM     29  C   UNL A   1      38.617  23.745  26.123  1.00  0.00     0.016 A 
ATOM     30  C   UNL A   1      40.342  22.504  27.300  1.00  0.00     0.016 A 
ATOM     31  C   UNL A   1      39.115  24.942  26.632  1.00  0.00     0.010 A 
ATOM     32  C   UNL A   1      40.852  23.708  27.800  1.00  0.00     0.010 A 
ATOM     33  C   UNL A   1      40.262  24.933  27.438  1.00  0.00    -0.014 A 
BRANCH  33  34
ATOM     34  C   UNL A   1      40.925  26.216  27.767  1.00  0.00     0.031 A 
ATOM     35  C   UNL A   1      42.297  26.489  27.217  1.00  0.00     0.074 A 
ATOM     36  C   UNL A   1      40.293  27.150  28.500  1.00  0.00     0.049 A 
ATOM     37  N   UNL A   1      43.055  27.545  27.368  1.00  0.00    -0.248 NA
ATOM     38  C   UNL A   1      42.890  25.436  26.375  1.00  0.00     0.031 C 
ATOM     39  C   UNL A   1      38.941  27.030  29.039  1.00  0.00     0.029 A 
ATOM     40  N   UNL A   1      40.712  28.391  28.908  1.00  0.00    -0.354 N 
ATOM     41  C   UNL A   1      44.209  27.287  26.639  1.00  0.00     0.074 A 
ATOM     42  C   UNL A   1      44.068  25.965  26.071  1.00  0.00     0.031 C 
ATOM     43  C   UNL A   1      38.636  28.159  29.703  1.00  0.00     0.029 A 
ATOM     44  C   UNL A   1      39.783  29.064  29.662  1.00  0.00     0.049 A 
ATOM     45  H   UNL A   1      41.595  28.764  28.681  1.00  0.00     0.167 HD
ATOM     46  C   UNL A   1      45.287  28.083  26.451  1.00  0.00     0.031 A 
ATOM     47  C   UNL A   1      39.855  30.268  30.262  1.00  0.00     0.031 A 
ATOM     48  C   UNL A   1      45.440  29.391  27.030  1.00  0.00     0.049 A 
ATOM     49  C   UNL A   1      41.108  31.091  30.125  1.00  0.00     0.074 A 
ATOM     50  C   UNL A   1      46.500  30.272  26.899  1.00  0.00     0.029 A 
ATOM     51  N   UNL A   1      44.508  30.003  27.851  1.00  0.00    -0.354 N 
ATOM     52  N   UNL A   1      42.191  30.837  29.430  1.00  0.00    -0.248 NA
ATOM     53  C   UNL A   1      41.148  32.366  30.855  1.00  0.00     0.031 C 
ATOM     54  C   UNL A   1      46.231  31.396  27.684  1.00  0.00     0.029 A 
ATOM     55  C   UNL A   1      44.979  31.239  28.259  1.00  0.00     0.049 A 
ATOM     56  H   UNL A   1      43.639  29.617  28.107  1.00  0.00     0.167 HD
ATOM     57  C   UNL A   1      43.030  31.927  29.622  1.00  0.00     0.074 A 
ATOM     58  C   UNL A   1      42.326  32.852  30.488  1.00  0.00     0.031 C 
ATOM     59  C   UNL A   1      44.271  32.144  29.125  1.00  0.00     0.031 A 
BRANCH  46  60
ATOM     60  C   UNL A   1      46.402  27.552  25.598  1.00  0.00    -0.014 A 
ATOM     61  C   UNL A   1      46.520  27.922  24.250  1.00  0.00     0.009 A 
ATOM     62  C   UNL A   1      47.376  26.715  26.163  1.00  0.00     0.009 A 
ATOM     63  C   UNL A   1      47.582  27.447  23.478  1.00  0.00     0.001 A 
ATOM     64  C   UNL A   1      48.449  26.260  25.396  1.00  0.00     0.001 A 
ATOM     65  C   UNL A   1      48.549  26.622  24.052  1.00  0.00     0.000 A 
ENDBRANCH  46  60
BRANCH  47  66
ATOM     66  C   UNL A   1      38.706  30.769  31.058  1.00  0.00    -0.014 A 
ATOM     67  C   UNL A   1      37.725  31.578  30.465  1.00  0.00     0.009 A 
ATOM     68  C   UNL A   1      38.585  30.441  32.418  1.00  0.00     0.009 A 
ATOM     69  C   UNL A   1      36.654  32.060  31.222  1.00  0.00     0.001 A 
ATOM     70  C   UNL A   1      37.501  30.904  33.166  1.00  0.00     0.001 A 
ATOM     71  C   UNL A   1      36.540  31.719  32.569  1.00  0.00     0.000 A 
ENDBRANCH  47  66
BRANCH  59  72
ATOM     72  C   UNL A   1      44.951  33.434  29.485  1.00  0.00    -0.014 A 
ATOM     73  C   UNL A   1      45.785  33.524  30.610  1.00  0.00     0.009 A 
ATOM     74  C   UNL A   1      44.816  34.551  28.646  1.00  0.00     0.009 A 
ATOM     75  C   UNL A   1      46.457  34.714  30.897  1.00  0.00     0.001 A 
ATOM     76  C   UNL A   1      45.509  35.732  28.921  1.00  0.00     0.001 A 
ATOM     77  C   UNL A   1      46.323  35.814  30.048  1.00  0.00     0.000 A 
ENDBRANCH  59  72
ENDBRANCH  33  34
ENDBRANCH  26  28
ENDBRANCH  25  26
ENDBRANCH  24  25
ENDBRANCH   1  24
TORSDOF 15
ENDMDL
