MODEL 1
REMARK VINA RESULT:     -10.4      0.000      0.000
REMARK SMILES C[C@@H]1C[C@@H](C)CN(C(=O)CCn2cc(C(=O)OCCOCCOC(=O)c3ccc(-c4c5nc(c(-c6ccccc6)c6ccc([nH]6)c(-c6ccccc6)c6nc(c(-c7ccccc7)c7ccc4[nH]7)C=C6)C=C5)cc3)cn2)C1
REMARK SMILES IDX 19 1 18 2 17 3 15 4 16 5 14 6 12 7 13 8 75 9 74 10 11 11
REMARK SMILES IDX 10 12 8 13 1 14 2 15 3 16 76 17 4 18 7 19 6 20 5 21 9 22
REMARK SMILES IDX 20 23 21 24 22 25 23 26 24 27 25 28 26 29 27 30 73 31 28 32
REMARK SMILES IDX 72 33 29 34 30 35 31 36 66 37 32 38 71 39 65 40 67 41 33 42
REMARK SMILES IDX 70 43 64 44 63 45 34 47 56 48 41 49 55 50 42 51 45 52 54 53
REMARK SMILES IDX 68 54 43 55 44 56 53 58 69 59 46 60 35 61 36 62 40 63 37 64
REMARK SMILES IDX 39 65 38 66 57 67 58 68 62 69 59 70 61 71 60 72 47 73 48 74
REMARK SMILES IDX 52 75 49 76 51 77 50 78
REMARK H PARENT 67 46 45 57
REMARK Flexibility Score: inf
ROOT
ATOM      1  C   UNL A   1      43.717  18.563  25.093  1.00  0.00     0.202 C 
ENDROOT
BRANCH   1   2
ATOM      2  C   UNL A   1      43.078  19.502  26.123  1.00  0.00     0.261 C 
BRANCH   2   3
ATOM      3  O   UNL A   1      42.264  20.563  25.576  1.00  0.00    -0.460 OA
BRANCH   3   4
ATOM      4  C   UNL A   1      41.687  21.371  26.520  1.00  0.00     0.341 C 
ATOM      5  O   UNL A   1      42.271  21.798  27.508  1.00  0.00    -0.246 OA
BRANCH   4   6
ATOM      6  C   UNL A   1      40.302  21.732  26.263  1.00  0.00     0.098 A 
ATOM      7  N   UNL A   1      38.298  22.640  26.089  1.00  0.00    -0.271 N 
ATOM      8  C   UNL A   1      39.594  22.908  26.454  1.00  0.00     0.124 A 
ATOM      9  N   UNL A   1      38.135  21.399  25.600  1.00  0.00    -0.181 NA
ATOM     10  C   UNL A   1      39.341  20.848  25.722  1.00  0.00     0.150 A 
BRANCH   7  11
ATOM     11  C   UNL A   1      37.147  23.530  26.117  1.00  0.00     0.154 C 
BRANCH  11  12
ATOM     12  C   UNL A   1      36.479  23.735  24.756  1.00  0.00     0.124 C 
BRANCH  12  13
ATOM     13  C   UNL A   1      35.017  24.072  24.924  1.00  0.00     0.224 C 
ATOM     14  C   UNL A   1      32.664  22.867  27.251  1.00  0.00     0.009 C 
ATOM     15  C   UNL A   1      32.037  22.579  25.876  1.00  0.00     0.006 C 
ATOM     16  C   UNL A   1      32.202  21.125  25.391  1.00  0.00     0.010 C 
ATOM     17  C   UNL A   1      32.638  23.498  24.806  1.00  0.00     0.122 C 
ATOM     18  C   UNL A   1      33.672  20.772  25.126  1.00  0.00     0.006 C 
ATOM     19  N   UNL A   1      34.046  23.151  24.583  1.00  0.00    -0.342 N 
ATOM     20  C   UNL A   1      34.266  21.774  24.125  1.00  0.00     0.122 C 
ATOM     21  C   UNL A   1      33.827  19.339  24.624  1.00  0.00     0.009 C 
ATOM     22  O   UNL A   1      34.728  25.172  25.408  1.00  0.00    -0.275 OA
ENDBRANCH  12  13
ENDBRANCH  11  12
ENDBRANCH   7  11
ENDBRANCH   4   6
ENDBRANCH   3   4
ENDBRANCH   2   3
ENDBRANCH   1   2
BRANCH   1  23
ATOM     23  O   UNL A   1      45.026  18.080  25.375  1.00  0.00    -0.374 OA
BRANCH  23  24
ATOM     24  C   UNL A   1      46.012  19.029  25.754  1.00  0.00     0.202 C 
BRANCH  24  25
ATOM     25  C   UNL A   1      46.592  19.882  24.643  1.00  0.00     0.261 C 
BRANCH  25  26
ATOM     26  O   UNL A   1      46.428  21.271  24.869  1.00  0.00    -0.460 OA
BRANCH  26  27
ATOM     27  C   UNL A   1      45.287  21.749  24.330  1.00  0.00     0.338 C 
ATOM     28  O   UNL A   1      44.698  21.326  23.354  1.00  0.00    -0.246 OA
BRANCH  27  29
ATOM     29  C   UNL A   1      44.984  23.024  24.985  1.00  0.00     0.060 A 
ATOM     30  C   UNL A   1      45.683  23.305  26.157  1.00  0.00     0.016 A 
ATOM     31  C   UNL A   1      43.883  23.794  24.572  1.00  0.00     0.016 A 
ATOM     32  C   UNL A   1      45.198  24.296  26.980  1.00  0.00     0.010 A 
ATOM     33  C   UNL A   1      43.385  24.767  25.405  1.00  0.00     0.010 A 
ATOM     34  C   UNL A   1      44.026  24.976  26.620  1.00  0.00    -0.014 A 
BRANCH  34  35
ATOM     35  C   UNL A   1      43.614  26.069  27.467  1.00  0.00     0.031 A 
ATOM     36  C   UNL A   1      44.597  27.175  27.461  1.00  0.00     0.074 A 
ATOM     37  C   UNL A   1      42.450  26.123  28.131  1.00  0.00     0.049 A 
ATOM     38  N   UNL A   1      45.403  27.501  28.414  1.00  0.00    -0.248 NA
ATOM     39  C   UNL A   1      44.846  27.867  26.185  1.00  0.00     0.031 C 
ATOM     40  C   UNL A   1      41.280  25.255  28.007  1.00  0.00     0.029 A 
ATOM     41  N   UNL A   1      42.046  27.065  29.020  1.00  0.00    -0.354 N 
ATOM     42  C   UNL A   1      46.136  28.574  27.927  1.00  0.00     0.074 A 
ATOM     43  C   UNL A   1      45.886  28.635  26.509  1.00  0.00     0.031 C 
ATOM     44  C   UNL A   1      40.227  25.842  28.626  1.00  0.00     0.029 A 
ATOM     45  C   UNL A   1      40.690  27.045  29.302  1.00  0.00     0.049 A 
ATOM     46  H   UNL A   1      42.667  27.708  29.434  1.00  0.00     0.167 HD
ATOM     47  C   UNL A   1      46.672  29.494  28.770  1.00  0.00     0.031 A 
ATOM     48  C   UNL A   1      40.010  27.993  29.991  1.00  0.00     0.031 A 
ATOM     49  C   UNL A   1      46.761  28.999  30.120  1.00  0.00     0.049 A 
ATOM     50  C   UNL A   1      40.994  28.772  30.780  1.00  0.00     0.074 A 
ATOM     51  C   UNL A   1      47.397  27.929  30.720  1.00  0.00     0.029 A 
ATOM     52  N   UNL A   1      45.788  29.401  31.004  1.00  0.00    -0.354 N 
ATOM     53  N   UNL A   1      41.638  28.287  31.800  1.00  0.00    -0.248 NA
ATOM     54  C   UNL A   1      41.590  29.952  30.172  1.00  0.00     0.031 C 
ATOM     55  C   UNL A   1      46.475  27.450  31.696  1.00  0.00     0.029 A 
ATOM     56  C   UNL A   1      45.360  28.290  31.688  1.00  0.00     0.049 A 
ATOM     57  H   UNL A   1      45.457  30.320  31.124  1.00  0.00     0.167 HD
ATOM     58  C   UNL A   1      42.922  28.796  31.681  1.00  0.00     0.074 A 
ATOM     59  C   UNL A   1      42.803  29.901  30.729  1.00  0.00     0.031 C 
ATOM     60  C   UNL A   1      44.001  28.097  32.143  1.00  0.00     0.031 A 
BRANCH  47  61
ATOM     61  C   UNL A   1      46.682  30.963  28.437  1.00  0.00    -0.014 A 
ATOM     62  C   UNL A   1      47.885  31.677  28.549  1.00  0.00     0.009 A 
ATOM     63  C   UNL A   1      45.503  31.723  28.292  1.00  0.00     0.009 A 
ATOM     64  C   UNL A   1      47.895  33.077  28.571  1.00  0.00     0.001 A 
ATOM     65  C   UNL A   1      45.513  33.117  28.270  1.00  0.00     0.001 A 
ATOM     66  C   UNL A   1      46.709  33.796  28.436  1.00  0.00     0.000 A 
ENDBRANCH  47  61
BRANCH  48  67
ATOM     67  C   UNL A   1      38.618  28.457  29.821  1.00  0.00    -0.014 A 
ATOM     68  C   UNL A   1      37.837  28.786  30.941  1.00  0.00     0.009 A 
ATOM     69  C   UNL A   1      38.160  28.863  28.557  1.00  0.00     0.009 A 
ATOM     70  C   UNL A   1      36.666  29.542  30.803  1.00  0.00     0.001 A 
ATOM     71  C   UNL A   1      36.988  29.615  28.419  1.00  0.00     0.001 A 
ATOM     72  C   UNL A   1      36.252  29.970  29.545  1.00  0.00     0.000 A 
ENDBRANCH  48  67
BRANCH  60  73
ATOM     73  C   UNL A   1      43.728  26.882  33.003  1.00  0.00    -0.014 A 
ATOM     74  C   UNL A   1      44.194  25.591  32.694  1.00  0.00     0.009 A 
ATOM     75  C   UNL A   1      43.061  27.067  34.223  1.00  0.00     0.009 A 
ATOM     76  C   UNL A   1      43.951  24.513  33.552  1.00  0.00     0.001 A 
ATOM     77  C   UNL A   1      42.839  25.997  35.092  1.00  0.00     0.001 A 
ATOM     78  C   UNL A   1      43.273  24.717  34.751  1.00  0.00     0.000 A 
ENDBRANCH  60  73
ENDBRANCH  34  35
ENDBRANCH  27  29
ENDBRANCH  26  27
ENDBRANCH  25  26
ENDBRANCH  24  25
ENDBRANCH  23  24
ENDBRANCH   1  23
TORSDOF 17
ENDMDL
MODEL 2
REMARK VINA RESULT:     -10.4      5.240     10.463
REMARK SMILES C[C@@H]1C[C@@H](C)CN(C(=O)CCn2cc(C(=O)OCCOCCOC(=O)c3ccc(-c4c5nc(c(-c6ccccc6)c6ccc([nH]6)c(-c6ccccc6)c6nc(c(-c7ccccc7)c7ccc4[nH]7)C=C6)C=C5)cc3)cn2)C1
REMARK SMILES IDX 19 1 18 2 17 3 15 4 16 5 14 6 12 7 13 8 75 9 74 10 11 11
REMARK SMILES IDX 10 12 8 13 1 14 2 15 3 16 76 17 4 18 7 19 6 20 5 21 9 22
REMARK SMILES IDX 20 23 21 24 22 25 23 26 24 27 25 28 26 29 27 30 73 31 28 32
REMARK SMILES IDX 72 33 29 34 30 35 31 36 66 37 32 38 71 39 65 40 67 41 33 42
REMARK SMILES IDX 70 43 64 44 63 45 34 47 56 48 41 49 55 50 42 51 45 52 54 53
REMARK SMILES IDX 68 54 43 55 44 56 53 58 69 59 46 60 35 61 36 62 40 63 37 64
REMARK SMILES IDX 39 65 38 66 57 67 58 68 62 69 59 70 61 71 60 72 47 73 48 74
REMARK SMILES IDX 52 75 49 76 51 77 50 78
REMARK H PARENT 67 46 45 57
REMARK Flexibility Score: inf
ROOT
ATOM      1  C   UNL A   1      34.305  33.639  28.400  1.00  0.00     0.202 C 
ENDROOT
BRANCH   1   2
ATOM      2  C   UNL A   1      34.110  32.121  28.476  1.00  0.00     0.261 C 
BRANCH   2   3
ATOM      3  O   UNL A   1      34.596  31.373  27.340  1.00  0.00    -0.460 OA
BRANCH   3   4
ATOM      4  C   UNL A   1      34.500  30.013  27.479  1.00  0.00     0.341 C 
ATOM      5  O   UNL A   1      35.304  29.329  28.100  1.00  0.00    -0.246 OA
BRANCH   4   6
ATOM      6  C   UNL A   1      33.338  29.407  26.851  1.00  0.00     0.098 A 
ATOM      7  N   UNL A   1      31.750  28.114  26.028  1.00  0.00    -0.271 N 
ATOM      8  C   UNL A   1      32.852  28.109  26.848  1.00  0.00     0.124 A 
ATOM      9  N   UNL A   1      31.442  29.339  25.567  1.00  0.00    -0.181 NA
ATOM     10  C   UNL A   1      32.411  30.113  26.051  1.00  0.00     0.150 A 
BRANCH   7  11
ATOM     11  C   UNL A   1      30.884  27.002  25.668  1.00  0.00     0.154 C 
BRANCH  11  12
ATOM     12  C   UNL A   1      31.550  25.629  25.768  1.00  0.00     0.124 C 
BRANCH  12  13
ATOM     13  C   UNL A   1      31.787  25.048  24.395  1.00  0.00     0.224 C 
ATOM     14  C   UNL A   1      32.967  21.867  23.449  1.00  0.00     0.009 C 
ATOM     15  C   UNL A   1      33.925  22.858  22.767  1.00  0.00     0.006 C 
ATOM     16  C   UNL A   1      35.265  23.061  23.504  1.00  0.00     0.010 C 
ATOM     17  C   UNL A   1      33.263  24.233  22.616  1.00  0.00     0.122 C 
ATOM     18  C   UNL A   1      35.070  23.730  24.872  1.00  0.00     0.006 C 
ATOM     19  N   UNL A   1      33.075  24.844  23.938  1.00  0.00    -0.342 N 
ATOM     20  C   UNL A   1      34.317  25.056  24.691  1.00  0.00     0.122 C 
ATOM     21  C   UNL A   1      36.401  23.949  25.587  1.00  0.00     0.009 C 
ATOM     22  O   UNL A   1      30.801  24.732  23.722  1.00  0.00    -0.275 OA
ENDBRANCH  12  13
ENDBRANCH  11  12
ENDBRANCH   7  11
ENDBRANCH   4   6
ENDBRANCH   3   4
ENDBRANCH   2   3
ENDBRANCH   1   2
BRANCH   1  23
ATOM     23  O   UNL A   1      33.241  34.458  28.873  1.00  0.00    -0.374 OA
BRANCH  23  24
ATOM     24  C   UNL A   1      33.560  35.773  29.303  1.00  0.00     0.202 C 
BRANCH  24  25
ATOM     25  C   UNL A   1      32.703  36.350  30.411  1.00  0.00     0.261 C 
BRANCH  25  26
ATOM     26  O   UNL A   1      33.335  36.309  31.678  1.00  0.00    -0.460 OA
BRANCH  26  27
ATOM     27  C   UNL A   1      33.060  35.174  32.355  1.00  0.00     0.338 C 
ATOM     28  O   UNL A   1      32.027  34.888  32.927  1.00  0.00    -0.246 OA
BRANCH  27  29
ATOM     29  C   UNL A   1      34.309  34.419  32.484  1.00  0.00     0.060 A 
ATOM     30  C   UNL A   1      35.480  35.163  32.602  1.00  0.00     0.016 A 
ATOM     31  C   UNL A   1      34.329  33.030  32.261  1.00  0.00     0.016 A 
ATOM     32  C   UNL A   1      36.680  34.527  32.378  1.00  0.00     0.010 A 
ATOM     33  C   UNL A   1      35.525  32.400  32.014  1.00  0.00     0.010 A 
ATOM     34  C   UNL A   1      36.683  33.167  32.033  1.00  0.00    -0.014 A 
BRANCH  34  35
ATOM     35  C   UNL A   1      37.969  32.526  31.903  1.00  0.00     0.031 A 
ATOM     36  C   UNL A   1      38.739  32.570  33.165  1.00  0.00     0.074 A 
ATOM     37  C   UNL A   1      38.399  31.897  30.799  1.00  0.00     0.049 A 
ATOM     38  N   UNL A   1      39.775  33.297  33.416  1.00  0.00    -0.248 NA
ATOM     39  C   UNL A   1      38.180  31.877  34.338  1.00  0.00     0.031 C 
ATOM     40  C   UNL A   1      37.649  31.530  29.599  1.00  0.00     0.029 A 
ATOM     41  N   UNL A   1      39.627  31.366  30.574  1.00  0.00    -0.354 N 
ATOM     42  C   UNL A   1      40.120  33.009  34.728  1.00  0.00     0.074 A 
ATOM     43  C   UNL A   1      39.013  32.283  35.296  1.00  0.00     0.031 C 
ATOM     44  C   UNL A   1      38.380  30.646  28.876  1.00  0.00     0.029 A 
ATOM     45  C   UNL A   1      39.691  30.505  29.491  1.00  0.00     0.049 A 
ATOM     46  H   UNL A   1      40.410  31.577  31.134  1.00  0.00     0.167 HD
ATOM     47  C   UNL A   1      41.400  33.149  35.160  1.00  0.00     0.031 A 
ATOM     48  C   UNL A   1      40.735  29.700  29.178  1.00  0.00     0.031 A 
ATOM     49  C   UNL A   1      42.174  33.994  34.287  1.00  0.00     0.049 A 
ATOM     50  C   UNL A   1      41.935  30.226  29.872  1.00  0.00     0.074 A 
ATOM     51  C   UNL A   1      42.067  35.304  33.861  1.00  0.00     0.029 A 
ATOM     52  N   UNL A   1      43.009  33.374  33.389  1.00  0.00    -0.354 N 
ATOM     53  N   UNL A   1      42.515  31.345  29.550  1.00  0.00    -0.248 NA
ATOM     54  C   UNL A   1      42.235  29.732  31.207  1.00  0.00     0.031 C 
ATOM     55  C   UNL A   1      42.447  35.279  32.487  1.00  0.00     0.029 A 
ATOM     56  C   UNL A   1      42.829  33.975  32.167  1.00  0.00     0.049 A 
ATOM     57  H   UNL A   1      43.625  32.632  33.585  1.00  0.00     0.167 HD
ATOM     58  C   UNL A   1      42.868  31.921  30.761  1.00  0.00     0.074 A 
ATOM     59  C   UNL A   1      42.774  30.834  31.736  1.00  0.00     0.031 C 
ATOM     60  C   UNL A   1      42.924  33.278  30.903  1.00  0.00     0.031 A 
BRANCH  47  61
ATOM     61  C   UNL A   1      42.029  32.161  36.108  1.00  0.00    -0.014 A 
ATOM     62  C   UNL A   1      42.620  32.634  37.290  1.00  0.00     0.009 A 
ATOM     63  C   UNL A   1      42.309  30.826  35.747  1.00  0.00     0.009 A 
ATOM     64  C   UNL A   1      43.488  31.828  38.037  1.00  0.00     0.001 A 
ATOM     65  C   UNL A   1      43.139  30.006  36.511  1.00  0.00     0.001 A 
ATOM     66  C   UNL A   1      43.751  30.517  37.644  1.00  0.00     0.000 A 
ENDBRANCH  47  61
BRANCH  48  67
ATOM     67  C   UNL A   1      40.732  28.363  28.551  1.00  0.00    -0.014 A 
ATOM     68  C   UNL A   1      39.987  27.315  29.115  1.00  0.00     0.009 A 
ATOM     69  C   UNL A   1      41.214  28.197  27.242  1.00  0.00     0.009 A 
ATOM     70  C   UNL A   1      39.690  26.164  28.375  1.00  0.00     0.001 A 
ATOM     71  C   UNL A   1      40.921  27.046  26.503  1.00  0.00     0.001 A 
ATOM     72  C   UNL A   1      40.142  26.038  27.064  1.00  0.00     0.000 A 
ENDBRANCH  48  67
BRANCH  60  73
ATOM     73  C   UNL A   1      42.836  34.116  29.647  1.00  0.00    -0.014 A 
ATOM     74  C   UNL A   1      43.880  34.221  28.708  1.00  0.00     0.009 A 
ATOM     75  C   UNL A   1      41.616  34.741  29.348  1.00  0.00     0.009 A 
ATOM     76  C   UNL A   1      43.724  34.973  27.538  1.00  0.00     0.001 A 
ATOM     77  C   UNL A   1      41.452  35.472  28.169  1.00  0.00     0.001 A 
ATOM     78  C   UNL A   1      42.508  35.598  27.270  1.00  0.00     0.000 A 
ENDBRANCH  60  73
ENDBRANCH  34  35
ENDBRANCH  27  29
ENDBRANCH  26  27
ENDBRANCH  25  26
ENDBRANCH  24  25
ENDBRANCH  23  24
ENDBRANCH   1  23
TORSDOF 17
ENDMDL
MODEL 3
REMARK VINA RESULT:     -10.3      1.880      2.861
REMARK SMILES C[C@@H]1C[C@@H](C)CN(C(=O)CCn2cc(C(=O)OCCOCCOC(=O)c3ccc(-c4c5nc(c(-c6ccccc6)c6ccc([nH]6)c(-c6ccccc6)c6nc(c(-c7ccccc7)c7ccc4[nH]7)C=C6)C=C5)cc3)cn2)C1
REMARK SMILES IDX 19 1 18 2 17 3 15 4 16 5 14 6 12 7 13 8 75 9 74 10 11 11
REMARK SMILES IDX 10 12 8 13 1 14 2 15 3 16 76 17 4 18 7 19 6 20 5 21 9 22
REMARK SMILES IDX 20 23 21 24 22 25 23 26 24 27 25 28 26 29 27 30 73 31 28 32
REMARK SMILES IDX 72 33 29 34 30 35 31 36 66 37 32 38 71 39 65 40 67 41 33 42
REMARK SMILES IDX 70 43 64 44 63 45 34 47 56 48 41 49 55 50 42 51 45 52 54 53
REMARK SMILES IDX 68 54 43 55 44 56 53 58 69 59 46 60 35 61 36 62 40 63 37 64
REMARK SMILES IDX 39 65 38 66 57 67 58 68 62 69 59 70 61 71 60 72 47 73 48 74
REMARK SMILES IDX 52 75 49 76 51 77 50 78
REMARK H PARENT 67 46 45 57
REMARK Flexibility Score: inf
ROOT
ATOM      1  C   UNL A   1      41.325  20.478  27.212  1.00  0.00     0.202 C 
ENDROOT
BRANCH   1   2
ATOM      2  C   UNL A   1      40.168  21.477  27.104  1.00  0.00     0.261 C 
BRANCH   2   3
ATOM      3  O   UNL A   1      39.716  21.763  25.762  1.00  0.00    -0.460 OA
BRANCH   3   4
ATOM      4  C   UNL A   1      38.555  21.126  25.412  1.00  0.00     0.341 C 
ATOM      5  O   UNL A   1      38.442  19.910  25.317  1.00  0.00    -0.246 OA
BRANCH   4   6
ATOM      6  C   UNL A   1      37.417  21.998  25.176  1.00  0.00     0.098 A 
ATOM      7  N   UNL A   1      35.577  23.028  24.522  1.00  0.00    -0.271 N 
ATOM      8  C   UNL A   1      36.265  21.843  24.420  1.00  0.00     0.124 A 
ATOM      9  N   UNL A   1      36.162  23.907  25.354  1.00  0.00    -0.181 NA
ATOM     10  C   UNL A   1      37.280  23.290  25.734  1.00  0.00     0.150 A 
BRANCH   7  11
ATOM     11  C   UNL A   1      34.313  23.397  23.904  1.00  0.00     0.154 C 
BRANCH  11  12
ATOM     12  C   UNL A   1      34.218  24.868  23.497  1.00  0.00     0.124 C 
BRANCH  12  13
ATOM     13  C   UNL A   1      32.780  25.328  23.487  1.00  0.00     0.224 C 
ATOM     14  C   UNL A   1      31.435  28.560  23.104  1.00  0.00     0.009 C 
ATOM     15  C   UNL A   1      30.853  28.050  24.433  1.00  0.00     0.006 C 
ATOM     16  C   UNL A   1      31.576  28.573  25.690  1.00  0.00     0.010 C 
ATOM     17  C   UNL A   1      30.882  26.517  24.482  1.00  0.00     0.122 C 
ATOM     18  C   UNL A   1      33.018  28.054  25.778  1.00  0.00     0.006 C 
ATOM     19  N   UNL A   1      32.271  26.047  24.551  1.00  0.00    -0.342 N 
ATOM     20  C   UNL A   1      33.014  26.519  25.725  1.00  0.00     0.122 C 
ATOM     21  C   UNL A   1      33.722  28.556  27.037  1.00  0.00     0.009 C 
ATOM     22  O   UNL A   1      32.098  25.075  22.488  1.00  0.00    -0.275 OA
ENDBRANCH  12  13
ENDBRANCH  11  12
ENDBRANCH   7  11
ENDBRANCH   4   6
ENDBRANCH   3   4
ENDBRANCH   2   3
ENDBRANCH   1   2
BRANCH   1  23
ATOM     23  O   UNL A   1      41.633  19.710  26.053  1.00  0.00    -0.374 OA
BRANCH  23  24
ATOM     24  C   UNL A   1      42.682  18.759  26.152  1.00  0.00     0.202 C 
BRANCH  24  25
ATOM     25  C   UNL A   1      43.776  18.847  25.106  1.00  0.00     0.261 C 
BRANCH  25  26
ATOM     26  O   UNL A   1      44.729  19.857  25.385  1.00  0.00    -0.460 OA
BRANCH  26  27
ATOM     27  C   UNL A   1      44.565  20.949  24.609  1.00  0.00     0.338 C 
ATOM     28  O   UNL A   1      44.893  21.083  23.445  1.00  0.00    -0.246 OA
BRANCH  27  29
ATOM     29  C   UNL A   1      44.124  22.047  25.471  1.00  0.00     0.060 A 
ATOM     30  C   UNL A   1      43.063  22.820  25.005  1.00  0.00     0.016 A 
ATOM     31  C   UNL A   1      44.890  22.430  26.587  1.00  0.00     0.016 A 
ATOM     32  C   UNL A   1      42.844  24.045  25.593  1.00  0.00     0.010 A 
ATOM     33  C   UNL A   1      44.687  23.663  27.158  1.00  0.00     0.010 A 
ATOM     34  C   UNL A   1      43.692  24.474  26.624  1.00  0.00    -0.014 A 
BRANCH  34  35
ATOM     35  C   UNL A   1      43.362  25.721  27.270  1.00  0.00     0.031 A 
ATOM     36  C   UNL A   1      44.347  26.781  26.964  1.00  0.00     0.074 A 
ATOM     37  C   UNL A   1      42.259  25.930  28.005  1.00  0.00     0.049 A 
ATOM     38  N   UNL A   1      45.234  27.269  27.764  1.00  0.00    -0.248 NA
ATOM     39  C   UNL A   1      44.489  27.204  25.561  1.00  0.00     0.031 C 
ATOM     40  C   UNL A   1      41.078  25.081  28.152  1.00  0.00     0.029 A 
ATOM     41  N   UNL A   1      41.939  27.037  28.721  1.00  0.00    -0.354 N 
ATOM     42  C   UNL A   1      45.928  28.209  27.016  1.00  0.00     0.074 A 
ATOM     43  C   UNL A   1      45.558  27.997  25.640  1.00  0.00     0.031 C 
ATOM     44  C   UNL A   1      40.085  25.803  28.729  1.00  0.00     0.029 A 
ATOM     45  C   UNL A   1      40.612  27.104  29.113  1.00  0.00     0.049 A 
ATOM     46  H   UNL A   1      42.596  27.735  28.947  1.00  0.00     0.167 HD
ATOM     47  C   UNL A   1      46.540  29.264  27.614  1.00  0.00     0.031 A 
ATOM     48  C   UNL A   1      39.999  28.183  29.656  1.00  0.00     0.031 A 
ATOM     49  C   UNL A   1      46.742  29.041  29.022  1.00  0.00     0.049 A 
ATOM     50  C   UNL A   1      41.052  29.080  30.191  1.00  0.00     0.074 A 
ATOM     51  C   UNL A   1      47.421  28.096  29.766  1.00  0.00     0.029 A 
ATOM     52  N   UNL A   1      45.851  29.631  29.888  1.00  0.00    -0.354 N 
ATOM     53  N   UNL A   1      41.778  28.789  31.230  1.00  0.00    -0.248 NA
ATOM     54  C   UNL A   1      41.600  30.103  29.315  1.00  0.00     0.031 C 
ATOM     55  C   UNL A   1      46.583  27.838  30.891  1.00  0.00     0.029 A 
ATOM     56  C   UNL A   1      45.477  28.685  30.810  1.00  0.00     0.049 A 
ATOM     57  H   UNL A   1      45.536  30.562  29.851  1.00  0.00     0.167 HD
ATOM     58  C   UNL A   1      43.051  29.236  30.907  1.00  0.00     0.074 A 
ATOM     59  C   UNL A   1      42.856  30.135  29.769  1.00  0.00     0.031 C 
ATOM     60  C   UNL A   1      44.161  28.616  31.406  1.00  0.00     0.031 A 
BRANCH  47  61
ATOM     61  C   UNL A   1      46.530  30.639  26.998  1.00  0.00    -0.014 A 
ATOM     62  C   UNL A   1      47.715  31.391  26.996  1.00  0.00     0.009 A 
ATOM     63  C   UNL A   1      45.340  31.326  26.677  1.00  0.00     0.009 A 
ATOM     64  C   UNL A   1      47.696  32.768  26.742  1.00  0.00     0.001 A 
ATOM     65  C   UNL A   1      45.323  32.688  26.381  1.00  0.00     0.001 A 
ATOM     66  C   UNL A   1      46.500  33.416  26.439  1.00  0.00     0.000 A 
ENDBRANCH  47  61
BRANCH  48  67
ATOM     67  C   UNL A   1      38.601  28.637  29.514  1.00  0.00    -0.014 A 
ATOM     68  C   UNL A   1      37.824  28.914  30.651  1.00  0.00     0.009 A 
ATOM     69  C   UNL A   1      38.127  29.084  28.269  1.00  0.00     0.009 A 
ATOM     70  C   UNL A   1      36.643  29.660  30.551  1.00  0.00     0.001 A 
ATOM     71  C   UNL A   1      36.945  29.826  28.168  1.00  0.00     0.001 A 
ATOM     72  C   UNL A   1      36.214  30.130  29.312  1.00  0.00     0.000 A 
ENDBRANCH  48  67
BRANCH  60  73
ATOM     73  C   UNL A   1      43.956  27.600  32.508  1.00  0.00    -0.014 A 
ATOM     74  C   UNL A   1      44.043  26.210  32.309  1.00  0.00     0.009 A 
ATOM     75  C   UNL A   1      43.767  28.067  33.817  1.00  0.00     0.009 A 
ATOM     76  C   UNL A   1      43.891  25.318  33.377  1.00  0.00     0.001 A 
ATOM     77  C   UNL A   1      43.640  27.179  34.887  1.00  0.00     0.001 A 
ATOM     78  C   UNL A   1      43.689  25.805  34.666  1.00  0.00     0.000 A 
ENDBRANCH  60  73
ENDBRANCH  34  35
ENDBRANCH  27  29
ENDBRANCH  26  27
ENDBRANCH  25  26
ENDBRANCH  24  25
ENDBRANCH  23  24
ENDBRANCH   1  23
TORSDOF 17
ENDMDL
