MODEL 1
REMARK VINA RESULT:      -9.4      0.000      0.000
REMARK SMILES CC[C@H](C)[C@H](NC(=O)N1CCCCC1)C(=O)OCCOCCOC(=O)c1ccc(-c2c3nc(c(-c4ccccc4)c4ccc([nH]4)c(-c4ccccc4)c4nc(c(-c5ccccc5)c5ccc2[nH]5)C=C4)C=C3)cc1
REMARK SMILES IDX 20 1 19 2 18 3 17 4 15 5 16 6 5 7 3 8 4 9 2 10 1 11 6 12
REMARK SMILES IDX 7 13 8 15 9 16 10 17 14 18 11 19 13 20 12 21 21 22 22 23
REMARK SMILES IDX 23 24 24 25 25 26 26 27 27 28 73 29 28 30 72 31 29 32 30 33
REMARK SMILES IDX 31 34 66 35 32 36 71 37 65 38 67 39 33 40 70 41 64 42 63 43
REMARK SMILES IDX 34 45 56 46 41 47 55 48 42 49 45 50 54 51 68 52 43 53 44 54
REMARK SMILES IDX 53 56 69 57 46 58 35 59 36 60 40 61 37 62 39 63 38 64 57 65
REMARK SMILES IDX 58 66 62 67 59 68 61 69 60 70 47 71 48 72 52 73 49 74 51 75
REMARK SMILES IDX 50 76
REMARK H PARENT 6 14 67 44 45 55
REMARK Flexibility Score: inf
ROOT
ATOM      1  O   UNL A   1      33.176  33.230  27.988  1.00  0.00    -0.374 OA
ENDROOT
BRANCH   1   2
ATOM      2  C   UNL A   1      33.762  31.987  27.604  1.00  0.00     0.202 C 
BRANCH   2   3
ATOM      3  C   UNL A   1      32.796  30.854  27.252  1.00  0.00     0.261 C 
BRANCH   3   4
ATOM      4  O   UNL A   1      32.919  30.477  25.872  1.00  0.00    -0.462 OA
BRANCH   4   5
ATOM      5  C   UNL A   1      33.160  29.154  25.650  1.00  0.00     0.329 C 
ATOM      6  O   UNL A   1      34.230  28.593  25.858  1.00  0.00    -0.250 OA
BRANCH   5   7
ATOM      7  C   UNL A   1      31.950  28.436  25.026  1.00  0.00     0.196 C 
BRANCH   7   8
ATOM      8  C   UNL A   1      32.098  26.923  25.358  1.00  0.00     0.019 C 
ATOM      9  C   UNL A   1      30.858  26.403  26.092  1.00  0.00     0.010 C 
BRANCH   8  10
ATOM     10  C   UNL A   1      32.423  26.075  24.110  1.00  0.00     0.002 C 
ATOM     11  C   UNL A   1      33.872  25.611  24.069  1.00  0.00     0.004 C 
ENDBRANCH   8  10
ENDBRANCH   7   8
BRANCH   7  12
ATOM     12  N   UNL A   1      31.791  28.685  23.585  1.00  0.00    -0.324 N 
ATOM     13  C   UNL A   1      30.644  28.877  22.884  1.00  0.00     0.318 C 
ATOM     14  H   UNL A   1      32.624  28.718  23.060  1.00  0.00     0.166 HD
ATOM     15  O   UNL A   1      30.591  28.456  21.731  1.00  0.00    -0.249 OA
ATOM     16  N   UNL A   1      29.591  29.498  23.504  1.00  0.00    -0.325 N 
ATOM     17  C   UNL A   1      28.232  29.205  23.058  1.00  0.00     0.121 C 
ATOM     18  C   UNL A   1      29.741  30.712  24.305  1.00  0.00     0.121 C 
ATOM     19  C   UNL A   1      27.605  30.386  22.322  1.00  0.00     0.022 C 
ATOM     20  C   UNL A   1      29.139  31.922  23.583  1.00  0.00     0.022 C 
ATOM     21  C   UNL A   1      27.695  31.659  23.161  1.00  0.00     0.004 C 
ENDBRANCH   7  12
ENDBRANCH   5   7
ENDBRANCH   4   5
ENDBRANCH   3   4
ENDBRANCH   2   3
ENDBRANCH   1   2
BRANCH   1  22
ATOM     22  C   UNL A   1      33.990  34.166  28.693  1.00  0.00     0.202 C 
BRANCH  22  23
ATOM     23  C   UNL A   1      33.289  35.363  29.350  1.00  0.00     0.261 C 
BRANCH  23  24
ATOM     24  O   UNL A   1      32.471  34.998  30.477  1.00  0.00    -0.460 OA
BRANCH  24  25
ATOM     25  C   UNL A   1      32.797  35.621  31.632  1.00  0.00     0.338 C 
ATOM     26  O   UNL A   1      32.190  36.536  32.181  1.00  0.00    -0.246 OA
BRANCH  25  27
ATOM     27  C   UNL A   1      33.932  34.950  32.287  1.00  0.00     0.060 A 
ATOM     28  C   UNL A   1      35.177  35.589  32.240  1.00  0.00     0.016 A 
ATOM     29  C   UNL A   1      33.811  33.669  32.831  1.00  0.00     0.016 A 
ATOM     30  C   UNL A   1      36.318  34.929  32.691  1.00  0.00     0.010 A 
ATOM     31  C   UNL A   1      34.960  33.005  33.274  1.00  0.00     0.010 A 
ATOM     32  C   UNL A   1      36.223  33.617  33.170  1.00  0.00    -0.014 A 
BRANCH  32  33
ATOM     33  C   UNL A   1      37.463  32.844  33.421  1.00  0.00     0.031 A 
ATOM     34  C   UNL A   1      38.225  33.073  34.697  1.00  0.00     0.074 A 
ATOM     35  C   UNL A   1      37.884  31.916  32.544  1.00  0.00     0.049 A 
ATOM     36  N   UNL A   1      39.327  32.505  35.117  1.00  0.00    -0.248 NA
ATOM     37  C   UNL A   1      37.669  34.072  35.625  1.00  0.00     0.031 C 
ATOM     38  C   UNL A   1      37.214  31.566  31.294  1.00  0.00     0.029 A 
ATOM     39  N   UNL A   1      38.986  31.098  32.578  1.00  0.00    -0.354 N 
ATOM     40  C   UNL A   1      39.596  33.077  36.355  1.00  0.00     0.074 A 
ATOM     41  C   UNL A   1      38.560  34.054  36.605  1.00  0.00     0.031 C 
ATOM     42  C   UNL A   1      37.923  30.608  30.673  1.00  0.00     0.029 A 
ATOM     43  C   UNL A   1      39.108  30.297  31.470  1.00  0.00     0.049 A 
ATOM     44  H   UNL A   1      39.627  31.087  33.326  1.00  0.00     0.167 HD
ATOM     45  C   UNL A   1      40.612  32.809  37.210  1.00  0.00     0.031 A 
ATOM     46  C   UNL A   1      40.076  29.424  31.129  1.00  0.00     0.031 A 
ATOM     47  C   UNL A   1      41.657  31.852  36.959  1.00  0.00     0.049 A 
ATOM     48  C   UNL A   1      41.237  29.202  32.060  1.00  0.00     0.074 A 
ATOM     49  C   UNL A   1      42.725  31.509  37.770  1.00  0.00     0.029 A 
ATOM     50  N   UNL A   1      41.768  31.095  35.805  1.00  0.00    -0.354 N 
ATOM     51  N   UNL A   1      41.468  29.732  33.236  1.00  0.00    -0.248 NA
ATOM     52  C   UNL A   1      42.268  28.253  31.615  1.00  0.00     0.031 C 
ATOM     53  C   UNL A   1      43.510  30.575  37.084  1.00  0.00     0.029 A 
ATOM     54  C   UNL A   1      42.901  30.302  35.869  1.00  0.00     0.049 A 
ATOM     55  H   UNL A   1      41.136  31.116  35.051  1.00  0.00     0.167 HD
ATOM     56  C   UNL A   1      42.655  29.166  33.682  1.00  0.00     0.074 A 
ATOM     57  C   UNL A   1      43.090  28.241  32.656  1.00  0.00     0.031 C 
ATOM     58  C   UNL A   1      43.323  29.389  34.839  1.00  0.00     0.031 A 
BRANCH  45  59
ATOM     59  C   UNL A   1      40.656  33.592  38.491  1.00  0.00    -0.014 A 
ATOM     60  C   UNL A   1      41.316  34.829  38.564  1.00  0.00     0.009 A 
ATOM     61  C   UNL A   1      40.007  33.099  39.633  1.00  0.00     0.009 A 
ATOM     62  C   UNL A   1      41.352  35.539  39.766  1.00  0.00     0.001 A 
ATOM     63  C   UNL A   1      40.025  33.823  40.826  1.00  0.00     0.001 A 
ATOM     64  C   UNL A   1      40.704  35.038  40.895  1.00  0.00     0.000 A 
ENDBRANCH  45  59
BRANCH  46  65
ATOM     65  C   UNL A   1      40.001  28.708  29.831  1.00  0.00    -0.014 A 
ATOM     66  C   UNL A   1      40.393  29.338  28.641  1.00  0.00     0.009 A 
ATOM     67  C   UNL A   1      39.523  27.389  29.777  1.00  0.00     0.009 A 
ATOM     68  C   UNL A   1      40.288  28.667  27.420  1.00  0.00     0.001 A 
ATOM     69  C   UNL A   1      39.443  26.713  28.559  1.00  0.00     0.001 A 
ATOM     70  C   UNL A   1      39.817  27.355  27.379  1.00  0.00     0.000 A 
ENDBRANCH  46  65
BRANCH  58  71
ATOM     71  C   UNL A   1      44.582  28.601  35.071  1.00  0.00    -0.014 A 
ATOM     72  C   UNL A   1      44.547  27.339  35.683  1.00  0.00     0.009 A 
ATOM     73  C   UNL A   1      45.813  29.111  34.630  1.00  0.00     0.009 A 
ATOM     74  C   UNL A   1      45.727  26.618  35.877  1.00  0.00     0.001 A 
ATOM     75  C   UNL A   1      46.987  28.377  34.803  1.00  0.00     0.001 A 
ATOM     76  C   UNL A   1      46.944  27.134  35.434  1.00  0.00     0.000 A 
ENDBRANCH  58  71
ENDBRANCH  32  33
ENDBRANCH  25  27
ENDBRANCH  24  25
ENDBRANCH  23  24
ENDBRANCH  22  23
ENDBRANCH   1  22
TORSDOF 17
ENDMDL
MODEL 2
REMARK VINA RESULT:      -9.4      5.511      9.940
REMARK SMILES CC[C@H](C)[C@H](NC(=O)N1CCCCC1)C(=O)OCCOCCOC(=O)c1ccc(-c2c3nc(c(-c4ccccc4)c4ccc([nH]4)c(-c4ccccc4)c4nc(c(-c5ccccc5)c5ccc2[nH]5)C=C4)C=C3)cc1
REMARK SMILES IDX 20 1 19 2 18 3 17 4 15 5 16 6 5 7 3 8 4 9 2 10 1 11 6 12
REMARK SMILES IDX 7 13 8 15 9 16 10 17 14 18 11 19 13 20 12 21 21 22 22 23
REMARK SMILES IDX 23 24 24 25 25 26 26 27 27 28 73 29 28 30 72 31 29 32 30 33
REMARK SMILES IDX 31 34 66 35 32 36 71 37 65 38 67 39 33 40 70 41 64 42 63 43
REMARK SMILES IDX 34 45 56 46 41 47 55 48 42 49 45 50 54 51 68 52 43 53 44 54
REMARK SMILES IDX 53 56 69 57 46 58 35 59 36 60 40 61 37 62 39 63 38 64 57 65
REMARK SMILES IDX 58 66 62 67 59 68 61 69 60 70 47 71 48 72 52 73 49 74 51 75
REMARK SMILES IDX 50 76
REMARK H PARENT 6 14 67 44 45 55
REMARK Flexibility Score: inf
ROOT
ATOM      1  O   UNL A   1      37.457  22.377  25.118  1.00  0.00    -0.374 OA
ENDROOT
BRANCH   1   2
ATOM      2  C   UNL A   1      36.356  22.964  25.812  1.00  0.00     0.202 C 
BRANCH   2   3
ATOM      3  C   UNL A   1      35.582  24.054  25.070  1.00  0.00     0.261 C 
BRANCH   3   4
ATOM      4  O   UNL A   1      35.063  23.565  23.824  1.00  0.00    -0.462 OA
BRANCH   4   5
ATOM      5  C   UNL A   1      34.039  24.292  23.295  1.00  0.00     0.329 C 
ATOM      6  O   UNL A   1      34.099  24.928  22.248  1.00  0.00    -0.250 OA
BRANCH   5   7
ATOM      7  C   UNL A   1      32.796  24.300  24.203  1.00  0.00     0.196 C 
BRANCH   7   8
ATOM      8  C   UNL A   1      32.117  22.908  24.057  1.00  0.00     0.019 C 
ATOM      9  C   UNL A   1      32.345  22.335  22.655  1.00  0.00     0.010 C 
BRANCH   8  10
ATOM     10  C   UNL A   1      32.555  21.920  25.159  1.00  0.00     0.002 C 
ATOM     11  C   UNL A   1      32.682  20.489  24.657  1.00  0.00     0.004 C 
ENDBRANCH   8  10
ENDBRANCH   7   8
BRANCH   7  12
ATOM     12  N   UNL A   1      31.871  25.412  23.932  1.00  0.00    -0.324 N 
ATOM     13  C   UNL A   1      31.392  26.339  24.800  1.00  0.00     0.318 C 
ATOM     14  H   UNL A   1      31.559  25.494  23.002  1.00  0.00     0.166 HD
ATOM     15  O   UNL A   1      30.248  26.755  24.632  1.00  0.00    -0.249 OA
ATOM     16  N   UNL A   1      32.191  26.743  25.838  1.00  0.00    -0.325 N 
ATOM     17  C   UNL A   1      31.567  27.230  27.065  1.00  0.00     0.121 C 
ATOM     18  C   UNL A   1      33.601  27.089  25.670  1.00  0.00     0.121 C 
ATOM     19  C   UNL A   1      31.752  28.735  27.242  1.00  0.00     0.022 C 
ATOM     20  C   UNL A   1      33.817  28.598  25.821  1.00  0.00     0.022 C 
ATOM     21  C   UNL A   1      33.225  29.119  27.130  1.00  0.00     0.004 C 
ENDBRANCH   7  12
ENDBRANCH   5   7
ENDBRANCH   4   5
ENDBRANCH   3   4
ENDBRANCH   2   3
ENDBRANCH   1   2
BRANCH   1  22
ATOM     22  C   UNL A   1      37.302  21.050  24.616  1.00  0.00     0.202 C 
BRANCH  22  23
ATOM     23  C   UNL A   1      38.368  20.015  25.003  1.00  0.00     0.261 C 
BRANCH  23  24
ATOM     24  O   UNL A   1      39.073  20.346  26.213  1.00  0.00    -0.460 OA
BRANCH  24  25
ATOM     25  C   UNL A   1      40.387  20.027  26.203  1.00  0.00     0.338 C 
ATOM     26  O   UNL A   1      40.901  19.001  25.767  1.00  0.00    -0.246 OA
BRANCH  25  27
ATOM     27  C   UNL A   1      41.205  21.166  26.651  1.00  0.00     0.060 A 
ATOM     28  C   UNL A   1      41.210  21.462  28.020  1.00  0.00     0.016 A 
ATOM     29  C   UNL A   1      41.859  22.001  25.742  1.00  0.00     0.016 A 
ATOM     30  C   UNL A   1      41.826  22.623  28.482  1.00  0.00     0.010 A 
ATOM     31  C   UNL A   1      42.468  23.172  26.207  1.00  0.00     0.010 A 
ATOM     32  C   UNL A   1      42.421  23.507  27.573  1.00  0.00    -0.014 A 
BRANCH  32  33
ATOM     33  C   UNL A   1      42.859  24.844  28.042  1.00  0.00     0.031 A 
ATOM     34  C   UNL A   1      41.828  25.911  28.282  1.00  0.00     0.074 A 
ATOM     35  C   UNL A   1      44.156  25.093  28.292  1.00  0.00     0.049 A 
ATOM     36  N   UNL A   1      41.991  27.143  28.694  1.00  0.00    -0.248 NA
ATOM     37  C   UNL A   1      40.426  25.540  28.029  1.00  0.00     0.031 C 
ATOM     38  C   UNL A   1      45.248  24.134  28.142  1.00  0.00     0.029 A 
ATOM     39  N   UNL A   1      44.772  26.241  28.727  1.00  0.00    -0.354 N 
ATOM     40  C   UNL A   1      40.716  27.693  28.748  1.00  0.00     0.074 A 
ATOM     41  C   UNL A   1      39.794  26.672  28.302  1.00  0.00     0.031 C 
ATOM     42  C   UNL A   1      46.404  24.734  28.474  1.00  0.00     0.029 A 
ATOM     43  C   UNL A   1      46.134  26.125  28.832  1.00  0.00     0.049 A 
ATOM     44  H   UNL A   1      44.281  27.068  28.942  1.00  0.00     0.167 HD
ATOM     45  C   UNL A   1      40.344  28.935  29.141  1.00  0.00     0.031 A 
ATOM     46  C   UNL A   1      47.063  27.044  29.164  1.00  0.00     0.031 A 
ATOM     47  C   UNL A   1      41.258  29.962  29.568  1.00  0.00     0.049 A 
ATOM     48  C   UNL A   1      46.632  28.441  29.519  1.00  0.00     0.074 A 
ATOM     49  C   UNL A   1      40.973  31.249  29.989  1.00  0.00     0.029 A 
ATOM     50  N   UNL A   1      42.634  29.818  29.617  1.00  0.00    -0.354 N 
ATOM     51  N   UNL A   1      45.423  28.941  29.588  1.00  0.00    -0.248 NA
ATOM     52  C   UNL A   1      47.699  29.398  29.848  1.00  0.00     0.031 C 
ATOM     53  C   UNL A   1      42.184  31.900  30.249  1.00  0.00     0.029 A 
ATOM     54  C   UNL A   1      43.217  31.002  30.037  1.00  0.00     0.049 A 
ATOM     55  H   UNL A   1      43.126  28.997  29.387  1.00  0.00     0.167 HD
ATOM     56  C   UNL A   1      45.580  30.261  29.991  1.00  0.00     0.074 A 
ATOM     57  C   UNL A   1      47.001  30.481  30.163  1.00  0.00     0.031 C 
ATOM     58  C   UNL A   1      44.632  31.206  30.201  1.00  0.00     0.031 A 
BRANCH  45  59
ATOM     59  C   UNL A   1      38.879  29.260  29.094  1.00  0.00    -0.014 A 
ATOM     60  C   UNL A   1      38.275  29.728  27.915  1.00  0.00     0.009 A 
ATOM     61  C   UNL A   1      38.086  29.072  30.236  1.00  0.00     0.009 A 
ATOM     62  C   UNL A   1      36.912  30.032  27.893  1.00  0.00     0.001 A 
ATOM     63  C   UNL A   1      36.719  29.354  30.203  1.00  0.00     0.001 A 
ATOM     64  C   UNL A   1      36.135  29.841  29.035  1.00  0.00     0.000 A 
ENDBRANCH  45  59
BRANCH  46  65
ATOM     65  C   UNL A   1      48.502  26.677  29.154  1.00  0.00    -0.014 A 
ATOM     66  C   UNL A   1      49.120  26.168  30.306  1.00  0.00     0.009 A 
ATOM     67  C   UNL A   1      49.268  26.848  27.991  1.00  0.00     0.009 A 
ATOM     68  C   UNL A   1      50.481  25.858  30.297  1.00  0.00     0.001 A 
ATOM     69  C   UNL A   1      50.623  26.513  27.978  1.00  0.00     0.001 A 
ATOM     70  C   UNL A   1      51.231  26.026  29.133  1.00  0.00     0.000 A 
ENDBRANCH  46  65
BRANCH  58  71
ATOM     71  C   UNL A   1      45.098  32.556  30.669  1.00  0.00    -0.014 A 
ATOM     72  C   UNL A   1      45.259  32.838  32.034  1.00  0.00     0.009 A 
ATOM     73  C   UNL A   1      45.421  33.545  29.726  1.00  0.00     0.009 A 
ATOM     74  C   UNL A   1      45.704  34.095  32.446  1.00  0.00     0.001 A 
ATOM     75  C   UNL A   1      45.891  34.792  30.140  1.00  0.00     0.001 A 
ATOM     76  C   UNL A   1      46.024  35.069  31.500  1.00  0.00     0.000 A 
ENDBRANCH  58  71
ENDBRANCH  32  33
ENDBRANCH  25  27
ENDBRANCH  24  25
ENDBRANCH  23  24
ENDBRANCH  22  23
ENDBRANCH   1  22
TORSDOF 17
ENDMDL
MODEL 3
REMARK VINA RESULT:      -9.4      2.533      7.296
REMARK SMILES CC[C@H](C)[C@H](NC(=O)N1CCCCC1)C(=O)OCCOCCOC(=O)c1ccc(-c2c3nc(c(-c4ccccc4)c4ccc([nH]4)c(-c4ccccc4)c4nc(c(-c5ccccc5)c5ccc2[nH]5)C=C4)C=C3)cc1
REMARK SMILES IDX 20 1 19 2 18 3 17 4 15 5 16 6 5 7 3 8 4 9 2 10 1 11 6 12
REMARK SMILES IDX 7 13 8 15 9 16 10 17 14 18 11 19 13 20 12 21 21 22 22 23
REMARK SMILES IDX 23 24 24 25 25 26 26 27 27 28 73 29 28 30 72 31 29 32 30 33
REMARK SMILES IDX 31 34 66 35 32 36 71 37 65 38 67 39 33 40 70 41 64 42 63 43
REMARK SMILES IDX 34 45 56 46 41 47 55 48 42 49 45 50 54 51 68 52 43 53 44 54
REMARK SMILES IDX 53 56 69 57 46 58 35 59 36 60 40 61 37 62 39 63 38 64 57 65
REMARK SMILES IDX 58 66 62 67 59 68 61 69 60 70 47 71 48 72 52 73 49 74 51 75
REMARK SMILES IDX 50 76
REMARK H PARENT 6 14 67 44 45 55
REMARK Flexibility Score: inf
ROOT
ATOM      1  O   UNL A   1      31.404  31.190  26.482  1.00  0.00    -0.374 OA
ENDROOT
BRANCH   1   2
ATOM      2  C   UNL A   1      31.815  30.079  25.687  1.00  0.00     0.202 C 
BRANCH   2   3
ATOM      3  C   UNL A   1      33.294  29.696  25.759  1.00  0.00     0.261 C 
BRANCH   3   4
ATOM      4  O   UNL A   1      33.467  28.274  25.660  1.00  0.00    -0.462 OA
BRANCH   4   5
ATOM      5  C   UNL A   1      33.577  27.789  24.392  1.00  0.00     0.329 C 
ATOM      6  O   UNL A   1      33.926  28.447  23.418  1.00  0.00    -0.250 OA
BRANCH   5   7
ATOM      7  C   UNL A   1      33.135  26.318  24.286  1.00  0.00     0.196 C 
BRANCH   7   8
ATOM      8  C   UNL A   1      31.852  26.290  23.406  1.00  0.00     0.019 C 
ATOM      9  C   UNL A   1      31.734  24.958  22.658  1.00  0.00     0.010 C 
BRANCH   8  10
ATOM     10  C   UNL A   1      30.576  26.609  24.214  1.00  0.00     0.002 C 
ATOM     11  C   UNL A   1      29.744  27.722  23.593  1.00  0.00     0.004 C 
ENDBRANCH   8  10
ENDBRANCH   7   8
BRANCH   7  12
ATOM     12  N   UNL A   1      32.940  25.663  25.590  1.00  0.00    -0.324 N 
ATOM     13  C   UNL A   1      33.104  24.354  25.907  1.00  0.00     0.318 C 
ATOM     14  H   UNL A   1      32.654  26.250  26.326  1.00  0.00     0.166 HD
ATOM     15  O   UNL A   1      32.357  23.862  26.750  1.00  0.00    -0.249 OA
ATOM     16  N   UNL A   1      34.069  23.634  25.250  1.00  0.00    -0.325 N 
ATOM     17  C   UNL A   1      33.900  22.191  25.103  1.00  0.00     0.121 C 
ATOM     18  C   UNL A   1      35.425  24.133  25.033  1.00  0.00     0.121 C 
ATOM     19  C   UNL A   1      34.881  21.409  25.973  1.00  0.00     0.022 C 
ATOM     20  C   UNL A   1      36.433  23.381  25.908  1.00  0.00     0.022 C 
ATOM     21  C   UNL A   1      36.315  21.869  25.723  1.00  0.00     0.004 C 
ENDBRANCH   7  12
ENDBRANCH   5   7
ENDBRANCH   4   5
ENDBRANCH   3   4
ENDBRANCH   2   3
ENDBRANCH   1   2
BRANCH   1  22
ATOM     22  C   UNL A   1      32.411  31.939  27.160  1.00  0.00     0.202 C 
BRANCH  22  23
ATOM     23  C   UNL A   1      32.270  33.467  27.177  1.00  0.00     0.261 C 
BRANCH  23  24
ATOM     24  O   UNL A   1      32.293  34.030  28.501  1.00  0.00    -0.460 OA
BRANCH  24  25
ATOM     25  C   UNL A   1      33.373  34.800  28.766  1.00  0.00     0.338 C 
ATOM     26  O   UNL A   1      33.396  36.014  28.947  1.00  0.00    -0.246 OA
BRANCH  25  27
ATOM     27  C   UNL A   1      34.568  33.967  28.983  1.00  0.00     0.060 A 
ATOM     28  C   UNL A   1      34.560  33.095  30.079  1.00  0.00     0.016 A 
ATOM     29  C   UNL A   1      35.717  34.119  28.204  1.00  0.00     0.016 A 
ATOM     30  C   UNL A   1      35.719  32.409  30.434  1.00  0.00     0.010 A 
ATOM     31  C   UNL A   1      36.884  33.435  28.569  1.00  0.00     0.010 A 
ATOM     32  C   UNL A   1      36.900  32.608  29.707  1.00  0.00    -0.014 A 
BRANCH  32  33
ATOM     33  C   UNL A   1      38.175  32.064  30.231  1.00  0.00     0.031 A 
ATOM     34  C   UNL A   1      38.683  30.749  29.706  1.00  0.00     0.074 A 
ATOM     35  C   UNL A   1      38.896  32.751  31.133  1.00  0.00     0.049 A 
ATOM     36  N   UNL A   1      39.772  30.096  30.022  1.00  0.00    -0.248 NA
ATOM     37  C   UNL A   1      37.856  30.086  28.685  1.00  0.00     0.031 C 
ATOM     38  C   UNL A   1      38.539  34.055  31.688  1.00  0.00     0.029 A 
ATOM     39  N   UNL A   1      40.088  32.440  31.741  1.00  0.00    -0.354 N 
ATOM     40  C   UNL A   1      39.761  28.946  29.242  1.00  0.00     0.074 A 
ATOM     41  C   UNL A   1      38.545  28.977  28.459  1.00  0.00     0.031 C 
ATOM     42  C   UNL A   1      39.488  34.431  32.563  1.00  0.00     0.029 A 
ATOM     43  C   UNL A   1      40.503  33.383  32.647  1.00  0.00     0.049 A 
ATOM     44  H   UNL A   1      40.594  31.618  31.545  1.00  0.00     0.167 HD
ATOM     45  C   UNL A   1      40.682  27.955  29.178  1.00  0.00     0.031 A 
ATOM     46  C   UNL A   1      41.574  33.392  33.465  1.00  0.00     0.031 A 
ATOM     47  C   UNL A   1      41.884  27.909  29.969  1.00  0.00     0.049 A 
ATOM     48  C   UNL A   1      42.542  32.241  33.434  1.00  0.00     0.074 A 
ATOM     49  C   UNL A   1      42.880  26.947  29.969  1.00  0.00     0.029 A 
ATOM     50  N   UNL A   1      42.244  28.861  30.907  1.00  0.00    -0.354 N 
ATOM     51  N   UNL A   1      42.531  31.171  32.676  1.00  0.00    -0.248 NA
ATOM     52  C   UNL A   1      43.675  32.304  34.369  1.00  0.00     0.031 C 
ATOM     53  C   UNL A   1      43.822  27.296  30.942  1.00  0.00     0.029 A 
ATOM     54  C   UNL A   1      43.436  28.499  31.512  1.00  0.00     0.049 A 
ATOM     55  H   UNL A   1      41.731  29.675  31.114  1.00  0.00     0.167 HD
ATOM     56  C   UNL A   1      43.665  30.447  33.025  1.00  0.00     0.074 A 
ATOM     57  C   UNL A   1      44.347  31.205  34.053  1.00  0.00     0.031 C 
ATOM     58  C   UNL A   1      44.102  29.262  32.536  1.00  0.00     0.031 A 
BRANCH  45  59
ATOM     59  C   UNL A   1      40.404  26.819  28.237  1.00  0.00    -0.014 A 
ATOM     60  C   UNL A   1      39.615  25.726  28.630  1.00  0.00     0.009 A 
ATOM     61  C   UNL A   1      40.918  26.853  26.931  1.00  0.00     0.009 A 
ATOM     62  C   UNL A   1      39.374  24.675  27.742  1.00  0.00     0.001 A 
ATOM     63  C   UNL A   1      40.655  25.812  26.040  1.00  0.00     0.001 A 
ATOM     64  C   UNL A   1      39.890  24.721  26.447  1.00  0.00     0.000 A 
ENDBRANCH  45  59
BRANCH  46  65
ATOM     65  C   UNL A   1      41.776  34.523  34.405  1.00  0.00    -0.014 A 
ATOM     66  C   UNL A   1      41.240  34.484  35.700  1.00  0.00     0.009 A 
ATOM     67  C   UNL A   1      42.499  35.657  34.002  1.00  0.00     0.009 A 
ATOM     68  C   UNL A   1      41.408  35.567  36.566  1.00  0.00     0.001 A 
ATOM     69  C   UNL A   1      42.686  36.727  34.879  1.00  0.00     0.001 A 
ATOM     70  C   UNL A   1      42.133  36.685  36.157  1.00  0.00     0.000 A 
ENDBRANCH  46  65
BRANCH  58  71
ATOM     71  C   UNL A   1      45.393  28.724  33.085  1.00  0.00    -0.014 A 
ATOM     72  C   UNL A   1      45.410  27.865  34.194  1.00  0.00     0.009 A 
ATOM     73  C   UNL A   1      46.605  29.050  32.456  1.00  0.00     0.009 A 
ATOM     74  C   UNL A   1      46.620  27.367  34.681  1.00  0.00     0.001 A 
ATOM     75  C   UNL A   1      47.811  28.530  32.929  1.00  0.00     0.001 A 
ATOM     76  C   UNL A   1      47.818  27.696  34.047  1.00  0.00     0.000 A 
ENDBRANCH  58  71
ENDBRANCH  32  33
ENDBRANCH  25  27
ENDBRANCH  24  25
ENDBRANCH  23  24
ENDBRANCH  22  23
ENDBRANCH   1  22
TORSDOF 17
ENDMDL
