MODEL 1
REMARK VINA RESULT:     -11.2      0.000      0.000
REMARK SMILES CCCCCCNC(=O)Nc1cccc(-c2ccc([C@@H](C)C(=O)OCCOCCOC(=O)c3ccc(-c4c5nc(c(-c6ccccc6)c6ccc([nH]6)c(-c6ccccc6)c6nc(c(-c7ccccc7)c7ccc4[nH]7)C=C6)C=C5)cc3)cc2F)c1
REMARK SMILES IDX 24 1 22 2 23 3 20 4 21 5 19 6 16 7 17 8 82 9 18 10 81 11
REMARK SMILES IDX 83 12 15 13 11 14 12 15 84 16 13 17 14 18 10 19 7 20 8 21
REMARK SMILES IDX 9 23 6 25 5 26 4 27 3 28 2 29 1 30 25 31 26 32 27 33 28 34
REMARK SMILES IDX 29 35 30 36 31 37 32 38 33 39 34 40 80 41 35 42 79 43 36 44
REMARK SMILES IDX 37 45 38 46 73 47 39 48 78 49 72 50 74 51 40 52 77 53 71 54
REMARK SMILES IDX 70 55 41 57 63 58 48 59 62 60 49 61 52 62 61 63 75 64 50 65
REMARK SMILES IDX 51 66 60 68 76 69 53 70 42 71 43 72 47 73 44 74 46 75 45 76
REMARK SMILES IDX 64 77 65 78 69 79 66 80 68 81 67 82 54 83 55 84 59 85 56 86
REMARK SMILES IDX 58 87 57 88
REMARK H PARENT 7 22 10 24 74 56 52 67
REMARK Flexibility Score: inf
ROOT
ATOM      1  O   UNL A   1      43.361  19.715  25.062  1.00  0.00    -0.463 OA
ENDROOT
BRANCH   1   2
ATOM      2  C   UNL A   1      42.498  19.039  25.871  1.00  0.00     0.313 C 
ATOM      3  O   UNL A   1      42.346  17.822  25.856  1.00  0.00    -0.252 OA
BRANCH   2   4
ATOM      4  C   UNL A   1      41.625  19.934  26.732  1.00  0.00     0.126 C 
ATOM      5  C   UNL A   1      41.295  19.198  28.031  1.00  0.00     0.025 C 
BRANCH   4   6
ATOM      6  C   UNL A   1      40.396  20.580  26.103  1.00  0.00    -0.031 A 
ATOM      7  C   UNL A   1      37.908  21.778  25.320  1.00  0.00     0.018 A 
ATOM      8  C   UNL A   1      38.209  20.432  25.035  1.00  0.00     0.012 A 
ATOM      9  C   UNL A   1      38.912  22.515  25.962  1.00  0.00     0.131 A 
ATOM     10  C   UNL A   1      39.435  19.848  25.397  1.00  0.00     0.005 A 
ATOM     11  C   UNL A   1      40.128  21.936  26.347  1.00  0.00     0.044 A 
ATOM     12  F   UNL A   1      38.710  23.803  26.277  1.00  0.00    -0.206 F 
BRANCH   7  13
ATOM     13  C   UNL A   1      36.594  22.370  24.970  1.00  0.00    -0.013 A 
ATOM     14  C   UNL A   1      34.361  23.167  25.600  1.00  0.00     0.043 A 
ATOM     15  C   UNL A   1      34.073  23.482  24.276  1.00  0.00     0.026 A 
ATOM     16  C   UNL A   1      35.593  22.578  25.937  1.00  0.00     0.035 A 
ATOM     17  C   UNL A   1      35.062  23.320  23.309  1.00  0.00     0.003 A 
ATOM     18  C   UNL A   1      36.307  22.780  23.654  1.00  0.00     0.009 A 
BRANCH  14  19
ATOM     19  N   UNL A   1      33.429  23.532  26.584  1.00  0.00    -0.308 N 
ATOM     20  N   UNL A   1      31.942  21.713  26.499  1.00  0.00    -0.338 N 
ATOM     21  C   UNL A   1      32.177  23.028  26.772  1.00  0.00     0.319 C 
ATOM     22  H   UNL A   1      31.002  21.442  26.396  1.00  0.00     0.165 HD
ATOM     23  O   UNL A   1      31.297  23.698  27.308  1.00  0.00    -0.249 OA
ATOM     24  H   UNL A   1      33.713  24.235  27.212  1.00  0.00     0.171 HD
BRANCH  20  25
ATOM     25  C   UNL A   1      32.945  20.674  26.346  1.00  0.00     0.117 C 
BRANCH  25  26
ATOM     26  C   UNL A   1      32.589  19.601  25.332  1.00  0.00     0.021 C 
BRANCH  26  27
ATOM     27  C   UNL A   1      33.764  19.107  24.493  1.00  0.00     0.002 C 
BRANCH  27  28
ATOM     28  C   UNL A   1      33.463  17.987  23.497  1.00  0.00    -0.000 C 
BRANCH  28  29
ATOM     29  C   UNL A   1      34.117  16.611  23.696  1.00  0.00    -0.003 C 
ATOM     30  C   UNL A   1      34.774  16.274  25.024  1.00  0.00     0.004 C 
ENDBRANCH  28  29
ENDBRANCH  27  28
ENDBRANCH  26  27
ENDBRANCH  25  26
ENDBRANCH  20  25
ENDBRANCH  14  19
ENDBRANCH   7  13
ENDBRANCH   4   6
ENDBRANCH   2   4
ENDBRANCH   1   2
BRANCH   1  31
ATOM     31  C   UNL A   1      44.688  19.162  25.021  1.00  0.00     0.261 C 
BRANCH  31  32
ATOM     32  C   UNL A   1      45.696  19.996  24.225  1.00  0.00     0.202 C 
BRANCH  32  33
ATOM     33  O   UNL A   1      46.523  20.895  24.953  1.00  0.00    -0.374 OA
BRANCH  33  34
ATOM     34  C   UNL A   1      45.937  22.126  25.371  1.00  0.00     0.202 C 
BRANCH  34  35
ATOM     35  C   UNL A   1      45.914  23.262  24.343  1.00  0.00     0.261 C 
BRANCH  35  36
ATOM     36  O   UNL A   1      44.939  24.272  24.652  1.00  0.00    -0.460 OA
BRANCH  36  37
ATOM     37  C   UNL A   1      43.693  23.846  24.970  1.00  0.00     0.338 C 
ATOM     38  O   UNL A   1      43.042  22.954  24.448  1.00  0.00    -0.246 OA
BRANCH  37  39
ATOM     39  C   UNL A   1      43.233  24.643  26.119  1.00  0.00     0.060 A 
ATOM     40  C   UNL A   1      42.675  24.061  27.258  1.00  0.00     0.016 A 
ATOM     41  C   UNL A   1      43.376  26.020  26.052  1.00  0.00     0.016 A 
ATOM     42  C   UNL A   1      42.260  24.881  28.322  1.00  0.00     0.010 A 
ATOM     43  C   UNL A   1      43.085  26.811  27.150  1.00  0.00     0.010 A 
ATOM     44  C   UNL A   1      42.463  26.271  28.278  1.00  0.00    -0.014 A 
BRANCH  44  45
ATOM     45  C   UNL A   1      41.998  27.231  29.319  1.00  0.00     0.031 A 
ATOM     46  C   UNL A   1      42.712  27.286  30.659  1.00  0.00     0.074 A 
ATOM     47  C   UNL A   1      40.853  27.920  29.157  1.00  0.00     0.049 A 
ATOM     48  N   UNL A   1      42.345  27.864  31.776  1.00  0.00    -0.248 NA
ATOM     49  C   UNL A   1      43.955  26.501  30.783  1.00  0.00     0.031 C 
ATOM     50  C   UNL A   1      39.982  27.872  27.983  1.00  0.00     0.029 A 
ATOM     51  N   UNL A   1      40.209  28.780  30.013  1.00  0.00    -0.354 N 
ATOM     52  C   UNL A   1      43.249  27.426  32.740  1.00  0.00     0.074 A 
ATOM     53  C   UNL A   1      44.127  26.478  32.095  1.00  0.00     0.031 C 
ATOM     54  C   UNL A   1      38.936  28.692  28.177  1.00  0.00     0.029 A 
ATOM     55  C   UNL A   1      39.045  29.298  29.500  1.00  0.00     0.049 A 
ATOM     56  H   UNL A   1      40.549  29.004  30.909  1.00  0.00     0.167 HD
ATOM     57  C   UNL A   1      43.375  27.808  34.035  1.00  0.00     0.031 A 
ATOM     58  C   UNL A   1      38.169  30.171  30.032  1.00  0.00     0.031 A 
ATOM     59  C   UNL A   1      42.587  28.853  34.631  1.00  0.00     0.049 A 
ATOM     60  C   UNL A   1      38.427  30.730  31.404  1.00  0.00     0.074 A 
ATOM     61  C   UNL A   1      42.747  29.458  35.864  1.00  0.00     0.029 A 
ATOM     62  N   UNL A   1      41.507  29.468  34.017  1.00  0.00    -0.354 N 
ATOM     63  N   UNL A   1      39.358  30.402  32.266  1.00  0.00    -0.248 NA
ATOM     64  C   UNL A   1      37.532  31.803  31.861  1.00  0.00     0.031 C 
ATOM     65  C   UNL A   1      41.743  30.421  36.010  1.00  0.00     0.029 A 
ATOM     66  C   UNL A   1      40.990  30.446  34.847  1.00  0.00     0.049 A 
ATOM     67  H   UNL A   1      41.161  29.242  33.123  1.00  0.00     0.167 HD
ATOM     68  C   UNL A   1      39.181  31.247  33.354  1.00  0.00     0.074 A 
ATOM     69  C   UNL A   1      38.063  32.111  33.036  1.00  0.00     0.031 C 
ATOM     70  C   UNL A   1      39.883  31.303  34.513  1.00  0.00     0.031 A 
BRANCH  57  71
ATOM     71  C   UNL A   1      44.426  27.131  34.879  1.00  0.00    -0.014 A 
ATOM     72  C   UNL A   1      45.606  27.792  35.264  1.00  0.00     0.009 A 
ATOM     73  C   UNL A   1      44.220  25.817  35.329  1.00  0.00     0.009 A 
ATOM     74  C   UNL A   1      46.581  27.134  36.016  1.00  0.00     0.001 A 
ATOM     75  C   UNL A   1      45.176  25.175  36.120  1.00  0.00     0.001 A 
ATOM     76  C   UNL A   1      46.363  25.828  36.449  1.00  0.00     0.000 A 
ENDBRANCH  57  71
BRANCH  58  77
ATOM     77  C   UNL A   1      37.012  30.631  29.223  1.00  0.00    -0.014 A 
ATOM     78  C   UNL A   1      36.963  31.955  28.760  1.00  0.00     0.009 A 
ATOM     79  C   UNL A   1      35.979  29.749  28.872  1.00  0.00     0.009 A 
ATOM     80  C   UNL A   1      35.892  32.393  27.979  1.00  0.00     0.001 A 
ATOM     81  C   UNL A   1      34.922  30.184  28.069  1.00  0.00     0.001 A 
ATOM     82  C   UNL A   1      34.876  31.506  27.629  1.00  0.00     0.000 A 
ENDBRANCH  58  77
BRANCH  70  83
ATOM     83  C   UNL A   1      39.495  32.358  35.508  1.00  0.00    -0.014 A 
ATOM     84  C   UNL A   1      40.048  33.646  35.458  1.00  0.00     0.009 A 
ATOM     85  C   UNL A   1      38.518  32.071  36.473  1.00  0.00     0.009 A 
ATOM     86  C   UNL A   1      39.651  34.618  36.378  1.00  0.00     0.001 A 
ATOM     87  C   UNL A   1      38.102  33.053  37.373  1.00  0.00     0.001 A 
ATOM     88  C   UNL A   1      38.675  34.323  37.330  1.00  0.00     0.000 A 
ENDBRANCH  70  83
ENDBRANCH  44  45
ENDBRANCH  37  39
ENDBRANCH  36  37
ENDBRANCH  35  36
ENDBRANCH  34  35
ENDBRANCH  33  34
ENDBRANCH  32  33
ENDBRANCH  31  32
ENDBRANCH   1  31
TORSDOF 22
ENDMDL
MODEL 2
REMARK VINA RESULT:     -10.9      1.416      3.043
REMARK SMILES CCCCCCNC(=O)Nc1cccc(-c2ccc([C@@H](C)C(=O)OCCOCCOC(=O)c3ccc(-c4c5nc(c(-c6ccccc6)c6ccc([nH]6)c(-c6ccccc6)c6nc(c(-c7ccccc7)c7ccc4[nH]7)C=C6)C=C5)cc3)cc2F)c1
REMARK SMILES IDX 24 1 22 2 23 3 20 4 21 5 19 6 16 7 17 8 82 9 18 10 81 11
REMARK SMILES IDX 83 12 15 13 11 14 12 15 84 16 13 17 14 18 10 19 7 20 8 21
REMARK SMILES IDX 9 23 6 25 5 26 4 27 3 28 2 29 1 30 25 31 26 32 27 33 28 34
REMARK SMILES IDX 29 35 30 36 31 37 32 38 33 39 34 40 80 41 35 42 79 43 36 44
REMARK SMILES IDX 37 45 38 46 73 47 39 48 78 49 72 50 74 51 40 52 77 53 71 54
REMARK SMILES IDX 70 55 41 57 63 58 48 59 62 60 49 61 52 62 61 63 75 64 50 65
REMARK SMILES IDX 51 66 60 68 76 69 53 70 42 71 43 72 47 73 44 74 46 75 45 76
REMARK SMILES IDX 64 77 65 78 69 79 66 80 68 81 67 82 54 83 55 84 59 85 56 86
REMARK SMILES IDX 58 87 57 88
REMARK H PARENT 7 22 10 24 74 56 52 67
REMARK Flexibility Score: inf
ROOT
ATOM      1  O   UNL A   1      43.036  19.852  25.026  1.00  0.00    -0.463 OA
ENDROOT
BRANCH   1   2
ATOM      2  C   UNL A   1      42.178  19.506  26.026  1.00  0.00     0.313 C 
ATOM      3  O   UNL A   1      42.038  18.364  26.453  1.00  0.00    -0.252 OA
BRANCH   2   4
ATOM      4  C   UNL A   1      41.296  20.644  26.506  1.00  0.00     0.126 C 
ATOM      5  C   UNL A   1      41.224  20.601  28.033  1.00  0.00     0.025 C 
BRANCH   4   6
ATOM      6  C   UNL A   1      39.924  20.824  25.867  1.00  0.00    -0.031 A 
ATOM      7  C   UNL A   1      37.184  21.136  25.071  1.00  0.00     0.018 A 
ATOM      8  C   UNL A   1      37.876  19.921  24.901  1.00  0.00     0.012 A 
ATOM      9  C   UNL A   1      37.923  22.200  25.603  1.00  0.00     0.131 A 
ATOM     10  C   UNL A   1      39.224  19.771  25.268  1.00  0.00     0.005 A 
ATOM     11  C   UNL A   1      39.260  22.055  25.994  1.00  0.00     0.044 A 
ATOM     12  F   UNL A   1      37.343  23.393  25.805  1.00  0.00    -0.206 F 
BRANCH   7  13
ATOM     13  C   UNL A   1      35.750  21.268  24.717  1.00  0.00    -0.013 A 
ATOM     14  C   UNL A   1      33.895  22.509  23.697  1.00  0.00     0.043 A 
ATOM     15  C   UNL A   1      32.995  21.515  24.069  1.00  0.00     0.026 A 
ATOM     16  C   UNL A   1      35.251  22.405  24.055  1.00  0.00     0.035 A 
ATOM     17  C   UNL A   1      33.471  20.364  24.690  1.00  0.00     0.003 A 
ATOM     18  C   UNL A   1      34.832  20.240  25.001  1.00  0.00     0.009 A 
BRANCH  14  19
ATOM     19  N   UNL A   1      33.427  23.558  22.891  1.00  0.00    -0.308 N 
ATOM     20  N   UNL A   1      32.385  24.929  24.491  1.00  0.00    -0.338 N 
ATOM     21  C   UNL A   1      32.483  24.490  23.204  1.00  0.00     0.319 C 
ATOM     22  H   UNL A   1      31.553  25.394  24.739  1.00  0.00     0.165 HD
ATOM     23  O   UNL A   1      31.817  25.037  22.328  1.00  0.00    -0.249 OA
ATOM     24  H   UNL A   1      33.826  23.628  21.994  1.00  0.00     0.171 HD
BRANCH  20  25
ATOM     25  C   UNL A   1      33.388  24.781  25.530  1.00  0.00     0.117 C 
BRANCH  25  26
ATOM     26  C   UNL A   1      34.245  26.013  25.758  1.00  0.00     0.021 C 
BRANCH  26  27
ATOM     27  C   UNL A   1      33.458  27.297  26.003  1.00  0.00     0.002 C 
BRANCH  27  28
ATOM     28  C   UNL A   1      33.463  28.324  24.870  1.00  0.00    -0.000 C 
BRANCH  28  29
ATOM     29  C   UNL A   1      32.379  29.413  24.840  1.00  0.00    -0.003 C 
ATOM     30  C   UNL A   1      31.000  29.089  24.290  1.00  0.00     0.004 C 
ENDBRANCH  28  29
ENDBRANCH  27  28
ENDBRANCH  26  27
ENDBRANCH  25  26
ENDBRANCH  20  25
ENDBRANCH  14  19
ENDBRANCH   7  13
ENDBRANCH   4   6
ENDBRANCH   2   4
ENDBRANCH   1   2
BRANCH   1  31
ATOM     31  C   UNL A   1      44.285  19.137  25.045  1.00  0.00     0.261 C 
BRANCH  31  32
ATOM     32  C   UNL A   1      45.412  19.814  24.260  1.00  0.00     0.202 C 
BRANCH  32  33
ATOM     33  O   UNL A   1      46.343  20.600  24.994  1.00  0.00    -0.374 OA
BRANCH  33  34
ATOM     34  C   UNL A   1      45.922  21.901  25.396  1.00  0.00     0.202 C 
BRANCH  34  35
ATOM     35  C   UNL A   1      45.916  22.988  24.316  1.00  0.00     0.261 C 
BRANCH  35  36
ATOM     36  O   UNL A   1      45.023  24.071  24.620  1.00  0.00    -0.460 OA
BRANCH  36  37
ATOM     37  C   UNL A   1      43.723  23.754  24.834  1.00  0.00     0.338 C 
ATOM     38  O   UNL A   1      43.034  22.943  24.235  1.00  0.00    -0.246 OA
BRANCH  37  39
ATOM     39  C   UNL A   1      43.253  24.557  25.976  1.00  0.00     0.060 A 
ATOM     40  C   UNL A   1      42.639  23.985  27.089  1.00  0.00     0.016 A 
ATOM     41  C   UNL A   1      43.445  25.928  25.926  1.00  0.00     0.016 A 
ATOM     42  C   UNL A   1      42.218  24.809  28.148  1.00  0.00     0.010 A 
ATOM     43  C   UNL A   1      43.146  26.720  27.022  1.00  0.00     0.010 A 
ATOM     44  C   UNL A   1      42.470  26.192  28.124  1.00  0.00    -0.014 A 
BRANCH  44  45
ATOM     45  C   UNL A   1      42.004  27.158  29.159  1.00  0.00     0.031 A 
ATOM     46  C   UNL A   1      42.719  27.223  30.498  1.00  0.00     0.074 A 
ATOM     47  C   UNL A   1      40.858  27.845  28.993  1.00  0.00     0.049 A 
ATOM     48  N   UNL A   1      42.352  27.807  31.612  1.00  0.00    -0.248 NA
ATOM     49  C   UNL A   1      43.963  26.440  30.627  1.00  0.00     0.031 C 
ATOM     50  C   UNL A   1      39.987  27.788  27.819  1.00  0.00     0.029 A 
ATOM     51  N   UNL A   1      40.214  28.710  29.844  1.00  0.00    -0.354 N 
ATOM     52  C   UNL A   1      43.257  27.378  32.578  1.00  0.00     0.074 A 
ATOM     53  C   UNL A   1      44.136  26.426  31.939  1.00  0.00     0.031 C 
ATOM     54  C   UNL A   1      38.941  28.608  28.008  1.00  0.00     0.029 A 
ATOM     55  C   UNL A   1      39.050  29.223  29.328  1.00  0.00     0.049 A 
ATOM     56  H   UNL A   1      40.554  28.940  30.738  1.00  0.00     0.167 HD
ATOM     57  C   UNL A   1      43.383  27.768  33.870  1.00  0.00     0.031 A 
ATOM     58  C   UNL A   1      38.173  30.099  29.855  1.00  0.00     0.031 A 
ATOM     59  C   UNL A   1      42.594  28.816  34.460  1.00  0.00     0.049 A 
ATOM     60  C   UNL A   1      38.431  30.667  31.222  1.00  0.00     0.074 A 
ATOM     61  C   UNL A   1      42.755  29.430  35.689  1.00  0.00     0.029 A 
ATOM     62  N   UNL A   1      41.514  29.426  33.842  1.00  0.00    -0.354 N 
ATOM     63  N   UNL A   1      39.362  30.346  32.086  1.00  0.00    -0.248 NA
ATOM     64  C   UNL A   1      37.535  31.742  31.672  1.00  0.00     0.031 C 
ATOM     65  C   UNL A   1      41.749  30.392  35.829  1.00  0.00     0.029 A 
ATOM     66  C   UNL A   1      40.996  30.409  34.666  1.00  0.00     0.049 A 
ATOM     67  H   UNL A   1      41.167  29.194  32.950  1.00  0.00     0.167 HD
ATOM     68  C   UNL A   1      39.185  31.198  33.168  1.00  0.00     0.074 A 
ATOM     69  C   UNL A   1      38.066  32.059  32.845  1.00  0.00     0.031 C 
ATOM     70  C   UNL A   1      39.888  31.262  34.326  1.00  0.00     0.031 A 
BRANCH  57  71
ATOM     71  C   UNL A   1      44.436  27.098  34.718  1.00  0.00    -0.014 A 
ATOM     72  C   UNL A   1      44.208  25.858  35.339  1.00  0.00     0.009 A 
ATOM     73  C   UNL A   1      45.695  27.702  34.874  1.00  0.00     0.009 A 
ATOM     74  C   UNL A   1      45.185  25.274  36.149  1.00  0.00     0.001 A 
ATOM     75  C   UNL A   1      46.687  27.094  35.646  1.00  0.00     0.001 A 
ATOM     76  C   UNL A   1      46.426  25.889  36.296  1.00  0.00     0.000 A 
ENDBRANCH  57  71
BRANCH  58  77
ATOM     77  C   UNL A   1      37.015  30.552  29.042  1.00  0.00    -0.014 A 
ATOM     78  C   UNL A   1      35.980  29.654  28.737  1.00  0.00     0.009 A 
ATOM     79  C   UNL A   1      36.912  31.881  28.607  1.00  0.00     0.009 A 
ATOM     80  C   UNL A   1      34.875  30.073  27.993  1.00  0.00     0.001 A 
ATOM     81  C   UNL A   1      35.794  32.303  27.886  1.00  0.00     0.001 A 
ATOM     82  C   UNL A   1      34.780  31.399  27.574  1.00  0.00     0.000 A 
ENDBRANCH  58  77
BRANCH  70  83
ATOM     83  C   UNL A   1      39.499  32.324  35.315  1.00  0.00    -0.014 A 
ATOM     84  C   UNL A   1      38.535  32.081  36.304  1.00  0.00     0.009 A 
ATOM     85  C   UNL A   1      40.151  33.566  35.286  1.00  0.00     0.009 A 
ATOM     86  C   UNL A   1      38.210  33.076  37.228  1.00  0.00     0.001 A 
ATOM     87  C   UNL A   1      39.844  34.548  36.229  1.00  0.00     0.001 A 
ATOM     88  C   UNL A   1      38.868  34.305  37.194  1.00  0.00     0.000 A 
ENDBRANCH  70  83
ENDBRANCH  44  45
ENDBRANCH  37  39
ENDBRANCH  36  37
ENDBRANCH  35  36
ENDBRANCH  34  35
ENDBRANCH  33  34
ENDBRANCH  32  33
ENDBRANCH  31  32
ENDBRANCH   1  31
TORSDOF 22
ENDMDL
MODEL 3
REMARK VINA RESULT:     -10.2      2.215      3.829
REMARK SMILES CCCCCCNC(=O)Nc1cccc(-c2ccc([C@@H](C)C(=O)OCCOCCOC(=O)c3ccc(-c4c5nc(c(-c6ccccc6)c6ccc([nH]6)c(-c6ccccc6)c6nc(c(-c7ccccc7)c7ccc4[nH]7)C=C6)C=C5)cc3)cc2F)c1
REMARK SMILES IDX 24 1 22 2 23 3 20 4 21 5 19 6 16 7 17 8 82 9 18 10 81 11
REMARK SMILES IDX 83 12 15 13 11 14 12 15 84 16 13 17 14 18 10 19 7 20 8 21
REMARK SMILES IDX 9 23 6 25 5 26 4 27 3 28 2 29 1 30 25 31 26 32 27 33 28 34
REMARK SMILES IDX 29 35 30 36 31 37 32 38 33 39 34 40 80 41 35 42 79 43 36 44
REMARK SMILES IDX 37 45 38 46 73 47 39 48 78 49 72 50 74 51 40 52 77 53 71 54
REMARK SMILES IDX 70 55 41 57 63 58 48 59 62 60 49 61 52 62 61 63 75 64 50 65
REMARK SMILES IDX 51 66 60 68 76 69 53 70 42 71 43 72 47 73 44 74 46 75 45 76
REMARK SMILES IDX 64 77 65 78 69 79 66 80 68 81 67 82 54 83 55 84 59 85 56 86
REMARK SMILES IDX 58 87 57 88
REMARK H PARENT 7 22 10 24 74 56 52 67
REMARK Flexibility Score: inf
ROOT
ATOM      1  O   UNL A   1      42.187  20.544  25.763  1.00  0.00    -0.463 OA
ENDROOT
BRANCH   1   2
ATOM      2  C   UNL A   1      41.244  20.830  26.704  1.00  0.00     0.313 C 
ATOM      3  O   UNL A   1      40.877  20.047  27.575  1.00  0.00    -0.252 OA
BRANCH   2   4
ATOM      4  C   UNL A   1      40.574  22.179  26.520  1.00  0.00     0.126 C 
ATOM      5  C   UNL A   1      40.864  23.044  27.748  1.00  0.00     0.025 C 
BRANCH   4   6
ATOM      6  C   UNL A   1      39.105  22.216  26.120  1.00  0.00    -0.031 A 
ATOM      7  C   UNL A   1      36.483  22.299  24.953  1.00  0.00     0.018 A 
ATOM      8  C   UNL A   1      37.071  23.433  25.546  1.00  0.00     0.012 A 
ATOM      9  C   UNL A   1      37.228  21.114  25.009  1.00  0.00     0.131 A 
ATOM     10  C   UNL A   1      38.345  23.391  26.139  1.00  0.00     0.005 A 
ATOM     11  C   UNL A   1      38.508  21.067  25.576  1.00  0.00     0.044 A 
ATOM     12  F   UNL A   1      36.748  19.986  24.464  1.00  0.00    -0.206 F 
BRANCH   7  13
ATOM     13  C   UNL A   1      35.156  22.368  24.295  1.00  0.00    -0.013 A 
ATOM     14  C   UNL A   1      33.618  23.359  22.660  1.00  0.00     0.043 A 
ATOM     15  C   UNL A   1      32.599  22.503  23.064  1.00  0.00     0.026 A 
ATOM     16  C   UNL A   1      34.871  23.321  23.299  1.00  0.00     0.035 A 
ATOM     17  C   UNL A   1      32.869  21.527  24.020  1.00  0.00     0.003 A 
ATOM     18  C   UNL A   1      34.134  21.457  24.620  1.00  0.00     0.009 A 
BRANCH  14  19
ATOM     19  N   UNL A   1      33.384  24.191  21.554  1.00  0.00    -0.308 N 
ATOM     20  N   UNL A   1      32.280  26.000  22.570  1.00  0.00    -0.338 N 
ATOM     21  C   UNL A   1      32.512  25.234  21.467  1.00  0.00     0.319 C 
ATOM     22  H   UNL A   1      31.477  26.569  22.556  1.00  0.00     0.165 HD
ATOM     23  O   UNL A   1      32.039  25.577  20.385  1.00  0.00    -0.249 OA
ATOM     24  H   UNL A   1      33.912  23.997  20.746  1.00  0.00     0.171 HD
BRANCH  20  25
ATOM     25  C   UNL A   1      33.104  26.061  23.764  1.00  0.00     0.117 C 
BRANCH  25  26
ATOM     26  C   UNL A   1      32.347  25.846  25.062  1.00  0.00     0.021 C 
BRANCH  26  27
ATOM     27  C   UNL A   1      32.780  26.755  26.208  1.00  0.00     0.002 C 
BRANCH  27  28
ATOM     28  C   UNL A   1      33.680  27.934  25.836  1.00  0.00    -0.000 C 
BRANCH  28  29
ATOM     29  C   UNL A   1      33.069  29.340  25.733  1.00  0.00    -0.003 C 
ATOM     30  C   UNL A   1      31.699  29.522  25.102  1.00  0.00     0.004 C 
ENDBRANCH  28  29
ENDBRANCH  27  28
ENDBRANCH  26  27
ENDBRANCH  25  26
ENDBRANCH  20  25
ENDBRANCH  14  19
ENDBRANCH   7  13
ENDBRANCH   4   6
ENDBRANCH   2   4
ENDBRANCH   1   2
BRANCH   1  31
ATOM     31  C   UNL A   1      42.737  19.218  25.861  1.00  0.00     0.261 C 
BRANCH  31  32
ATOM     32  C   UNL A   1      43.690  18.844  24.722  1.00  0.00     0.202 C 
BRANCH  32  33
ATOM     33  O   UNL A   1      44.996  18.407  25.076  1.00  0.00    -0.374 OA
BRANCH  33  34
ATOM     34  C   UNL A   1      45.891  19.388  25.597  1.00  0.00     0.202 C 
BRANCH  34  35
ATOM     35  C   UNL A   1      46.434  20.421  24.604  1.00  0.00     0.261 C 
BRANCH  35  36
ATOM     36  O   UNL A   1      46.263  21.773  25.058  1.00  0.00    -0.460 OA
BRANCH  36  37
ATOM     37  C   UNL A   1      45.085  22.376  24.765  1.00  0.00     0.338 C 
ATOM     38  O   UNL A   1      44.386  22.228  23.775  1.00  0.00    -0.246 OA
BRANCH  37  39
ATOM     39  C   UNL A   1      44.746  23.258  25.894  1.00  0.00     0.060 A 
ATOM     40  C   UNL A   1      44.489  22.768  27.175  1.00  0.00     0.016 A 
ATOM     41  C   UNL A   1      44.694  24.622  25.658  1.00  0.00     0.016 A 
ATOM     42  C   UNL A   1      44.175  23.667  28.210  1.00  0.00     0.010 A 
ATOM     43  C   UNL A   1      44.511  25.510  26.704  1.00  0.00     0.010 A 
ATOM     44  C   UNL A   1      44.184  25.054  27.983  1.00  0.00    -0.014 A 
BRANCH  44  45
ATOM     45  C   UNL A   1      43.799  26.082  28.991  1.00  0.00     0.031 A 
ATOM     46  C   UNL A   1      44.669  26.289  30.219  1.00  0.00     0.074 A 
ATOM     47  C   UNL A   1      42.606  26.703  28.919  1.00  0.00     0.049 A 
ATOM     48  N   UNL A   1      44.411  26.948  31.322  1.00  0.00    -0.248 NA
ATOM     49  C   UNL A   1      45.958  25.574  30.249  1.00  0.00     0.031 C 
ATOM     50  C   UNL A   1      41.601  26.511  27.873  1.00  0.00     0.029 A 
ATOM     51  N   UNL A   1      42.026  27.607  29.775  1.00  0.00    -0.354 N 
ATOM     52  C   UNL A   1      45.450  26.639  32.195  1.00  0.00     0.074 A 
ATOM     53  C   UNL A   1      46.292  25.676  31.525  1.00  0.00     0.031 C 
ATOM     54  C   UNL A   1      40.544  27.299  28.130  1.00  0.00     0.029 A 
ATOM     55  C   UNL A   1      40.782  28.025  29.373  1.00  0.00     0.049 A 
ATOM     56  H   UNL A   1      42.462  27.926  30.598  1.00  0.00     0.167 HD
ATOM     57  C   UNL A   1      45.712  27.141  33.427  1.00  0.00     0.031 A 
ATOM     58  C   UNL A   1      39.931  28.903  29.938  1.00  0.00     0.031 A 
ATOM     59  C   UNL A   1      44.948  28.200  34.029  1.00  0.00     0.049 A 
ATOM     60  C   UNL A   1      40.325  29.595  31.213  1.00  0.00     0.074 A 
ATOM     61  C   UNL A   1      45.226  28.920  35.177  1.00  0.00     0.029 A 
ATOM     62  N   UNL A   1      43.769  28.708  33.509  1.00  0.00    -0.354 N 
ATOM     63  N   UNL A   1      41.372  29.387  31.974  1.00  0.00    -0.248 NA
ATOM     64  C   UNL A   1      39.436  30.664  31.689  1.00  0.00     0.031 C 
ATOM     65  C   UNL A   1      44.196  29.846  35.369  1.00  0.00     0.029 A 
ATOM     66  C   UNL A   1      43.305  29.734  34.313  1.00  0.00     0.049 A 
ATOM     67  H   UNL A   1      43.328  28.388  32.688  1.00  0.00     0.167 HD
ATOM     68  C   UNL A   1      41.285  30.317  33.001  1.00  0.00     0.074 A 
ATOM     69  C   UNL A   1      40.090  31.099  32.757  1.00  0.00     0.031 C 
ATOM     70  C   UNL A   1      42.120  30.508  34.052  1.00  0.00     0.031 A 
BRANCH  57  71
ATOM     71  C   UNL A   1      46.896  26.590  34.184  1.00  0.00    -0.014 A 
ATOM     72  C   UNL A   1      48.184  27.133  34.043  1.00  0.00     0.009 A 
ATOM     73  C   UNL A   1      46.715  25.526  35.083  1.00  0.00     0.009 A 
ATOM     74  C   UNL A   1      49.271  26.584  34.728  1.00  0.00     0.001 A 
ATOM     75  C   UNL A   1      47.795  25.007  35.802  1.00  0.00     0.001 A 
ATOM     76  C   UNL A   1      49.074  25.526  35.611  1.00  0.00     0.000 A 
ENDBRANCH  57  71
BRANCH  58  77
ATOM     77  C   UNL A   1      38.660  29.237  29.247  1.00  0.00    -0.014 A 
ATOM     78  C   UNL A   1      38.684  29.709  27.925  1.00  0.00     0.009 A 
ATOM     79  C   UNL A   1      37.422  29.047  29.878  1.00  0.00     0.009 A 
ATOM     80  C   UNL A   1      37.495  30.006  27.257  1.00  0.00     0.001 A 
ATOM     81  C   UNL A   1      36.233  29.320  29.198  1.00  0.00     0.001 A 
ATOM     82  C   UNL A   1      36.270  29.804  27.891  1.00  0.00     0.000 A 
ENDBRANCH  58  77
BRANCH  70  83
ATOM     83  C   UNL A   1      41.800  31.630  34.997  1.00  0.00    -0.014 A 
ATOM     84  C   UNL A   1      41.008  31.422  36.135  1.00  0.00     0.009 A 
ATOM     85  C   UNL A   1      42.349  32.902  34.770  1.00  0.00     0.009 A 
ATOM     86  C   UNL A   1      40.746  32.476  37.013  1.00  0.00     0.001 A 
ATOM     87  C   UNL A   1      42.110  33.946  35.665  1.00  0.00     0.001 A 
ATOM     88  C   UNL A   1      41.302  33.734  36.780  1.00  0.00     0.000 A 
ENDBRANCH  70  83
ENDBRANCH  44  45
ENDBRANCH  37  39
ENDBRANCH  36  37
ENDBRANCH  35  36
ENDBRANCH  34  35
ENDBRANCH  33  34
ENDBRANCH  32  33
ENDBRANCH  31  32
ENDBRANCH   1  31
TORSDOF 22
ENDMDL
