MODEL 1
REMARK VINA RESULT:      -9.3      0.000      0.000
REMARK SMILES COc1cc(C)cc2c1O[C@H](C(F)(F)F)C(C(=O)OCCOCCOC(=O)c1ccc(-c3c4nc(c(-c5ccccc5)c5ccc([nH]5)c(-c5ccccc5)c5nc(c(-c6ccccc6)c6ccc3[nH]6)C=C5)C=C4)cc1)=C2
REMARK SMILES IDX 23 1 22 2 21 3 20 4 19 5 17 6 18 7 16 8 3 9 4 10 9 11 5 12
REMARK SMILES IDX 8 13 10 14 6 15 7 16 76 17 11 18 2 19 1 20 12 21 13 22 14 23
REMARK SMILES IDX 15 24 24 25 25 26 26 27 27 28 28 29 29 30 75 31 30 32 74 33
REMARK SMILES IDX 31 34 32 35 33 36 68 37 34 38 73 39 67 40 69 41 35 42 72 43
REMARK SMILES IDX 66 44 65 45 36 47 58 48 43 49 57 50 44 51 47 52 56 53 70 54
REMARK SMILES IDX 45 55 46 56 55 58 71 59 48 60 37 61 38 62 42 63 39 64 41 65
REMARK SMILES IDX 40 66 59 67 60 68 64 69 61 70 63 71 62 72 49 73 50 74 54 75
REMARK SMILES IDX 51 76 53 77 52 78
REMARK H PARENT 69 46 47 57
REMARK Flexibility Score: inf
ROOT
ATOM      1  C   UNL A   1      44.988  18.559  25.285  1.00  0.00     0.202 C 
ENDROOT
BRANCH   1   2
ATOM      2  O   UNL A   1      45.370  19.634  24.430  1.00  0.00    -0.374 OA
BRANCH   2   3
ATOM      3  C   UNL A   1      46.216  20.655  24.950  1.00  0.00     0.202 C 
BRANCH   3   4
ATOM      4  C   UNL A   1      45.562  21.944  25.456  1.00  0.00     0.261 C 
BRANCH   4   5
ATOM      5  O   UNL A   1      46.526  22.963  25.757  1.00  0.00    -0.460 OA
BRANCH   5   6
ATOM      6  C   UNL A   1      46.535  23.994  24.879  1.00  0.00     0.338 C 
ATOM      7  O   UNL A   1      46.776  23.936  23.684  1.00  0.00    -0.246 OA
BRANCH   6   8
ATOM      8  C   UNL A   1      46.074  25.225  25.546  1.00  0.00     0.087 C 
ATOM      9  C   UNL A   1      44.724  28.918  26.940  1.00  0.00     0.161 A 
ATOM     10  C   UNL A   1      43.411  29.311  26.653  1.00  0.00     0.054 A 
ATOM     11  C   UNL A   1      45.167  27.642  26.560  1.00  0.00     0.169 A 
ATOM     12  C   UNL A   1      42.523  28.427  26.023  1.00  0.00    -0.047 A 
ATOM     13  C   UNL A   1      44.290  26.767  25.915  1.00  0.00     0.021 A 
ATOM     14  O   UNL A   1      46.459  27.303  26.865  1.00  0.00    -0.471 OA
ATOM     15  C   UNL A   1      41.120  28.839  25.686  1.00  0.00     0.044 C 
ATOM     16  C   UNL A   1      42.967  27.150  25.673  1.00  0.00     0.015 A 
ATOM     17  C   UNL A   1      44.770  25.494  25.415  1.00  0.00     0.027 C 
ATOM     18  C   UNL A   1      47.043  26.112  26.276  1.00  0.00     0.316 C 
BRANCH   9  19
ATOM     19  O   UNL A   1      45.660  29.752  27.498  1.00  0.00    -0.493 OA
ATOM     20  C   UNL A   1      45.908  30.962  26.793  1.00  0.00     0.278 C 
ENDBRANCH   9  19
BRANCH  18  21
ATOM     21  C   UNL A   1      48.235  26.531  25.404  1.00  0.00     0.430 C 
ATOM     22  F   UNL A   1      47.839  26.877  24.155  1.00  0.00    -0.167 F 
ATOM     23  F   UNL A   1      48.869  27.615  25.915  1.00  0.00    -0.167 F 
ATOM     24  F   UNL A   1      49.153  25.547  25.285  1.00  0.00    -0.167 F 
ENDBRANCH  18  21
ENDBRANCH   6   8
ENDBRANCH   5   6
ENDBRANCH   4   5
ENDBRANCH   3   4
ENDBRANCH   2   3
ENDBRANCH   1   2
BRANCH   1  25
ATOM     25  C   UNL A   1      43.533  18.483  25.766  1.00  0.00     0.261 C 
BRANCH  25  26
ATOM     26  O   UNL A   1      42.679  19.453  25.135  1.00  0.00    -0.460 OA
BRANCH  26  27
ATOM     27  C   UNL A   1      41.522  19.709  25.793  1.00  0.00     0.338 C 
ATOM     28  O   UNL A   1      40.578  18.951  25.960  1.00  0.00    -0.246 OA
BRANCH  27  29
ATOM     29  C   UNL A   1      41.633  21.008  26.477  1.00  0.00     0.060 A 
ATOM     30  C   UNL A   1      41.579  21.095  27.869  1.00  0.00     0.016 A 
ATOM     31  C   UNL A   1      41.839  22.154  25.698  1.00  0.00     0.016 A 
ATOM     32  C   UNL A   1      41.756  22.337  28.481  1.00  0.00     0.010 A 
ATOM     33  C   UNL A   1      42.016  23.394  26.312  1.00  0.00     0.010 A 
ATOM     34  C   UNL A   1      41.996  23.491  27.709  1.00  0.00    -0.014 A 
BRANCH  34  35
ATOM     35  C   UNL A   1      42.366  24.763  28.375  1.00  0.00     0.031 A 
ATOM     36  C   UNL A   1      43.749  25.009  28.894  1.00  0.00     0.074 A 
ATOM     37  C   UNL A   1      41.413  25.705  28.520  1.00  0.00     0.049 A 
ATOM     38  N   UNL A   1      44.245  26.106  29.407  1.00  0.00    -0.248 NA
ATOM     39  C   UNL A   1      44.695  23.886  28.839  1.00  0.00     0.031 C 
ATOM     40  C   UNL A   1      40.022  25.558  28.088  1.00  0.00     0.029 A 
ATOM     41  N   UNL A   1      41.469  26.969  29.051  1.00  0.00    -0.354 N 
ATOM     42  C   UNL A   1      45.565  25.815  29.721  1.00  0.00     0.074 A 
ATOM     43  C   UNL A   1      45.779  24.422  29.388  1.00  0.00     0.031 C 
ATOM     44  C   UNL A   1      39.369  26.703  28.328  1.00  0.00     0.029 A 
ATOM     45  C   UNL A   1      40.279  27.651  28.965  1.00  0.00     0.049 A 
ATOM     46  H   UNL A   1      42.282  27.350  29.453  1.00  0.00     0.167 HD
ATOM     47  C   UNL A   1      46.511  26.643  30.222  1.00  0.00     0.031 A 
ATOM     48  C   UNL A   1      39.953  28.901  29.345  1.00  0.00     0.031 A 
ATOM     49  C   UNL A   1      46.278  28.023  30.572  1.00  0.00     0.049 A 
ATOM     50  C   UNL A   1      41.011  29.788  29.938  1.00  0.00     0.074 A 
ATOM     51  C   UNL A   1      47.191  28.954  31.037  1.00  0.00     0.029 A 
ATOM     52  N   UNL A   1      45.050  28.665  30.514  1.00  0.00    -0.354 N 
ATOM     53  N   UNL A   1      42.281  29.532  30.138  1.00  0.00    -0.248 NA
ATOM     54  C   UNL A   1      40.600  31.140  30.343  1.00  0.00     0.031 C 
ATOM     55  C   UNL A   1      46.501  30.128  31.345  1.00  0.00     0.029 A 
ATOM     56  C   UNL A   1      45.174  29.964  30.981  1.00  0.00     0.049 A 
ATOM     57  H   UNL A   1      44.214  28.259  30.190  1.00  0.00     0.167 HD
ATOM     58  C   UNL A   1      42.825  30.692  30.673  1.00  0.00     0.074 A 
ATOM     59  C   UNL A   1      41.751  31.661  30.746  1.00  0.00     0.031 C 
ATOM     60  C   UNL A   1      44.102  30.927  31.065  1.00  0.00     0.031 A 
BRANCH  47  61
ATOM     61  C   UNL A   1      47.900  26.098  30.430  1.00  0.00    -0.014 A 
ATOM     62  C   UNL A   1      48.311  25.693  31.711  1.00  0.00     0.009 A 
ATOM     63  C   UNL A   1      48.840  26.093  29.387  1.00  0.00     0.009 A 
ATOM     64  C   UNL A   1      49.634  25.315  31.948  1.00  0.00     0.001 A 
ATOM     65  C   UNL A   1      50.155  25.681  29.620  1.00  0.00     0.001 A 
ATOM     66  C   UNL A   1      50.553  25.306  30.901  1.00  0.00     0.000 A 
ENDBRANCH  47  61
BRANCH  48  67
ATOM     67  C   UNL A   1      38.565  29.383  29.118  1.00  0.00    -0.014 A 
ATOM     68  C   UNL A   1      37.619  29.351  30.157  1.00  0.00     0.009 A 
ATOM     69  C   UNL A   1      38.152  29.792  27.842  1.00  0.00     0.009 A 
ATOM     70  C   UNL A   1      36.283  29.678  29.914  1.00  0.00     0.001 A 
ATOM     71  C   UNL A   1      36.822  30.153  27.609  1.00  0.00     0.001 A 
ATOM     72  C   UNL A   1      35.887  30.081  28.641  1.00  0.00     0.000 A 
ENDBRANCH  48  67
BRANCH  60  73
ATOM     73  C   UNL A   1      44.438  32.287  31.618  1.00  0.00    -0.014 A 
ATOM     74  C   UNL A   1      44.215  32.562  32.978  1.00  0.00     0.009 A 
ATOM     75  C   UNL A   1      44.853  33.331  30.777  1.00  0.00     0.009 A 
ATOM     76  C   UNL A   1      44.373  33.856  33.478  1.00  0.00     0.001 A 
ATOM     77  C   UNL A   1      45.047  34.617  31.288  1.00  0.00     0.001 A 
ATOM     78  C   UNL A   1      44.793  34.882  32.634  1.00  0.00     0.000 A 
ENDBRANCH  60  73
ENDBRANCH  34  35
ENDBRANCH  27  29
ENDBRANCH  26  27
ENDBRANCH  25  26
ENDBRANCH   1  25
TORSDOF 16
ENDMDL
MODEL 2
REMARK VINA RESULT:      -8.7      0.550      5.928
REMARK SMILES COc1cc(C)cc2c1O[C@H](C(F)(F)F)C(C(=O)OCCOCCOC(=O)c1ccc(-c3c4nc(c(-c5ccccc5)c5ccc([nH]5)c(-c5ccccc5)c5nc(c(-c6ccccc6)c6ccc3[nH]6)C=C5)C=C4)cc1)=C2
REMARK SMILES IDX 23 1 22 2 21 3 20 4 19 5 17 6 18 7 16 8 3 9 4 10 9 11 5 12
REMARK SMILES IDX 8 13 10 14 6 15 7 16 76 17 11 18 2 19 1 20 12 21 13 22 14 23
REMARK SMILES IDX 15 24 24 25 25 26 26 27 27 28 28 29 29 30 75 31 30 32 74 33
REMARK SMILES IDX 31 34 32 35 33 36 68 37 34 38 73 39 67 40 69 41 35 42 72 43
REMARK SMILES IDX 66 44 65 45 36 47 58 48 43 49 57 50 44 51 47 52 56 53 70 54
REMARK SMILES IDX 45 55 46 56 55 58 71 59 48 60 37 61 38 62 42 63 39 64 41 65
REMARK SMILES IDX 40 66 59 67 60 68 64 69 61 70 63 71 62 72 49 73 50 74 54 75
REMARK SMILES IDX 51 76 53 77 52 78
REMARK H PARENT 69 46 47 57
REMARK Flexibility Score: inf
ROOT
ATOM      1  C   UNL A   1      44.713  18.776  25.326  1.00  0.00     0.202 C 
ENDROOT
BRANCH   1   2
ATOM      2  O   UNL A   1      45.013  19.926  24.538  1.00  0.00    -0.374 OA
BRANCH   2   3
ATOM      3  C   UNL A   1      45.930  20.887  25.051  1.00  0.00     0.202 C 
BRANCH   3   4
ATOM      4  C   UNL A   1      45.797  22.336  24.573  1.00  0.00     0.261 C 
BRANCH   4   5
ATOM      5  O   UNL A   1      46.603  23.240  25.341  1.00  0.00    -0.460 OA
BRANCH   5   6
ATOM      6  C   UNL A   1      46.888  24.403  24.708  1.00  0.00     0.338 C 
ATOM      7  O   UNL A   1      47.431  24.530  23.621  1.00  0.00    -0.246 OA
BRANCH   6   8
ATOM      8  C   UNL A   1      46.325  25.537  25.462  1.00  0.00     0.087 C 
ATOM      9  C   UNL A   1      44.710  29.004  27.127  1.00  0.00     0.161 A 
ATOM     10  C   UNL A   1      43.399  29.369  26.791  1.00  0.00     0.054 A 
ATOM     11  C   UNL A   1      45.238  27.794  26.651  1.00  0.00     0.169 A 
ATOM     12  C   UNL A   1      42.598  28.519  26.015  1.00  0.00    -0.047 A 
ATOM     13  C   UNL A   1      44.448  26.955  25.862  1.00  0.00     0.021 A 
ATOM     14  O   UNL A   1      46.522  27.480  27.009  1.00  0.00    -0.471 OA
ATOM     15  C   UNL A   1      41.201  28.904  25.625  1.00  0.00     0.044 C 
ATOM     16  C   UNL A   1      43.126  27.305  25.569  1.00  0.00     0.015 A 
ATOM     17  C   UNL A   1      45.021  25.763  25.269  1.00  0.00     0.027 C 
ATOM     18  C   UNL A   1      47.201  26.382  26.343  1.00  0.00     0.316 C 
BRANCH   9  19
ATOM     19  O   UNL A   1      45.565  29.814  27.830  1.00  0.00    -0.493 OA
ATOM     20  C   UNL A   1      45.075  31.114  28.135  1.00  0.00     0.278 C 
ENDBRANCH   9  19
BRANCH  18  21
ATOM     21  C   UNL A   1      48.424  26.940  25.602  1.00  0.00     0.430 C 
ATOM     22  F   UNL A   1      49.384  25.997  25.449  1.00  0.00    -0.167 F 
ATOM     23  F   UNL A   1      48.101  27.360  24.354  1.00  0.00    -0.167 F 
ATOM     24  F   UNL A   1      48.978  27.990  26.248  1.00  0.00    -0.167 F 
ENDBRANCH  18  21
ENDBRANCH   6   8
ENDBRANCH   5   6
ENDBRANCH   4   5
ENDBRANCH   3   4
ENDBRANCH   2   3
ENDBRANCH   1   2
BRANCH   1  25
ATOM     25  C   UNL A   1      43.304  18.636  25.915  1.00  0.00     0.261 C 
BRANCH  25  26
ATOM     26  O   UNL A   1      42.297  19.300  25.132  1.00  0.00    -0.460 OA
BRANCH  26  27
ATOM     27  C   UNL A   1      41.294  19.862  25.851  1.00  0.00     0.338 C 
ATOM     28  O   UNL A   1      40.197  19.385  26.097  1.00  0.00    -0.246 OA
BRANCH  27  29
ATOM     29  C   UNL A   1      41.790  21.094  26.488  1.00  0.00     0.060 A 
ATOM     30  C   UNL A   1      42.368  22.114  25.730  1.00  0.00     0.016 A 
ATOM     31  C   UNL A   1      41.629  21.238  27.873  1.00  0.00     0.016 A 
ATOM     32  C   UNL A   1      42.764  23.293  26.364  1.00  0.00     0.010 A 
ATOM     33  C   UNL A   1      42.025  22.417  28.503  1.00  0.00     0.010 A 
ATOM     34  C   UNL A   1      42.577  23.461  27.750  1.00  0.00    -0.014 A 
BRANCH  34  35
ATOM     35  C   UNL A   1      42.828  24.782  28.376  1.00  0.00     0.031 A 
ATOM     36  C   UNL A   1      41.749  25.813  28.502  1.00  0.00     0.074 A 
ATOM     37  C   UNL A   1      44.071  25.047  28.823  1.00  0.00     0.049 A 
ATOM     38  N   UNL A   1      41.793  26.970  29.113  1.00  0.00    -0.248 NA
ATOM     39  C   UNL A   1      40.460  25.517  27.861  1.00  0.00     0.031 C 
ATOM     40  C   UNL A   1      45.209  24.133  28.715  1.00  0.00     0.029 A 
ATOM     41  N   UNL A   1      44.581  26.147  29.465  1.00  0.00    -0.354 N 
ATOM     42  C   UNL A   1      40.537  27.535  28.946  1.00  0.00     0.074 A 
ATOM     43  C   UNL A   1      39.768  26.617  28.133  1.00  0.00     0.031 C 
ATOM     44  C   UNL A   1      46.271  24.688  29.315  1.00  0.00     0.029 A 
ATOM     45  C   UNL A   1      45.904  26.011  29.813  1.00  0.00     0.049 A 
ATOM     46  H   UNL A   1      44.052  26.953  29.660  1.00  0.00     0.167 HD
ATOM     47  C   UNL A   1      40.069  28.704  29.445  1.00  0.00     0.031 A 
ATOM     48  C   UNL A   1      46.732  26.848  30.467  1.00  0.00     0.031 A 
ATOM     49  C   UNL A   1      40.855  29.621  30.234  1.00  0.00     0.049 A 
ATOM     50  C   UNL A   1      46.200  28.159  30.975  1.00  0.00     0.074 A 
ATOM     51  C   UNL A   1      40.448  30.804  30.827  1.00  0.00     0.029 A 
ATOM     52  N   UNL A   1      42.202  29.471  30.526  1.00  0.00    -0.354 N 
ATOM     53  N   UNL A   1      44.982  28.638  30.896  1.00  0.00    -0.248 NA
ATOM     54  C   UNL A   1      47.147  29.038  31.675  1.00  0.00     0.031 C 
ATOM     55  C   UNL A   1      41.567  31.413  31.399  1.00  0.00     0.029 A 
ATOM     56  C   UNL A   1      42.652  30.565  31.249  1.00  0.00     0.049 A 
ATOM     57  H   UNL A   1      42.757  28.703  30.260  1.00  0.00     0.167 HD
ATOM     58  C   UNL A   1      45.009  29.861  31.551  1.00  0.00     0.074 A 
ATOM     59  C   UNL A   1      46.361  30.042  32.040  1.00  0.00     0.031 C 
ATOM     60  C   UNL A   1      44.001  30.751  31.727  1.00  0.00     0.031 A 
BRANCH  47  61
ATOM     61  C   UNL A   1      38.637  29.077  29.163  1.00  0.00    -0.014 A 
ATOM     62  C   UNL A   1      38.289  29.641  27.924  1.00  0.00     0.009 A 
ATOM     63  C   UNL A   1      37.654  28.984  30.161  1.00  0.00     0.009 A 
ATOM     64  C   UNL A   1      36.997  30.118  27.697  1.00  0.00     0.001 A 
ATOM     65  C   UNL A   1      36.353  29.431  29.919  1.00  0.00     0.001 A 
ATOM     66  C   UNL A   1      36.029  30.009  28.693  1.00  0.00     0.000 A 
ENDBRANCH  47  61
BRANCH  48  67
ATOM     67  C   UNL A   1      48.136  26.426  30.712  1.00  0.00    -0.014 A 
ATOM     68  C   UNL A   1      48.506  25.850  31.939  1.00  0.00     0.009 A 
ATOM     69  C   UNL A   1      49.132  26.678  29.757  1.00  0.00     0.009 A 
ATOM     70  C   UNL A   1      49.845  25.574  32.221  1.00  0.00     0.001 A 
ATOM     71  C   UNL A   1      50.467  26.367  30.028  1.00  0.00     0.001 A 
ATOM     72  C   UNL A   1      50.825  25.830  31.264  1.00  0.00     0.000 A 
ENDBRANCH  48  67
BRANCH  60  73
ATOM     73  C   UNL A   1      44.296  32.020  32.483  1.00  0.00    -0.014 A 
ATOM     74  C   UNL A   1      44.080  32.073  33.870  1.00  0.00     0.009 A 
ATOM     75  C   UNL A   1      44.666  33.196  31.813  1.00  0.00     0.009 A 
ATOM     76  C   UNL A   1      44.198  33.278  34.565  1.00  0.00     0.001 A 
ATOM     77  C   UNL A   1      44.821  34.393  32.516  1.00  0.00     0.001 A 
ATOM     78  C   UNL A   1      44.573  34.437  33.887  1.00  0.00     0.000 A 
ENDBRANCH  60  73
ENDBRANCH  34  35
ENDBRANCH  27  29
ENDBRANCH  26  27
ENDBRANCH  25  26
ENDBRANCH   1  25
TORSDOF 16
ENDMDL
MODEL 3
REMARK VINA RESULT:      -7.6      5.156      7.490
REMARK SMILES COc1cc(C)cc2c1O[C@H](C(F)(F)F)C(C(=O)OCCOCCOC(=O)c1ccc(-c3c4nc(c(-c5ccccc5)c5ccc([nH]5)c(-c5ccccc5)c5nc(c(-c6ccccc6)c6ccc3[nH]6)C=C5)C=C4)cc1)=C2
REMARK SMILES IDX 23 1 22 2 21 3 20 4 19 5 17 6 18 7 16 8 3 9 4 10 9 11 5 12
REMARK SMILES IDX 8 13 10 14 6 15 7 16 76 17 11 18 2 19 1 20 12 21 13 22 14 23
REMARK SMILES IDX 15 24 24 25 25 26 26 27 27 28 28 29 29 30 75 31 30 32 74 33
REMARK SMILES IDX 31 34 32 35 33 36 68 37 34 38 73 39 67 40 69 41 35 42 72 43
REMARK SMILES IDX 66 44 65 45 36 47 58 48 43 49 57 50 44 51 47 52 56 53 70 54
REMARK SMILES IDX 45 55 46 56 55 58 71 59 48 60 37 61 38 62 42 63 39 64 41 65
REMARK SMILES IDX 40 66 59 67 60 68 64 69 61 70 63 71 62 72 49 73 50 74 54 75
REMARK SMILES IDX 51 76 53 77 52 78
REMARK H PARENT 69 46 47 57
REMARK Flexibility Score: inf
ROOT
ATOM      1  C   UNL A   1      38.249  19.619  24.926  1.00  0.00     0.202 C 
ENDROOT
BRANCH   1   2
ATOM      2  O   UNL A   1      37.299  20.667  24.745  1.00  0.00    -0.374 OA
BRANCH   2   3
ATOM      3  C   UNL A   1      36.026  20.552  25.373  1.00  0.00     0.202 C 
BRANCH   3   4
ATOM      4  C   UNL A   1      34.841  21.283  24.736  1.00  0.00     0.261 C 
BRANCH   4   5
ATOM      5  O   UNL A   1      34.957  22.709  24.844  1.00  0.00    -0.460 OA
BRANCH   5   6
ATOM      6  C   UNL A   1      34.883  23.362  23.659  1.00  0.00     0.338 C 
ATOM      7  O   UNL A   1      35.432  23.047  22.615  1.00  0.00    -0.246 OA
BRANCH   6   8
ATOM      8  C   UNL A   1      33.919  24.472  23.757  1.00  0.00     0.087 C 
ATOM      9  C   UNL A   1      31.073  27.424  24.523  1.00  0.00     0.161 A 
ATOM     10  C   UNL A   1      31.327  28.364  25.530  1.00  0.00     0.054 A 
ATOM     11  C   UNL A   1      32.057  26.481  24.187  1.00  0.00     0.169 A 
ATOM     12  C   UNL A   1      32.569  28.396  26.180  1.00  0.00    -0.047 A 
ATOM     13  C   UNL A   1      33.287  26.498  24.848  1.00  0.00     0.021 A 
ATOM     14  O   UNL A   1      31.763  25.584  23.194  1.00  0.00    -0.471 OA
ATOM     15  C   UNL A   1      32.850  29.379  27.278  1.00  0.00     0.044 C 
ATOM     16  C   UNL A   1      33.550  27.469  25.820  1.00  0.00     0.015 A 
ATOM     17  C   UNL A   1      34.264  25.458  24.593  1.00  0.00     0.027 C 
ATOM     18  C   UNL A   1      32.629  24.438  22.987  1.00  0.00     0.316 C 
BRANCH   9  19
ATOM     19  O   UNL A   1      29.862  27.299  23.890  1.00  0.00    -0.493 OA
ATOM     20  C   UNL A   1      29.522  28.350  22.994  1.00  0.00     0.278 C 
ENDBRANCH   9  19
BRANCH  18  21
ATOM     21  C   UNL A   1      31.820  23.160  23.243  1.00  0.00     0.430 C 
ATOM     22  F   UNL A   1      31.891  22.778  24.541  1.00  0.00    -0.167 F 
ATOM     23  F   UNL A   1      30.504  23.341  22.972  1.00  0.00    -0.167 F 
ATOM     24  F   UNL A   1      32.246  22.124  22.487  1.00  0.00    -0.167 F 
ENDBRANCH  18  21
ENDBRANCH   6   8
ENDBRANCH   5   6
ENDBRANCH   4   5
ENDBRANCH   3   4
ENDBRANCH   2   3
ENDBRANCH   1   2
BRANCH   1  25
ATOM     25  C   UNL A   1      39.446  19.864  25.853  1.00  0.00     0.261 C 
BRANCH  25  26
ATOM     26  O   UNL A   1      40.694  19.421  25.293  1.00  0.00    -0.460 OA
BRANCH  26  27
ATOM     27  C   UNL A   1      41.752  19.482  26.138  1.00  0.00     0.338 C 
ATOM     28  O   UNL A   1      42.584  18.613  26.352  1.00  0.00    -0.246 OA
BRANCH  27  29
ATOM     29  C   UNL A   1      41.888  20.858  26.643  1.00  0.00     0.060 A 
ATOM     30  C   UNL A   1      41.697  21.151  27.994  1.00  0.00     0.016 A 
ATOM     31  C   UNL A   1      42.256  21.865  25.740  1.00  0.00     0.016 A 
ATOM     32  C   UNL A   1      41.901  22.457  28.444  1.00  0.00     0.010 A 
ATOM     33  C   UNL A   1      42.460  23.168  26.192  1.00  0.00     0.010 A 
ATOM     34  C   UNL A   1      42.303  23.469  27.550  1.00  0.00    -0.014 A 
BRANCH  34  35
ATOM     35  C   UNL A   1      42.695  24.801  28.071  1.00  0.00     0.031 A 
ATOM     36  C   UNL A   1      44.125  25.151  28.349  1.00  0.00     0.074 A 
ATOM     37  C   UNL A   1      41.722  25.703  28.306  1.00  0.00     0.049 A 
ATOM     38  N   UNL A   1      44.628  26.304  28.710  1.00  0.00    -0.248 NA
ATOM     39  C   UNL A   1      45.116  24.075  28.214  1.00  0.00     0.031 C 
ATOM     40  C   UNL A   1      40.292  25.458  28.110  1.00  0.00     0.029 A 
ATOM     41  N   UNL A   1      41.784  27.002  28.744  1.00  0.00    -0.354 N 
ATOM     42  C   UNL A   1      45.995  26.101  28.829  1.00  0.00     0.074 A 
ATOM     43  C   UNL A   1      46.237  24.700  28.551  1.00  0.00     0.031 C 
ATOM     44  C   UNL A   1      39.617  26.583  28.379  1.00  0.00     0.029 A 
ATOM     45  C   UNL A   1      40.557  27.617  28.806  1.00  0.00     0.049 A 
ATOM     46  H   UNL A   1      42.625  27.449  28.989  1.00  0.00     0.167 HD
ATOM     47  C   UNL A   1      46.956  27.007  29.122  1.00  0.00     0.031 A 
ATOM     48  C   UNL A   1      40.219  28.873  29.155  1.00  0.00     0.031 A 
ATOM     49  C   UNL A   1      46.698  28.395  29.420  1.00  0.00     0.049 A 
ATOM     50  C   UNL A   1      41.301  29.851  29.518  1.00  0.00     0.074 A 
ATOM     51  C   UNL A   1      47.615  29.400  29.677  1.00  0.00     0.029 A 
ATOM     52  N   UNL A   1      45.440  28.970  29.517  1.00  0.00    -0.354 N 
ATOM     53  N   UNL A   1      42.600  29.671  29.531  1.00  0.00    -0.248 NA
ATOM     54  C   UNL A   1      40.877  31.205  29.899  1.00  0.00     0.031 C 
ATOM     55  C   UNL A   1      46.912  30.557  30.017  1.00  0.00     0.029 A 
ATOM     56  C   UNL A   1      45.557  30.304  29.878  1.00  0.00     0.049 A 
ATOM     57  H   UNL A   1      44.590  28.502  29.355  1.00  0.00     0.167 HD
ATOM     58  C   UNL A   1      43.150  30.891  29.900  1.00  0.00     0.074 A 
ATOM     59  C   UNL A   1      42.044  31.810  30.083  1.00  0.00     0.031 C 
ATOM     60  C   UNL A   1      44.455  31.215  30.071  1.00  0.00     0.031 A 
BRANCH  47  61
ATOM     61  C   UNL A   1      48.390  26.547  29.141  1.00  0.00    -0.014 A 
ATOM     62  C   UNL A   1      49.148  26.562  27.957  1.00  0.00     0.009 A 
ATOM     63  C   UNL A   1      48.957  25.987  30.297  1.00  0.00     0.009 A 
ATOM     64  C   UNL A   1      50.431  26.013  27.927  1.00  0.00     0.001 A 
ATOM     65  C   UNL A   1      50.254  25.468  30.271  1.00  0.00     0.001 A 
ATOM     66  C   UNL A   1      50.984  25.470  29.084  1.00  0.00     0.000 A 
ENDBRANCH  47  61
BRANCH  48  67
ATOM     67  C   UNL A   1      38.786  29.269  29.121  1.00  0.00    -0.014 A 
ATOM     68  C   UNL A   1      37.985  29.153  30.270  1.00  0.00     0.009 A 
ATOM     69  C   UNL A   1      38.188  29.678  27.920  1.00  0.00     0.009 A 
ATOM     70  C   UNL A   1      36.612  29.398  30.209  1.00  0.00     0.001 A 
ATOM     71  C   UNL A   1      36.820  29.957  27.870  1.00  0.00     0.001 A 
ATOM     72  C   UNL A   1      36.031  29.803  29.009  1.00  0.00     0.000 A 
ENDBRANCH  48  67
BRANCH  60  73
ATOM     73  C   UNL A   1      44.791  32.625  30.480  1.00  0.00    -0.014 A 
ATOM     74  C   UNL A   1      45.057  33.593  29.497  1.00  0.00     0.009 A 
ATOM     75  C   UNL A   1      44.968  32.969  31.830  1.00  0.00     0.009 A 
ATOM     76  C   UNL A   1      45.519  34.862  29.852  1.00  0.00     0.001 A 
ATOM     77  C   UNL A   1      45.394  34.251  32.184  1.00  0.00     0.001 A 
ATOM     78  C   UNL A   1      45.683  35.191  31.196  1.00  0.00     0.000 A 
ENDBRANCH  60  73
ENDBRANCH  34  35
ENDBRANCH  27  29
ENDBRANCH  26  27
ENDBRANCH  25  26
ENDBRANCH   1  25
TORSDOF 16
ENDMDL
