MODEL 1
REMARK VINA RESULT:     -10.9      0.000      0.000
REMARK SMILES O=C(CC[C@@H]1CN(c2ccncc2)CC[C@@H]1[NH+]1CCOCC1)OCCOCCOC(=O)c1ccc(-c2c3nc(c(-c4ccccc4)c4ccc([nH]4)c(-c4ccccc4)c4nc(c(-c5ccccc5)c5ccc2[nH]5)C=C4)C=C3)cc1
REMARK SMILES IDX 25 1 24 2 23 3 2 4 1 5 3 6 4 7 5 8 6 9 16 10 7 11 15 12
REMARK SMILES IDX 14 13 17 14 18 15 22 16 19 18 21 19 20 20 8 21 9 22 13 23
REMARK SMILES IDX 10 24 12 25 11 26 26 27 27 28 28 29 29 30 30 31 31 32 32 33
REMARK SMILES IDX 33 34 79 35 34 36 78 37 35 38 36 39 37 40 72 41 38 42 77 43
REMARK SMILES IDX 71 44 73 45 39 46 76 47 70 48 69 49 40 51 62 52 47 53 61 54
REMARK SMILES IDX 48 55 51 56 60 57 74 58 49 59 50 60 59 62 75 63 52 64 41 65
REMARK SMILES IDX 42 66 46 67 43 68 45 69 44 70 63 71 64 72 68 73 65 74 67 75
REMARK SMILES IDX 66 76 53 77 54 78 58 79 55 80 57 81 56 82
REMARK H PARENT 17 17 73 50 51 61
REMARK Flexibility Score: inf
ROOT
ATOM      1  C   UNL A   1      41.805  21.274  26.132  1.00  0.00     0.202 C 
ENDROOT
BRANCH   1   2
ATOM      2  C   UNL A   1      40.489  21.461  26.867  1.00  0.00     0.261 C 
BRANCH   2   3
ATOM      3  O   UNL A   1      39.530  22.322  26.237  1.00  0.00    -0.463 OA
BRANCH   3   4
ATOM      4  C   UNL A   1      38.346  21.937  25.727  1.00  0.00     0.305 C 
ATOM      5  O   UNL A   1      38.218  20.829  25.213  1.00  0.00    -0.252 OA
BRANCH   4   6
ATOM      6  C   UNL A   1      37.225  22.933  25.738  1.00  0.00     0.123 C 
BRANCH   6   7
ATOM      7  C   UNL A   1      36.179  22.701  24.649  1.00  0.00     0.023 C 
BRANCH   7   8
ATOM      8  C   UNL A   1      34.798  22.079  25.001  1.00  0.00     0.067 C 
ATOM      9  C   UNL A   1      34.781  20.524  25.077  1.00  0.00     0.126 C 
ATOM     10  C   UNL A   1      33.480  22.854  24.588  1.00  0.00     0.190 C 
ATOM     11  N   UNL A   1      33.571  19.859  24.597  1.00  0.00    -0.371 N 
ATOM     12  C   UNL A   1      32.276  21.918  24.698  1.00  0.00     0.087 C 
ATOM     13  C   UNL A   1      32.481  20.601  23.986  1.00  0.00     0.122 C 
BRANCH  10  14
ATOM     14  N   UNL A   1      33.518  23.845  23.482  1.00  0.00    -0.328 N 
ATOM     15  C   UNL A   1      33.895  25.223  23.910  1.00  0.00     0.291 C 
ATOM     16  C   UNL A   1      32.384  24.001  22.564  1.00  0.00     0.291 C 
ATOM     17  H   UNL A   1      34.240  23.366  22.945  1.00  0.00     0.348 HD
ATOM     18  C   UNL A   1      32.729  26.123  24.370  1.00  0.00     0.221 C 
ATOM     19  C   UNL A   1      31.237  24.918  23.008  1.00  0.00     0.221 C 
ATOM     20  O   UNL A   1      31.700  26.212  23.381  1.00  0.00    -0.370 OA
ENDBRANCH  10  14
BRANCH  11  21
ATOM     21  C   UNL A   1      33.477  18.468  24.651  1.00  0.00     0.040 A 
ATOM     22  C   UNL A   1      34.042  17.658  23.663  1.00  0.00     0.046 A 
ATOM     23  C   UNL A   1      32.777  17.807  25.661  1.00  0.00     0.046 A 
ATOM     24  C   UNL A   1      33.873  16.281  23.693  1.00  0.00     0.113 A 
ATOM     25  C   UNL A   1      32.641  16.422  25.609  1.00  0.00     0.113 A 
ATOM     26  N   UNL A   1      33.173  15.643  24.647  1.00  0.00    -0.265 NA
ENDBRANCH  11  21
ENDBRANCH   7   8
ENDBRANCH   6   7
ENDBRANCH   4   6
ENDBRANCH   3   4
ENDBRANCH   2   3
ENDBRANCH   1   2
BRANCH   1  27
ATOM     27  O   UNL A   1      42.282  22.324  25.309  1.00  0.00    -0.374 OA
BRANCH  27  28
ATOM     28  C   UNL A   1      42.973  23.430  25.878  1.00  0.00     0.202 C 
BRANCH  28  29
ATOM     29  C   UNL A   1      43.081  24.713  25.048  1.00  0.00     0.261 C 
BRANCH  29  30
ATOM     30  O   UNL A   1      41.961  25.618  25.151  1.00  0.00    -0.460 OA
BRANCH  30  31
ATOM     31  C   UNL A   1      42.279  26.915  25.357  1.00  0.00     0.338 C 
ATOM     32  O   UNL A   1      42.526  27.759  24.504  1.00  0.00    -0.246 OA
BRANCH  31  33
ATOM     33  C   UNL A   1      42.215  27.265  26.789  1.00  0.00     0.060 A 
ATOM     34  C   UNL A   1      41.297  26.581  27.593  1.00  0.00     0.016 A 
ATOM     35  C   UNL A   1      42.905  28.360  27.305  1.00  0.00     0.016 A 
ATOM     36  C   UNL A   1      41.034  26.989  28.902  1.00  0.00     0.010 A 
ATOM     37  C   UNL A   1      42.629  28.789  28.610  1.00  0.00     0.010 A 
ATOM     38  C   UNL A   1      41.670  28.127  29.403  1.00  0.00    -0.014 A 
BRANCH  38  39
ATOM     39  C   UNL A   1      41.210  28.767  30.662  1.00  0.00     0.031 A 
ATOM     40  C   UNL A   1      40.021  29.681  30.601  1.00  0.00     0.074 A 
ATOM     41  C   UNL A   1      41.858  28.591  31.825  1.00  0.00     0.049 A 
ATOM     42  N   UNL A   1      39.588  30.542  31.484  1.00  0.00    -0.248 NA
ATOM     43  C   UNL A   1      39.222  29.619  29.368  1.00  0.00     0.031 C 
ATOM     44  C   UNL A   1      42.965  27.668  32.047  1.00  0.00     0.029 A 
ATOM     45  N   UNL A   1      41.696  29.222  33.035  1.00  0.00    -0.354 N 
ATOM     46  C   UNL A   1      38.493  31.160  30.895  1.00  0.00     0.074 A 
ATOM     47  C   UNL A   1      38.327  30.572  29.583  1.00  0.00     0.031 C 
ATOM     48  C   UNL A   1      43.423  27.827  33.300  1.00  0.00     0.029 A 
ATOM     49  C   UNL A   1      42.674  28.902  33.946  1.00  0.00     0.049 A 
ATOM     50  H   UNL A   1      40.956  29.842  33.229  1.00  0.00     0.167 HD
ATOM     51  C   UNL A   1      37.710  32.146  31.394  1.00  0.00     0.031 A 
ATOM     52  C   UNL A   1      42.973  29.455  35.137  1.00  0.00     0.031 A 
ATOM     53  C   UNL A   1      37.893  32.740  32.690  1.00  0.00     0.049 A 
ATOM     54  C   UNL A   1      42.152  30.611  35.643  1.00  0.00     0.074 A 
ATOM     55  C   UNL A   1      37.155  33.743  33.294  1.00  0.00     0.029 A 
ATOM     56  N   UNL A   1      38.897  32.389  33.581  1.00  0.00    -0.354 N 
ATOM     57  N   UNL A   1      41.129  31.205  35.078  1.00  0.00    -0.248 NA
ATOM     58  C   UNL A   1      42.529  31.173  36.948  1.00  0.00     0.031 C 
ATOM     59  C   UNL A   1      37.751  34.039  34.525  1.00  0.00     0.029 A 
ATOM     60  C   UNL A   1      38.817  33.174  34.717  1.00  0.00     0.049 A 
ATOM     61  H   UNL A   1      39.567  31.684  33.427  1.00  0.00     0.167 HD
ATOM     62  C   UNL A   1      40.722  32.192  35.969  1.00  0.00     0.074 A 
ATOM     63  C   UNL A   1      41.605  32.112  37.114  1.00  0.00     0.031 C 
ATOM     64  C   UNL A   1      39.702  33.078  35.851  1.00  0.00     0.031 A 
BRANCH  51  65
ATOM     65  C   UNL A   1      36.641  32.691  30.488  1.00  0.00    -0.014 A 
ATOM     66  C   UNL A   1      35.327  32.196  30.512  1.00  0.00     0.009 A 
ATOM     67  C   UNL A   1      36.968  33.702  29.570  1.00  0.00     0.009 A 
ATOM     68  C   UNL A   1      34.380  32.664  29.596  1.00  0.00     0.001 A 
ATOM     69  C   UNL A   1      36.012  34.190  28.679  1.00  0.00     0.001 A 
ATOM     70  C   UNL A   1      34.723  33.660  28.682  1.00  0.00     0.000 A 
ENDBRANCH  51  65
BRANCH  52  71
ATOM     71  C   UNL A   1      44.148  28.958  35.903  1.00  0.00    -0.014 A 
ATOM     72  C   UNL A   1      44.012  27.901  36.815  1.00  0.00     0.009 A 
ATOM     73  C   UNL A   1      45.416  29.527  35.708  1.00  0.00     0.009 A 
ATOM     74  C   UNL A   1      45.123  27.433  37.523  1.00  0.00     0.001 A 
ATOM     75  C   UNL A   1      46.529  29.038  36.396  1.00  0.00     0.001 A 
ATOM     76  C   UNL A   1      46.380  27.995  37.308  1.00  0.00     0.000 A 
ENDBRANCH  52  71
BRANCH  64  77
ATOM     77  C   UNL A   1      39.445  34.003  37.007  1.00  0.00    -0.014 A 
ATOM     78  C   UNL A   1      38.731  33.582  38.139  1.00  0.00     0.009 A 
ATOM     79  C   UNL A   1      39.998  35.294  36.991  1.00  0.00     0.009 A 
ATOM     80  C   UNL A   1      38.561  34.445  39.225  1.00  0.00     0.001 A 
ATOM     81  C   UNL A   1      39.850  36.143  38.088  1.00  0.00     0.001 A 
ATOM     82  C   UNL A   1      39.128  35.720  39.203  1.00  0.00     0.000 A 
ENDBRANCH  64  77
ENDBRANCH  38  39
ENDBRANCH  31  33
ENDBRANCH  30  31
ENDBRANCH  29  30
ENDBRANCH  28  29
ENDBRANCH  27  28
ENDBRANCH   1  27
TORSDOF 18
ENDMDL
MODEL 2
REMARK VINA RESULT:     -10.9      5.377      9.567
REMARK SMILES O=C(CC[C@@H]1CN(c2ccncc2)CC[C@@H]1[NH+]1CCOCC1)OCCOCCOC(=O)c1ccc(-c2c3nc(c(-c4ccccc4)c4ccc([nH]4)c(-c4ccccc4)c4nc(c(-c5ccccc5)c5ccc2[nH]5)C=C4)C=C3)cc1
REMARK SMILES IDX 25 1 24 2 23 3 2 4 1 5 3 6 4 7 5 8 6 9 16 10 7 11 15 12
REMARK SMILES IDX 14 13 17 14 18 15 22 16 19 18 21 19 20 20 8 21 9 22 13 23
REMARK SMILES IDX 10 24 12 25 11 26 26 27 27 28 28 29 29 30 30 31 31 32 32 33
REMARK SMILES IDX 33 34 79 35 34 36 78 37 35 38 36 39 37 40 72 41 38 42 77 43
REMARK SMILES IDX 71 44 73 45 39 46 76 47 70 48 69 49 40 51 62 52 47 53 61 54
REMARK SMILES IDX 48 55 51 56 60 57 74 58 49 59 50 60 59 62 75 63 52 64 41 65
REMARK SMILES IDX 42 66 46 67 43 68 45 69 44 70 63 71 64 72 68 73 65 74 67 75
REMARK SMILES IDX 66 76 53 77 54 78 58 79 55 80 57 81 56 82
REMARK H PARENT 17 17 73 50 51 61
REMARK Flexibility Score: inf
ROOT
ATOM      1  C   UNL A   1      41.057  19.881  26.090  1.00  0.00     0.202 C 
ENDROOT
BRANCH   1   2
ATOM      2  C   UNL A   1      39.539  19.905  26.127  1.00  0.00     0.261 C 
BRANCH   2   3
ATOM      3  O   UNL A   1      38.904  20.943  25.366  1.00  0.00    -0.463 OA
BRANCH   3   4
ATOM      4  C   UNL A   1      38.449  22.110  25.857  1.00  0.00     0.305 C 
ATOM      5  O   UNL A   1      39.161  22.803  26.577  1.00  0.00    -0.252 OA
BRANCH   4   6
ATOM      6  C   UNL A   1      37.028  22.484  25.560  1.00  0.00     0.123 C 
BRANCH   6   7
ATOM      7  C   UNL A   1      36.133  21.296  25.213  1.00  0.00     0.023 C 
BRANCH   7   8
ATOM      8  C   UNL A   1      34.694  21.522  24.670  1.00  0.00     0.067 C 
ATOM      9  C   UNL A   1      34.067  22.900  25.034  1.00  0.00     0.126 C 
ATOM     10  C   UNL A   1      33.750  20.270  24.452  1.00  0.00     0.190 C 
ATOM     11  N   UNL A   1      32.632  22.913  25.315  1.00  0.00    -0.371 N 
ATOM     12  C   UNL A   1      32.307  20.738  24.269  1.00  0.00     0.087 C 
ATOM     13  C   UNL A   1      31.849  21.689  25.351  1.00  0.00     0.122 C 
BRANCH  10  14
ATOM     14  N   UNL A   1      34.006  19.009  25.195  1.00  0.00    -0.328 N 
ATOM     15  C   UNL A   1      34.874  18.038  24.470  1.00  0.00     0.291 C 
ATOM     16  C   UNL A   1      32.902  18.225  25.761  1.00  0.00     0.291 C 
ATOM     17  H   UNL A   1      34.459  19.456  25.992  1.00  0.00     0.348 HD
ATOM     18  C   UNL A   1      34.141  17.063  23.526  1.00  0.00     0.221 C 
ATOM     19  C   UNL A   1      32.191  17.235  24.830  1.00  0.00     0.221 C 
ATOM     20  O   UNL A   1      33.105  16.343  24.199  1.00  0.00    -0.370 OA
ENDBRANCH  10  14
BRANCH  11  21
ATOM     21  C   UNL A   1      31.998  24.114  25.630  1.00  0.00     0.040 A 
ATOM     22  C   UNL A   1      32.724  25.250  25.996  1.00  0.00     0.046 A 
ATOM     23  C   UNL A   1      30.608  24.243  25.647  1.00  0.00     0.046 A 
ATOM     24  C   UNL A   1      32.074  26.414  26.380  1.00  0.00     0.113 A 
ATOM     25  C   UNL A   1      30.035  25.442  26.060  1.00  0.00     0.113 A 
ATOM     26  N   UNL A   1      30.736  26.532  26.428  1.00  0.00    -0.265 NA
ENDBRANCH  11  21
ENDBRANCH   7   8
ENDBRANCH   6   7
ENDBRANCH   4   6
ENDBRANCH   3   4
ENDBRANCH   2   3
ENDBRANCH   1   2
BRANCH   1  27
ATOM     27  O   UNL A   1      41.711  18.699  25.664  1.00  0.00    -0.374 OA
BRANCH  27  28
ATOM     28  C   UNL A   1      42.745  18.122  26.453  1.00  0.00     0.202 C 
BRANCH  28  29
ATOM     29  C   UNL A   1      44.152  18.053  25.851  1.00  0.00     0.261 C 
BRANCH  29  30
ATOM     30  O   UNL A   1      44.273  18.525  24.493  1.00  0.00    -0.460 OA
BRANCH  30  31
ATOM     31  C   UNL A   1      45.291  19.383  24.265  1.00  0.00     0.338 C 
ATOM     32  O   UNL A   1      46.363  19.131  23.728  1.00  0.00    -0.246 OA
BRANCH  31  33
ATOM     33  C   UNL A   1      44.940  20.758  24.670  1.00  0.00     0.060 A 
ATOM     34  C   UNL A   1      44.630  21.681  23.665  1.00  0.00     0.016 A 
ATOM     35  C   UNL A   1      45.084  21.191  25.986  1.00  0.00     0.016 A 
ATOM     36  C   UNL A   1      44.485  23.039  23.947  1.00  0.00     0.010 A 
ATOM     37  C   UNL A   1      44.963  22.558  26.273  1.00  0.00     0.010 A 
ATOM     38  C   UNL A   1      44.695  23.492  25.252  1.00  0.00    -0.014 A 
BRANCH  38  39
ATOM     39  C   UNL A   1      44.846  24.940  25.543  1.00  0.00     0.031 A 
ATOM     40  C   UNL A   1      46.219  25.543  25.462  1.00  0.00     0.074 A 
ATOM     41  C   UNL A   1      43.806  25.700  25.925  1.00  0.00     0.049 A 
ATOM     42  N   UNL A   1      46.650  26.694  25.907  1.00  0.00    -0.248 NA
ATOM     43  C   UNL A   1      47.244  24.724  24.797  1.00  0.00     0.031 C 
ATOM     44  C   UNL A   1      42.413  25.271  25.960  1.00  0.00     0.029 A 
ATOM     45  N   UNL A   1      43.775  26.989  26.399  1.00  0.00    -0.354 N 
ATOM     46  C   UNL A   1      48.008  26.719  25.619  1.00  0.00     0.074 A 
ATOM     47  C   UNL A   1      48.326  25.471  24.958  1.00  0.00     0.031 C 
ATOM     48  C   UNL A   1      41.664  26.257  26.480  1.00  0.00     0.029 A 
ATOM     49  C   UNL A   1      42.537  27.363  26.863  1.00  0.00     0.049 A 
ATOM     50  H   UNL A   1      44.560  27.584  26.406  1.00  0.00     0.167 HD
ATOM     51  C   UNL A   1      48.913  27.686  25.901  1.00  0.00     0.031 A 
ATOM     52  C   UNL A   1      42.162  28.445  27.574  1.00  0.00     0.031 A 
ATOM     53  C   UNL A   1      48.594  28.914  26.577  1.00  0.00     0.049 A 
ATOM     54  C   UNL A   1      43.193  29.471  27.960  1.00  0.00     0.074 A 
ATOM     55  C   UNL A   1      49.434  29.962  26.910  1.00  0.00     0.029 A 
ATOM     56  N   UNL A   1      47.329  29.254  27.033  1.00  0.00    -0.354 N 
ATOM     57  N   UNL A   1      44.479  29.485  27.703  1.00  0.00    -0.248 NA
ATOM     58  C   UNL A   1      42.722  30.626  28.738  1.00  0.00     0.031 C 
ATOM     59  C   UNL A   1      48.688  30.908  27.620  1.00  0.00     0.029 A 
ATOM     60  C   UNL A   1      47.370  30.481  27.671  1.00  0.00     0.049 A 
ATOM     61  H   UNL A   1      46.521  28.703  26.920  1.00  0.00     0.167 HD
ATOM     62  C   UNL A   1      44.966  30.662  28.261  1.00  0.00     0.074 A 
ATOM     63  C   UNL A   1      43.836  31.336  28.866  1.00  0.00     0.031 C 
ATOM     64  C   UNL A   1      46.234  31.142  28.263  1.00  0.00     0.031 A 
BRANCH  51  65
ATOM     65  C   UNL A   1      50.347  27.400  25.548  1.00  0.00    -0.014 A 
ATOM     66  C   UNL A   1      50.881  27.733  24.293  1.00  0.00     0.009 A 
ATOM     67  C   UNL A   1      51.170  26.758  26.487  1.00  0.00     0.009 A 
ATOM     68  C   UNL A   1      52.191  27.375  23.966  1.00  0.00     0.001 A 
ATOM     69  C   UNL A   1      52.488  26.430  26.169  1.00  0.00     0.001 A 
ATOM     70  C   UNL A   1      52.993  26.725  24.904  1.00  0.00     0.000 A 
ENDBRANCH  51  65
BRANCH  52  71
ATOM     71  C   UNL A   1      40.749  28.575  28.020  1.00  0.00    -0.014 A 
ATOM     72  C   UNL A   1      39.819  29.291  27.252  1.00  0.00     0.009 A 
ATOM     73  C   UNL A   1      40.319  27.964  29.208  1.00  0.00     0.009 A 
ATOM     74  C   UNL A   1      38.490  29.400  27.672  1.00  0.00     0.001 A 
ATOM     75  C   UNL A   1      38.985  28.051  29.611  1.00  0.00     0.001 A 
ATOM     76  C   UNL A   1      38.073  28.774  28.846  1.00  0.00     0.000 A 
ENDBRANCH  52  71
BRANCH  64  77
ATOM     77  C   UNL A   1      46.470  32.486  28.894  1.00  0.00    -0.014 A 
ATOM     78  C   UNL A   1      46.665  32.624  30.276  1.00  0.00     0.009 A 
ATOM     79  C   UNL A   1      46.576  33.621  28.074  1.00  0.00     0.009 A 
ATOM     80  C   UNL A   1      46.944  33.878  30.826  1.00  0.00     0.001 A 
ATOM     81  C   UNL A   1      46.882  34.866  28.622  1.00  0.00     0.001 A 
ATOM     82  C   UNL A   1      47.062  34.996  29.999  1.00  0.00     0.000 A 
ENDBRANCH  64  77
ENDBRANCH  38  39
ENDBRANCH  31  33
ENDBRANCH  30  31
ENDBRANCH  29  30
ENDBRANCH  28  29
ENDBRANCH  27  28
ENDBRANCH   1  27
TORSDOF 18
ENDMDL
MODEL 3
REMARK VINA RESULT:     -10.8      5.245      8.946
REMARK SMILES O=C(CC[C@@H]1CN(c2ccncc2)CC[C@@H]1[NH+]1CCOCC1)OCCOCCOC(=O)c1ccc(-c2c3nc(c(-c4ccccc4)c4ccc([nH]4)c(-c4ccccc4)c4nc(c(-c5ccccc5)c5ccc2[nH]5)C=C4)C=C3)cc1
REMARK SMILES IDX 25 1 24 2 23 3 2 4 1 5 3 6 4 7 5 8 6 9 16 10 7 11 15 12
REMARK SMILES IDX 14 13 17 14 18 15 22 16 19 18 21 19 20 20 8 21 9 22 13 23
REMARK SMILES IDX 10 24 12 25 11 26 26 27 27 28 28 29 29 30 30 31 31 32 32 33
REMARK SMILES IDX 33 34 79 35 34 36 78 37 35 38 36 39 37 40 72 41 38 42 77 43
REMARK SMILES IDX 71 44 73 45 39 46 76 47 70 48 69 49 40 51 62 52 47 53 61 54
REMARK SMILES IDX 48 55 51 56 60 57 74 58 49 59 50 60 59 62 75 63 52 64 41 65
REMARK SMILES IDX 42 66 46 67 43 68 45 69 44 70 63 71 64 72 68 73 65 74 67 75
REMARK SMILES IDX 66 76 53 77 54 78 58 79 55 80 57 81 56 82
REMARK H PARENT 17 17 73 50 51 61
REMARK Flexibility Score: inf
ROOT
ATOM      1  C   UNL A   1      41.529  20.741  27.223  1.00  0.00     0.202 C 
ENDROOT
BRANCH   1   2
ATOM      2  C   UNL A   1      40.834  21.551  26.144  1.00  0.00     0.261 C 
BRANCH   2   3
ATOM      3  O   UNL A   1      39.429  21.308  25.976  1.00  0.00    -0.463 OA
BRANCH   3   4
ATOM      4  C   UNL A   1      38.508  22.230  25.644  1.00  0.00     0.305 C 
ATOM      5  O   UNL A   1      38.557  23.361  26.120  1.00  0.00    -0.252 OA
BRANCH   4   6
ATOM      6  C   UNL A   1      37.386  21.802  24.746  1.00  0.00     0.123 C 
BRANCH   6   7
ATOM      7  C   UNL A   1      36.127  22.657  24.876  1.00  0.00     0.023 C 
BRANCH   7   8
ATOM      8  C   UNL A   1      34.753  21.998  25.183  1.00  0.00     0.067 C 
ATOM      9  C   UNL A   1      34.769  20.442  25.229  1.00  0.00     0.126 C 
ATOM     10  C   UNL A   1      33.427  22.751  24.754  1.00  0.00     0.190 C 
ATOM     11  N   UNL A   1      33.586  19.759  24.707  1.00  0.00    -0.371 N 
ATOM     12  C   UNL A   1      32.243  21.787  24.818  1.00  0.00     0.087 C 
ATOM     13  C   UNL A   1      32.494  20.489  24.086  1.00  0.00     0.122 C 
BRANCH  10  14
ATOM     14  N   UNL A   1      33.469  23.765  23.669  1.00  0.00    -0.328 N 
ATOM     15  C   UNL A   1      33.825  25.137  24.129  1.00  0.00     0.291 C 
ATOM     16  C   UNL A   1      32.345  23.927  22.739  1.00  0.00     0.291 C 
ATOM     17  H   UNL A   1      34.202  23.304  23.132  1.00  0.00     0.348 HD
ATOM     18  C   UNL A   1      32.643  26.016  24.591  1.00  0.00     0.221 C 
ATOM     19  C   UNL A   1      31.182  24.822  23.187  1.00  0.00     0.221 C 
ATOM     20  O   UNL A   1      31.626  26.113  23.591  1.00  0.00    -0.370 OA
ENDBRANCH  10  14
BRANCH  11  21
ATOM     21  C   UNL A   1      33.522  18.366  24.732  1.00  0.00     0.040 A 
ATOM     22  C   UNL A   1      34.413  17.580  23.997  1.00  0.00     0.046 A 
ATOM     23  C   UNL A   1      32.543  17.677  25.449  1.00  0.00     0.046 A 
ATOM     24  C   UNL A   1      34.287  16.198  23.974  1.00  0.00     0.113 A 
ATOM     25  C   UNL A   1      32.476  16.290  25.360  1.00  0.00     0.113 A 
ATOM     26  N   UNL A   1      33.326  15.533  24.637  1.00  0.00    -0.265 NA
ENDBRANCH  11  21
ENDBRANCH   7   8
ENDBRANCH   6   7
ENDBRANCH   4   6
ENDBRANCH   3   4
ENDBRANCH   2   3
ENDBRANCH   1   2
BRANCH   1  27
ATOM     27  O   UNL A   1      41.490  19.326  27.148  1.00  0.00    -0.374 OA
BRANCH  27  28
ATOM     28  C   UNL A   1      42.680  18.583  26.918  1.00  0.00     0.202 C 
BRANCH  28  29
ATOM     29  C   UNL A   1      43.180  18.456  25.475  1.00  0.00     0.261 C 
BRANCH  29  30
ATOM     30  O   UNL A   1      44.611  18.366  25.317  1.00  0.00    -0.460 OA
BRANCH  30  31
ATOM     31  C   UNL A   1      45.158  19.253  24.457  1.00  0.00     0.338 C 
ATOM     32  O   UNL A   1      45.807  19.000  23.449  1.00  0.00    -0.246 OA
BRANCH  31  33
ATOM     33  C   UNL A   1      44.809  20.641  24.819  1.00  0.00     0.060 A 
ATOM     34  C   UNL A   1      44.527  21.538  23.784  1.00  0.00     0.016 A 
ATOM     35  C   UNL A   1      44.928  21.106  26.126  1.00  0.00     0.016 A 
ATOM     36  C   UNL A   1      44.387  22.905  24.028  1.00  0.00     0.010 A 
ATOM     37  C   UNL A   1      44.812  22.481  26.375  1.00  0.00     0.010 A 
ATOM     38  C   UNL A   1      44.573  23.390  25.325  1.00  0.00    -0.014 A 
BRANCH  38  39
ATOM     39  C   UNL A   1      44.729  24.844  25.582  1.00  0.00     0.031 A 
ATOM     40  C   UNL A   1      46.102  25.442  25.476  1.00  0.00     0.074 A 
ATOM     41  C   UNL A   1      43.693  25.614  25.953  1.00  0.00     0.049 A 
ATOM     42  N   UNL A   1      46.538  26.602  25.892  1.00  0.00    -0.248 NA
ATOM     43  C   UNL A   1      47.121  24.606  24.823  1.00  0.00     0.031 C 
ATOM     44  C   UNL A   1      42.299  25.190  26.008  1.00  0.00     0.029 A 
ATOM     45  N   UNL A   1      43.668  26.915  26.397  1.00  0.00    -0.354 N 
ATOM     46  C   UNL A   1      47.895  26.617  25.593  1.00  0.00     0.074 A 
ATOM     47  C   UNL A   1      48.205  25.354  24.959  1.00  0.00     0.031 C 
ATOM     48  C   UNL A   1      41.556  26.189  26.510  1.00  0.00     0.029 A 
ATOM     49  C   UNL A   1      42.434  27.302  26.862  1.00  0.00     0.049 A 
ATOM     50  H   UNL A   1      44.454  27.507  26.385  1.00  0.00     0.167 HD
ATOM     51  C   UNL A   1      48.804  27.589  25.846  1.00  0.00     0.031 A 
ATOM     52  C   UNL A   1      42.066  28.400  27.551  1.00  0.00     0.031 A 
ATOM     53  C   UNL A   1      48.492  28.833  26.496  1.00  0.00     0.049 A 
ATOM     54  C   UNL A   1      43.103  29.432  27.906  1.00  0.00     0.074 A 
ATOM     55  C   UNL A   1      49.337  29.886  26.799  1.00  0.00     0.029 A 
ATOM     56  N   UNL A   1      47.231  29.186  26.953  1.00  0.00    -0.354 N 
ATOM     57  N   UNL A   1      44.386  29.438  27.639  1.00  0.00    -0.248 NA
ATOM     58  C   UNL A   1      42.640  30.607  28.660  1.00  0.00     0.031 C 
ATOM     59  C   UNL A   1      48.597  30.850  27.493  1.00  0.00     0.029 A 
ATOM     60  C   UNL A   1      47.279  30.427  27.562  1.00  0.00     0.049 A 
ATOM     61  H   UNL A   1      46.421  28.634  26.859  1.00  0.00     0.167 HD
ATOM     62  C   UNL A   1      44.880  30.627  28.166  1.00  0.00     0.074 A 
ATOM     63  C   UNL A   1      43.756  31.317  28.763  1.00  0.00     0.031 C 
ATOM     64  C   UNL A   1      46.149  31.104  28.148  1.00  0.00     0.031 A 
BRANCH  51  65
ATOM     65  C   UNL A   1      50.234  27.292  25.490  1.00  0.00    -0.014 A 
ATOM     66  C   UNL A   1      51.180  26.931  26.463  1.00  0.00     0.009 A 
ATOM     67  C   UNL A   1      50.646  27.405  24.152  1.00  0.00     0.009 A 
ATOM     68  C   UNL A   1      52.520  26.747  26.110  1.00  0.00     0.001 A 
ATOM     69  C   UNL A   1      51.978  27.188  23.798  1.00  0.00     0.001 A 
ATOM     70  C   UNL A   1      52.917  26.875  24.779  1.00  0.00     0.000 A 
ENDBRANCH  51  65
BRANCH  52  71
ATOM     71  C   UNL A   1      40.657  28.544  28.003  1.00  0.00    -0.014 A 
ATOM     72  C   UNL A   1      40.239  28.000  29.227  1.00  0.00     0.009 A 
ATOM     73  C   UNL A   1      39.727  29.245  27.220  1.00  0.00     0.009 A 
ATOM     74  C   UNL A   1      38.914  28.148  29.650  1.00  0.00     0.001 A 
ATOM     75  C   UNL A   1      38.412  29.416  27.658  1.00  0.00     0.001 A 
ATOM     76  C   UNL A   1      38.005  28.862  28.870  1.00  0.00     0.000 A 
ENDBRANCH  52  71
BRANCH  64  77
ATOM     77  C   UNL A   1      46.392  32.461  28.745  1.00  0.00    -0.014 A 
ATOM     78  C   UNL A   1      46.790  32.614  30.082  1.00  0.00     0.009 A 
ATOM     79  C   UNL A   1      46.296  33.600  27.929  1.00  0.00     0.009 A 
ATOM     80  C   UNL A   1      47.069  33.885  30.592  1.00  0.00     0.001 A 
ATOM     81  C   UNL A   1      46.602  34.863  28.433  1.00  0.00     0.001 A 
ATOM     82  C   UNL A   1      46.984  35.006  29.766  1.00  0.00     0.000 A 
ENDBRANCH  64  77
ENDBRANCH  38  39
ENDBRANCH  31  33
ENDBRANCH  30  31
ENDBRANCH  29  30
ENDBRANCH  28  29
ENDBRANCH  27  28
ENDBRANCH   1  27
TORSDOF 18
ENDMDL
