MODEL 1
REMARK VINA RESULT:      -9.1      0.000      0.000
REMARK SMILES CCC[N@@H+](C1CC1)[C@@H]1CC[C@]([NH2+]C2CC2)(C(=O)OCCOCCOC(=O)c2ccc(-c3c4nc(c(-c5ccccc5)c5ccc([nH]5)c(-c5ccccc5)c5nc(c(-c6ccccc6)c6ccc3[nH]6)C=C5)C=C4)cc2)C1
REMARK SMILES IDX 20 1 19 2 18 3 16 4 17 5 11 6 8 7 9 8 75 9 10 10 4 11 3 13
REMARK SMILES IDX 2 14 1 15 5 16 6 17 7 18 12 19 13 22 14 23 15 24 21 25 22 26
REMARK SMILES IDX 23 27 24 28 25 29 26 30 27 31 28 32 74 33 29 34 73 35 30 36
REMARK SMILES IDX 31 37 32 38 67 39 33 40 72 41 66 42 68 43 34 44 71 45 65 46
REMARK SMILES IDX 64 47 35 49 57 50 42 51 56 52 43 53 46 54 55 55 69 56 44 57
REMARK SMILES IDX 45 58 54 60 70 61 47 62 36 63 37 64 41 65 38 66 40 67 39 68
REMARK SMILES IDX 58 69 59 70 63 71 60 72 62 73 61 74 48 75 49 76 53 77 50 78
REMARK SMILES IDX 52 79 51 80
REMARK H PARENT 4 12 12 20 12 21 68 48 46 59
REMARK Flexibility Score: inf
ROOT
ATOM      1  C   UNL A   1      31.178  29.191  23.018  1.00  0.00     0.202 C 
ENDROOT
BRANCH   1   2
ATOM      2  C   UNL A   1      32.345  28.218  22.859  1.00  0.00     0.261 C 
BRANCH   2   3
ATOM      3  O   UNL A   1      31.908  26.985  22.265  1.00  0.00    -0.459 OA
BRANCH   3   4
ATOM      4  C   UNL A   1      32.849  26.007  22.127  1.00  0.00     0.368 C 
ATOM      5  O   UNL A   1      33.695  25.975  21.240  1.00  0.00    -0.245 OA
BRANCH   4   6
ATOM      6  C   UNL A   1      32.641  24.861  23.158  1.00  0.00     0.200 C 
ATOM      7  C   UNL A   1      33.887  23.509  24.769  1.00  0.00     0.191 C 
ATOM      8  C   UNL A   1      33.954  22.767  23.428  1.00  0.00     0.072 C 
ATOM      9  C   UNL A   1      33.675  24.940  24.294  1.00  0.00     0.146 C 
ATOM     10  C   UNL A   1      32.968  23.497  22.497  1.00  0.00     0.087 C 
BRANCH   7  11
ATOM     11  N   UNL A   1      35.014  23.172  25.672  1.00  0.00    -0.330 N 
ATOM     12  H   UNL A   1      35.421  22.306  25.319  1.00  0.00     0.348 HD
BRANCH  11  13
ATOM     13  C   UNL A   1      36.185  24.067  25.632  1.00  0.00     0.262 C 
BRANCH  13  14
ATOM     14  C   UNL A   1      37.582  23.428  25.578  1.00  0.00     0.058 C 
ATOM     15  C   UNL A   1      38.562  24.028  26.580  1.00  0.00     0.010 C 
ENDBRANCH  13  14
ENDBRANCH  11  13
BRANCH  11  16
ATOM     16  C   UNL A   1      34.464  22.975  27.060  1.00  0.00     0.184 C 
ATOM     17  C   UNL A   1      33.038  22.631  27.409  1.00  0.00     0.071 C 
ATOM     18  C   UNL A   1      34.101  21.582  27.533  1.00  0.00     0.071 C 
ENDBRANCH  11  16
ENDBRANCH   7  11
BRANCH   6  19
ATOM     19  N   UNL A   1      31.227  24.992  23.595  1.00  0.00    -0.329 N 
ATOM     20  H   UNL A   1      30.814  24.059  23.568  1.00  0.00     0.347 HD
ATOM     21  H   UNL A   1      30.824  25.673  22.952  1.00  0.00     0.347 HD
BRANCH  19  22
ATOM     22  C   UNL A   1      30.967  25.543  24.921  1.00  0.00     0.183 C 
ATOM     23  C   UNL A   1      29.550  25.831  25.341  1.00  0.00     0.071 C 
ATOM     24  C   UNL A   1      30.283  24.671  25.937  1.00  0.00     0.071 C 
ENDBRANCH  19  22
ENDBRANCH   6  19
ENDBRANCH   4   6
ENDBRANCH   3   4
ENDBRANCH   2   3
ENDBRANCH   1   2
BRANCH   1  25
ATOM     25  O   UNL A   1      30.687  29.329  24.351  1.00  0.00    -0.374 OA
BRANCH  25  26
ATOM     26  C   UNL A   1      31.646  29.125  25.390  1.00  0.00     0.202 C 
BRANCH  26  27
ATOM     27  C   UNL A   1      31.877  30.334  26.307  1.00  0.00     0.261 C 
BRANCH  27  28
ATOM     28  O   UNL A   1      33.246  30.787  26.263  1.00  0.00    -0.460 OA
BRANCH  28  29
ATOM     29  C   UNL A   1      33.647  31.527  27.326  1.00  0.00     0.338 C 
ATOM     30  O   UNL A   1      32.978  32.315  27.966  1.00  0.00    -0.246 OA
BRANCH  29  31
ATOM     31  C   UNL A   1      35.003  31.107  27.753  1.00  0.00     0.060 A 
ATOM     32  C   UNL A   1      35.217  29.738  27.951  1.00  0.00     0.016 A 
ATOM     33  C   UNL A   1      36.034  32.014  28.002  1.00  0.00     0.016 A 
ATOM     34  C   UNL A   1      36.436  29.282  28.457  1.00  0.00     0.010 A 
ATOM     35  C   UNL A   1      37.270  31.553  28.473  1.00  0.00     0.010 A 
ATOM     36  C   UNL A   1      37.461  30.188  28.759  1.00  0.00    -0.014 A 
BRANCH  36  37
ATOM     37  C   UNL A   1      38.637  29.727  29.548  1.00  0.00     0.031 A 
ATOM     38  C   UNL A   1      38.756  30.144  30.993  1.00  0.00     0.074 A 
ATOM     39  C   UNL A   1      39.556  28.895  29.023  1.00  0.00     0.049 A 
ATOM     40  N   UNL A   1      39.674  29.834  31.875  1.00  0.00    -0.248 NA
ATOM     41  C   UNL A   1      37.700  31.028  31.514  1.00  0.00     0.031 C 
ATOM     42  C   UNL A   1      39.550  28.376  27.656  1.00  0.00     0.029 A 
ATOM     43  N   UNL A   1      40.673  28.330  29.592  1.00  0.00    -0.354 N 
ATOM     44  C   UNL A   1      39.310  30.490  33.046  1.00  0.00     0.074 A 
ATOM     45  C   UNL A   1      38.117  31.251  32.750  1.00  0.00     0.031 C 
ATOM     46  C   UNL A   1      40.606  27.557  27.497  1.00  0.00     0.029 A 
ATOM     47  C   UNL A   1      41.381  27.523  28.736  1.00  0.00     0.049 A 
ATOM     48  H   UNL A   1      40.940  28.490  30.526  1.00  0.00     0.167 HD
ATOM     49  C   UNL A   1      39.901  30.454  34.265  1.00  0.00     0.031 A 
ATOM     50  C   UNL A   1      42.529  26.841  28.922  1.00  0.00     0.031 A 
ATOM     51  C   UNL A   1      41.088  29.704  34.572  1.00  0.00     0.049 A 
ATOM     52  C   UNL A   1      43.216  26.884  30.264  1.00  0.00     0.074 A 
ATOM     53  C   UNL A   1      41.745  29.591  35.786  1.00  0.00     0.029 A 
ATOM     54  N   UNL A   1      41.804  28.948  33.658  1.00  0.00    -0.354 N 
ATOM     55  N   UNL A   1      42.840  27.480  31.369  1.00  0.00    -0.248 NA
ATOM     56  C   UNL A   1      44.485  26.149  30.382  1.00  0.00     0.031 C 
ATOM     57  C   UNL A   1      42.895  28.823  35.590  1.00  0.00     0.029 A 
ATOM     58  C   UNL A   1      42.915  28.395  34.273  1.00  0.00     0.049 A 
ATOM     59  H   UNL A   1      41.559  28.821  32.713  1.00  0.00     0.167 HD
ATOM     60  C   UNL A   1      43.806  27.167  32.319  1.00  0.00     0.074 A 
ATOM     61  C   UNL A   1      44.776  26.315  31.665  1.00  0.00     0.031 C 
ATOM     62  C   UNL A   1      43.880  27.550  33.618  1.00  0.00     0.031 A 
BRANCH  49  63
ATOM     63  C   UNL A   1      39.283  31.286  35.356  1.00  0.00    -0.014 A 
ATOM     64  C   UNL A   1      38.319  30.755  36.227  1.00  0.00     0.009 A 
ATOM     65  C   UNL A   1      39.697  32.615  35.532  1.00  0.00     0.009 A 
ATOM     66  C   UNL A   1      37.753  31.551  37.226  1.00  0.00     0.001 A 
ATOM     67  C   UNL A   1      39.156  33.398  36.554  1.00  0.00     0.001 A 
ATOM     68  C   UNL A   1      38.176  32.868  37.392  1.00  0.00     0.000 A 
ENDBRANCH  49  63
BRANCH  50  69
ATOM     69  C   UNL A   1      43.128  26.065  27.802  1.00  0.00    -0.014 A 
ATOM     70  C   UNL A   1      42.807  24.713  27.608  1.00  0.00     0.009 A 
ATOM     71  C   UNL A   1      44.053  26.671  26.935  1.00  0.00     0.009 A 
ATOM     72  C   UNL A   1      43.420  23.977  26.590  1.00  0.00     0.001 A 
ATOM     73  C   UNL A   1      44.639  25.942  25.898  1.00  0.00     0.001 A 
ATOM     74  C   UNL A   1      44.330  24.593  25.733  1.00  0.00     0.000 A 
ENDBRANCH  50  69
BRANCH  62  75
ATOM     75  C   UNL A   1      45.027  27.022  34.437  1.00  0.00    -0.014 A 
ATOM     76  C   UNL A   1      46.230  27.734  34.562  1.00  0.00     0.009 A 
ATOM     77  C   UNL A   1      44.881  25.812  35.135  1.00  0.00     0.009 A 
ATOM     78  C   UNL A   1      47.275  27.227  35.339  1.00  0.00     0.001 A 
ATOM     79  C   UNL A   1      45.914  25.324  35.938  1.00  0.00     0.001 A 
ATOM     80  C   UNL A   1      47.114  26.027  36.032  1.00  0.00     0.000 A 
ENDBRANCH  62  75
ENDBRANCH  36  37
ENDBRANCH  29  31
ENDBRANCH  28  29
ENDBRANCH  27  28
ENDBRANCH  26  27
ENDBRANCH  25  26
ENDBRANCH   1  25
TORSDOF 20
ENDMDL
MODEL 2
REMARK VINA RESULT:      -9.0      2.810      3.614
REMARK SMILES CCC[N@@H+](C1CC1)[C@@H]1CC[C@]([NH2+]C2CC2)(C(=O)OCCOCCOC(=O)c2ccc(-c3c4nc(c(-c5ccccc5)c5ccc([nH]5)c(-c5ccccc5)c5nc(c(-c6ccccc6)c6ccc3[nH]6)C=C5)C=C4)cc2)C1
REMARK SMILES IDX 20 1 19 2 18 3 16 4 17 5 11 6 8 7 9 8 75 9 10 10 4 11 3 13
REMARK SMILES IDX 2 14 1 15 5 16 6 17 7 18 12 19 13 22 14 23 15 24 21 25 22 26
REMARK SMILES IDX 23 27 24 28 25 29 26 30 27 31 28 32 74 33 29 34 73 35 30 36
REMARK SMILES IDX 31 37 32 38 67 39 33 40 72 41 66 42 68 43 34 44 71 45 65 46
REMARK SMILES IDX 64 47 35 49 57 50 42 51 56 52 43 53 46 54 55 55 69 56 44 57
REMARK SMILES IDX 45 58 54 60 70 61 47 62 36 63 37 64 41 65 38 66 40 67 39 68
REMARK SMILES IDX 58 69 59 70 63 71 60 72 62 73 61 74 48 75 49 76 53 77 50 78
REMARK SMILES IDX 52 79 51 80
REMARK H PARENT 4 12 12 20 12 21 68 48 46 59
REMARK Flexibility Score: inf
ROOT
ATOM      1  C   UNL A   1      34.065  28.598  22.870  1.00  0.00     0.202 C 
ENDROOT
BRANCH   1   2
ATOM      2  C   UNL A   1      33.308  27.410  22.278  1.00  0.00     0.261 C 
BRANCH   2   3
ATOM      3  O   UNL A   1      33.895  26.167  22.697  1.00  0.00    -0.459 OA
BRANCH   3   4
ATOM      4  C   UNL A   1      33.310  25.027  22.227  1.00  0.00     0.368 C 
ATOM      5  O   UNL A   1      33.000  24.835  21.056  1.00  0.00    -0.245 OA
BRANCH   4   6
ATOM      6  C   UNL A   1      32.963  24.044  23.381  1.00  0.00     0.200 C 
ATOM      7  C   UNL A   1      33.638  21.880  24.298  1.00  0.00     0.191 C 
ATOM      8  C   UNL A   1      32.551  21.595  23.253  1.00  0.00     0.072 C 
ATOM      9  C   UNL A   1      34.187  23.204  23.785  1.00  0.00     0.146 C 
ATOM     10  C   UNL A   1      31.969  22.969  22.870  1.00  0.00     0.087 C 
BRANCH   7  11
ATOM     11  N   UNL A   1      34.539  20.724  24.522  1.00  0.00    -0.330 N 
ATOM     12  H   UNL A   1      35.012  20.546  23.637  1.00  0.00     0.348 HD
BRANCH  11  13
ATOM     13  C   UNL A   1      35.691  20.947  25.414  1.00  0.00     0.262 C 
BRANCH  13  14
ATOM     14  C   UNL A   1      37.085  21.072  24.777  1.00  0.00     0.058 C 
ATOM     15  C   UNL A   1      38.026  21.987  25.552  1.00  0.00     0.010 C 
ENDBRANCH  13  14
ENDBRANCH  11  13
BRANCH  11  16
ATOM     16  C   UNL A   1      33.697  19.542  24.924  1.00  0.00     0.184 C 
ATOM     17  C   UNL A   1      32.800  18.741  24.014  1.00  0.00     0.071 C 
ATOM     18  C   UNL A   1      34.097  18.150  24.478  1.00  0.00     0.071 C 
ENDBRANCH  11  16
ENDBRANCH   7  11
BRANCH   6  19
ATOM     19  N   UNL A   1      32.414  24.902  24.463  1.00  0.00    -0.329 N 
ATOM     20  H   UNL A   1      32.630  25.869  24.220  1.00  0.00     0.347 HD
ATOM     21  H   UNL A   1      32.851  24.549  25.313  1.00  0.00     0.347 HD
BRANCH  19  22
ATOM     22  C   UNL A   1      30.981  24.832  24.733  1.00  0.00     0.183 C 
ATOM     23  C   UNL A   1      30.402  25.624  25.876  1.00  0.00     0.071 C 
ATOM     24  C   UNL A   1      30.142  26.051  24.465  1.00  0.00     0.071 C 
ENDBRANCH  19  22
ENDBRANCH   6  19
ENDBRANCH   4   6
ENDBRANCH   3   4
ENDBRANCH   2   3
ENDBRANCH   1   2
BRANCH   1  25
ATOM     25  O   UNL A   1      34.006  28.701  24.293  1.00  0.00    -0.374 OA
BRANCH  25  26
ATOM     26  C   UNL A   1      32.697  28.816  24.853  1.00  0.00     0.202 C 
BRANCH  26  27
ATOM     27  C   UNL A   1      32.658  29.067  26.367  1.00  0.00     0.261 C 
BRANCH  27  28
ATOM     28  O   UNL A   1      33.972  28.990  26.958  1.00  0.00    -0.460 OA
BRANCH  28  29
ATOM     29  C   UNL A   1      34.378  30.104  27.616  1.00  0.00     0.338 C 
ATOM     30  O   UNL A   1      33.696  31.059  27.932  1.00  0.00    -0.246 OA
BRANCH  29  31
ATOM     31  C   UNL A   1      35.772  29.932  28.091  1.00  0.00     0.060 A 
ATOM     32  C   UNL A   1      36.796  30.146  27.161  1.00  0.00     0.016 A 
ATOM     33  C   UNL A   1      36.086  29.529  29.390  1.00  0.00     0.016 A 
ATOM     34  C   UNL A   1      38.126  29.896  27.509  1.00  0.00     0.010 A 
ATOM     35  C   UNL A   1      37.423  29.316  29.750  1.00  0.00     0.010 A 
ATOM     36  C   UNL A   1      38.448  29.442  28.794  1.00  0.00    -0.014 A 
BRANCH  36  37
ATOM     37  C   UNL A   1      39.816  28.920  29.065  1.00  0.00     0.031 A 
ATOM     38  C   UNL A   1      40.791  29.783  29.827  1.00  0.00     0.074 A 
ATOM     39  C   UNL A   1      40.180  27.673  28.706  1.00  0.00     0.049 A 
ATOM     40  N   UNL A   1      42.018  29.520  30.204  1.00  0.00    -0.248 NA
ATOM     41  C   UNL A   1      40.320  31.122  30.218  1.00  0.00     0.031 C 
ATOM     42  C   UNL A   1      39.333  26.711  28.003  1.00  0.00     0.029 A 
ATOM     43  N   UNL A   1      41.363  27.000  28.901  1.00  0.00    -0.354 N 
ATOM     44  C   UNL A   1      42.464  30.660  30.864  1.00  0.00     0.074 A 
ATOM     45  C   UNL A   1      41.395  31.632  30.796  1.00  0.00     0.031 C 
ATOM     46  C   UNL A   1      40.021  25.566  27.837  1.00  0.00     0.029 A 
ATOM     47  C   UNL A   1      41.365  25.726  28.389  1.00  0.00     0.049 A 
ATOM     48  H   UNL A   1      42.136  27.396  29.365  1.00  0.00     0.167 HD
ATOM     49  C   UNL A   1      43.646  30.880  31.486  1.00  0.00     0.031 A 
ATOM     50  C   UNL A   1      42.340  24.796  28.356  1.00  0.00     0.031 A 
ATOM     51  C   UNL A   1      44.718  29.923  31.558  1.00  0.00     0.049 A 
ATOM     52  C   UNL A   1      43.680  25.094  28.981  1.00  0.00     0.074 A 
ATOM     53  C   UNL A   1      45.944  30.052  32.188  1.00  0.00     0.029 A 
ATOM     54  N   UNL A   1      44.697  28.667  30.974  1.00  0.00    -0.354 N 
ATOM     55  N   UNL A   1      44.071  26.162  29.632  1.00  0.00    -0.248 NA
ATOM     56  C   UNL A   1      44.709  24.049  28.873  1.00  0.00     0.031 C 
ATOM     57  C   UNL A   1      46.692  28.900  31.927  1.00  0.00     0.029 A 
ATOM     58  C   UNL A   1      45.903  28.024  31.198  1.00  0.00     0.049 A 
ATOM     59  H   UNL A   1      43.938  28.288  30.475  1.00  0.00     0.167 HD
ATOM     60  C   UNL A   1      45.378  25.905  30.036  1.00  0.00     0.074 A 
ATOM     61  C   UNL A   1      45.705  24.573  29.572  1.00  0.00     0.031 C 
ATOM     62  C   UNL A   1      46.227  26.701  30.732  1.00  0.00     0.031 A 
BRANCH  49  63
ATOM     63  C   UNL A   1      43.856  32.231  32.113  1.00  0.00    -0.014 A 
ATOM     64  C   UNL A   1      43.562  32.467  33.466  1.00  0.00     0.009 A 
ATOM     65  C   UNL A   1      44.386  33.278  31.342  1.00  0.00     0.009 A 
ATOM     66  C   UNL A   1      43.757  33.733  34.022  1.00  0.00     0.001 A 
ATOM     67  C   UNL A   1      44.613  34.533  31.909  1.00  0.00     0.001 A 
ATOM     68  C   UNL A   1      44.287  34.763  33.245  1.00  0.00     0.000 A 
ENDBRANCH  49  63
BRANCH  50  69
ATOM     69  C   UNL A   1      42.103  23.488  27.687  1.00  0.00    -0.014 A 
ATOM     70  C   UNL A   1      42.490  23.278  26.355  1.00  0.00     0.009 A 
ATOM     71  C   UNL A   1      41.457  22.448  28.376  1.00  0.00     0.009 A 
ATOM     72  C   UNL A   1      42.209  22.066  25.717  1.00  0.00     0.001 A 
ATOM     73  C   UNL A   1      41.208  21.226  27.747  1.00  0.00     0.001 A 
ATOM     74  C   UNL A   1      41.574  21.040  26.415  1.00  0.00     0.000 A 
ENDBRANCH  50  69
BRANCH  62  75
ATOM     75  C   UNL A   1      47.583  26.144  31.073  1.00  0.00    -0.014 A 
ATOM     76  C   UNL A   1      47.860  25.606  32.339  1.00  0.00     0.009 A 
ATOM     77  C   UNL A   1      48.587  26.114  30.091  1.00  0.00     0.009 A 
ATOM     78  C   UNL A   1      49.124  25.083  32.625  1.00  0.00     0.001 A 
ATOM     79  C   UNL A   1      49.838  25.561  30.368  1.00  0.00     0.001 A 
ATOM     80  C   UNL A   1      50.110  25.055  31.638  1.00  0.00     0.000 A 
ENDBRANCH  62  75
ENDBRANCH  36  37
ENDBRANCH  29  31
ENDBRANCH  28  29
ENDBRANCH  27  28
ENDBRANCH  26  27
ENDBRANCH  25  26
ENDBRANCH   1  25
TORSDOF 20
ENDMDL
MODEL 3
REMARK VINA RESULT:      -9.0      3.690      6.810
REMARK SMILES CCC[N@@H+](C1CC1)[C@@H]1CC[C@]([NH2+]C2CC2)(C(=O)OCCOCCOC(=O)c2ccc(-c3c4nc(c(-c5ccccc5)c5ccc([nH]5)c(-c5ccccc5)c5nc(c(-c6ccccc6)c6ccc3[nH]6)C=C5)C=C4)cc2)C1
REMARK SMILES IDX 20 1 19 2 18 3 16 4 17 5 11 6 8 7 9 8 75 9 10 10 4 11 3 13
REMARK SMILES IDX 2 14 1 15 5 16 6 17 7 18 12 19 13 22 14 23 15 24 21 25 22 26
REMARK SMILES IDX 23 27 24 28 25 29 26 30 27 31 28 32 74 33 29 34 73 35 30 36
REMARK SMILES IDX 31 37 32 38 67 39 33 40 72 41 66 42 68 43 34 44 71 45 65 46
REMARK SMILES IDX 64 47 35 49 57 50 42 51 56 52 43 53 46 54 55 55 69 56 44 57
REMARK SMILES IDX 45 58 54 60 70 61 47 62 36 63 37 64 41 65 38 66 40 67 39 68
REMARK SMILES IDX 58 69 59 70 63 71 60 72 62 73 61 74 48 75 49 76 53 77 50 78
REMARK SMILES IDX 52 79 51 80
REMARK H PARENT 4 12 12 20 12 21 68 48 46 59
REMARK Flexibility Score: inf
ROOT
ATOM      1  C   UNL A   1      35.066  32.515  27.864  1.00  0.00     0.202 C 
ENDROOT
BRANCH   1   2
ATOM      2  C   UNL A   1      33.917  31.512  27.965  1.00  0.00     0.261 C 
BRANCH   2   3
ATOM      3  O   UNL A   1      33.887  30.650  26.815  1.00  0.00    -0.459 OA
BRANCH   3   4
ATOM      4  C   UNL A   1      34.404  29.397  26.978  1.00  0.00     0.368 C 
ATOM      5  O   UNL A   1      35.487  29.153  27.500  1.00  0.00    -0.245 OA
BRANCH   4   6
ATOM      6  C   UNL A   1      33.511  28.316  26.306  1.00  0.00     0.200 C 
ATOM      7  C   UNL A   1      31.378  28.075  25.136  1.00  0.00     0.191 C 
ATOM      8  C   UNL A   1      31.082  27.894  26.631  1.00  0.00     0.072 C 
ATOM      9  C   UNL A   1      32.639  28.925  25.195  1.00  0.00     0.146 C 
ATOM     10  C   UNL A   1      32.457  27.803  27.320  1.00  0.00     0.087 C 
BRANCH   7  11
ATOM     11  N   UNL A   1      30.195  28.529  24.366  1.00  0.00    -0.330 N 
ATOM     12  H   UNL A   1      29.490  28.804  25.049  1.00  0.00     0.348 HD
BRANCH  11  13
ATOM     13  C   UNL A   1      30.344  29.780  23.600  1.00  0.00     0.262 C 
BRANCH  13  14
ATOM     14  C   UNL A   1      29.132  30.288  22.802  1.00  0.00     0.058 C 
ATOM     15  C   UNL A   1      28.308  31.331  23.549  1.00  0.00     0.010 C 
ENDBRANCH  13  14
ENDBRANCH  11  13
BRANCH  11  16
ATOM     16  C   UNL A   1      29.706  27.376  23.530  1.00  0.00     0.184 C 
ATOM     17  C   UNL A   1      29.729  25.921  23.925  1.00  0.00     0.071 C 
ATOM     18  C   UNL A   1      28.425  26.661  23.913  1.00  0.00     0.071 C 
ENDBRANCH  11  16
ENDBRANCH   7  11
BRANCH   6  19
ATOM     19  N   UNL A   1      34.460  27.269  25.846  1.00  0.00    -0.329 N 
ATOM     20  H   UNL A   1      35.228  27.240  26.518  1.00  0.00     0.347 HD
ATOM     21  H   UNL A   1      34.710  27.551  24.898  1.00  0.00     0.347 HD
BRANCH  19  22
ATOM     22  C   UNL A   1      33.959  25.905  25.702  1.00  0.00     0.183 C 
ATOM     23  C   UNL A   1      33.955  25.256  24.343  1.00  0.00     0.071 C 
ATOM     24  C   UNL A   1      34.940  24.813  25.379  1.00  0.00     0.071 C 
ENDBRANCH  19  22
ENDBRANCH   6  19
ENDBRANCH   4   6
ENDBRANCH   3   4
ENDBRANCH   2   3
ENDBRANCH   1   2
BRANCH   1  25
ATOM     25  O   UNL A   1      35.095  33.502  28.895  1.00  0.00    -0.374 OA
BRANCH  25  26
ATOM     26  C   UNL A   1      34.161  33.315  29.959  1.00  0.00     0.202 C 
BRANCH  26  27
ATOM     27  C   UNL A   1      34.733  33.523  31.369  1.00  0.00     0.261 C 
BRANCH  27  28
ATOM     28  O   UNL A   1      34.810  32.285  32.105  1.00  0.00    -0.460 OA
BRANCH  28  29
ATOM     29  C   UNL A   1      35.936  32.118  32.842  1.00  0.00     0.338 C 
ATOM     30  O   UNL A   1      36.100  32.418  34.008  1.00  0.00    -0.246 OA
BRANCH  29  31
ATOM     31  C   UNL A   1      36.926  31.320  32.079  1.00  0.00     0.060 A 
ATOM     32  C   UNL A   1      38.108  30.965  32.741  1.00  0.00     0.016 A 
ATOM     33  C   UNL A   1      36.743  30.961  30.744  1.00  0.00     0.016 A 
ATOM     34  C   UNL A   1      39.130  30.309  32.051  1.00  0.00     0.010 A 
ATOM     35  C   UNL A   1      37.753  30.269  30.062  1.00  0.00     0.010 A 
ATOM     36  C   UNL A   1      38.978  29.989  30.696  1.00  0.00    -0.014 A 
BRANCH  36  37
ATOM     37  C   UNL A   1      40.163  29.547  29.910  1.00  0.00     0.031 A 
ATOM     38  C   UNL A   1      41.299  30.517  29.693  1.00  0.00     0.074 A 
ATOM     39  C   UNL A   1      40.275  28.286  29.450  1.00  0.00     0.049 A 
ATOM     40  N   UNL A   1      42.439  30.338  29.072  1.00  0.00    -0.248 NA
ATOM     41  C   UNL A   1      41.128  31.869  30.250  1.00  0.00     0.031 C 
ATOM     42  C   UNL A   1      39.280  27.229  29.619  1.00  0.00     0.029 A 
ATOM     43  N   UNL A   1      41.294  27.681  28.753  1.00  0.00    -0.354 N 
ATOM     44  C   UNL A   1      43.111  31.552  29.158  1.00  0.00     0.074 A 
ATOM     45  C   UNL A   1      42.234  32.472  29.847  1.00  0.00     0.031 C 
ATOM     46  C   UNL A   1      39.743  26.100  29.051  1.00  0.00     0.029 A 
ATOM     47  C   UNL A   1      41.050  26.364  28.449  1.00  0.00     0.049 A 
ATOM     48  H   UNL A   1      42.121  28.148  28.495  1.00  0.00     0.167 HD
ATOM     49  C   UNL A   1      44.351  31.875  28.719  1.00  0.00     0.031 A 
ATOM     50  C   UNL A   1      41.786  25.472  27.757  1.00  0.00     0.031 A 
ATOM     51  C   UNL A   1      45.232  30.972  28.030  1.00  0.00     0.049 A 
ATOM     52  C   UNL A   1      43.128  25.880  27.204  1.00  0.00     0.074 A 
ATOM     53  C   UNL A   1      46.516  31.206  27.568  1.00  0.00     0.029 A 
ATOM     54  N   UNL A   1      44.918  29.665  27.694  1.00  0.00    -0.354 N 
ATOM     55  N   UNL A   1      43.763  27.020  27.324  1.00  0.00    -0.248 NA
ATOM     56  C   UNL A   1      43.858  24.868  26.425  1.00  0.00     0.031 C 
ATOM     57  C   UNL A   1      46.953  30.064  26.892  1.00  0.00     0.029 A 
ATOM     58  C   UNL A   1      45.971  29.093  26.998  1.00  0.00     0.049 A 
ATOM     59  H   UNL A   1      44.074  29.210  27.916  1.00  0.00     0.167 HD
ATOM     60  C   UNL A   1      44.976  26.852  26.665  1.00  0.00     0.074 A 
ATOM     61  C   UNL A   1      44.996  25.495  26.162  1.00  0.00     0.031 C 
ATOM     62  C   UNL A   1      45.985  27.743  26.496  1.00  0.00     0.031 A 
BRANCH  49  63
ATOM     63  C   UNL A   1      44.816  33.289  28.944  1.00  0.00    -0.014 A 
ATOM     64  C   UNL A   1      45.542  33.649  30.091  1.00  0.00     0.009 A 
ATOM     65  C   UNL A   1      44.549  34.268  27.975  1.00  0.00     0.009 A 
ATOM     66  C   UNL A   1      45.954  34.970  30.281  1.00  0.00     0.001 A 
ATOM     67  C   UNL A   1      44.993  35.580  28.151  1.00  0.00     0.001 A 
ATOM     68  C   UNL A   1      45.685  35.932  29.309  1.00  0.00     0.000 A 
ENDBRANCH  49  63
BRANCH  50  69
ATOM     69  C   UNL A   1      41.268  24.097  27.522  1.00  0.00    -0.014 A 
ATOM     70  C   UNL A   1      40.246  23.860  26.589  1.00  0.00     0.009 A 
ATOM     71  C   UNL A   1      41.776  23.013  28.257  1.00  0.00     0.009 A 
ATOM     72  C   UNL A   1      39.725  22.574  26.418  1.00  0.00     0.001 A 
ATOM     73  C   UNL A   1      41.277  21.724  28.061  1.00  0.00     0.001 A 
ATOM     74  C   UNL A   1      40.244  21.508  27.149  1.00  0.00     0.000 A 
ENDBRANCH  50  69
BRANCH  62  75
ATOM     75  C   UNL A   1      47.216  27.273  25.769  1.00  0.00    -0.014 A 
ATOM     76  C   UNL A   1      47.371  27.464  24.387  1.00  0.00     0.009 A 
ATOM     77  C   UNL A   1      48.260  26.672  26.491  1.00  0.00     0.009 A 
ATOM     78  C   UNL A   1      48.531  27.031  23.739  1.00  0.00     0.001 A 
ATOM     79  C   UNL A   1      49.432  26.270  25.847  1.00  0.00     0.001 A 
ATOM     80  C   UNL A   1      49.562  26.440  24.469  1.00  0.00     0.000 A 
ENDBRANCH  62  75
ENDBRANCH  36  37
ENDBRANCH  29  31
ENDBRANCH  28  29
ENDBRANCH  27  28
ENDBRANCH  26  27
ENDBRANCH  25  26
ENDBRANCH   1  25
TORSDOF 20
ENDMDL
