MODEL 1
REMARK VINA RESULT:     -10.9      0.000      0.000
REMARK SMILES O=C(OCCOCCOC(=O)c1ccc(-c2c3nc(c(-c4ccccc4)c4ccc([nH]4)c(-c4ccccc4)c4nc(c(-c5ccccc5)c5ccc2[nH]5)C=C4)C=C3)cc1)c1ccc(Nc2ccc(F)cc2[N+](=O)[O-])cc1
REMARK SMILES IDX 5 1 4 2 3 3 2 4 1 5 60 6 61 7 76 8 62 9 75 10 63 11 64 12
REMARK SMILES IDX 65 14 66 15 71 16 67 17 70 18 68 19 69 20 72 21 73 22 74 23
REMARK SMILES IDX 6 24 7 25 8 26 9 27 10 28 11 29 12 30 13 31 59 32 14 33
REMARK SMILES IDX 58 34 15 35 16 36 17 37 52 38 18 39 57 40 51 41 53 42 19 43
REMARK SMILES IDX 56 44 50 45 49 46 20 48 42 49 27 50 41 51 28 52 31 53 40 54
REMARK SMILES IDX 54 55 29 56 30 57 39 59 55 60 32 61 21 62 22 63 26 64 23 65
REMARK SMILES IDX 25 66 24 67 43 68 44 69 48 70 45 71 47 72 46 73 33 74 34 75
REMARK SMILES IDX 38 76 35 77 37 78 36 79
REMARK H PARENT 64 13 53 47 31 58
REMARK Flexibility Score: inf
ROOT
ATOM      1  C   UNL A   1      43.087  19.076  25.556  1.00  0.00     0.202 C 
ENDROOT
BRANCH   1   2
ATOM      2  C   UNL A   1      42.317  19.752  26.694  1.00  0.00     0.261 C 
BRANCH   2   3
ATOM      3  O   UNL A   1      41.219  20.521  26.174  1.00  0.00    -0.460 OA
BRANCH   3   4
ATOM      4  C   UNL A   1      40.394  21.367  26.832  1.00  0.00     0.338 C 
ATOM      5  O   UNL A   1      40.625  21.601  28.019  1.00  0.00    -0.246 OA
BRANCH   4   6
ATOM      6  C   UNL A   1      39.211  22.045  26.212  1.00  0.00     0.060 A 
ATOM      7  C   UNL A   1      38.278  21.431  25.381  1.00  0.00     0.018 A 
ATOM      8  C   UNL A   1      38.953  23.369  26.602  1.00  0.00     0.018 A 
ATOM      9  C   UNL A   1      37.134  22.100  24.951  1.00  0.00     0.027 A 
ATOM     10  C   UNL A   1      37.790  24.038  26.187  1.00  0.00     0.027 A 
ATOM     11  C   UNL A   1      36.859  23.403  25.361  1.00  0.00     0.039 A 
BRANCH  11  12
ATOM     12  N   UNL A   1      35.638  24.023  25.048  1.00  0.00    -0.350 N 
ATOM     13  H   UNL A   1      35.692  24.931  24.670  1.00  0.00     0.167 HD
BRANCH  12  14
ATOM     14  C   UNL A   1      34.344  23.491  25.213  1.00  0.00     0.118 A 
ATOM     15  C   UNL A   1      33.959  23.120  26.512  1.00  0.00     0.036 A 
ATOM     16  C   UNL A   1      33.353  23.464  24.207  1.00  0.00     0.295 A 
ATOM     17  C   UNL A   1      32.637  22.769  26.798  1.00  0.00     0.042 A 
ATOM     18  C   UNL A   1      32.025  23.110  24.485  1.00  0.00     0.127 A 
ATOM     19  C   UNL A   1      31.685  22.774  25.786  1.00  0.00     0.130 A 
ATOM     20  F   UNL A   1      30.417  22.455  26.073  1.00  0.00    -0.207 F 
BRANCH  16  21
ATOM     21  N   UNL A   1      33.677  23.772  22.818  1.00  0.00     0.065 N 
ATOM     22  O   UNL A   1      34.189  24.879  22.595  1.00  0.00    -0.258 OA
ATOM     23  O   UNL A   1      33.363  22.945  21.952  1.00  0.00    -0.258 OA
ENDBRANCH  16  21
ENDBRANCH  12  14
ENDBRANCH  11  12
ENDBRANCH   4   6
ENDBRANCH   3   4
ENDBRANCH   2   3
ENDBRANCH   1   2
BRANCH   1  24
ATOM     24  O   UNL A   1      43.640  19.995  24.612  1.00  0.00    -0.374 OA
BRANCH  24  25
ATOM     25  C   UNL A   1      44.466  21.026  25.174  1.00  0.00     0.202 C 
BRANCH  25  26
ATOM     26  C   UNL A   1      44.609  22.181  24.180  1.00  0.00     0.261 C 
BRANCH  26  27
ATOM     27  O   UNL A   1      43.819  23.281  24.657  1.00  0.00    -0.460 OA
BRANCH  27  28
ATOM     28  C   UNL A   1      44.542  24.369  25.013  1.00  0.00     0.338 C 
ATOM     29  O   UNL A   1      45.594  24.756  24.529  1.00  0.00    -0.246 OA
BRANCH  28  30
ATOM     30  C   UNL A   1      43.750  25.163  25.975  1.00  0.00     0.060 A 
ATOM     31  C   UNL A   1      44.076  26.516  26.124  1.00  0.00     0.016 A 
ATOM     32  C   UNL A   1      42.690  24.605  26.697  1.00  0.00     0.016 A 
ATOM     33  C   UNL A   1      43.378  27.303  27.034  1.00  0.00     0.010 A 
ATOM     34  C   UNL A   1      41.987  25.393  27.606  1.00  0.00     0.010 A 
ATOM     35  C   UNL A   1      42.359  26.732  27.806  1.00  0.00    -0.014 A 
BRANCH  35  36
ATOM     36  C   UNL A   1      41.815  27.486  28.955  1.00  0.00     0.031 A 
ATOM     37  C   UNL A   1      42.524  27.378  30.275  1.00  0.00     0.074 A 
ATOM     38  C   UNL A   1      40.740  28.279  28.809  1.00  0.00     0.049 A 
ATOM     39  N   UNL A   1      42.253  27.964  31.411  1.00  0.00    -0.248 NA
ATOM     40  C   UNL A   1      43.697  26.486  30.320  1.00  0.00     0.031 C 
ATOM     41  C   UNL A   1      39.990  28.470  27.568  1.00  0.00     0.029 A 
ATOM     42  N   UNL A   1      40.098  29.075  29.720  1.00  0.00    -0.354 N 
ATOM     43  C   UNL A   1      43.225  27.521  32.300  1.00  0.00     0.074 A 
ATOM     44  C   UNL A   1      44.062  26.582  31.588  1.00  0.00     0.031 C 
ATOM     45  C   UNL A   1      38.982  29.331  27.798  1.00  0.00     0.029 A 
ATOM     46  C   UNL A   1      39.009  29.731  29.203  1.00  0.00     0.049 A 
ATOM     47  H   UNL A   1      40.389  29.167  30.657  1.00  0.00     0.167 HD
ATOM     48  C   UNL A   1      43.413  27.878  33.592  1.00  0.00     0.031 A 
ATOM     49  C   UNL A   1      38.130  30.554  29.806  1.00  0.00     0.031 A 
ATOM     50  C   UNL A   1      42.561  28.791  34.302  1.00  0.00     0.049 A 
ATOM     51  C   UNL A   1      38.327  30.889  31.261  1.00  0.00     0.074 A 
ATOM     52  C   UNL A   1      42.652  29.217  35.615  1.00  0.00     0.029 A 
ATOM     53  N   UNL A   1      41.451  29.416  33.752  1.00  0.00    -0.354 N 
ATOM     54  N   UNL A   1      39.267  30.488  32.084  1.00  0.00    -0.248 NA
ATOM     55  C   UNL A   1      37.349  31.805  31.864  1.00  0.00     0.031 C 
ATOM     56  C   UNL A   1      41.569  30.063  35.873  1.00  0.00     0.029 A 
ATOM     57  C   UNL A   1      40.838  30.211  34.705  1.00  0.00     0.049 A 
ATOM     58  H   UNL A   1      41.145  29.309  32.823  1.00  0.00     0.167 HD
ATOM     59  C   UNL A   1      39.007  31.117  33.294  1.00  0.00     0.074 A 
ATOM     60  C   UNL A   1      37.838  31.949  33.088  1.00  0.00     0.031 C 
ATOM     61  C   UNL A   1      39.668  31.018  34.474  1.00  0.00     0.031 A 
BRANCH  48  62
ATOM     62  C   UNL A   1      44.575  27.258  34.315  1.00  0.00    -0.014 A 
ATOM     63  C   UNL A   1      45.810  27.920  34.402  1.00  0.00     0.009 A 
ATOM     64  C   UNL A   1      44.430  26.008  34.936  1.00  0.00     0.009 A 
ATOM     65  C   UNL A   1      46.885  27.330  35.073  1.00  0.00     0.001 A 
ATOM     66  C   UNL A   1      45.497  25.433  35.628  1.00  0.00     0.001 A 
ATOM     67  C   UNL A   1      46.725  26.090  35.690  1.00  0.00     0.000 A 
ENDBRANCH  48  62
BRANCH  49  68
ATOM     68  C   UNL A   1      36.980  31.110  29.046  1.00  0.00    -0.014 A 
ATOM     69  C   UNL A   1      36.958  32.455  28.649  1.00  0.00     0.009 A 
ATOM     70  C   UNL A   1      35.878  30.296  28.737  1.00  0.00     0.009 A 
ATOM     71  C   UNL A   1      35.845  32.981  27.988  1.00  0.00     0.001 A 
ATOM     72  C   UNL A   1      34.780  30.816  28.049  1.00  0.00     0.001 A 
ATOM     73  C   UNL A   1      34.759  32.161  27.685  1.00  0.00     0.000 A 
ENDBRANCH  49  68
BRANCH  61  74
ATOM     74  C   UNL A   1      39.149  31.847  35.615  1.00  0.00    -0.014 A 
ATOM     75  C   UNL A   1      38.237  31.319  36.542  1.00  0.00     0.009 A 
ATOM     76  C   UNL A   1      39.589  33.170  35.769  1.00  0.00     0.009 A 
ATOM     77  C   UNL A   1      37.739  32.117  37.574  1.00  0.00     0.001 A 
ATOM     78  C   UNL A   1      39.115  33.955  36.821  1.00  0.00     0.001 A 
ATOM     79  C   UNL A   1      38.180  33.433  37.713  1.00  0.00     0.000 A 
ENDBRANCH  61  74
ENDBRANCH  35  36
ENDBRANCH  28  30
ENDBRANCH  27  28
ENDBRANCH  26  27
ENDBRANCH  25  26
ENDBRANCH  24  25
ENDBRANCH   1  24
TORSDOF 17
ENDMDL
MODEL 2
REMARK VINA RESULT:     -10.5      1.297      6.051
REMARK SMILES O=C(OCCOCCOC(=O)c1ccc(-c2c3nc(c(-c4ccccc4)c4ccc([nH]4)c(-c4ccccc4)c4nc(c(-c5ccccc5)c5ccc2[nH]5)C=C4)C=C3)cc1)c1ccc(Nc2ccc(F)cc2[N+](=O)[O-])cc1
REMARK SMILES IDX 5 1 4 2 3 3 2 4 1 5 60 6 61 7 76 8 62 9 75 10 63 11 64 12
REMARK SMILES IDX 65 14 66 15 71 16 67 17 70 18 68 19 69 20 72 21 73 22 74 23
REMARK SMILES IDX 6 24 7 25 8 26 9 27 10 28 11 29 12 30 13 31 59 32 14 33
REMARK SMILES IDX 58 34 15 35 16 36 17 37 52 38 18 39 57 40 51 41 53 42 19 43
REMARK SMILES IDX 56 44 50 45 49 46 20 48 42 49 27 50 41 51 28 52 31 53 40 54
REMARK SMILES IDX 54 55 29 56 30 57 39 59 55 60 32 61 21 62 22 63 26 64 23 65
REMARK SMILES IDX 25 66 24 67 43 68 44 69 48 70 45 71 47 72 46 73 33 74 34 75
REMARK SMILES IDX 38 76 35 77 37 78 36 79
REMARK H PARENT 64 13 53 47 31 58
REMARK Flexibility Score: inf
ROOT
ATOM      1  C   UNL A   1      43.341  19.427  25.255  1.00  0.00     0.202 C 
ENDROOT
BRANCH   1   2
ATOM      2  C   UNL A   1      42.546  19.906  26.472  1.00  0.00     0.261 C 
BRANCH   2   3
ATOM      3  O   UNL A   1      41.452  20.745  26.063  1.00  0.00    -0.460 OA
BRANCH   3   4
ATOM      4  C   UNL A   1      40.529  21.366  26.833  1.00  0.00     0.338 C 
ATOM      5  O   UNL A   1      40.698  21.374  28.053  1.00  0.00    -0.246 OA
BRANCH   4   6
ATOM      6  C   UNL A   1      39.309  22.052  26.300  1.00  0.00     0.060 A 
ATOM      7  C   UNL A   1      38.309  21.442  25.548  1.00  0.00     0.018 A 
ATOM      8  C   UNL A   1      39.093  23.381  26.700  1.00  0.00     0.018 A 
ATOM      9  C   UNL A   1      37.142  22.119  25.202  1.00  0.00     0.027 A 
ATOM     10  C   UNL A   1      37.908  24.058  26.370  1.00  0.00     0.027 A 
ATOM     11  C   UNL A   1      36.911  23.427  25.623  1.00  0.00     0.039 A 
BRANCH  11  12
ATOM     12  N   UNL A   1      35.675  24.057  25.399  1.00  0.00    -0.350 N 
ATOM     13  H   UNL A   1      35.565  24.954  25.789  1.00  0.00     0.167 HD
BRANCH  12  14
ATOM     14  C   UNL A   1      34.577  23.548  24.680  1.00  0.00     0.118 A 
ATOM     15  C   UNL A   1      34.571  23.741  23.287  1.00  0.00     0.036 A 
ATOM     16  C   UNL A   1      33.575  22.715  25.226  1.00  0.00     0.295 A 
ATOM     17  C   UNL A   1      33.626  23.105  22.477  1.00  0.00     0.042 A 
ATOM     18  C   UNL A   1      32.622  22.076  24.420  1.00  0.00     0.127 A 
ATOM     19  C   UNL A   1      32.669  22.276  23.049  1.00  0.00     0.130 A 
ATOM     20  F   UNL A   1      31.781  21.656  22.263  1.00  0.00    -0.207 F 
BRANCH  16  21
ATOM     21  N   UNL A   1      33.466  22.509  26.666  1.00  0.00     0.065 N 
ATOM     22  O   UNL A   1      32.577  23.141  27.256  1.00  0.00    -0.258 OA
ATOM     23  O   UNL A   1      34.301  21.777  27.212  1.00  0.00    -0.258 OA
ENDBRANCH  16  21
ENDBRANCH  12  14
ENDBRANCH  11  12
ENDBRANCH   4   6
ENDBRANCH   3   4
ENDBRANCH   2   3
ENDBRANCH   1   2
BRANCH   1  24
ATOM     24  O   UNL A   1      44.190  20.430  24.693  1.00  0.00    -0.374 OA
BRANCH  24  25
ATOM     25  C   UNL A   1      45.458  20.595  25.346  1.00  0.00     0.202 C 
BRANCH  25  26
ATOM     26  C   UNL A   1      45.779  22.083  25.498  1.00  0.00     0.261 C 
BRANCH  26  27
ATOM     27  O   UNL A   1      44.611  22.741  26.011  1.00  0.00    -0.460 OA
BRANCH  27  28
ATOM     28  C   UNL A   1      44.364  23.949  25.452  1.00  0.00     0.338 C 
ATOM     29  O   UNL A   1      44.542  24.284  24.293  1.00  0.00    -0.246 OA
BRANCH  28  30
ATOM     30  C   UNL A   1      43.638  24.779  26.435  1.00  0.00     0.060 A 
ATOM     31  C   UNL A   1      43.866  26.160  26.413  1.00  0.00     0.016 A 
ATOM     32  C   UNL A   1      42.729  24.225  27.343  1.00  0.00     0.016 A 
ATOM     33  C   UNL A   1      43.227  26.986  27.332  1.00  0.00     0.010 A 
ATOM     34  C   UNL A   1      42.086  25.051  28.262  1.00  0.00     0.010 A 
ATOM     35  C   UNL A   1      42.366  26.426  28.285  1.00  0.00    -0.014 A 
BRANCH  35  36
ATOM     36  C   UNL A   1      41.913  27.255  29.422  1.00  0.00     0.031 A 
ATOM     37  C   UNL A   1      40.635  28.029  29.270  1.00  0.00     0.074 A 
ATOM     38  C   UNL A   1      42.606  27.280  30.572  1.00  0.00     0.049 A 
ATOM     39  N   UNL A   1      40.025  28.798  30.133  1.00  0.00    -0.248 NA
ATOM     40  C   UNL A   1      39.952  27.922  27.969  1.00  0.00     0.031 C 
ATOM     41  C   UNL A   1      43.848  26.551  30.831  1.00  0.00     0.029 A 
ATOM     42  N   UNL A   1      42.355  27.948  31.742  1.00  0.00    -0.354 N 
ATOM     43  C   UNL A   1      38.885  29.257  29.484  1.00  0.00     0.074 A 
ATOM     44  C   UNL A   1      38.911  28.722  28.141  1.00  0.00     0.031 C 
ATOM     45  C   UNL A   1      44.253  26.815  32.086  1.00  0.00     0.029 A 
ATOM     46  C   UNL A   1      43.311  27.744  32.706  1.00  0.00     0.049 A 
ATOM     47  H   UNL A   1      41.565  28.519  31.879  1.00  0.00     0.167 HD
ATOM     48  C   UNL A   1      37.896  30.043  29.969  1.00  0.00     0.031 A 
ATOM     49  C   UNL A   1      43.412  28.261  33.945  1.00  0.00     0.031 A 
ATOM     50  C   UNL A   1      37.890  30.596  31.295  1.00  0.00     0.049 A 
ATOM     51  C   UNL A   1      42.328  29.181  34.439  1.00  0.00     0.074 A 
ATOM     52  C   UNL A   1      36.944  31.411  31.889  1.00  0.00     0.029 A 
ATOM     53  N   UNL A   1      38.890  30.388  32.235  1.00  0.00    -0.354 N 
ATOM     54  N   UNL A   1      41.239  29.584  33.827  1.00  0.00    -0.248 NA
ATOM     55  C   UNL A   1      42.479  29.703  35.805  1.00  0.00     0.031 C 
ATOM     56  C   UNL A   1      37.396  31.737  33.173  1.00  0.00     0.029 A 
ATOM     57  C   UNL A   1      38.593  31.076  33.399  1.00  0.00     0.049 A 
ATOM     58  H   UNL A   1      39.692  29.835  32.094  1.00  0.00     0.167 HD
ATOM     59  C   UNL A   1      40.567  30.389  34.738  1.00  0.00     0.074 A 
ATOM     60  C   UNL A   1      41.356  30.392  35.953  1.00  0.00     0.031 C 
ATOM     61  C   UNL A   1      39.404  31.070  34.588  1.00  0.00     0.031 A 
BRANCH  48  62
ATOM     62  C   UNL A   1      36.755  30.362  29.045  1.00  0.00    -0.014 A 
ATOM     63  C   UNL A   1      35.815  29.381  28.690  1.00  0.00     0.009 A 
ATOM     64  C   UNL A   1      36.602  31.663  28.541  1.00  0.00     0.009 A 
ATOM     65  C   UNL A   1      34.762  29.689  27.826  1.00  0.00     0.001 A 
ATOM     66  C   UNL A   1      35.534  31.974  27.699  1.00  0.00     0.001 A 
ATOM     67  C   UNL A   1      34.618  30.987  27.336  1.00  0.00     0.000 A 
ENDBRANCH  48  62
BRANCH  49  68
ATOM     68  C   UNL A   1      44.583  27.935  34.800  1.00  0.00    -0.014 A 
ATOM     69  C   UNL A   1      44.557  26.840  35.675  1.00  0.00     0.009 A 
ATOM     70  C   UNL A   1      45.731  28.743  34.763  1.00  0.00     0.009 A 
ATOM     71  C   UNL A   1      45.640  26.579  36.518  1.00  0.00     0.001 A 
ATOM     72  C   UNL A   1      46.825  28.463  35.584  1.00  0.00     0.001 A 
ATOM     73  C   UNL A   1      46.774  27.387  36.469  1.00  0.00     0.000 A 
ENDBRANCH  49  68
BRANCH  61  74
ATOM     74  C   UNL A   1      38.916  31.850  35.776  1.00  0.00    -0.014 A 
ATOM     75  C   UNL A   1      38.190  31.229  36.806  1.00  0.00     0.009 A 
ATOM     76  C   UNL A   1      39.197  33.221  35.872  1.00  0.00     0.009 A 
ATOM     77  C   UNL A   1      37.715  31.979  37.883  1.00  0.00     0.001 A 
ATOM     78  C   UNL A   1      38.750  33.961  36.966  1.00  0.00     0.001 A 
ATOM     79  C   UNL A   1      37.996  33.342  37.963  1.00  0.00     0.000 A 
ENDBRANCH  61  74
ENDBRANCH  35  36
ENDBRANCH  28  30
ENDBRANCH  27  28
ENDBRANCH  26  27
ENDBRANCH  25  26
ENDBRANCH  24  25
ENDBRANCH   1  24
TORSDOF 17
ENDMDL
MODEL 3
REMARK VINA RESULT:     -10.0      3.726      8.691
REMARK SMILES O=C(OCCOCCOC(=O)c1ccc(-c2c3nc(c(-c4ccccc4)c4ccc([nH]4)c(-c4ccccc4)c4nc(c(-c5ccccc5)c5ccc2[nH]5)C=C4)C=C3)cc1)c1ccc(Nc2ccc(F)cc2[N+](=O)[O-])cc1
REMARK SMILES IDX 5 1 4 2 3 3 2 4 1 5 60 6 61 7 76 8 62 9 75 10 63 11 64 12
REMARK SMILES IDX 65 14 66 15 71 16 67 17 70 18 68 19 69 20 72 21 73 22 74 23
REMARK SMILES IDX 6 24 7 25 8 26 9 27 10 28 11 29 12 30 13 31 59 32 14 33
REMARK SMILES IDX 58 34 15 35 16 36 17 37 52 38 18 39 57 40 51 41 53 42 19 43
REMARK SMILES IDX 56 44 50 45 49 46 20 48 42 49 27 50 41 51 28 52 31 53 40 54
REMARK SMILES IDX 54 55 29 56 30 57 39 59 55 60 32 61 21 62 22 63 26 64 23 65
REMARK SMILES IDX 25 66 24 67 43 68 44 69 48 70 45 71 47 72 46 73 33 74 34 75
REMARK SMILES IDX 38 76 35 77 37 78 36 79
REMARK H PARENT 64 13 53 47 31 58
REMARK Flexibility Score: inf
ROOT
ATOM      1  C   UNL A   1      31.098  29.245  23.773  1.00  0.00     0.202 C 
ENDROOT
BRANCH   1   2
ATOM      2  C   UNL A   1      30.205  28.324  22.937  1.00  0.00     0.261 C 
BRANCH   2   3
ATOM      3  O   UNL A   1      30.839  27.049  22.740  1.00  0.00    -0.460 OA
BRANCH   3   4
ATOM      4  C   UNL A   1      30.778  25.945  23.520  1.00  0.00     0.338 C 
ATOM      5  O   UNL A   1      29.727  25.305  23.543  1.00  0.00    -0.246 OA
BRANCH   4   6
ATOM      6  C   UNL A   1      31.912  25.443  24.361  1.00  0.00     0.060 A 
ATOM      7  C   UNL A   1      31.806  25.030  25.685  1.00  0.00     0.018 A 
ATOM      8  C   UNL A   1      33.149  25.254  23.723  1.00  0.00     0.018 A 
ATOM      9  C   UNL A   1      32.882  24.453  26.356  1.00  0.00     0.027 A 
ATOM     10  C   UNL A   1      34.228  24.653  24.392  1.00  0.00     0.027 A 
ATOM     11  C   UNL A   1      34.102  24.235  25.718  1.00  0.00     0.039 A 
BRANCH  11  12
ATOM     12  N   UNL A   1      35.136  23.522  26.347  1.00  0.00    -0.350 N 
ATOM     13  H   UNL A   1      35.312  23.746  27.289  1.00  0.00     0.167 HD
BRANCH  12  14
ATOM     14  C   UNL A   1      35.949  22.521  25.780  1.00  0.00     0.118 A 
ATOM     15  C   UNL A   1      37.335  22.754  25.750  1.00  0.00     0.036 A 
ATOM     16  C   UNL A   1      35.496  21.238  25.400  1.00  0.00     0.295 A 
ATOM     17  C   UNL A   1      38.227  21.740  25.387  1.00  0.00     0.042 A 
ATOM     18  C   UNL A   1      36.385  20.217  25.033  1.00  0.00     0.127 A 
ATOM     19  C   UNL A   1      37.745  20.485  25.041  1.00  0.00     0.130 A 
ATOM     20  F   UNL A   1      38.608  19.515  24.714  1.00  0.00    -0.207 F 
BRANCH  16  21
ATOM     21  N   UNL A   1      34.072  20.927  25.340  1.00  0.00     0.065 N 
ATOM     22  O   UNL A   1      33.485  20.778  26.423  1.00  0.00    -0.258 OA
ATOM     23  O   UNL A   1      33.559  20.767  24.225  1.00  0.00    -0.258 OA
ENDBRANCH  16  21
ENDBRANCH  12  14
ENDBRANCH  11  12
ENDBRANCH   4   6
ENDBRANCH   3   4
ENDBRANCH   2   3
ENDBRANCH   1   2
BRANCH   1  24
ATOM     24  O   UNL A   1      32.476  29.207  23.396  1.00  0.00    -0.374 OA
BRANCH  24  25
ATOM     25  C   UNL A   1      33.385  28.827  24.440  1.00  0.00     0.202 C 
BRANCH  25  26
ATOM     26  C   UNL A   1      33.034  29.566  25.733  1.00  0.00     0.261 C 
BRANCH  26  27
ATOM     27  O   UNL A   1      34.009  29.213  26.727  1.00  0.00    -0.460 OA
BRANCH  27  28
ATOM     28  C   UNL A   1      34.366  30.236  27.539  1.00  0.00     0.338 C 
ATOM     29  O   UNL A   1      33.667  31.154  27.935  1.00  0.00    -0.246 OA
BRANCH  28  30
ATOM     30  C   UNL A   1      35.724  29.968  28.057  1.00  0.00     0.060 A 
ATOM     31  C   UNL A   1      36.801  30.157  27.184  1.00  0.00     0.016 A 
ATOM     32  C   UNL A   1      35.944  29.567  29.380  1.00  0.00     0.016 A 
ATOM     33  C   UNL A   1      38.098  29.896  27.614  1.00  0.00     0.010 A 
ATOM     34  C   UNL A   1      37.243  29.309  29.812  1.00  0.00     0.010 A 
ATOM     35  C   UNL A   1      38.317  29.432  28.917  1.00  0.00    -0.014 A 
BRANCH  35  36
ATOM     36  C   UNL A   1      39.646  28.895  29.278  1.00  0.00     0.031 A 
ATOM     37  C   UNL A   1      40.539  29.735  30.146  1.00  0.00     0.074 A 
ATOM     38  C   UNL A   1      40.026  27.672  28.872  1.00  0.00     0.049 A 
ATOM     39  N   UNL A   1      41.730  29.467  30.614  1.00  0.00    -0.248 NA
ATOM     40  C   UNL A   1      40.019  31.057  30.540  1.00  0.00     0.031 C 
ATOM     41  C   UNL A   1      39.229  26.768  28.043  1.00  0.00     0.029 A 
ATOM     42  N   UNL A   1      41.184  26.981  29.111  1.00  0.00    -0.354 N 
ATOM     43  C   UNL A   1      42.095  30.579  31.363  1.00  0.00     0.074 A 
ATOM     44  C   UNL A   1      41.025  31.544  31.249  1.00  0.00     0.031 C 
ATOM     45  C   UNL A   1      39.927  25.637  27.839  1.00  0.00     0.029 A 
ATOM     46  C   UNL A   1      41.222  25.749  28.506  1.00  0.00     0.049 A 
ATOM     47  H   UNL A   1      41.920  27.333  29.663  1.00  0.00     0.167 HD
ATOM     48  C   UNL A   1      43.217  30.773  32.094  1.00  0.00     0.031 A 
ATOM     49  C   UNL A   1      42.201  24.825  28.488  1.00  0.00     0.031 A 
ATOM     50  C   UNL A   1      44.290  29.821  32.181  1.00  0.00     0.049 A 
ATOM     51  C   UNL A   1      43.465  25.091  29.262  1.00  0.00     0.074 A 
ATOM     52  C   UNL A   1      45.477  29.917  32.885  1.00  0.00     0.029 A 
ATOM     53  N   UNL A   1      44.305  28.595  31.532  1.00  0.00    -0.354 N 
ATOM     54  N   UNL A   1      43.788  26.133  29.991  1.00  0.00    -0.248 NA
ATOM     55  C   UNL A   1      44.494  24.042  29.223  1.00  0.00     0.031 C 
ATOM     56  C   UNL A   1      46.231  28.768  32.623  1.00  0.00     0.029 A 
ATOM     57  C   UNL A   1      45.488  27.931  31.805  1.00  0.00     0.049 A 
ATOM     58  H   UNL A   1      43.581  28.249  30.963  1.00  0.00     0.167 HD
ATOM     59  C   UNL A   1      45.045  25.858  30.514  1.00  0.00     0.074 A 
ATOM     60  C   UNL A   1      45.412  24.538  30.041  1.00  0.00     0.031 C 
ATOM     61  C   UNL A   1      45.831  26.624  31.310  1.00  0.00     0.031 A 
BRANCH  48  62
ATOM     62  C   UNL A   1      43.339  32.073  32.838  1.00  0.00    -0.014 A 
ATOM     63  C   UNL A   1      43.920  33.200  32.236  1.00  0.00     0.009 A 
ATOM     64  C   UNL A   1      42.848  32.180  34.148  1.00  0.00     0.009 A 
ATOM     65  C   UNL A   1      44.031  34.401  32.941  1.00  0.00     0.001 A 
ATOM     66  C   UNL A   1      42.937  33.389  34.841  1.00  0.00     0.001 A 
ATOM     67  C   UNL A   1      43.535  34.496  34.240  1.00  0.00     0.000 A 
ENDBRANCH  48  62
BRANCH  49  68
ATOM     68  C   UNL A   1      42.036  23.572  27.707  1.00  0.00    -0.014 A 
ATOM     69  C   UNL A   1      41.439  22.438  28.276  1.00  0.00     0.009 A 
ATOM     70  C   UNL A   1      42.504  23.497  26.385  1.00  0.00     0.009 A 
ATOM     71  C   UNL A   1      41.344  21.247  27.552  1.00  0.00     0.001 A 
ATOM     72  C   UNL A   1      42.381  22.315  25.652  1.00  0.00     0.001 A 
ATOM     73  C   UNL A   1      41.811  21.188  26.240  1.00  0.00     0.000 A 
ENDBRANCH  49  68
BRANCH  61  74
ATOM     74  C   UNL A   1      47.149  26.036  31.730  1.00  0.00    -0.014 A 
ATOM     75  C   UNL A   1      48.265  26.069  30.878  1.00  0.00     0.009 A 
ATOM     76  C   UNL A   1      47.278  25.453  32.999  1.00  0.00     0.009 A 
ATOM     77  C   UNL A   1      49.470  25.485  31.274  1.00  0.00     0.001 A 
ATOM     78  C   UNL A   1      48.493  24.900  33.405  1.00  0.00     0.001 A 
ATOM     79  C   UNL A   1      49.583  24.903  32.536  1.00  0.00     0.000 A 
ENDBRANCH  61  74
ENDBRANCH  35  36
ENDBRANCH  28  30
ENDBRANCH  27  28
ENDBRANCH  26  27
ENDBRANCH  25  26
ENDBRANCH  24  25
ENDBRANCH   1  24
TORSDOF 17
ENDMDL
