MODEL 1
REMARK VINA RESULT:      -9.2      0.000      0.000
REMARK SMILES CC[C@@H](C)c1nc2cc(C(=O)OCCOCCOC(=O)c3ccc(-c4c5nc(c(-c6ccccc6)c6ccc([nH]6)c(-c6ccccc6)c6nc(c(-c7ccccc7)c7ccc4[nH]7)C=C6)C=C5)cc3)ccc2n1[C@@H](C)CC
REMARK SMILES IDX 15 1 14 2 13 3 12 4 10 5 11 6 9 7 5 8 6 9 72 10 7 11 71 12
REMARK SMILES IDX 8 13 70 14 69 15 3 16 4 17 2 18 1 19 73 20 74 21 75 22 76 23
REMARK SMILES IDX 16 24 17 25 18 26 19 27 20 28 21 29 22 30 68 31 23 32 67 33
REMARK SMILES IDX 24 34 25 35 26 36 61 37 27 38 66 39 60 40 62 41 28 42 65 43
REMARK SMILES IDX 59 44 58 45 29 47 51 48 36 49 50 50 37 51 40 52 49 53 63 54
REMARK SMILES IDX 38 55 39 56 48 58 64 59 41 60 30 61 31 62 35 63 32 64 34 65
REMARK SMILES IDX 33 66 52 67 53 68 57 69 54 70 56 71 55 72 42 73 43 74 47 75
REMARK SMILES IDX 44 76 46 77 45 78
REMARK H PARENT 62 46 40 57
REMARK Flexibility Score: inf
ROOT
ATOM      1  O   UNL A   1      42.431  19.820  25.338  1.00  0.00    -0.374 OA
ENDROOT
BRANCH   1   2
ATOM      2  C   UNL A   1      43.674  19.154  25.509  1.00  0.00     0.202 C 
BRANCH   2   3
ATOM      3  C   UNL A   1      44.808  19.379  24.504  1.00  0.00     0.261 C 
BRANCH   3   4
ATOM      4  O   UNL A   1      45.653  20.469  24.864  1.00  0.00    -0.460 OA
BRANCH   4   5
ATOM      5  C   UNL A   1      45.257  21.637  24.300  1.00  0.00     0.338 C 
ATOM      6  O   UNL A   1      44.440  21.787  23.419  1.00  0.00    -0.246 OA
BRANCH   5   7
ATOM      7  C   UNL A   1      45.868  22.766  25.028  1.00  0.00     0.062 A 
ATOM      8  C   UNL A   1      46.295  25.458  28.620  1.00  0.00     0.112 A 
ATOM      9  N   UNL A   1      45.837  24.233  28.416  1.00  0.00    -0.233 NA
ATOM     10  N   UNL A   1      46.857  25.940  27.438  1.00  0.00    -0.325 N 
ATOM     11  C   UNL A   1      46.036  23.933  27.111  1.00  0.00     0.090 A 
ATOM     12  C   UNL A   1      46.745  24.935  26.475  1.00  0.00     0.068 A 
ATOM     13  C   UNL A   1      45.593  22.822  26.398  1.00  0.00     0.046 A 
ATOM     14  C   UNL A   1      47.125  24.837  25.123  1.00  0.00     0.029 A 
ATOM     15  C   UNL A   1      46.663  23.730  24.403  1.00  0.00     0.018 A 
BRANCH   8  16
ATOM     16  C   UNL A   1      46.004  26.117  29.968  1.00  0.00     0.052 C 
ATOM     17  C   UNL A   1      46.856  25.740  31.164  1.00  0.00     0.016 C 
BRANCH  16  18
ATOM     18  C   UNL A   1      44.499  25.896  30.318  1.00  0.00     0.008 C 
ATOM     19  C   UNL A   1      44.086  26.367  31.708  1.00  0.00     0.004 C 
ENDBRANCH  16  18
ENDBRANCH   8  16
BRANCH  10  20
ATOM     20  C   UNL A   1      47.333  27.269  27.065  1.00  0.00     0.085 C 
ATOM     21  C   UNL A   1      46.177  28.254  26.862  1.00  0.00     0.031 C 
BRANCH  20  22
ATOM     22  C   UNL A   1      48.550  27.797  27.845  1.00  0.00     0.022 C 
ATOM     23  C   UNL A   1      49.775  28.037  26.969  1.00  0.00     0.006 C 
ENDBRANCH  20  22
ENDBRANCH  10  20
ENDBRANCH   5   7
ENDBRANCH   4   5
ENDBRANCH   3   4
ENDBRANCH   2   3
ENDBRANCH   1   2
BRANCH   1  24
ATOM     24  C   UNL A   1      41.415  19.622  26.327  1.00  0.00     0.202 C 
BRANCH  24  25
ATOM     25  C   UNL A   1      41.258  20.651  27.465  1.00  0.00     0.261 C 
BRANCH  25  26
ATOM     26  O   UNL A   1      41.465  21.993  27.000  1.00  0.00    -0.460 OA
BRANCH  26  27
ATOM     27  C   UNL A   1      40.330  22.673  26.674  1.00  0.00     0.338 C 
ATOM     28  O   UNL A   1      39.223  22.217  26.468  1.00  0.00    -0.246 OA
BRANCH  27  29
ATOM     29  C   UNL A   1      40.603  24.075  27.055  1.00  0.00     0.060 A 
ATOM     30  C   UNL A   1      41.756  24.410  27.773  1.00  0.00     0.016 A 
ATOM     31  C   UNL A   1      39.496  24.939  27.013  1.00  0.00     0.016 A 
ATOM     32  C   UNL A   1      41.756  25.573  28.533  1.00  0.00     0.010 A 
ATOM     33  C   UNL A   1      39.481  26.071  27.819  1.00  0.00     0.010 A 
ATOM     34  C   UNL A   1      40.597  26.366  28.609  1.00  0.00    -0.014 A 
BRANCH  34  35
ATOM     35  C   UNL A   1      40.672  27.635  29.338  1.00  0.00     0.031 A 
ATOM     36  C   UNL A   1      41.626  28.580  28.697  1.00  0.00     0.074 A 
ATOM     37  C   UNL A   1      39.874  28.027  30.356  1.00  0.00     0.049 A 
ATOM     38  N   UNL A   1      42.692  29.112  29.197  1.00  0.00    -0.248 NA
ATOM     39  C   UNL A   1      41.435  28.843  27.258  1.00  0.00     0.031 C 
ATOM     40  C   UNL A   1      38.686  27.354  30.881  1.00  0.00     0.029 A 
ATOM     41  N   UNL A   1      39.897  29.194  31.071  1.00  0.00    -0.354 N 
ATOM     42  C   UNL A   1      43.220  29.906  28.182  1.00  0.00     0.074 A 
ATOM     43  C   UNL A   1      42.519  29.559  26.976  1.00  0.00     0.031 C 
ATOM     44  C   UNL A   1      37.981  28.212  31.654  1.00  0.00     0.029 A 
ATOM     45  C   UNL A   1      38.723  29.454  31.776  1.00  0.00     0.049 A 
ATOM     46  H   UNL A   1      40.674  29.797  31.088  1.00  0.00     0.167 HD
ATOM     47  C   UNL A   1      44.023  30.972  28.440  1.00  0.00     0.031 A 
ATOM     48  C   UNL A   1      38.347  30.629  32.345  1.00  0.00     0.031 A 
ATOM     49  C   UNL A   1      44.604  30.902  29.751  1.00  0.00     0.049 A 
ATOM     50  C   UNL A   1      39.555  31.466  32.495  1.00  0.00     0.074 A 
ATOM     51  C   UNL A   1      45.462  30.031  30.388  1.00  0.00     0.029 A 
ATOM     52  N   UNL A   1      44.011  31.649  30.738  1.00  0.00    -0.354 N 
ATOM     53  N   UNL A   1      40.534  31.196  33.307  1.00  0.00    -0.248 NA
ATOM     54  C   UNL A   1      39.860  32.411  31.434  1.00  0.00     0.031 C 
ATOM     55  C   UNL A   1      45.009  29.987  31.737  1.00  0.00     0.029 A 
ATOM     56  C   UNL A   1      43.941  30.879  31.866  1.00  0.00     0.049 A 
ATOM     57  H   UNL A   1      43.693  32.577  30.648  1.00  0.00     0.167 HD
ATOM     58  C   UNL A   1      41.674  31.576  32.617  1.00  0.00     0.074 A 
ATOM     59  C   UNL A   1      41.191  32.412  31.520  1.00  0.00     0.031 C 
ATOM     60  C   UNL A   1      42.867  30.951  32.835  1.00  0.00     0.031 A 
BRANCH  47  61
ATOM     61  C   UNL A   1      43.946  32.256  27.648  1.00  0.00    -0.014 A 
ATOM     62  C   UNL A   1      43.668  33.512  28.226  1.00  0.00     0.009 A 
ATOM     63  C   UNL A   1      44.421  32.268  26.326  1.00  0.00     0.009 A 
ATOM     64  C   UNL A   1      43.853  34.712  27.536  1.00  0.00     0.001 A 
ATOM     65  C   UNL A   1      44.652  33.471  25.645  1.00  0.00     0.001 A 
ATOM     66  C   UNL A   1      44.369  34.692  26.251  1.00  0.00     0.000 A 
ENDBRANCH  47  61
BRANCH  48  67
ATOM     67  C   UNL A   1      36.993  31.237  32.385  1.00  0.00    -0.014 A 
ATOM     68  C   UNL A   1      36.221  31.309  31.211  1.00  0.00     0.009 A 
ATOM     69  C   UNL A   1      36.589  32.026  33.478  1.00  0.00     0.009 A 
ATOM     70  C   UNL A   1      35.121  32.169  31.112  1.00  0.00     0.001 A 
ATOM     71  C   UNL A   1      35.488  32.891  33.377  1.00  0.00     0.001 A 
ATOM     72  C   UNL A   1      34.765  32.974  32.190  1.00  0.00     0.000 A 
ENDBRANCH  48  67
BRANCH  60  73
ATOM     73  C   UNL A   1      43.000  30.046  34.038  1.00  0.00    -0.014 A 
ATOM     74  C   UNL A   1      42.404  28.777  33.968  1.00  0.00     0.009 A 
ATOM     75  C   UNL A   1      43.512  30.472  35.277  1.00  0.00     0.009 A 
ATOM     76  C   UNL A   1      42.293  27.969  35.101  1.00  0.00     0.001 A 
ATOM     77  C   UNL A   1      43.428  29.649  36.407  1.00  0.00     0.001 A 
ATOM     78  C   UNL A   1      42.803  28.406  36.320  1.00  0.00     0.000 A 
ENDBRANCH  60  73
ENDBRANCH  34  35
ENDBRANCH  27  29
ENDBRANCH  26  27
ENDBRANCH  25  26
ENDBRANCH  24  25
ENDBRANCH   1  24
TORSDOF 18
ENDMDL
MODEL 2
REMARK VINA RESULT:      -9.1      5.282     11.708
REMARK SMILES CC[C@@H](C)c1nc2cc(C(=O)OCCOCCOC(=O)c3ccc(-c4c5nc(c(-c6ccccc6)c6ccc([nH]6)c(-c6ccccc6)c6nc(c(-c7ccccc7)c7ccc4[nH]7)C=C6)C=C5)cc3)ccc2n1[C@@H](C)CC
REMARK SMILES IDX 15 1 14 2 13 3 12 4 10 5 11 6 9 7 5 8 6 9 72 10 7 11 71 12
REMARK SMILES IDX 8 13 70 14 69 15 3 16 4 17 2 18 1 19 73 20 74 21 75 22 76 23
REMARK SMILES IDX 16 24 17 25 18 26 19 27 20 28 21 29 22 30 68 31 23 32 67 33
REMARK SMILES IDX 24 34 25 35 26 36 61 37 27 38 66 39 60 40 62 41 28 42 65 43
REMARK SMILES IDX 59 44 58 45 29 47 51 48 36 49 50 50 37 51 40 52 49 53 63 54
REMARK SMILES IDX 38 55 39 56 48 58 64 59 41 60 30 61 31 62 35 63 32 64 34 65
REMARK SMILES IDX 33 66 52 67 53 68 57 69 54 70 56 71 55 72 42 73 43 74 47 75
REMARK SMILES IDX 44 76 46 77 45 78
REMARK H PARENT 62 46 40 57
REMARK Flexibility Score: inf
ROOT
ATOM      1  O   UNL A   1      33.344  36.022  33.024  1.00  0.00    -0.374 OA
ENDROOT
BRANCH   1   2
ATOM      2  C   UNL A   1      34.717  35.859  33.352  1.00  0.00     0.202 C 
BRANCH   2   3
ATOM      3  C   UNL A   1      35.158  34.691  34.240  1.00  0.00     0.261 C 
BRANCH   3   4
ATOM      4  O   UNL A   1      36.552  34.421  34.140  1.00  0.00    -0.460 OA
BRANCH   4   5
ATOM      5  C   UNL A   1      36.892  33.237  34.708  1.00  0.00     0.338 C 
ATOM      6  O   UNL A   1      36.685  32.127  34.271  1.00  0.00    -0.246 OA
BRANCH   5   7
ATOM      7  C   UNL A   1      37.710  33.485  35.910  1.00  0.00     0.062 A 
ATOM      8  C   UNL A   1      38.928  32.655  40.172  1.00  0.00     0.112 A 
ATOM      9  N   UNL A   1      38.330  31.962  39.216  1.00  0.00    -0.233 NA
ATOM     10  N   UNL A   1      39.350  33.879  39.654  1.00  0.00    -0.325 N 
ATOM     11  C   UNL A   1      38.300  32.735  38.105  1.00  0.00     0.090 A 
ATOM     12  C   UNL A   1      38.999  33.912  38.303  1.00  0.00     0.068 A 
ATOM     13  C   UNL A   1      37.651  32.496  36.897  1.00  0.00     0.046 A 
ATOM     14  C   UNL A   1      39.161  34.864  37.279  1.00  0.00     0.029 A 
ATOM     15  C   UNL A   1      38.491  34.632  36.072  1.00  0.00     0.018 A 
BRANCH   8  16
ATOM     16  C   UNL A   1      38.908  32.087  41.591  1.00  0.00     0.052 C 
ATOM     17  C   UNL A   1      40.221  31.704  42.242  1.00  0.00     0.016 C 
BRANCH  16  18
ATOM     18  C   UNL A   1      37.939  30.863  41.624  1.00  0.00     0.008 C 
ATOM     19  C   UNL A   1      38.240  29.835  42.709  1.00  0.00     0.004 C 
ENDBRANCH  16  18
ENDBRANCH   8  16
BRANCH  10  20
ATOM     20  C   UNL A   1      39.890  35.070  40.304  1.00  0.00     0.085 C 
ATOM     21  C   UNL A   1      38.835  35.785  41.156  1.00  0.00     0.031 C 
BRANCH  20  22
ATOM     22  C   UNL A   1      41.289  34.925  40.930  1.00  0.00     0.022 C 
ATOM     23  C   UNL A   1      42.302  34.261  40.004  1.00  0.00     0.006 C 
ENDBRANCH  20  22
ENDBRANCH  10  20
ENDBRANCH   5   7
ENDBRANCH   4   5
ENDBRANCH   3   4
ENDBRANCH   2   3
ENDBRANCH   1   2
BRANCH   1  24
ATOM     24  C   UNL A   1      32.995  36.999  32.037  1.00  0.00     0.202 C 
BRANCH  24  25
ATOM     25  C   UNL A   1      32.940  36.587  30.552  1.00  0.00     0.261 C 
BRANCH  25  26
ATOM     26  O   UNL A   1      32.507  35.228  30.394  1.00  0.00    -0.460 OA
BRANCH  26  27
ATOM     27  C   UNL A   1      32.989  34.592  29.289  1.00  0.00     0.338 C 
ATOM     28  O   UNL A   1      32.487  34.540  28.183  1.00  0.00    -0.246 OA
BRANCH  27  29
ATOM     29  C   UNL A   1      34.422  34.368  29.572  1.00  0.00     0.060 A 
ATOM     30  C   UNL A   1      35.392  34.625  28.597  1.00  0.00     0.016 A 
ATOM     31  C   UNL A   1      34.699  33.540  30.672  1.00  0.00     0.016 A 
ATOM     32  C   UNL A   1      36.613  33.966  28.678  1.00  0.00     0.010 A 
ATOM     33  C   UNL A   1      35.899  32.841  30.717  1.00  0.00     0.010 A 
ATOM     34  C   UNL A   1      36.839  33.025  29.699  1.00  0.00    -0.014 A 
BRANCH  34  35
ATOM     35  C   UNL A   1      38.174  32.429  29.809  1.00  0.00     0.031 A 
ATOM     36  C   UNL A   1      38.165  30.991  29.427  1.00  0.00     0.074 A 
ATOM     37  C   UNL A   1      39.332  33.086  30.044  1.00  0.00     0.049 A 
ATOM     38  N   UNL A   1      38.487  29.965  30.144  1.00  0.00    -0.248 NA
ATOM     39  C   UNL A   1      37.577  30.655  28.117  1.00  0.00     0.031 C 
ATOM     40  C   UNL A   1      39.551  34.530  30.114  1.00  0.00     0.029 A 
ATOM     41  N   UNL A   1      40.601  32.585  30.157  1.00  0.00    -0.354 N 
ATOM     42  C   UNL A   1      38.293  28.861  29.317  1.00  0.00     0.074 A 
ATOM     43  C   UNL A   1      37.567  29.327  28.167  1.00  0.00     0.031 C 
ATOM     44  C   UNL A   1      40.875  34.795  30.025  1.00  0.00     0.029 A 
ATOM     45  C   UNL A   1      41.605  33.540  30.011  1.00  0.00     0.049 A 
ATOM     46  H   UNL A   1      40.788  31.634  30.327  1.00  0.00     0.167 HD
ATOM     47  C   UNL A   1      38.953  27.688  29.507  1.00  0.00     0.031 A 
ATOM     48  C   UNL A   1      42.930  33.317  29.808  1.00  0.00     0.031 A 
ATOM     49  C   UNL A   1      39.475  27.577  30.840  1.00  0.00     0.049 A 
ATOM     50  C   UNL A   1      43.222  31.924  30.207  1.00  0.00     0.074 A 
ATOM     51  C   UNL A   1      38.919  27.532  32.101  1.00  0.00     0.029 A 
ATOM     52  N   UNL A   1      40.806  27.864  31.016  1.00  0.00    -0.354 N 
ATOM     53  N   UNL A   1      43.168  31.489  31.432  1.00  0.00    -0.248 NA
ATOM     54  C   UNL A   1      43.186  30.903  29.175  1.00  0.00     0.031 C 
ATOM     55  C   UNL A   1      39.835  28.236  32.933  1.00  0.00     0.029 A 
ATOM     56  C   UNL A   1      40.928  28.617  32.152  1.00  0.00     0.049 A 
ATOM     57  H   UNL A   1      41.542  27.577  30.428  1.00  0.00     0.167 HD
ATOM     58  C   UNL A   1      42.653  30.207  31.323  1.00  0.00     0.074 A 
ATOM     59  C   UNL A   1      42.784  29.864  29.909  1.00  0.00     0.031 C 
ATOM     60  C   UNL A   1      41.916  29.661  32.333  1.00  0.00     0.031 A 
BRANCH  47  61
ATOM     61  C   UNL A   1      39.456  26.845  28.360  1.00  0.00    -0.014 A 
ATOM     62  C   UNL A   1      40.313  27.332  27.352  1.00  0.00     0.009 A 
ATOM     63  C   UNL A   1      39.289  25.451  28.417  1.00  0.00     0.009 A 
ATOM     64  C   UNL A   1      40.970  26.488  26.453  1.00  0.00     0.001 A 
ATOM     65  C   UNL A   1      39.981  24.597  27.548  1.00  0.00     0.001 A 
ATOM     66  C   UNL A   1      40.822  25.116  26.568  1.00  0.00     0.000 A 
ENDBRANCH  47  61
BRANCH  48  67
ATOM     67  C   UNL A   1      43.861  34.062  28.923  1.00  0.00    -0.014 A 
ATOM     68  C   UNL A   1      43.400  34.587  27.702  1.00  0.00     0.009 A 
ATOM     69  C   UNL A   1      45.252  33.987  29.114  1.00  0.00     0.009 A 
ATOM     70  C   UNL A   1      44.288  34.972  26.691  1.00  0.00     0.001 A 
ATOM     71  C   UNL A   1      46.143  34.371  28.099  1.00  0.00     0.001 A 
ATOM     72  C   UNL A   1      45.660  34.848  26.883  1.00  0.00     0.000 A 
ENDBRANCH  48  67
BRANCH  60  73
ATOM     73  C   UNL A   1      41.915  30.345  33.681  1.00  0.00    -0.014 A 
ATOM     74  C   UNL A   1      42.670  29.760  34.709  1.00  0.00     0.009 A 
ATOM     75  C   UNL A   1      41.057  31.410  34.009  1.00  0.00     0.009 A 
ATOM     76  C   UNL A   1      42.554  30.200  36.029  1.00  0.00     0.001 A 
ATOM     77  C   UNL A   1      40.963  31.871  35.328  1.00  0.00     0.001 A 
ATOM     78  C   UNL A   1      41.699  31.254  36.339  1.00  0.00     0.000 A 
ENDBRANCH  60  73
ENDBRANCH  34  35
ENDBRANCH  27  29
ENDBRANCH  26  27
ENDBRANCH  25  26
ENDBRANCH  24  25
ENDBRANCH   1  24
TORSDOF 18
ENDMDL
MODEL 3
REMARK VINA RESULT:      -9.1      4.000      7.442
REMARK SMILES CC[C@@H](C)c1nc2cc(C(=O)OCCOCCOC(=O)c3ccc(-c4c5nc(c(-c6ccccc6)c6ccc([nH]6)c(-c6ccccc6)c6nc(c(-c7ccccc7)c7ccc4[nH]7)C=C6)C=C5)cc3)ccc2n1[C@@H](C)CC
REMARK SMILES IDX 15 1 14 2 13 3 12 4 10 5 11 6 9 7 5 8 6 9 72 10 7 11 71 12
REMARK SMILES IDX 8 13 70 14 69 15 3 16 4 17 2 18 1 19 73 20 74 21 75 22 76 23
REMARK SMILES IDX 16 24 17 25 18 26 19 27 20 28 21 29 22 30 68 31 23 32 67 33
REMARK SMILES IDX 24 34 25 35 26 36 61 37 27 38 66 39 60 40 62 41 28 42 65 43
REMARK SMILES IDX 59 44 58 45 29 47 51 48 36 49 50 50 37 51 40 52 49 53 63 54
REMARK SMILES IDX 38 55 39 56 48 58 64 59 41 60 30 61 31 62 35 63 32 64 34 65
REMARK SMILES IDX 33 66 52 67 53 68 57 69 54 70 56 71 55 72 42 73 43 74 47 75
REMARK SMILES IDX 44 76 46 77 45 78
REMARK H PARENT 62 46 40 57
REMARK Flexibility Score: inf
ROOT
ATOM      1  O   UNL A   1      42.972  23.194  26.631  1.00  0.00    -0.374 OA
ENDROOT
BRANCH   1   2
ATOM      2  C   UNL A   1      42.363  22.020  26.110  1.00  0.00     0.202 C 
BRANCH   2   3
ATOM      3  C   UNL A   1      41.283  21.295  26.919  1.00  0.00     0.261 C 
BRANCH   3   4
ATOM      4  O   UNL A   1      40.004  21.342  26.292  1.00  0.00    -0.460 OA
BRANCH   4   5
ATOM      5  C   UNL A   1      39.326  22.479  26.586  1.00  0.00     0.338 C 
ATOM      6  O   UNL A   1      39.717  23.417  27.245  1.00  0.00    -0.246 OA
BRANCH   5   7
ATOM      7  C   UNL A   1      38.048  22.495  25.848  1.00  0.00     0.062 A 
ATOM      8  C   UNL A   1      33.922  24.110  25.010  1.00  0.00     0.112 A 
ATOM      9  N   UNL A   1      35.020  24.589  25.575  1.00  0.00    -0.233 NA
ATOM     10  N   UNL A   1      34.195  22.850  24.477  1.00  0.00    -0.325 N 
ATOM     11  C   UNL A   1      35.981  23.641  25.473  1.00  0.00     0.090 A 
ATOM     12  C   UNL A   1      35.540  22.567  24.722  1.00  0.00     0.068 A 
ATOM     13  C   UNL A   1      37.252  23.627  26.042  1.00  0.00     0.046 A 
ATOM     14  C   UNL A   1      36.372  21.472  24.426  1.00  0.00     0.029 A 
ATOM     15  C   UNL A   1      37.642  21.450  25.014  1.00  0.00     0.018 A 
BRANCH   8  16
ATOM     16  C   UNL A   1      32.627  24.905  25.172  1.00  0.00     0.052 C 
ATOM     17  C   UNL A   1      32.678  26.415  25.060  1.00  0.00     0.016 C 
BRANCH  16  18
ATOM     18  C   UNL A   1      31.966  24.510  26.531  1.00  0.00     0.008 C 
ATOM     19  C   UNL A   1      30.522  24.034  26.428  1.00  0.00     0.004 C 
ENDBRANCH  16  18
ENDBRANCH   8  16
BRANCH  10  20
ATOM     20  C   UNL A   1      33.315  21.827  23.918  1.00  0.00     0.085 C 
ATOM     21  C   UNL A   1      32.441  21.173  24.994  1.00  0.00     0.031 C 
BRANCH  20  22
ATOM     22  C   UNL A   1      32.616  22.184  22.594  1.00  0.00     0.022 C 
ATOM     23  C   UNL A   1      31.881  21.008  21.960  1.00  0.00     0.006 C 
ENDBRANCH  20  22
ENDBRANCH  10  20
ENDBRANCH   5   7
ENDBRANCH   4   5
ENDBRANCH   3   4
ENDBRANCH   2   3
ENDBRANCH   1   2
BRANCH   1  24
ATOM     24  C   UNL A   1      44.390  23.338  26.497  1.00  0.00     0.202 C 
BRANCH  24  25
ATOM     25  C   UNL A   1      45.268  23.386  27.765  1.00  0.00     0.261 C 
BRANCH  25  26
ATOM     26  O   UNL A   1      44.515  23.799  28.915  1.00  0.00    -0.460 OA
BRANCH  26  27
ATOM     27  C   UNL A   1      44.987  24.911  29.546  1.00  0.00     0.338 C 
ATOM     28  O   UNL A   1      46.140  25.288  29.625  1.00  0.00    -0.246 OA
BRANCH  27  29
ATOM     29  C   UNL A   1      43.805  25.781  29.720  1.00  0.00     0.060 A 
ATOM     30  C   UNL A   1      42.965  26.071  28.640  1.00  0.00     0.016 A 
ATOM     31  C   UNL A   1      43.809  26.583  30.873  1.00  0.00     0.016 A 
ATOM     32  C   UNL A   1      42.199  27.231  28.680  1.00  0.00     0.010 A 
ATOM     33  C   UNL A   1      43.085  27.769  30.884  1.00  0.00     0.010 A 
ATOM     34  C   UNL A   1      42.311  28.111  29.771  1.00  0.00    -0.014 A 
BRANCH  34  35
ATOM     35  C   UNL A   1      41.413  29.268  29.823  1.00  0.00     0.031 A 
ATOM     36  C   UNL A   1      42.144  30.541  29.578  1.00  0.00     0.074 A 
ATOM     37  C   UNL A   1      40.064  29.237  29.897  1.00  0.00     0.049 A 
ATOM     38  N   UNL A   1      42.262  31.565  30.357  1.00  0.00    -0.248 NA
ATOM     39  C   UNL A   1      42.971  30.608  28.359  1.00  0.00     0.031 C 
ATOM     40  C   UNL A   1      39.183  28.072  29.815  1.00  0.00     0.029 A 
ATOM     41  N   UNL A   1      39.177  30.279  29.949  1.00  0.00    -0.354 N 
ATOM     42  C   UNL A   1      43.050  32.475  29.655  1.00  0.00     0.074 A 
ATOM     43  C   UNL A   1      43.600  31.766  28.532  1.00  0.00     0.031 C 
ATOM     44  C   UNL A   1      37.911  28.478  29.591  1.00  0.00     0.029 A 
ATOM     45  C   UNL A   1      37.866  29.928  29.632  1.00  0.00     0.049 A 
ATOM     46  H   UNL A   1      39.442  31.195  30.190  1.00  0.00     0.167 HD
ATOM     47  C   UNL A   1      43.003  33.811  29.897  1.00  0.00     0.031 A 
ATOM     48  C   UNL A   1      36.838  30.767  29.339  1.00  0.00     0.031 A 
ATOM     49  C   UNL A   1      42.442  34.104  31.186  1.00  0.00     0.049 A 
ATOM     50  C   UNL A   1      37.192  32.111  29.840  1.00  0.00     0.074 A 
ATOM     51  C   UNL A   1      42.800  33.825  32.487  1.00  0.00     0.029 A 
ATOM     52  N   UNL A   1      41.123  34.482  31.222  1.00  0.00    -0.354 N 
ATOM     53  N   UNL A   1      37.300  32.416  31.099  1.00  0.00    -0.248 NA
ATOM     54  C   UNL A   1      37.827  33.032  28.913  1.00  0.00     0.031 C 
ATOM     55  C   UNL A   1      41.569  33.611  33.170  1.00  0.00     0.029 A 
ATOM     56  C   UNL A   1      40.526  33.833  32.268  1.00  0.00     0.049 A 
ATOM     57  H   UNL A   1      40.684  35.110  30.603  1.00  0.00     0.167 HD
ATOM     58  C   UNL A   1      38.367  33.298  31.154  1.00  0.00     0.074 A 
ATOM     59  C   UNL A   1      38.581  33.720  29.771  1.00  0.00     0.031 C 
ATOM     60  C   UNL A   1      39.149  33.383  32.268  1.00  0.00     0.031 A 
BRANCH  47  61
ATOM     61  C   UNL A   1      43.097  34.839  28.794  1.00  0.00    -0.014 A 
ATOM     62  C   UNL A   1      41.993  35.578  28.321  1.00  0.00     0.009 A 
ATOM     63  C   UNL A   1      44.366  35.282  28.385  1.00  0.00     0.009 A 
ATOM     64  C   UNL A   1      42.137  36.694  27.494  1.00  0.00     0.001 A 
ATOM     65  C   UNL A   1      44.519  36.427  27.593  1.00  0.00     0.001 A 
ATOM     66  C   UNL A   1      43.404  37.133  27.149  1.00  0.00     0.000 A 
ENDBRANCH  47  61
BRANCH  48  67
ATOM     67  C   UNL A   1      35.778  30.595  28.314  1.00  0.00    -0.014 A 
ATOM     68  C   UNL A   1      34.703  31.501  28.257  1.00  0.00     0.009 A 
ATOM     69  C   UNL A   1      35.644  29.384  27.610  1.00  0.00     0.009 A 
ATOM     70  C   UNL A   1      33.524  31.193  27.570  1.00  0.00     0.001 A 
ATOM     71  C   UNL A   1      34.460  29.073  26.924  1.00  0.00     0.001 A 
ATOM     72  C   UNL A   1      33.395  29.971  26.918  1.00  0.00     0.000 A 
ENDBRANCH  48  67
BRANCH  60  73
ATOM     73  C   UNL A   1      38.669  32.727  33.542  1.00  0.00    -0.014 A 
ATOM     74  C   UNL A   1      38.119  33.554  34.534  1.00  0.00     0.009 A 
ATOM     75  C   UNL A   1      38.916  31.380  33.862  1.00  0.00     0.009 A 
ATOM     76  C   UNL A   1      37.852  33.066  35.814  1.00  0.00     0.001 A 
ATOM     77  C   UNL A   1      38.620  30.882  35.137  1.00  0.00     0.001 A 
ATOM     78  C   UNL A   1      38.104  31.730  36.116  1.00  0.00     0.000 A 
ENDBRANCH  60  73
ENDBRANCH  34  35
ENDBRANCH  27  29
ENDBRANCH  26  27
ENDBRANCH  25  26
ENDBRANCH  24  25
ENDBRANCH   1  24
TORSDOF 18
ENDMDL
