MODEL 1
REMARK VINA RESULT:     -10.0      0.000      0.000
REMARK SMILES Cc1ccsc1C(=O)N1CCN(C(=O)OC(C)(C)C)C[C@@H]1C(=O)OCCOCCOC(=O)c1ccc(-c2c3nc(c(-c4ccccc4)c4ccc([nH]4)c(-c4ccccc4)c4nc(c(-c5ccccc5)c5ccc2[nH]5)C=C4)C=C3)cc1
REMARK SMILES IDX 26 1 25 2 24 3 22 4 23 5 21 6 9 7 10 8 11 9 20 10 12 11 7 12
REMARK SMILES IDX 8 13 6 14 1 15 2 16 3 17 4 18 5 19 13 20 14 21 15 22 16 23
REMARK SMILES IDX 17 24 18 25 19 26 27 27 28 28 29 29 30 30 31 31 32 32 33 33
REMARK SMILES IDX 34 34 80 35 35 36 79 37 36 38 37 39 38 40 73 41 39 42 78 43
REMARK SMILES IDX 72 44 74 45 40 46 77 47 71 48 70 49 41 51 63 52 48 53 62 54
REMARK SMILES IDX 49 55 52 56 61 57 75 58 50 59 51 60 60 62 76 63 53 64 42 65
REMARK SMILES IDX 43 66 47 67 44 68 46 69 45 70 64 71 65 72 69 73 66 74 68 75
REMARK SMILES IDX 67 76 54 77 55 78 59 79 56 80 58 81 57 82
REMARK H PARENT 74 50 52 61
REMARK Flexibility Score: inf
ROOT
ATOM      1  C   UNL A   1      38.399  23.419  26.060  1.00  0.00     0.202 C 
ENDROOT
BRANCH   1   2
ATOM      2  C   UNL A   1      37.009  23.548  25.422  1.00  0.00     0.261 C 
BRANCH   2   3
ATOM      3  O   UNL A   1      35.952  23.812  26.370  1.00  0.00    -0.462 OA
BRANCH   3   4
ATOM      4  C   UNL A   1      34.810  23.084  26.210  1.00  0.00     0.330 C 
ATOM      5  O   UNL A   1      33.945  22.956  27.071  1.00  0.00    -0.250 OA
BRANCH   4   6
ATOM      6  C   UNL A   1      34.734  22.334  24.863  1.00  0.00     0.215 C 
ATOM      7  N   UNL A   1      33.719  22.963  24.010  1.00  0.00    -0.321 N 
ATOM      8  C   UNL A   1      32.348  22.581  24.318  1.00  0.00     0.142 C 
ATOM      9  C   UNL A   1      32.178  21.067  24.194  1.00  0.00     0.144 C 
ATOM     10  C   UNL A   1      34.557  20.795  24.960  1.00  0.00     0.160 C 
ATOM     11  N   UNL A   1      33.178  20.283  24.931  1.00  0.00    -0.304 N 
BRANCH   7  12
ATOM     12  C   UNL A   1      33.936  24.184  23.373  1.00  0.00     0.265 C 
ATOM     13  O   UNL A   1      34.993  24.341  22.756  1.00  0.00    -0.268 OA
BRANCH  12  14
ATOM     14  C   UNL A   1      32.965  25.267  23.583  1.00  0.00     0.095 A 
ATOM     15  C   UNL A   1      33.650  26.407  25.810  1.00  0.00     0.046 C 
ATOM     16  C   UNL A   1      32.835  26.243  24.572  1.00  0.00    -0.027 A 
ATOM     17  C   UNL A   1      31.802  27.190  24.244  1.00  0.00     0.016 A 
ATOM     18  C   UNL A   1      31.198  26.932  23.039  1.00  0.00     0.066 A 
ATOM     19  S   UNL A   1      31.816  25.525  22.315  1.00  0.00    -0.138 S 
ENDBRANCH  12  14
ENDBRANCH   7  12
BRANCH  11  20
ATOM     20  C   UNL A   1      32.847  18.961  25.236  1.00  0.00     0.410 C 
ATOM     21  O   UNL A   1      32.532  18.611  26.370  1.00  0.00    -0.224 OA
BRANCH  20  22
ATOM     22  O   UNL A   1      32.904  18.104  24.176  1.00  0.00    -0.444 OA
BRANCH  22  23
ATOM     23  C   UNL A   1      33.820  16.957  24.175  1.00  0.00     0.106 C 
ATOM     24  C   UNL A   1      35.160  17.288  24.837  1.00  0.00     0.056 C 
ATOM     25  C   UNL A   1      33.219  15.702  24.817  1.00  0.00     0.056 C 
ATOM     26  C   UNL A   1      34.102  16.646  22.694  1.00  0.00     0.056 C 
ENDBRANCH  22  23
ENDBRANCH  20  22
ENDBRANCH  11  20
ENDBRANCH   4   6
ENDBRANCH   3   4
ENDBRANCH   2   3
ENDBRANCH   1   2
BRANCH   1  27
ATOM     27  O   UNL A   1      38.873  22.104  26.321  1.00  0.00    -0.374 OA
BRANCH  27  28
ATOM     28  C   UNL A   1      38.554  21.093  25.376  1.00  0.00     0.202 C 
BRANCH  28  29
ATOM     29  C   UNL A   1      39.300  19.758  25.490  1.00  0.00     0.261 C 
BRANCH  29  30
ATOM     30  O   UNL A   1      40.300  19.701  26.534  1.00  0.00    -0.460 OA
BRANCH  30  31
ATOM     31  C   UNL A   1      41.571  19.871  26.088  1.00  0.00     0.338 C 
ATOM     32  O   UNL A   1      42.174  19.124  25.329  1.00  0.00    -0.246 OA
BRANCH  31  33
ATOM     33  C   UNL A   1      42.182  21.155  26.479  1.00  0.00     0.060 A 
ATOM     34  C   UNL A   1      42.146  21.441  27.846  1.00  0.00     0.016 A 
ATOM     35  C   UNL A   1      42.556  22.146  25.567  1.00  0.00     0.016 A 
ATOM     36  C   UNL A   1      42.424  22.725  28.296  1.00  0.00     0.010 A 
ATOM     37  C   UNL A   1      42.849  23.441  26.023  1.00  0.00     0.010 A 
ATOM     38  C   UNL A   1      42.757  23.741  27.390  1.00  0.00    -0.014 A 
BRANCH  38  39
ATOM     39  C   UNL A   1      43.051  25.093  27.920  1.00  0.00     0.031 A 
ATOM     40  C   UNL A   1      41.955  26.085  28.188  1.00  0.00     0.074 A 
ATOM     41  C   UNL A   1      44.325  25.380  28.240  1.00  0.00     0.049 A 
ATOM     42  N   UNL A   1      42.038  27.270  28.741  1.00  0.00    -0.248 NA
ATOM     43  C   UNL A   1      40.593  25.699  27.792  1.00  0.00     0.031 C 
ATOM     44  C   UNL A   1      45.459  24.473  28.048  1.00  0.00     0.029 A 
ATOM     45  N   UNL A   1      44.878  26.495  28.813  1.00  0.00    -0.354 N 
ATOM     46  C   UNL A   1      40.742  27.772  28.763  1.00  0.00     0.074 A 
ATOM     47  C   UNL A   1      39.896  26.773  28.141  1.00  0.00     0.031 C 
ATOM     48  C   UNL A   1      46.569  25.056  28.521  1.00  0.00     0.029 A 
ATOM     49  C   UNL A   1      46.235  26.393  29.001  1.00  0.00     0.049 A 
ATOM     50  H   UNL A   1      44.355  27.290  29.065  1.00  0.00     0.167 HD
ATOM     51  C   UNL A   1      40.303  28.956  29.259  1.00  0.00     0.031 A 
ATOM     52  C   UNL A   1      47.115  27.285  29.490  1.00  0.00     0.031 A 
ATOM     53  C   UNL A   1      41.162  29.951  29.853  1.00  0.00     0.049 A 
ATOM     54  C   UNL A   1      46.612  28.619  29.955  1.00  0.00     0.074 A 
ATOM     55  C   UNL A   1      40.816  31.172  30.405  1.00  0.00     0.029 A 
ATOM     56  N   UNL A   1      42.542  29.844  29.956  1.00  0.00    -0.354 N 
ATOM     57  N   UNL A   1      45.378  29.061  30.013  1.00  0.00    -0.248 NA
ATOM     58  C   UNL A   1      47.621  29.577  30.423  1.00  0.00     0.031 C 
ATOM     59  C   UNL A   1      41.992  31.833  30.776  1.00  0.00     0.029 A 
ATOM     60  C   UNL A   1      43.065  30.997  30.520  1.00  0.00     0.049 A 
ATOM     61  H   UNL A   1      43.071  29.064  29.671  1.00  0.00     0.167 HD
ATOM     62  C   UNL A   1      45.460  30.344  30.533  1.00  0.00     0.074 A 
ATOM     63  C   UNL A   1      46.862  30.597  30.803  1.00  0.00     0.031 C 
ATOM     64  C   UNL A   1      44.466  31.236  30.762  1.00  0.00     0.031 A 
BRANCH  51  65
ATOM     65  C   UNL A   1      38.833  29.265  29.145  1.00  0.00    -0.014 A 
ATOM     66  C   UNL A   1      37.951  29.040  30.213  1.00  0.00     0.009 A 
ATOM     67  C   UNL A   1      38.333  29.843  27.967  1.00  0.00     0.009 A 
ATOM     68  C   UNL A   1      36.594  29.358  30.091  1.00  0.00     0.001 A 
ATOM     69  C   UNL A   1      36.983  30.185  27.858  1.00  0.00     0.001 A 
ATOM     70  C   UNL A   1      36.112  29.933  28.917  1.00  0.00     0.000 A 
ENDBRANCH  51  65
BRANCH  52  71
ATOM     71  C   UNL A   1      48.562  26.948  29.525  1.00  0.00    -0.014 A 
ATOM     72  C   UNL A   1      49.428  27.379  28.510  1.00  0.00     0.009 A 
ATOM     73  C   UNL A   1      49.085  26.196  30.590  1.00  0.00     0.009 A 
ATOM     74  C   UNL A   1      50.785  27.046  28.553  1.00  0.00     0.001 A 
ATOM     75  C   UNL A   1      50.446  25.895  30.648  1.00  0.00     0.001 A 
ATOM     76  C   UNL A   1      51.293  26.312  29.623  1.00  0.00     0.000 A 
ENDBRANCH  52  71
BRANCH  64  77
ATOM     77  C   UNL A   1      44.867  32.566  31.338  1.00  0.00    -0.014 A 
ATOM     78  C   UNL A   1      44.960  32.757  32.726  1.00  0.00     0.009 A 
ATOM     79  C   UNL A   1      45.184  33.633  30.482  1.00  0.00     0.009 A 
ATOM     80  C   UNL A   1      45.328  34.001  33.245  1.00  0.00     0.001 A 
ATOM     81  C   UNL A   1      45.583  34.864  31.002  1.00  0.00     0.001 A 
ATOM     82  C   UNL A   1      45.646  35.049  32.382  1.00  0.00     0.000 A 
ENDBRANCH  64  77
ENDBRANCH  38  39
ENDBRANCH  31  33
ENDBRANCH  30  31
ENDBRANCH  29  30
ENDBRANCH  28  29
ENDBRANCH  27  28
ENDBRANCH   1  27
TORSDOF 19
ENDMDL
MODEL 2
REMARK VINA RESULT:      -9.7      0.935      5.872
REMARK SMILES Cc1ccsc1C(=O)N1CCN(C(=O)OC(C)(C)C)C[C@@H]1C(=O)OCCOCCOC(=O)c1ccc(-c2c3nc(c(-c4ccccc4)c4ccc([nH]4)c(-c4ccccc4)c4nc(c(-c5ccccc5)c5ccc2[nH]5)C=C4)C=C3)cc1
REMARK SMILES IDX 26 1 25 2 24 3 22 4 23 5 21 6 9 7 10 8 11 9 20 10 12 11 7 12
REMARK SMILES IDX 8 13 6 14 1 15 2 16 3 17 4 18 5 19 13 20 14 21 15 22 16 23
REMARK SMILES IDX 17 24 18 25 19 26 27 27 28 28 29 29 30 30 31 31 32 32 33 33
REMARK SMILES IDX 34 34 80 35 35 36 79 37 36 38 37 39 38 40 73 41 39 42 78 43
REMARK SMILES IDX 72 44 74 45 40 46 77 47 71 48 70 49 41 51 63 52 48 53 62 54
REMARK SMILES IDX 49 55 52 56 61 57 75 58 50 59 51 60 60 62 76 63 53 64 42 65
REMARK SMILES IDX 43 66 47 67 44 68 46 69 45 70 64 71 65 72 69 73 66 74 68 75
REMARK SMILES IDX 67 76 54 77 55 78 59 79 56 80 58 81 57 82
REMARK H PARENT 74 50 52 61
REMARK Flexibility Score: inf
ROOT
ATOM      1  C   UNL A   1      38.457  23.419  26.173  1.00  0.00     0.202 C 
ENDROOT
BRANCH   1   2
ATOM      2  C   UNL A   1      37.025  23.966  26.095  1.00  0.00     0.261 C 
BRANCH   2   3
ATOM      3  O   UNL A   1      36.057  23.006  25.617  1.00  0.00    -0.462 OA
BRANCH   3   4
ATOM      4  C   UNL A   1      34.774  23.192  26.038  1.00  0.00     0.330 C 
ATOM      5  O   UNL A   1      34.412  23.115  27.208  1.00  0.00    -0.250 OA
BRANCH   4   6
ATOM      6  C   UNL A   1      33.767  23.415  24.889  1.00  0.00     0.215 C 
ATOM      7  N   UNL A   1      32.509  23.937  25.436  1.00  0.00    -0.321 N 
ATOM      8  C   UNL A   1      31.639  22.927  26.022  1.00  0.00     0.142 C 
ATOM      9  C   UNL A   1      31.283  21.864  24.982  1.00  0.00     0.144 C 
ATOM     10  C   UNL A   1      33.547  22.205  23.943  1.00  0.00     0.160 C 
ATOM     11  N   UNL A   1      32.439  21.296  24.278  1.00  0.00    -0.304 N 
BRANCH   7  12
ATOM     12  C   UNL A   1      32.377  25.254  25.872  1.00  0.00     0.265 C 
ATOM     13  O   UNL A   1      31.802  25.460  26.944  1.00  0.00    -0.268 OA
BRANCH  12  14
ATOM     14  C   UNL A   1      32.803  26.336  24.973  1.00  0.00     0.095 A 
ATOM     15  C   UNL A   1      34.068  28.039  26.466  1.00  0.00     0.046 C 
ATOM     16  C   UNL A   1      33.545  27.500  25.177  1.00  0.00    -0.027 A 
ATOM     17  C   UNL A   1      33.837  28.163  23.933  1.00  0.00     0.016 A 
ATOM     18  C   UNL A   1      33.342  27.499  22.840  1.00  0.00     0.066 A 
ATOM     19  S   UNL A   1      32.472  26.110  23.289  1.00  0.00    -0.138 S 
ENDBRANCH  12  14
ENDBRANCH   7  12
BRANCH  11  20
ATOM     20  C   UNL A   1      32.259  20.053  23.665  1.00  0.00     0.410 C 
ATOM     21  O   UNL A   1      32.123  19.938  22.450  1.00  0.00    -0.224 OA
BRANCH  20  22
ATOM     22  O   UNL A   1      32.249  18.994  24.524  1.00  0.00    -0.444 OA
BRANCH  22  23
ATOM     23  C   UNL A   1      33.309  17.979  24.491  1.00  0.00     0.106 C 
ATOM     24  C   UNL A   1      33.238  17.113  23.230  1.00  0.00     0.056 C 
ATOM     25  C   UNL A   1      34.716  18.567  24.639  1.00  0.00     0.056 C 
ATOM     26  C   UNL A   1      33.047  17.059  25.697  1.00  0.00     0.056 C 
ENDBRANCH  22  23
ENDBRANCH  20  22
ENDBRANCH  11  20
ENDBRANCH   4   6
ENDBRANCH   3   4
ENDBRANCH   2   3
ENDBRANCH   1   2
BRANCH   1  27
ATOM     27  O   UNL A   1      38.606  22.028  26.432  1.00  0.00    -0.374 OA
BRANCH  27  28
ATOM     28  C   UNL A   1      38.832  21.175  25.319  1.00  0.00     0.202 C 
BRANCH  28  29
ATOM     29  C   UNL A   1      39.324  19.752  25.608  1.00  0.00     0.261 C 
BRANCH  29  30
ATOM     30  O   UNL A   1      40.373  19.655  26.600  1.00  0.00    -0.460 OA
BRANCH  30  31
ATOM     31  C   UNL A   1      41.617  19.888  26.110  1.00  0.00     0.338 C 
ATOM     32  O   UNL A   1      42.205  19.206  25.282  1.00  0.00    -0.246 OA
BRANCH  31  33
ATOM     33  C   UNL A   1      42.210  21.164  26.551  1.00  0.00     0.060 A 
ATOM     34  C   UNL A   1      42.216  21.374  27.932  1.00  0.00     0.016 A 
ATOM     35  C   UNL A   1      42.526  22.214  25.684  1.00  0.00     0.016 A 
ATOM     36  C   UNL A   1      42.478  22.638  28.444  1.00  0.00     0.010 A 
ATOM     37  C   UNL A   1      42.803  23.489  26.201  1.00  0.00     0.010 A 
ATOM     38  C   UNL A   1      42.753  23.711  27.585  1.00  0.00    -0.014 A 
BRANCH  38  39
ATOM     39  C   UNL A   1      43.032  25.040  28.180  1.00  0.00     0.031 A 
ATOM     40  C   UNL A   1      44.430  25.469  28.519  1.00  0.00     0.074 A 
ATOM     41  C   UNL A   1      42.001  25.890  28.328  1.00  0.00     0.049 A 
ATOM     42  N   UNL A   1      44.849  26.632  28.954  1.00  0.00    -0.248 NA
ATOM     43  C   UNL A   1      45.496  24.471  28.345  1.00  0.00     0.031 C 
ATOM     44  C   UNL A   1      40.608  25.581  27.999  1.00  0.00     0.029 A 
ATOM     45  N   UNL A   1      41.963  27.188  28.766  1.00  0.00    -0.354 N 
ATOM     46  C   UNL A   1      46.226  26.510  29.103  1.00  0.00     0.074 A 
ATOM     47  C   UNL A   1      46.567  25.150  28.739  1.00  0.00     0.031 C 
ATOM     48  C   UNL A   1      39.855  26.667  28.219  1.00  0.00     0.029 A 
ATOM     49  C   UNL A   1      40.701  27.729  28.752  1.00  0.00     0.049 A 
ATOM     50  H   UNL A   1      42.761  27.682  29.062  1.00  0.00     0.167 HD
ATOM     51  C   UNL A   1      47.118  27.449  29.505  1.00  0.00     0.031 A 
ATOM     52  C   UNL A   1      40.271  28.943  29.142  1.00  0.00     0.031 A 
ATOM     53  C   UNL A   1      46.759  28.793  29.888  1.00  0.00     0.049 A 
ATOM     54  C   UNL A   1      41.270  29.935  29.660  1.00  0.00     0.074 A 
ATOM     55  C   UNL A   1      47.587  29.827  30.288  1.00  0.00     0.029 A 
ATOM     56  N   UNL A   1      45.461  29.282  29.934  1.00  0.00    -0.354 N 
ATOM     57  N   UNL A   1      42.574  29.821  29.750  1.00  0.00    -0.248 NA
ATOM     58  C   UNL A   1      40.740  31.221  30.128  1.00  0.00     0.031 C 
ATOM     59  C   UNL A   1      46.785  30.917  30.644  1.00  0.00     0.029 A 
ATOM     60  C   UNL A   1      45.463  30.587  30.400  1.00  0.00     0.049 A 
ATOM     61  H   UNL A   1      44.657  28.775  29.673  1.00  0.00     0.167 HD
ATOM     62  C   UNL A   1      43.022  31.024  30.276  1.00  0.00     0.074 A 
ATOM     63  C   UNL A   1      41.854  31.864  30.454  1.00  0.00     0.031 C 
ATOM     64  C   UNL A   1      44.286  31.399  30.589  1.00  0.00     0.031 A 
BRANCH  51  65
ATOM     65  C   UNL A   1      48.568  27.050  29.593  1.00  0.00    -0.014 A 
ATOM     66  C   UNL A   1      49.093  26.439  30.743  1.00  0.00     0.009 A 
ATOM     67  C   UNL A   1      49.410  27.240  28.486  1.00  0.00     0.009 A 
ATOM     68  C   UNL A   1      50.437  26.056  30.792  1.00  0.00     0.001 A 
ATOM     69  C   UNL A   1      50.745  26.831  28.527  1.00  0.00     0.001 A 
ATOM     70  C   UNL A   1      51.260  26.248  29.684  1.00  0.00     0.000 A 
ENDBRANCH  51  65
BRANCH  52  71
ATOM     71  C   UNL A   1      38.821  29.262  29.087  1.00  0.00    -0.014 A 
ATOM     72  C   UNL A   1      37.996  29.068  30.205  1.00  0.00     0.009 A 
ATOM     73  C   UNL A   1      38.256  29.777  27.908  1.00  0.00     0.009 A 
ATOM     74  C   UNL A   1      36.632  29.364  30.134  1.00  0.00     0.001 A 
ATOM     75  C   UNL A   1      36.901  30.104  27.852  1.00  0.00     0.001 A 
ATOM     76  C   UNL A   1      36.088  29.888  28.963  1.00  0.00     0.000 A 
ENDBRANCH  52  71
BRANCH  64  77
ATOM     77  C   UNL A   1      44.465  32.782  31.152  1.00  0.00    -0.014 A 
ATOM     78  C   UNL A   1      44.389  33.018  32.533  1.00  0.00     0.009 A 
ATOM     79  C   UNL A   1      44.743  33.857  30.293  1.00  0.00     0.009 A 
ATOM     80  C   UNL A   1      44.552  34.309  33.040  1.00  0.00     0.001 A 
ATOM     81  C   UNL A   1      44.938  35.139  30.804  1.00  0.00     0.001 A 
ATOM     82  C   UNL A   1      44.834  35.366  32.175  1.00  0.00     0.000 A 
ENDBRANCH  64  77
ENDBRANCH  38  39
ENDBRANCH  31  33
ENDBRANCH  30  31
ENDBRANCH  29  30
ENDBRANCH  28  29
ENDBRANCH  27  28
ENDBRANCH   1  27
TORSDOF 19
ENDMDL
MODEL 3
REMARK VINA RESULT:      -9.3      3.805      5.365
REMARK SMILES Cc1ccsc1C(=O)N1CCN(C(=O)OC(C)(C)C)C[C@@H]1C(=O)OCCOCCOC(=O)c1ccc(-c2c3nc(c(-c4ccccc4)c4ccc([nH]4)c(-c4ccccc4)c4nc(c(-c5ccccc5)c5ccc2[nH]5)C=C4)C=C3)cc1
REMARK SMILES IDX 26 1 25 2 24 3 22 4 23 5 21 6 9 7 10 8 11 9 20 10 12 11 7 12
REMARK SMILES IDX 8 13 6 14 1 15 2 16 3 17 4 18 5 19 13 20 14 21 15 22 16 23
REMARK SMILES IDX 17 24 18 25 19 26 27 27 28 28 29 29 30 30 31 31 32 32 33 33
REMARK SMILES IDX 34 34 80 35 35 36 79 37 36 38 37 39 38 40 73 41 39 42 78 43
REMARK SMILES IDX 72 44 74 45 40 46 77 47 71 48 70 49 41 51 63 52 48 53 62 54
REMARK SMILES IDX 49 55 52 56 61 57 75 58 50 59 51 60 60 62 76 63 53 64 42 65
REMARK SMILES IDX 43 66 47 67 44 68 46 69 45 70 64 71 65 72 69 73 66 74 68 75
REMARK SMILES IDX 67 76 54 77 55 78 59 79 56 80 58 81 57 82
REMARK H PARENT 74 50 52 61
REMARK Flexibility Score: inf
ROOT
ATOM      1  C   UNL A   1      37.606  22.087  25.457  1.00  0.00     0.202 C 
ENDROOT
BRANCH   1   2
ATOM      2  C   UNL A   1      36.833  22.212  24.137  1.00  0.00     0.261 C 
BRANCH   2   3
ATOM      3  O   UNL A   1      35.397  22.207  24.297  1.00  0.00    -0.462 OA
BRANCH   3   4
ATOM      4  C   UNL A   1      34.688  22.876  23.344  1.00  0.00     0.330 C 
ATOM      5  O   UNL A   1      35.121  23.825  22.698  1.00  0.00    -0.250 OA
BRANCH   4   6
ATOM      6  C   UNL A   1      33.227  22.398  23.204  1.00  0.00     0.215 C 
ATOM      7  N   UNL A   1      32.357  23.230  24.044  1.00  0.00    -0.321 N 
ATOM      8  C   UNL A   1      32.356  22.870  25.456  1.00  0.00     0.142 C 
ATOM      9  C   UNL A   1      31.913  21.417  25.632  1.00  0.00     0.144 C 
ATOM     10  C   UNL A   1      32.991  20.880  23.426  1.00  0.00     0.160 C 
ATOM     11  N   UNL A   1      32.637  20.457  24.790  1.00  0.00    -0.304 N 
BRANCH   7  12
ATOM     12  C   UNL A   1      32.015  24.535  23.697  1.00  0.00     0.265 C 
ATOM     13  O   UNL A   1      31.737  24.772  22.518  1.00  0.00    -0.268 OA
BRANCH  12  14
ATOM     14  C   UNL A   1      32.137  25.587  24.716  1.00  0.00     0.095 A 
ATOM     15  C   UNL A   1      29.827  25.702  25.892  1.00  0.00     0.046 C 
ATOM     16  C   UNL A   1      31.255  26.078  25.680  1.00  0.00    -0.027 A 
ATOM     17  C   UNL A   1      31.905  27.012  26.561  1.00  0.00     0.016 A 
ATOM     18  C   UNL A   1      33.234  27.192  26.269  1.00  0.00     0.066 A 
ATOM     19  S   UNL A   1      33.704  26.295  24.905  1.00  0.00    -0.138 S 
ENDBRANCH  12  14
ENDBRANCH   7  12
BRANCH  11  20
ATOM     20  C   UNL A   1      32.620  19.120  25.195  1.00  0.00     0.410 C 
ATOM     21  O   UNL A   1      32.506  18.796  26.374  1.00  0.00    -0.224 OA
BRANCH  20  22
ATOM     22  O   UNL A   1      32.738  18.219  24.178  1.00  0.00    -0.444 OA
BRANCH  22  23
ATOM     23  C   UNL A   1      33.853  17.266  24.133  1.00  0.00     0.106 C 
ATOM     24  C   UNL A   1      35.181  17.911  24.542  1.00  0.00     0.056 C 
ATOM     25  C   UNL A   1      33.608  16.007  24.971  1.00  0.00     0.056 C 
ATOM     26  C   UNL A   1      33.983  16.839  22.660  1.00  0.00     0.056 C 
ENDBRANCH  22  23
ENDBRANCH  20  22
ENDBRANCH  11  20
ENDBRANCH   4   6
ENDBRANCH   3   4
ENDBRANCH   2   3
ENDBRANCH   1   2
BRANCH   1  27
ATOM     27  O   UNL A   1      38.870  21.437  25.409  1.00  0.00    -0.374 OA
BRANCH  27  28
ATOM     28  C   UNL A   1      39.725  21.581  26.534  1.00  0.00     0.202 C 
BRANCH  28  29
ATOM     29  C   UNL A   1      41.162  22.046  26.273  1.00  0.00     0.261 C 
BRANCH  29  30
ATOM     30  O   UNL A   1      41.837  22.626  27.415  1.00  0.00    -0.460 OA
BRANCH  30  31
ATOM     31  C   UNL A   1      41.633  23.961  27.554  1.00  0.00     0.338 C 
ATOM     32  O   UNL A   1      40.643  24.493  28.038  1.00  0.00    -0.246 OA
BRANCH  31  33
ATOM     33  C   UNL A   1      42.799  24.790  27.197  1.00  0.00     0.060 A 
ATOM     34  C   UNL A   1      43.520  25.303  28.278  1.00  0.00     0.016 A 
ATOM     35  C   UNL A   1      43.056  25.254  25.904  1.00  0.00     0.016 A 
ATOM     36  C   UNL A   1      44.449  26.316  28.079  1.00  0.00     0.010 A 
ATOM     37  C   UNL A   1      44.004  26.268  25.700  1.00  0.00     0.010 A 
ATOM     38  C   UNL A   1      44.685  26.822  26.793  1.00  0.00    -0.014 A 
BRANCH  38  39
ATOM     39  C   UNL A   1      45.691  27.898  26.631  1.00  0.00     0.031 A 
ATOM     40  C   UNL A   1      45.312  29.347  26.738  1.00  0.00     0.074 A 
ATOM     41  C   UNL A   1      46.977  27.538  26.471  1.00  0.00     0.049 A 
ATOM     42  N   UNL A   1      46.088  30.403  26.717  1.00  0.00    -0.248 NA
ATOM     43  C   UNL A   1      43.882  29.655  26.892  1.00  0.00     0.031 C 
ATOM     44  C   UNL A   1      47.453  26.156  26.386  1.00  0.00     0.029 A 
ATOM     45  N   UNL A   1      48.116  28.293  26.377  1.00  0.00    -0.354 N 
ATOM     46  C   UNL A   1      45.246  31.499  26.859  1.00  0.00     0.074 A 
ATOM     47  C   UNL A   1      43.895  30.981  26.936  1.00  0.00     0.031 C 
ATOM     48  C   UNL A   1      48.789  26.160  26.281  1.00  0.00     0.029 A 
ATOM     49  C   UNL A   1      49.256  27.541  26.240  1.00  0.00     0.049 A 
ATOM     50  H   UNL A   1      48.116  29.277  26.405  1.00  0.00     0.167 HD
ATOM     51  C   UNL A   1      45.575  32.814  26.920  1.00  0.00     0.031 A 
ATOM     52  C   UNL A   1      50.537  27.923  26.081  1.00  0.00     0.031 A 
ATOM     53  C   UNL A   1      46.923  33.315  26.816  1.00  0.00     0.049 A 
ATOM     54  C   UNL A   1      50.860  29.388  26.071  1.00  0.00     0.074 A 
ATOM     55  C   UNL A   1      47.365  34.625  26.889  1.00  0.00     0.029 A 
ATOM     56  N   UNL A   1      48.046  32.528  26.601  1.00  0.00    -0.354 N 
ATOM     57  N   UNL A   1      50.060  30.410  26.253  1.00  0.00    -0.248 NA
ATOM     58  C   UNL A   1      52.262  29.751  25.834  1.00  0.00     0.031 C 
ATOM     59  C   UNL A   1      48.743  34.636  26.646  1.00  0.00     0.029 A 
ATOM     60  C   UNL A   1      49.172  33.328  26.492  1.00  0.00     0.049 A 
ATOM     61  H   UNL A   1      48.041  31.545  26.536  1.00  0.00     0.167 HD
ATOM     62  C   UNL A   1      50.861  31.539  26.164  1.00  0.00     0.074 A 
ATOM     63  C   UNL A   1      52.216  31.073  25.942  1.00  0.00     0.031 C 
ATOM     64  C   UNL A   1      50.509  32.844  26.251  1.00  0.00     0.031 A 
BRANCH  51  65
ATOM     65  C   UNL A   1      44.456  33.812  27.066  1.00  0.00    -0.014 A 
ATOM     66  C   UNL A   1      44.035  34.264  28.327  1.00  0.00     0.009 A 
ATOM     67  C   UNL A   1      43.851  34.351  25.919  1.00  0.00     0.009 A 
ATOM     68  C   UNL A   1      43.010  35.210  28.435  1.00  0.00     0.001 A 
ATOM     69  C   UNL A   1      42.847  35.317  26.030  1.00  0.00     0.001 A 
ATOM     70  C   UNL A   1      42.420  35.738  27.288  1.00  0.00     0.000 A 
ENDBRANCH  51  65
BRANCH  52  71
ATOM     71  C   UNL A   1      51.592  26.896  25.883  1.00  0.00    -0.014 A 
ATOM     72  C   UNL A   1      52.202  26.267  26.978  1.00  0.00     0.009 A 
ATOM     73  C   UNL A   1      51.987  26.532  24.584  1.00  0.00     0.009 A 
ATOM     74  C   UNL A   1      53.200  25.310  26.774  1.00  0.00     0.001 A 
ATOM     75  C   UNL A   1      52.958  25.552  24.385  1.00  0.00     0.001 A 
ATOM     76  C   UNL A   1      53.572  24.948  25.481  1.00  0.00     0.000 A 
ENDBRANCH  52  71
BRANCH  64  77
ATOM     77  C   UNL A   1      51.611  33.857  26.111  1.00  0.00    -0.014 A 
ATOM     78  C   UNL A   1      51.934  34.409  24.861  1.00  0.00     0.009 A 
ATOM     79  C   UNL A   1      52.316  34.286  27.246  1.00  0.00     0.009 A 
ATOM     80  C   UNL A   1      52.964  35.345  24.747  1.00  0.00     0.001 A 
ATOM     81  C   UNL A   1      53.322  35.245  27.135  1.00  0.00     0.001 A 
ATOM     82  C   UNL A   1      53.652  35.767  25.884  1.00  0.00     0.000 A 
ENDBRANCH  64  77
ENDBRANCH  38  39
ENDBRANCH  31  33
ENDBRANCH  30  31
ENDBRANCH  29  30
ENDBRANCH  28  29
ENDBRANCH  27  28
ENDBRANCH   1  27
TORSDOF 19
ENDMDL
