MODEL 1
REMARK VINA RESULT:     -12.0      0.000      0.000
REMARK SMILES CS(=O)(=O)c1ccc(/C=C(/C(=O)OCCOCCOC(=O)c2ccc(-c3c4nc(c(-c5ccccc5)c5ccc([nH]5)c(-c5ccccc5)c5nc(c(-c6ccccc6)c6ccc3[nH]6)C=C5)C=C4)cc2)c2ccc(-c3ccc(S(C)(=O)=O)cc3)cc2)cc1
REMARK SMILES IDX 15 1 14 2 13 3 11 4 12 5 10 6 9 7 8 8 5 9 6 10 87 11 7 12
REMARK SMILES IDX 86 13 2 14 1 15 3 16 4 17 70 18 71 19 85 20 72 21 84 22
REMARK SMILES IDX 73 23 74 24 75 25 83 26 76 27 82 28 77 29 78 30 79 31 80 32
REMARK SMILES IDX 81 33 16 34 17 35 18 36 19 37 20 38 21 39 22 40 23 41 69 42
REMARK SMILES IDX 24 43 68 44 25 45 26 46 27 47 62 48 28 49 67 50 61 51 63 52
REMARK SMILES IDX 29 53 66 54 60 55 59 56 30 58 52 59 37 60 51 61 38 62 41 63
REMARK SMILES IDX 50 64 64 65 39 66 40 67 49 69 65 70 42 71 31 72 32 73 36 74
REMARK SMILES IDX 33 75 35 76 34 77 53 78 54 79 58 80 55 81 57 82 56 83 43 84
REMARK SMILES IDX 44 85 48 86 45 87 47 88 46 89
REMARK H PARENT 63 57 41 68
REMARK Flexibility Score: inf
ROOT
ATOM      1  C   UNL A   1      33.474  21.309  24.541  1.00  0.00     0.202 C 
ENDROOT
BRANCH   1   2
ATOM      2  C   UNL A   1      32.796  21.961  25.749  1.00  0.00     0.261 C 
BRANCH   2   3
ATOM      3  O   UNL A   1      31.762  22.875  25.339  1.00  0.00    -0.460 OA
BRANCH   3   4
ATOM      4  C   UNL A   1      31.617  23.957  26.147  1.00  0.00     0.338 C 
ATOM      5  O   UNL A   1      31.762  23.959  27.362  1.00  0.00    -0.246 OA
BRANCH   4   6
ATOM      6  C   UNL A   1      31.375  25.213  25.367  1.00  0.00     0.067 C 
ATOM      7  C   UNL A   1      30.558  25.202  24.288  1.00  0.00     0.024 C 
BRANCH   7   8
ATOM      8  C   UNL A   1      29.956  26.368  23.590  1.00  0.00    -0.025 A 
ATOM      9  C   UNL A   1      28.820  28.822  22.822  1.00  0.00     0.067 A 
ATOM     10  C   UNL A   1      30.118  28.506  22.426  1.00  0.00     0.021 A 
ATOM     11  C   UNL A   1      28.044  27.885  23.502  1.00  0.00     0.021 A 
ATOM     12  C   UNL A   1      30.661  27.264  22.772  1.00  0.00     0.009 A 
ATOM     13  C   UNL A   1      28.612  26.662  23.877  1.00  0.00     0.009 A 
BRANCH   9  14
ATOM     14  S   UNL A   1      28.220  30.481  22.611  1.00  0.00     0.175 S 
ATOM     15  C   UNL A   1      28.035  30.650  20.860  1.00  0.00     0.163 C 
ATOM     16  O   UNL A   1      29.278  31.380  23.041  1.00  0.00    -0.224 OA
ATOM     17  O   UNL A   1      26.904  30.549  23.212  1.00  0.00    -0.224 OA
ENDBRANCH   9  14
ENDBRANCH   7   8
BRANCH   6  18
ATOM     18  C   UNL A   1      31.994  26.431  25.918  1.00  0.00    -0.011 A 
ATOM     19  C   UNL A   1      33.204  26.893  25.379  1.00  0.00     0.009 A 
ATOM     20  C   UNL A   1      31.382  27.159  26.938  1.00  0.00     0.009 A 
ATOM     21  C   UNL A   1      33.781  28.077  25.838  1.00  0.00     0.009 A 
ATOM     22  C   UNL A   1      31.954  28.354  27.381  1.00  0.00     0.009 A 
ATOM     23  C   UNL A   1      33.159  28.836  26.839  1.00  0.00    -0.018 A 
BRANCH  23  24
ATOM     24  C   UNL A   1      33.742  30.110  27.296  1.00  0.00    -0.018 A 
ATOM     25  C   UNL A   1      32.949  31.264  27.437  1.00  0.00     0.010 A 
ATOM     26  C   UNL A   1      35.106  30.199  27.627  1.00  0.00     0.010 A 
ATOM     27  C   UNL A   1      33.495  32.462  27.906  1.00  0.00     0.021 A 
ATOM     28  C   UNL A   1      35.661  31.390  28.097  1.00  0.00     0.021 A 
ATOM     29  C   UNL A   1      34.851  32.516  28.230  1.00  0.00     0.067 A 
BRANCH  29  30
ATOM     30  S   UNL A   1      35.531  34.027  28.864  1.00  0.00     0.175 S 
ATOM     31  C   UNL A   1      34.776  34.188  30.460  1.00  0.00     0.163 C 
ATOM     32  O   UNL A   1      36.952  33.808  29.051  1.00  0.00    -0.224 OA
ATOM     33  O   UNL A   1      35.045  35.114  28.037  1.00  0.00    -0.224 OA
ENDBRANCH  29  30
ENDBRANCH  23  24
ENDBRANCH   6  18
ENDBRANCH   4   6
ENDBRANCH   3   4
ENDBRANCH   2   3
ENDBRANCH   1   2
BRANCH   1  34
ATOM     34  O   UNL A   1      34.614  20.488  24.794  1.00  0.00    -0.374 OA
BRANCH  34  35
ATOM     35  C   UNL A   1      35.761  21.109  25.365  1.00  0.00     0.202 C 
BRANCH  35  36
ATOM     36  C   UNL A   1      37.138  20.531  25.016  1.00  0.00     0.261 C 
BRANCH  36  37
ATOM     37  O   UNL A   1      38.181  21.515  25.045  1.00  0.00    -0.460 OA
BRANCH  37  38
ATOM     38  C   UNL A   1      39.178  21.237  25.915  1.00  0.00     0.338 C 
ATOM     39  O   UNL A   1      39.740  20.161  26.087  1.00  0.00    -0.246 OA
BRANCH  38  40
ATOM     40  C   UNL A   1      39.651  22.479  26.544  1.00  0.00     0.060 A 
ATOM     41  C   UNL A   1      39.016  23.671  26.173  1.00  0.00     0.016 A 
ATOM     42  C   UNL A   1      40.723  22.490  27.440  1.00  0.00     0.016 A 
ATOM     43  C   UNL A   1      39.479  24.887  26.664  1.00  0.00     0.010 A 
ATOM     44  C   UNL A   1      41.193  23.715  27.923  1.00  0.00     0.010 A 
ATOM     45  C   UNL A   1      40.593  24.918  27.511  1.00  0.00    -0.014 A 
BRANCH  45  46
ATOM     46  C   UNL A   1      41.205  26.222  27.856  1.00  0.00     0.031 A 
ATOM     47  C   UNL A   1      42.546  26.577  27.278  1.00  0.00     0.074 A 
ATOM     48  C   UNL A   1      40.553  27.094  28.645  1.00  0.00     0.049 A 
ATOM     49  N   UNL A   1      43.253  27.666  27.437  1.00  0.00    -0.248 NA
ATOM     50  C   UNL A   1      43.172  25.572  26.404  1.00  0.00     0.031 C 
ATOM     51  C   UNL A   1      39.233  26.878  29.235  1.00  0.00     0.029 A 
ATOM     52  N   UNL A   1      40.920  28.341  29.082  1.00  0.00    -0.354 N 
ATOM     53  C   UNL A   1      44.410  27.475  26.691  1.00  0.00     0.074 A 
ATOM     54  C   UNL A   1      44.322  26.156  26.104  1.00  0.00     0.031 C 
ATOM     55  C   UNL A   1      38.901  27.957  29.962  1.00  0.00     0.029 A 
ATOM     56  C   UNL A   1      39.995  28.924  29.912  1.00  0.00     0.049 A 
ATOM     57  H   UNL A   1      41.766  28.776  28.827  1.00  0.00     0.167 HD
ATOM     58  C   UNL A   1      45.447  28.325  26.507  1.00  0.00     0.031 A 
ATOM     59  C   UNL A   1      40.035  30.100  30.568  1.00  0.00     0.031 A 
ATOM     60  C   UNL A   1      45.539  29.631  27.103  1.00  0.00     0.049 A 
ATOM     61  C   UNL A   1      41.231  30.997  30.401  1.00  0.00     0.074 A 
ATOM     62  C   UNL A   1      46.539  30.577  26.956  1.00  0.00     0.029 A 
ATOM     63  N   UNL A   1      44.601  30.169  27.970  1.00  0.00    -0.354 N 
ATOM     64  N   UNL A   1      42.300  30.823  29.662  1.00  0.00    -0.248 NA
ATOM     65  C   UNL A   1      41.219  32.260  31.154  1.00  0.00     0.031 C 
ATOM     66  C   UNL A   1      46.234  31.664  27.782  1.00  0.00     0.029 A 
ATOM     67  C   UNL A   1      45.015  31.421  28.394  1.00  0.00     0.049 A 
ATOM     68  H   UNL A   1      43.765  29.728  28.243  1.00  0.00     0.167 HD
ATOM     69  C   UNL A   1      43.075  31.961  29.841  1.00  0.00     0.074 A 
ATOM     70  C   UNL A   1      42.346  32.827  30.745  1.00  0.00     0.031 C 
ATOM     71  C   UNL A   1      44.282  32.265  29.303  1.00  0.00     0.031 A 
BRANCH  58  72
ATOM     72  C   UNL A   1      46.588  27.845  25.653  1.00  0.00    -0.014 A 
ATOM     73  C   UNL A   1      46.501  27.834  24.253  1.00  0.00     0.009 A 
ATOM     74  C   UNL A   1      47.780  27.421  26.263  1.00  0.00     0.009 A 
ATOM     75  C   UNL A   1      47.571  27.374  23.481  1.00  0.00     0.001 A 
ATOM     76  C   UNL A   1      48.858  26.989  25.489  1.00  0.00     0.001 A 
ATOM     77  C   UNL A   1      48.750  26.957  24.100  1.00  0.00     0.000 A 
ENDBRANCH  58  72
BRANCH  59  78
ATOM     78  C   UNL A   1      38.911  30.488  31.458  1.00  0.00    -0.014 A 
ATOM     79  C   UNL A   1      38.969  30.246  32.838  1.00  0.00     0.009 A 
ATOM     80  C   UNL A   1      37.767  31.103  30.924  1.00  0.00     0.009 A 
ATOM     81  C   UNL A   1      37.895  30.592  33.662  1.00  0.00     0.001 A 
ATOM     82  C   UNL A   1      36.707  31.473  31.753  1.00  0.00     0.001 A 
ATOM     83  C   UNL A   1      36.768  31.209  33.121  1.00  0.00     0.000 A 
ENDBRANCH  59  78
BRANCH  71  84
ATOM     84  C   UNL A   1      44.879  33.599  29.660  1.00  0.00    -0.014 A 
ATOM     85  C   UNL A   1      45.745  33.742  30.755  1.00  0.00     0.009 A 
ATOM     86  C   UNL A   1      44.598  34.720  28.864  1.00  0.00     0.009 A 
ATOM     87  C   UNL A   1      46.290  34.989  31.065  1.00  0.00     0.001 A 
ATOM     88  C   UNL A   1      45.169  35.960  29.158  1.00  0.00     0.001 A 
ATOM     89  C   UNL A   1      46.005  36.096  30.264  1.00  0.00     0.000 A 
ENDBRANCH  71  84
ENDBRANCH  45  46
ENDBRANCH  38  40
ENDBRANCH  37  38
ENDBRANCH  36  37
ENDBRANCH  35  36
ENDBRANCH  34  35
ENDBRANCH   1  34
TORSDOF 19
ENDMDL
MODEL 2
REMARK VINA RESULT:     -11.4      0.873      5.576
REMARK SMILES CS(=O)(=O)c1ccc(/C=C(/C(=O)OCCOCCOC(=O)c2ccc(-c3c4nc(c(-c5ccccc5)c5ccc([nH]5)c(-c5ccccc5)c5nc(c(-c6ccccc6)c6ccc3[nH]6)C=C5)C=C4)cc2)c2ccc(-c3ccc(S(C)(=O)=O)cc3)cc2)cc1
REMARK SMILES IDX 15 1 14 2 13 3 11 4 12 5 10 6 9 7 8 8 5 9 6 10 87 11 7 12
REMARK SMILES IDX 86 13 2 14 1 15 3 16 4 17 70 18 71 19 85 20 72 21 84 22
REMARK SMILES IDX 73 23 74 24 75 25 83 26 76 27 82 28 77 29 78 30 79 31 80 32
REMARK SMILES IDX 81 33 16 34 17 35 18 36 19 37 20 38 21 39 22 40 23 41 69 42
REMARK SMILES IDX 24 43 68 44 25 45 26 46 27 47 62 48 28 49 67 50 61 51 63 52
REMARK SMILES IDX 29 53 66 54 60 55 59 56 30 58 52 59 37 60 51 61 38 62 41 63
REMARK SMILES IDX 50 64 64 65 39 66 40 67 49 69 65 70 42 71 31 72 32 73 36 74
REMARK SMILES IDX 33 75 35 76 34 77 53 78 54 79 58 80 55 81 57 82 56 83 43 84
REMARK SMILES IDX 44 85 48 86 45 87 47 88 46 89
REMARK H PARENT 63 57 41 68
REMARK Flexibility Score: inf
ROOT
ATOM      1  C   UNL A   1      33.417  21.346  24.112  1.00  0.00     0.202 C 
ENDROOT
BRANCH   1   2
ATOM      2  C   UNL A   1      32.478  22.034  25.107  1.00  0.00     0.261 C 
BRANCH   2   3
ATOM      3  O   UNL A   1      31.999  23.289  24.591  1.00  0.00    -0.460 OA
BRANCH   3   4
ATOM      4  C   UNL A   1      31.754  24.229  25.541  1.00  0.00     0.338 C 
ATOM      5  O   UNL A   1      31.835  24.054  26.749  1.00  0.00    -0.246 OA
BRANCH   4   6
ATOM      6  C   UNL A   1      31.488  25.577  24.943  1.00  0.00     0.067 C 
ATOM      7  C   UNL A   1      30.641  25.706  23.895  1.00  0.00     0.024 C 
BRANCH   7   8
ATOM      8  C   UNL A   1      30.016  26.951  23.376  1.00  0.00    -0.025 A 
ATOM      9  C   UNL A   1      28.796  29.452  22.982  1.00  0.00     0.067 A 
ATOM     10  C   UNL A   1      30.128  29.267  22.618  1.00  0.00     0.021 A 
ATOM     11  C   UNL A   1      28.034  28.377  23.437  1.00  0.00     0.021 A 
ATOM     12  C   UNL A   1      30.716  28.007  22.774  1.00  0.00     0.009 A 
ATOM     13  C   UNL A   1      28.645  27.132  23.627  1.00  0.00     0.009 A 
BRANCH   9  14
ATOM     14  S   UNL A   1      28.122  31.096  23.029  1.00  0.00     0.175 S 
ATOM     15  C   UNL A   1      27.684  31.427  21.347  1.00  0.00     0.163 C 
ATOM     16  O   UNL A   1      29.202  31.994  23.399  1.00  0.00    -0.224 OA
ATOM     17  O   UNL A   1      26.902  31.045  23.810  1.00  0.00    -0.224 OA
ENDBRANCH   9  14
ENDBRANCH   7   8
BRANCH   6  18
ATOM     18  C   UNL A   1      32.121  26.714  25.633  1.00  0.00    -0.011 A 
ATOM     19  C   UNL A   1      33.413  27.112  25.263  1.00  0.00     0.009 A 
ATOM     20  C   UNL A   1      31.444  27.431  26.620  1.00  0.00     0.009 A 
ATOM     21  C   UNL A   1      34.013  28.223  25.857  1.00  0.00     0.009 A 
ATOM     22  C   UNL A   1      32.041  28.554  27.198  1.00  0.00     0.009 A 
ATOM     23  C   UNL A   1      33.332  28.973  26.826  1.00  0.00    -0.018 A 
BRANCH  23  24
ATOM     24  C   UNL A   1      33.943  30.173  27.423  1.00  0.00    -0.018 A 
ATOM     25  C   UNL A   1      33.268  31.408  27.428  1.00  0.00     0.010 A 
ATOM     26  C   UNL A   1      35.212  30.109  28.027  1.00  0.00     0.010 A 
ATOM     27  C   UNL A   1      33.832  32.536  28.028  1.00  0.00     0.021 A 
ATOM     28  C   UNL A   1      35.784  31.230  28.630  1.00  0.00     0.021 A 
ATOM     29  C   UNL A   1      35.091  32.439  28.622  1.00  0.00     0.067 A 
BRANCH  29  30
ATOM     30  S   UNL A   1      35.786  33.865  29.418  1.00  0.00     0.175 S 
ATOM     31  C   UNL A   1      37.518  33.741  29.058  1.00  0.00     0.163 C 
ATOM     32  O   UNL A   1      35.260  35.031  28.736  1.00  0.00    -0.224 OA
ATOM     33  O   UNL A   1      35.622  33.698  30.849  1.00  0.00    -0.224 OA
ENDBRANCH  29  30
ENDBRANCH  23  24
ENDBRANCH   6  18
ENDBRANCH   4   6
ENDBRANCH   3   4
ENDBRANCH   2   3
ENDBRANCH   1   2
BRANCH   1  34
ATOM     34  O   UNL A   1      34.194  20.250  24.596  1.00  0.00    -0.374 OA
BRANCH  34  35
ATOM     35  C   UNL A   1      35.255  20.542  25.500  1.00  0.00     0.202 C 
BRANCH  35  36
ATOM     36  C   UNL A   1      36.656  20.757  24.915  1.00  0.00     0.261 C 
BRANCH  36  37
ATOM     37  O   UNL A   1      37.385  21.799  25.578  1.00  0.00    -0.460 OA
BRANCH  37  38
ATOM     38  C   UNL A   1      38.643  21.452  25.934  1.00  0.00     0.338 C 
ATOM     39  O   UNL A   1      39.219  20.395  25.705  1.00  0.00    -0.246 OA
BRANCH  38  40
ATOM     40  C   UNL A   1      39.336  22.614  26.510  1.00  0.00     0.060 A 
ATOM     41  C   UNL A   1      38.903  23.885  26.111  1.00  0.00     0.016 A 
ATOM     42  C   UNL A   1      40.417  22.470  27.383  1.00  0.00     0.016 A 
ATOM     43  C   UNL A   1      39.578  25.019  26.550  1.00  0.00     0.010 A 
ATOM     44  C   UNL A   1      41.100  23.611  27.814  1.00  0.00     0.010 A 
ATOM     45  C   UNL A   1      40.703  24.886  27.373  1.00  0.00    -0.014 A 
BRANCH  45  46
ATOM     46  C   UNL A   1      41.535  26.077  27.660  1.00  0.00     0.031 A 
ATOM     47  C   UNL A   1      41.042  27.092  28.652  1.00  0.00     0.074 A 
ATOM     48  C   UNL A   1      42.732  26.230  27.070  1.00  0.00     0.049 A 
ATOM     49  N   UNL A   1      41.614  28.196  29.059  1.00  0.00    -0.248 NA
ATOM     50  C   UNL A   1      39.732  26.828  29.267  1.00  0.00     0.031 C 
ATOM     51  C   UNL A   1      43.333  25.296  26.119  1.00  0.00     0.029 A 
ATOM     52  N   UNL A   1      43.659  27.234  27.190  1.00  0.00    -0.354 N 
ATOM     53  C   UNL A   1      40.731  28.762  29.971  1.00  0.00     0.074 A 
ATOM     54  C   UNL A   1      39.575  27.895  30.036  1.00  0.00     0.031 C 
ATOM     55  C   UNL A   1      44.530  25.774  25.738  1.00  0.00     0.029 A 
ATOM     56  C   UNL A   1      44.764  27.058  26.394  1.00  0.00     0.049 A 
ATOM     57  H   UNL A   1      43.543  28.008  27.788  1.00  0.00     0.167 HD
ATOM     58  C   UNL A   1      40.874  29.897  30.695  1.00  0.00     0.031 A 
ATOM     59  C   UNL A   1      45.835  27.852  26.207  1.00  0.00     0.031 A 
ATOM     60  C   UNL A   1      42.019  30.765  30.619  1.00  0.00     0.049 A 
ATOM     61  C   UNL A   1      45.940  29.143  26.972  1.00  0.00     0.074 A 
ATOM     62  C   UNL A   1      42.269  31.926  31.332  1.00  0.00     0.029 A 
ATOM     63  N   UNL A   1      43.099  30.574  29.771  1.00  0.00    -0.354 N 
ATOM     64  N   UNL A   1      45.118  29.647  27.861  1.00  0.00    -0.248 NA
ATOM     65  C   UNL A   1      47.128  29.970  26.713  1.00  0.00     0.031 C 
ATOM     66  C   UNL A   1      43.473  32.468  30.870  1.00  0.00     0.029 A 
ATOM     67  C   UNL A   1      44.002  31.613  29.917  1.00  0.00     0.049 A 
ATOM     68  H   UNL A   1      43.207  29.812  29.158  1.00  0.00     0.167 HD
ATOM     69  C   UNL A   1      45.699  30.836  28.284  1.00  0.00     0.074 A 
ATOM     70  C   UNL A   1      46.951  30.968  27.567  1.00  0.00     0.031 C 
ATOM     71  C   UNL A   1      45.239  31.736  29.187  1.00  0.00     0.031 A 
BRANCH  58  72
ATOM     72  C   UNL A   1      39.740  30.284  31.603  1.00  0.00    -0.014 A 
ATOM     73  C   UNL A   1      38.702  31.119  31.163  1.00  0.00     0.009 A 
ATOM     74  C   UNL A   1      39.700  29.783  32.914  1.00  0.00     0.009 A 
ATOM     75  C   UNL A   1      37.664  31.473  32.028  1.00  0.00     0.001 A 
ATOM     76  C   UNL A   1      38.647  30.115  33.768  1.00  0.00     0.001 A 
ATOM     77  C   UNL A   1      37.635  30.967  33.328  1.00  0.00     0.000 A 
ENDBRANCH  58  72
BRANCH  59  78
ATOM     78  C   UNL A   1      46.890  27.454  25.239  1.00  0.00    -0.014 A 
ATOM     79  C   UNL A   1      46.847  27.891  23.908  1.00  0.00     0.009 A 
ATOM     80  C   UNL A   1      47.948  26.625  25.648  1.00  0.00     0.009 A 
ATOM     81  C   UNL A   1      47.830  27.489  23.000  1.00  0.00     0.001 A 
ATOM     82  C   UNL A   1      48.944  26.248  24.746  1.00  0.00     0.001 A 
ATOM     83  C   UNL A   1      48.880  26.673  23.420  1.00  0.00     0.000 A 
ENDBRANCH  59  78
BRANCH  71  84
ATOM     84  C   UNL A   1      46.105  32.932  29.469  1.00  0.00    -0.014 A 
ATOM     85  C   UNL A   1      45.952  34.130  28.754  1.00  0.00     0.009 A 
ATOM     86  C   UNL A   1      47.063  32.870  30.493  1.00  0.00     0.009 A 
ATOM     87  C   UNL A   1      46.766  35.229  29.035  1.00  0.00     0.001 A 
ATOM     88  C   UNL A   1      47.855  33.980  30.793  1.00  0.00     0.001 A 
ATOM     89  C   UNL A   1      47.712  35.155  30.057  1.00  0.00     0.000 A 
ENDBRANCH  71  84
ENDBRANCH  45  46
ENDBRANCH  38  40
ENDBRANCH  37  38
ENDBRANCH  36  37
ENDBRANCH  35  36
ENDBRANCH  34  35
ENDBRANCH   1  34
TORSDOF 19
ENDMDL
MODEL 3
REMARK VINA RESULT:     -11.0      3.629      6.558
REMARK SMILES CS(=O)(=O)c1ccc(/C=C(/C(=O)OCCOCCOC(=O)c2ccc(-c3c4nc(c(-c5ccccc5)c5ccc([nH]5)c(-c5ccccc5)c5nc(c(-c6ccccc6)c6ccc3[nH]6)C=C5)C=C4)cc2)c2ccc(-c3ccc(S(C)(=O)=O)cc3)cc2)cc1
REMARK SMILES IDX 15 1 14 2 13 3 11 4 12 5 10 6 9 7 8 8 5 9 6 10 87 11 7 12
REMARK SMILES IDX 86 13 2 14 1 15 3 16 4 17 70 18 71 19 85 20 72 21 84 22
REMARK SMILES IDX 73 23 74 24 75 25 83 26 76 27 82 28 77 29 78 30 79 31 80 32
REMARK SMILES IDX 81 33 16 34 17 35 18 36 19 37 20 38 21 39 22 40 23 41 69 42
REMARK SMILES IDX 24 43 68 44 25 45 26 46 27 47 62 48 28 49 67 50 61 51 63 52
REMARK SMILES IDX 29 53 66 54 60 55 59 56 30 58 52 59 37 60 51 61 38 62 41 63
REMARK SMILES IDX 50 64 64 65 39 66 40 67 49 69 65 70 42 71 31 72 32 73 36 74
REMARK SMILES IDX 33 75 35 76 34 77 53 78 54 79 58 80 55 81 57 82 56 83 43 84
REMARK SMILES IDX 44 85 48 86 45 87 47 88 46 89
REMARK H PARENT 63 57 41 68
REMARK Flexibility Score: inf
ROOT
ATOM      1  C   UNL A   1      33.807  22.882  24.889  1.00  0.00     0.202 C 
ENDROOT
BRANCH   1   2
ATOM      2  C   UNL A   1      32.445  22.408  25.403  1.00  0.00     0.261 C 
BRANCH   2   3
ATOM      3  O   UNL A   1      31.389  23.282  24.966  1.00  0.00    -0.460 OA
BRANCH   3   4
ATOM      4  C   UNL A   1      31.114  24.302  25.821  1.00  0.00     0.338 C 
ATOM      5  O   UNL A   1      31.027  24.204  27.037  1.00  0.00    -0.246 OA
BRANCH   4   6
ATOM      6  C   UNL A   1      31.050  25.623  25.118  1.00  0.00     0.067 C 
ATOM      7  C   UNL A   1      30.162  25.823  24.115  1.00  0.00     0.024 C 
BRANCH   7   8
ATOM      8  C   UNL A   1      29.734  27.117  23.522  1.00  0.00    -0.025 A 
ATOM      9  C   UNL A   1      28.810  29.714  22.976  1.00  0.00     0.067 A 
ATOM     10  C   UNL A   1      30.161  29.413  22.816  1.00  0.00     0.021 A 
ATOM     11  C   UNL A   1      27.897  28.711  23.298  1.00  0.00     0.021 A 
ATOM     12  C   UNL A   1      30.607  28.107  23.045  1.00  0.00     0.009 A 
ATOM     13  C   UNL A   1      28.362  27.418  23.564  1.00  0.00     0.009 A 
BRANCH   9  14
ATOM     14  S   UNL A   1      28.282  31.411  22.938  1.00  0.00     0.175 S 
ATOM     15  C   UNL A   1      28.155  31.781  21.213  1.00  0.00     0.163 C 
ATOM     16  O   UNL A   1      29.361  32.210  23.492  1.00  0.00    -0.224 OA
ATOM     17  O   UNL A   1      26.952  31.466  23.510  1.00  0.00    -0.224 OA
ENDBRANCH   9  14
ENDBRANCH   7   8
BRANCH   6  18
ATOM     18  C   UNL A   1      31.928  26.675  25.660  1.00  0.00    -0.011 A 
ATOM     19  C   UNL A   1      31.381  27.673  26.479  1.00  0.00     0.009 A 
ATOM     20  C   UNL A   1      33.300  26.676  25.411  1.00  0.00     0.009 A 
ATOM     21  C   UNL A   1      32.197  28.646  27.057  1.00  0.00     0.009 A 
ATOM     22  C   UNL A   1      34.115  27.640  26.007  1.00  0.00     0.009 A 
ATOM     23  C   UNL A   1      33.582  28.639  26.842  1.00  0.00    -0.018 A 
BRANCH  23  24
ATOM     24  C   UNL A   1      34.454  29.637  27.486  1.00  0.00    -0.018 A 
ATOM     25  C   UNL A   1      33.966  30.910  27.839  1.00  0.00     0.010 A 
ATOM     26  C   UNL A   1      35.793  29.334  27.788  1.00  0.00     0.010 A 
ATOM     27  C   UNL A   1      34.782  31.843  28.483  1.00  0.00     0.021 A 
ATOM     28  C   UNL A   1      36.617  30.258  28.432  1.00  0.00     0.021 A 
ATOM     29  C   UNL A   1      36.106  31.510  28.772  1.00  0.00     0.067 A 
BRANCH  29  30
ATOM     30  S   UNL A   1      37.128  32.682  29.627  1.00  0.00     0.175 S 
ATOM     31  C   UNL A   1      35.996  33.510  30.711  1.00  0.00     0.163 C 
ATOM     32  O   UNL A   1      38.062  31.922  30.435  1.00  0.00    -0.224 OA
ATOM     33  O   UNL A   1      37.597  33.653  28.657  1.00  0.00    -0.224 OA
ENDBRANCH  29  30
ENDBRANCH  23  24
ENDBRANCH   6  18
ENDBRANCH   4   6
ENDBRANCH   3   4
ENDBRANCH   2   3
ENDBRANCH   1   2
BRANCH   1  34
ATOM     34  O   UNL A   1      34.759  23.316  25.861  1.00  0.00    -0.374 OA
BRANCH  34  35
ATOM     35  C   UNL A   1      35.792  22.405  26.225  1.00  0.00     0.202 C 
BRANCH  35  36
ATOM     36  C   UNL A   1      36.944  22.195  25.235  1.00  0.00     0.261 C 
BRANCH  36  37
ATOM     37  O   UNL A   1      38.209  22.633  25.748  1.00  0.00    -0.460 OA
BRANCH  37  38
ATOM     38  C   UNL A   1      39.062  21.626  26.046  1.00  0.00     0.338 C 
ATOM     39  O   UNL A   1      38.966  20.447  25.725  1.00  0.00    -0.246 OA
BRANCH  38  40
ATOM     40  C   UNL A   1      40.270  22.170  26.686  1.00  0.00     0.060 A 
ATOM     41  C   UNL A   1      40.178  23.446  27.256  1.00  0.00     0.016 A 
ATOM     42  C   UNL A   1      41.480  21.471  26.689  1.00  0.00     0.016 A 
ATOM     43  C   UNL A   1      41.310  24.049  27.794  1.00  0.00     0.010 A 
ATOM     44  C   UNL A   1      42.618  22.085  27.221  1.00  0.00     0.010 A 
ATOM     45  C   UNL A   1      42.543  23.388  27.745  1.00  0.00    -0.014 A 
BRANCH  45  46
ATOM     46  C   UNL A   1      43.772  24.120  28.126  1.00  0.00     0.031 A 
ATOM     47  C   UNL A   1      44.159  24.196  29.576  1.00  0.00     0.074 A 
ATOM     48  C   UNL A   1      44.553  24.678  27.185  1.00  0.00     0.049 A 
ATOM     49  N   UNL A   1      45.197  24.773  30.125  1.00  0.00    -0.248 NA
ATOM     50  C   UNL A   1      43.259  23.534  30.532  1.00  0.00     0.031 C 
ATOM     51  C   UNL A   1      44.300  24.640  25.745  1.00  0.00     0.029 A 
ATOM     52  N   UNL A   1      45.720  25.387  27.306  1.00  0.00    -0.354 N 
ATOM     53  C   UNL A   1      45.071  24.549  31.491  1.00  0.00     0.074 A 
ATOM     54  C   UNL A   1      43.843  23.811  31.688  1.00  0.00     0.031 C 
ATOM     55  C   UNL A   1      45.286  25.301  25.114  1.00  0.00     0.029 A 
ATOM     56  C   UNL A   1      46.218  25.832  26.106  1.00  0.00     0.049 A 
ATOM     57  H   UNL A   1      46.160  25.560  28.169  1.00  0.00     0.167 HD
ATOM     58  C   UNL A   1      45.906  24.920  32.490  1.00  0.00     0.031 A 
ATOM     59  C   UNL A   1      47.296  26.594  25.841  1.00  0.00     0.031 A 
ATOM     60  C   UNL A   1      47.120  25.666  32.293  1.00  0.00     0.049 A 
ATOM     61  C   UNL A   1      48.172  27.052  26.975  1.00  0.00     0.074 A 
ATOM     62  C   UNL A   1      48.048  26.068  33.239  1.00  0.00     0.029 A 
ATOM     63  N   UNL A   1      47.569  26.134  31.068  1.00  0.00    -0.354 N 
ATOM     64  N   UNL A   1      48.065  26.801  28.258  1.00  0.00    -0.248 NA
ATOM     65  C   UNL A   1      49.327  27.891  26.621  1.00  0.00     0.031 C 
ATOM     66  C   UNL A   1      49.027  26.831  32.593  1.00  0.00     0.029 A 
ATOM     67  C   UNL A   1      48.742  26.851  31.237  1.00  0.00     0.049 A 
ATOM     68  H   UNL A   1      47.120  25.979  30.206  1.00  0.00     0.167 HD
ATOM     69  C   UNL A   1      49.146  27.430  28.860  1.00  0.00     0.074 A 
ATOM     70  C   UNL A   1      49.908  28.059  27.801  1.00  0.00     0.031 C 
ATOM     71  C   UNL A   1      49.481  27.480  30.173  1.00  0.00     0.031 A 
BRANCH  58  72
ATOM     72  C   UNL A   1      45.508  24.556  33.893  1.00  0.00    -0.014 A 
ATOM     73  C   UNL A   1      45.949  23.368  34.495  1.00  0.00     0.009 A 
ATOM     74  C   UNL A   1      44.698  25.432  34.634  1.00  0.00     0.009 A 
ATOM     75  C   UNL A   1      45.558  23.046  35.797  1.00  0.00     0.001 A 
ATOM     76  C   UNL A   1      44.332  25.122  35.945  1.00  0.00     0.001 A 
ATOM     77  C   UNL A   1      44.754  23.926  36.522  1.00  0.00     0.000 A 
ENDBRANCH  58  72
BRANCH  59  78
ATOM     78  C   UNL A   1      47.599  26.986  24.441  1.00  0.00    -0.014 A 
ATOM     79  C   UNL A   1      48.577  26.309  23.699  1.00  0.00     0.009 A 
ATOM     80  C   UNL A   1      46.907  28.051  23.840  1.00  0.00     0.009 A 
ATOM     81  C   UNL A   1      48.872  26.704  22.392  1.00  0.00     0.001 A 
ATOM     82  C   UNL A   1      47.184  28.425  22.524  1.00  0.00     0.001 A 
ATOM     83  C   UNL A   1      48.173  27.757  21.804  1.00  0.00     0.000 A 
ENDBRANCH  59  78
BRANCH  71  84
ATOM     84  C   UNL A   1      50.740  28.221  30.534  1.00  0.00    -0.014 A 
ATOM     85  C   UNL A   1      51.996  27.599  30.473  1.00  0.00     0.009 A 
ATOM     86  C   UNL A   1      50.668  29.573  30.904  1.00  0.00     0.009 A 
ATOM     87  C   UNL A   1      53.151  28.307  30.809  1.00  0.00     0.001 A 
ATOM     88  C   UNL A   1      51.827  30.288  31.210  1.00  0.00     0.001 A 
ATOM     89  C   UNL A   1      53.067  29.652  31.173  1.00  0.00     0.000 A 
ENDBRANCH  71  84
ENDBRANCH  45  46
ENDBRANCH  38  40
ENDBRANCH  37  38
ENDBRANCH  36  37
ENDBRANCH  35  36
ENDBRANCH  34  35
ENDBRANCH   1  34
TORSDOF 19
ENDMDL
