MODEL 1
REMARK VINA RESULT:     -11.7      0.000      0.000
REMARK SMILES O=C(OCCOCCOC(=O)c1ccc2c(=O)n3cc(C(=O)c4cc(F)ccc4O)cc(Cl)c3nc2c1)c1ccc(-c2c3nc(c(-c4ccccc4)c4ccc([nH]4)c(-c4ccccc4)c4nc(c(-c5ccccc5)c5ccc2[nH]5)C=C4)C=C3)cc1
REMARK SMILES IDX 7 1 6 2 5 3 4 4 3 5 2 6 1 7 38 8 39 9 85 10 40 11 84 12
REMARK SMILES IDX 41 13 42 14 43 15 78 16 44 17 83 18 77 19 79 20 45 21 82 22
REMARK SMILES IDX 76 23 75 24 46 26 68 27 53 28 67 29 54 30 57 31 66 32 80 33
REMARK SMILES IDX 55 34 56 35 65 37 81 38 58 39 47 40 48 41 52 42 49 43 51 44
REMARK SMILES IDX 50 45 69 46 70 47 74 48 71 49 73 50 72 51 59 52 60 53 64 54
REMARK SMILES IDX 61 55 63 56 62 57 8 58 9 59 10 60 11 61 12 62 13 63 37 64
REMARK SMILES IDX 14 65 36 66 15 67 35 68 16 69 34 70 17 71 18 72 32 73 19 74
REMARK SMILES IDX 31 75 33 76 20 77 21 78 22 79 23 80 24 81 29 82 25 83 28 84
REMARK SMILES IDX 26 85 27 86 30 87
REMARK H PARENT 79 25 57 36 30 88
REMARK Flexibility Score: inf
ROOT
ATOM      1  C   UNL A   1      33.312  34.413  29.229  1.00  0.00     0.202 C 
ENDROOT
BRANCH   1   2
ATOM      2  O   UNL A   1      33.844  34.927  30.453  1.00  0.00    -0.374 OA
BRANCH   2   3
ATOM      3  C   UNL A   1      34.866  34.141  31.065  1.00  0.00     0.202 C 
BRANCH   3   4
ATOM      4  C   UNL A   1      34.419  33.477  32.369  1.00  0.00     0.261 C 
BRANCH   4   5
ATOM      5  O   UNL A   1      35.119  32.243  32.586  1.00  0.00    -0.460 OA
BRANCH   5   6
ATOM      6  C   UNL A   1      36.380  32.025  33.022  1.00  0.00     0.338 C 
ATOM      7  O   UNL A   1      36.629  32.320  34.192  1.00  0.00    -0.246 OA
BRANCH   6   8
ATOM      8  C   UNL A   1      37.515  31.491  32.193  1.00  0.00     0.060 A 
ATOM      9  C   UNL A   1      37.369  31.609  30.796  1.00  0.00     0.016 A 
ATOM     10  C   UNL A   1      38.651  30.827  32.661  1.00  0.00     0.016 A 
ATOM     11  C   UNL A   1      38.304  31.060  29.910  1.00  0.00     0.010 A 
ATOM     12  C   UNL A   1      39.580  30.265  31.791  1.00  0.00     0.010 A 
ATOM     13  C   UNL A   1      39.411  30.378  30.414  1.00  0.00    -0.014 A 
BRANCH  13  14
ATOM     14  C   UNL A   1      40.507  29.904  29.555  1.00  0.00     0.031 A 
ATOM     15  C   UNL A   1      40.539  28.497  29.053  1.00  0.00     0.074 A 
ATOM     16  C   UNL A   1      41.556  30.730  29.408  1.00  0.00     0.049 A 
ATOM     17  N   UNL A   1      41.457  27.911  28.331  1.00  0.00    -0.248 NA
ATOM     18  C   UNL A   1      39.413  27.626  29.424  1.00  0.00     0.031 C 
ATOM     19  C   UNL A   1      41.632  32.084  29.965  1.00  0.00     0.029 A 
ATOM     20  N   UNL A   1      42.768  30.546  28.802  1.00  0.00    -0.354 N 
ATOM     21  C   UNL A   1      41.018  26.606  28.150  1.00  0.00     0.074 A 
ATOM     22  C   UNL A   1      39.771  26.473  28.871  1.00  0.00     0.031 C 
ATOM     23  C   UNL A   1      42.837  32.601  29.689  1.00  0.00     0.029 A 
ATOM     24  C   UNL A   1      43.615  31.616  28.947  1.00  0.00     0.049 A 
ATOM     25  H   UNL A   1      43.008  29.728  28.309  1.00  0.00     0.167 HD
ATOM     26  C   UNL A   1      41.613  25.626  27.432  1.00  0.00     0.031 A 
ATOM     27  C   UNL A   1      44.881  31.784  28.528  1.00  0.00     0.031 A 
ATOM     28  C   UNL A   1      42.873  25.797  26.755  1.00  0.00     0.049 A 
ATOM     29  C   UNL A   1      45.515  30.691  27.725  1.00  0.00     0.074 A 
ATOM     30  C   UNL A   1      43.517  24.920  25.901  1.00  0.00     0.029 A 
ATOM     31  N   UNL A   1      43.693  26.911  26.881  1.00  0.00    -0.354 N 
ATOM     32  N   UNL A   1      45.022  29.515  27.417  1.00  0.00    -0.248 NA
ATOM     33  C   UNL A   1      46.854  30.949  27.186  1.00  0.00     0.031 C 
ATOM     34  C   UNL A   1      44.758  25.469  25.574  1.00  0.00     0.029 A 
ATOM     35  C   UNL A   1      44.858  26.722  26.160  1.00  0.00     0.049 A 
ATOM     36  H   UNL A   1      43.477  27.716  27.406  1.00  0.00     0.167 HD
ATOM     37  C   UNL A   1      45.981  28.895  26.632  1.00  0.00     0.074 A 
ATOM     38  C   UNL A   1      47.081  29.832  26.502  1.00  0.00     0.031 C 
ATOM     39  C   UNL A   1      45.948  27.663  26.067  1.00  0.00     0.031 A 
BRANCH  26  40
ATOM     40  C   UNL A   1      40.926  24.291  27.319  1.00  0.00    -0.014 A 
ATOM     41  C   UNL A   1      41.473  23.162  27.952  1.00  0.00     0.009 A 
ATOM     42  C   UNL A   1      39.810  24.118  26.483  1.00  0.00     0.009 A 
ATOM     43  C   UNL A   1      40.931  21.892  27.739  1.00  0.00     0.001 A 
ATOM     44  C   UNL A   1      39.253  22.850  26.294  1.00  0.00     0.001 A 
ATOM     45  C   UNL A   1      39.821  21.737  26.912  1.00  0.00     0.000 A 
ENDBRANCH  26  40
BRANCH  27  46
ATOM     46  C   UNL A   1      45.547  33.080  28.810  1.00  0.00    -0.014 A 
ATOM     47  C   UNL A   1      46.272  33.269  29.999  1.00  0.00     0.009 A 
ATOM     48  C   UNL A   1      45.308  34.183  27.978  1.00  0.00     0.009 A 
ATOM     49  C   UNL A   1      46.708  34.544  30.368  1.00  0.00     0.001 A 
ATOM     50  C   UNL A   1      45.766  35.452  28.338  1.00  0.00     0.001 A 
ATOM     51  C   UNL A   1      46.451  35.635  29.539  1.00  0.00     0.000 A 
ENDBRANCH  27  46
BRANCH  39  52
ATOM     52  C   UNL A   1      47.144  27.234  25.266  1.00  0.00    -0.014 A 
ATOM     53  C   UNL A   1      48.211  26.580  25.902  1.00  0.00     0.009 A 
ATOM     54  C   UNL A   1      47.270  27.598  23.918  1.00  0.00     0.009 A 
ATOM     55  C   UNL A   1      49.396  26.326  25.211  1.00  0.00     0.001 A 
ATOM     56  C   UNL A   1      48.445  27.315  23.221  1.00  0.00     0.001 A 
ATOM     57  C   UNL A   1      49.511  26.694  23.872  1.00  0.00     0.000 A 
ENDBRANCH  39  52
ENDBRANCH  13  14
ENDBRANCH   6   8
ENDBRANCH   5   6
ENDBRANCH   4   5
ENDBRANCH   3   4
ENDBRANCH   2   3
ENDBRANCH   1   2
BRANCH   1  58
ATOM     58  C   UNL A   1      34.378  33.583  28.514  1.00  0.00     0.261 C 
BRANCH  58  59
ATOM     59  O   UNL A   1      33.830  32.291  28.215  1.00  0.00    -0.460 OA
BRANCH  59  60
ATOM     60  C   UNL A   1      34.686  31.413  27.636  1.00  0.00     0.338 C 
ATOM     61  O   UNL A   1      35.903  31.439  27.637  1.00  0.00    -0.246 OA
BRANCH  60  62
ATOM     62  C   UNL A   1      33.881  30.270  27.163  1.00  0.00     0.062 A 
ATOM     63  C   UNL A   1      32.483  30.332  27.173  1.00  0.00     0.016 A 
ATOM     64  C   UNL A   1      34.543  29.094  26.779  1.00  0.00     0.045 A 
ATOM     65  C   UNL A   1      31.749  29.217  26.791  1.00  0.00     0.017 A 
ATOM     66  C   UNL A   1      33.813  27.963  26.422  1.00  0.00     0.079 A 
ATOM     67  C   UNL A   1      32.423  28.048  26.418  1.00  0.00     0.066 A 
ATOM     68  N   UNL A   1      34.494  26.786  26.083  1.00  0.00    -0.228 NA
ATOM     69  C   UNL A   1      31.667  26.887  25.946  1.00  0.00     0.265 A 
ATOM     70  C   UNL A   1      33.813  25.776  25.632  1.00  0.00     0.159 A 
ATOM     71  O   UNL A   1      30.438  26.940  25.932  1.00  0.00    -0.268 OA
ATOM     72  N   UNL A   1      32.421  25.801  25.503  1.00  0.00    -0.266 N 
ATOM     73  C   UNL A   1      34.478  24.493  25.204  1.00  0.00     0.085 A 
ATOM     74  C   UNL A   1      31.735  24.768  24.880  1.00  0.00     0.109 A 
ATOM     75  C   UNL A   1      33.771  23.542  24.577  1.00  0.00     0.038 A 
ATOM     76  Cl  UNL A   1      36.149  24.278  25.551  1.00  0.00    -0.080 Cl
ATOM     77  C   UNL A   1      32.354  23.709  24.338  1.00  0.00     0.041 A 
BRANCH  77  78
ATOM     78  C   UNL A   1      31.564  22.680  23.587  1.00  0.00     0.198 C 
ATOM     79  O   UNL A   1      30.718  22.993  22.755  1.00  0.00    -0.288 OA
BRANCH  78  80
ATOM     80  C   UNL A   1      31.892  21.245  23.769  1.00  0.00     0.067 A 
ATOM     81  C   UNL A   1      32.154  20.716  25.039  1.00  0.00     0.055 A 
ATOM     82  C   UNL A   1      32.042  20.441  22.634  1.00  0.00     0.126 A 
ATOM     83  C   UNL A   1      32.644  19.419  25.141  1.00  0.00     0.124 A 
ATOM     84  C   UNL A   1      32.542  19.146  22.750  1.00  0.00     0.050 A 
ATOM     85  F   UNL A   1      32.944  18.925  26.350  1.00  0.00    -0.207 F 
ATOM     86  C   UNL A   1      32.857  18.637  24.010  1.00  0.00     0.043 A 
BRANCH  82  87
ATOM     87  O   UNL A   1      31.744  20.885  21.375  1.00  0.00    -0.507 OA
ATOM     88  H   UNL A   1      32.132  21.674  21.051  1.00  0.00     0.293 HD
ENDBRANCH  82  87
ENDBRANCH  78  80
ENDBRANCH  77  78
ENDBRANCH  60  62
ENDBRANCH  59  60
ENDBRANCH  58  59
ENDBRANCH   1  58
TORSDOF 17
ENDMDL
MODEL 2
REMARK VINA RESULT:     -11.3      2.739      9.375
REMARK SMILES O=C(OCCOCCOC(=O)c1ccc2c(=O)n3cc(C(=O)c4cc(F)ccc4O)cc(Cl)c3nc2c1)c1ccc(-c2c3nc(c(-c4ccccc4)c4ccc([nH]4)c(-c4ccccc4)c4nc(c(-c5ccccc5)c5ccc2[nH]5)C=C4)C=C3)cc1
REMARK SMILES IDX 7 1 6 2 5 3 4 4 3 5 2 6 1 7 38 8 39 9 85 10 40 11 84 12
REMARK SMILES IDX 41 13 42 14 43 15 78 16 44 17 83 18 77 19 79 20 45 21 82 22
REMARK SMILES IDX 76 23 75 24 46 26 68 27 53 28 67 29 54 30 57 31 66 32 80 33
REMARK SMILES IDX 55 34 56 35 65 37 81 38 58 39 47 40 48 41 52 42 49 43 51 44
REMARK SMILES IDX 50 45 69 46 70 47 74 48 71 49 73 50 72 51 59 52 60 53 64 54
REMARK SMILES IDX 61 55 63 56 62 57 8 58 9 59 10 60 11 61 12 62 13 63 37 64
REMARK SMILES IDX 14 65 36 66 15 67 35 68 16 69 34 70 17 71 18 72 32 73 19 74
REMARK SMILES IDX 31 75 33 76 20 77 21 78 22 79 23 80 24 81 29 82 25 83 28 84
REMARK SMILES IDX 26 85 27 86 30 87
REMARK H PARENT 79 25 57 36 30 88
REMARK Flexibility Score: inf
ROOT
ATOM      1  C   UNL A   1      34.420  23.242  24.909  1.00  0.00     0.202 C 
ENDROOT
BRANCH   1   2
ATOM      2  O   UNL A   1      35.304  22.118  24.948  1.00  0.00    -0.374 OA
BRANCH   2   3
ATOM      3  C   UNL A   1      36.630  22.354  24.479  1.00  0.00     0.202 C 
BRANCH   3   4
ATOM      4  C   UNL A   1      37.564  21.158  24.678  1.00  0.00     0.261 C 
BRANCH   4   5
ATOM      5  O   UNL A   1      38.072  21.118  26.020  1.00  0.00    -0.460 OA
BRANCH   5   6
ATOM      6  C   UNL A   1      39.307  21.403  26.490  1.00  0.00     0.338 C 
ATOM      7  O   UNL A   1      40.013  20.453  26.828  1.00  0.00    -0.246 OA
BRANCH   6   8
ATOM      8  C   UNL A   1      39.879  22.782  26.672  1.00  0.00     0.060 A 
ATOM      9  C   UNL A   1      40.961  22.888  27.570  1.00  0.00     0.016 A 
ATOM     10  C   UNL A   1      39.402  23.966  26.108  1.00  0.00     0.016 A 
ATOM     11  C   UNL A   1      41.517  24.127  27.907  1.00  0.00     0.010 A 
ATOM     12  C   UNL A   1      39.936  25.206  26.445  1.00  0.00     0.010 A 
ATOM     13  C   UNL A   1      40.995  25.292  27.346  1.00  0.00    -0.014 A 
BRANCH  13  14
ATOM     14  C   UNL A   1      41.617  26.611  27.536  1.00  0.00     0.031 A 
ATOM     15  C   UNL A   1      42.955  26.924  26.951  1.00  0.00     0.074 A 
ATOM     16  C   UNL A   1      41.017  27.438  28.410  1.00  0.00     0.049 A 
ATOM     17  N   UNL A   1      43.660  28.018  27.070  1.00  0.00    -0.248 NA
ATOM     18  C   UNL A   1      43.600  25.872  26.150  1.00  0.00     0.031 C 
ATOM     19  C   UNL A   1      39.757  27.146  29.099  1.00  0.00     0.029 A 
ATOM     20  N   UNL A   1      41.400  28.653  28.906  1.00  0.00    -0.354 N 
ATOM     21  C   UNL A   1      44.827  27.794  26.351  1.00  0.00     0.074 A 
ATOM     22  C   UNL A   1      44.755  26.446  25.832  1.00  0.00     0.031 C 
ATOM     23  C   UNL A   1      39.481  28.148  29.944  1.00  0.00     0.029 A 
ATOM     24  C   UNL A   1      40.544  29.142  29.860  1.00  0.00     0.049 A 
ATOM     25  H   UNL A   1      42.209  29.129  28.608  1.00  0.00     0.167 HD
ATOM     26  C   UNL A   1      45.849  28.656  26.146  1.00  0.00     0.031 A 
ATOM     27  C   UNL A   1      40.609  30.270  30.589  1.00  0.00     0.031 A 
ATOM     28  C   UNL A   1      45.890  29.981  26.710  1.00  0.00     0.049 A 
ATOM     29  C   UNL A   1      41.743  31.215  30.336  1.00  0.00     0.074 A 
ATOM     30  C   UNL A   1      46.812  30.986  26.478  1.00  0.00     0.029 A 
ATOM     31  N   UNL A   1      44.984  30.471  27.641  1.00  0.00    -0.354 N 
ATOM     32  N   UNL A   1      42.763  31.065  29.525  1.00  0.00    -0.248 NA
ATOM     33  C   UNL A   1      41.727  32.488  31.064  1.00  0.00     0.031 C 
ATOM     34  C   UNL A   1      46.508  32.053  27.325  1.00  0.00     0.029 A 
ATOM     35  C   UNL A   1      45.353  31.747  28.030  1.00  0.00     0.049 A 
ATOM     36  H   UNL A   1      44.196  29.984  27.974  1.00  0.00     0.167 HD
ATOM     37  C   UNL A   1      43.505  32.232  29.628  1.00  0.00     0.074 A 
ATOM     38  C   UNL A   1      42.809  33.084  30.574  1.00  0.00     0.031 C 
ATOM     39  C   UNL A   1      44.655  32.564  28.992  1.00  0.00     0.031 A 
BRANCH  26  40
ATOM     40  C   UNL A   1      46.999  28.223  25.275  1.00  0.00    -0.014 A 
ATOM     41  C   UNL A   1      46.853  28.199  23.878  1.00  0.00     0.009 A 
ATOM     42  C   UNL A   1      48.184  27.717  25.836  1.00  0.00     0.009 A 
ATOM     43  C   UNL A   1      47.856  27.664  23.065  1.00  0.00     0.001 A 
ATOM     44  C   UNL A   1      49.198  27.209  25.019  1.00  0.00     0.001 A 
ATOM     45  C   UNL A   1      49.028  27.172  23.636  1.00  0.00     0.000 A 
ENDBRANCH  26  40
BRANCH  27  46
ATOM     46  C   UNL A   1      39.507  30.556  31.540  1.00  0.00    -0.014 A 
ATOM     47  C   UNL A   1      39.511  30.000  32.831  1.00  0.00     0.009 A 
ATOM     48  C   UNL A   1      38.363  31.236  31.098  1.00  0.00     0.009 A 
ATOM     49  C   UNL A   1      38.377  30.084  33.642  1.00  0.00     0.001 A 
ATOM     50  C   UNL A   1      37.240  31.339  31.921  1.00  0.00     0.001 A 
ATOM     51  C   UNL A   1      37.241  30.751  33.185  1.00  0.00     0.000 A 
ENDBRANCH  27  46
BRANCH  39  52
ATOM     52  C   UNL A   1      45.258  33.904  29.303  1.00  0.00    -0.014 A 
ATOM     53  C   UNL A   1      44.718  35.064  28.723  1.00  0.00     0.009 A 
ATOM     54  C   UNL A   1      46.437  34.001  30.056  1.00  0.00     0.009 A 
ATOM     55  C   UNL A   1      45.365  36.291  28.866  1.00  0.00     0.001 A 
ATOM     56  C   UNL A   1      47.065  35.235  30.223  1.00  0.00     0.001 A 
ATOM     57  C   UNL A   1      46.537  36.375  29.616  1.00  0.00     0.000 A 
ENDBRANCH  39  52
ENDBRANCH  13  14
ENDBRANCH   6   8
ENDBRANCH   5   6
ENDBRANCH   4   5
ENDBRANCH   3   4
ENDBRANCH   2   3
ENDBRANCH   1   2
BRANCH   1  58
ATOM     58  C   UNL A   1      33.404  23.135  26.047  1.00  0.00     0.261 C 
BRANCH  58  59
ATOM     59  O   UNL A   1      33.018  24.459  26.442  1.00  0.00    -0.460 OA
BRANCH  59  60
ATOM     60  C   UNL A   1      32.029  25.024  25.706  1.00  0.00     0.338 C 
ATOM     61  O   UNL A   1      31.146  24.466  25.080  1.00  0.00    -0.246 OA
BRANCH  60  62
ATOM     62  C   UNL A   1      32.075  26.477  25.960  1.00  0.00     0.062 A 
ATOM     63  C   UNL A   1      30.988  27.292  25.627  1.00  0.00     0.016 A 
ATOM     64  C   UNL A   1      33.259  27.034  26.467  1.00  0.00     0.045 A 
ATOM     65  C   UNL A   1      31.085  28.665  25.810  1.00  0.00     0.017 A 
ATOM     66  C   UNL A   1      33.374  28.413  26.625  1.00  0.00     0.079 A 
ATOM     67  C   UNL A   1      32.274  29.208  26.309  1.00  0.00     0.066 A 
ATOM     68  N   UNL A   1      34.580  28.951  27.093  1.00  0.00    -0.228 NA
ATOM     69  C   UNL A   1      32.370  30.644  26.573  1.00  0.00     0.265 A 
ATOM     70  C   UNL A   1      34.638  30.222  27.357  1.00  0.00     0.159 A 
ATOM     71  O   UNL A   1      31.410  31.365  26.303  1.00  0.00    -0.268 OA
ATOM     72  N   UNL A   1      33.555  31.085  27.161  1.00  0.00    -0.266 N 
ATOM     73  C   UNL A   1      35.885  30.867  27.905  1.00  0.00     0.085 A 
ATOM     74  C   UNL A   1      33.595  32.403  27.589  1.00  0.00     0.109 A 
ATOM     75  C   UNL A   1      35.856  32.136  28.335  1.00  0.00     0.038 A 
ATOM     76  Cl  UNL A   1      37.336  29.943  27.952  1.00  0.00    -0.080 Cl
ATOM     77  C   UNL A   1      34.645  32.923  28.242  1.00  0.00     0.041 A 
BRANCH  77  78
ATOM     78  C   UNL A   1      34.583  34.323  28.772  1.00  0.00     0.198 C 
ATOM     79  O   UNL A   1      34.680  35.300  28.034  1.00  0.00    -0.288 OA
BRANCH  78  80
ATOM     80  C   UNL A   1      34.282  34.538  30.208  1.00  0.00     0.067 A 
ATOM     81  C   UNL A   1      34.782  33.676  31.192  1.00  0.00     0.055 A 
ATOM     82  C   UNL A   1      33.396  35.562  30.562  1.00  0.00     0.126 A 
ATOM     83  C   UNL A   1      34.319  33.801  32.497  1.00  0.00     0.124 A 
ATOM     84  C   UNL A   1      32.934  35.670  31.872  1.00  0.00     0.050 A 
ATOM     85  F   UNL A   1      34.756  32.946  33.431  1.00  0.00    -0.207 F 
ATOM     86  C   UNL A   1      33.388  34.775  32.842  1.00  0.00     0.043 A 
BRANCH  82  87
ATOM     87  O   UNL A   1      32.922  36.470  29.657  1.00  0.00    -0.507 OA
ATOM     88  H   UNL A   1      33.419  36.669  28.887  1.00  0.00     0.293 HD
ENDBRANCH  82  87
ENDBRANCH  78  80
ENDBRANCH  77  78
ENDBRANCH  60  62
ENDBRANCH  59  60
ENDBRANCH  58  59
ENDBRANCH   1  58
TORSDOF 17
ENDMDL
MODEL 3
REMARK VINA RESULT:     -11.3      5.598     11.346
REMARK SMILES O=C(OCCOCCOC(=O)c1ccc2c(=O)n3cc(C(=O)c4cc(F)ccc4O)cc(Cl)c3nc2c1)c1ccc(-c2c3nc(c(-c4ccccc4)c4ccc([nH]4)c(-c4ccccc4)c4nc(c(-c5ccccc5)c5ccc2[nH]5)C=C4)C=C3)cc1
REMARK SMILES IDX 7 1 6 2 5 3 4 4 3 5 2 6 1 7 38 8 39 9 85 10 40 11 84 12
REMARK SMILES IDX 41 13 42 14 43 15 78 16 44 17 83 18 77 19 79 20 45 21 82 22
REMARK SMILES IDX 76 23 75 24 46 26 68 27 53 28 67 29 54 30 57 31 66 32 80 33
REMARK SMILES IDX 55 34 56 35 65 37 81 38 58 39 47 40 48 41 52 42 49 43 51 44
REMARK SMILES IDX 50 45 69 46 70 47 74 48 71 49 73 50 72 51 59 52 60 53 64 54
REMARK SMILES IDX 61 55 63 56 62 57 8 58 9 59 10 60 11 61 12 62 13 63 37 64
REMARK SMILES IDX 14 65 36 66 15 67 35 68 16 69 34 70 17 71 18 72 32 73 19 74
REMARK SMILES IDX 31 75 33 76 20 77 21 78 22 79 23 80 24 81 29 82 25 83 28 84
REMARK SMILES IDX 26 85 27 86 30 87
REMARK H PARENT 79 25 57 36 30 88
REMARK Flexibility Score: inf
ROOT
ATOM      1  C   UNL A   1      50.476  26.899  32.610  1.00  0.00     0.202 C 
ENDROOT
BRANCH   1   2
ATOM      2  O   UNL A   1      50.043  26.023  33.655  1.00  0.00    -0.374 OA
BRANCH   2   3
ATOM      3  C   UNL A   1      49.374  24.835  33.232  1.00  0.00     0.202 C 
BRANCH   3   4
ATOM      4  C   UNL A   1      48.427  24.266  34.290  1.00  0.00     0.261 C 
BRANCH   4   5
ATOM      5  O   UNL A   1      47.812  25.316  35.052  1.00  0.00    -0.460 OA
BRANCH   5   6
ATOM      6  C   UNL A   1      46.554  25.418  35.534  1.00  0.00     0.338 C 
ATOM      7  O   UNL A   1      46.296  24.802  36.568  1.00  0.00    -0.246 OA
BRANCH   6   8
ATOM      8  C   UNL A   1      45.429  26.186  34.896  1.00  0.00     0.060 A 
ATOM      9  C   UNL A   1      45.732  27.502  34.488  1.00  0.00     0.016 A 
ATOM     10  C   UNL A   1      44.109  25.760  34.741  1.00  0.00     0.016 A 
ATOM     11  C   UNL A   1      44.749  28.357  33.976  1.00  0.00     0.010 A 
ATOM     12  C   UNL A   1      43.119  26.605  34.247  1.00  0.00     0.010 A 
ATOM     13  C   UNL A   1      43.435  27.905  33.863  1.00  0.00    -0.014 A 
BRANCH  13  14
ATOM     14  C   UNL A   1      42.382  28.691  33.202  1.00  0.00     0.031 A 
ATOM     15  C   UNL A   1      41.473  29.579  33.989  1.00  0.00     0.074 A 
ATOM     16  C   UNL A   1      42.159  28.425  31.904  1.00  0.00     0.049 A 
ATOM     17  N   UNL A   1      40.467  30.296  33.564  1.00  0.00    -0.248 NA
ATOM     18  C   UNL A   1      41.704  29.658  35.439  1.00  0.00     0.031 C 
ATOM     19  C   UNL A   1      42.947  27.485  31.101  1.00  0.00     0.029 A 
ATOM     20  N   UNL A   1      41.189  28.869  31.049  1.00  0.00    -0.354 N 
ATOM     21  C   UNL A   1      39.948  30.921  34.690  1.00  0.00     0.074 A 
ATOM     22  C   UNL A   1      40.724  30.469  35.823  1.00  0.00     0.031 C 
ATOM     23  C   UNL A   1      42.416  27.410  29.873  1.00  0.00     0.029 A 
ATOM     24  C   UNL A   1      41.252  28.286  29.808  1.00  0.00     0.049 A 
ATOM     25  H   UNL A   1      40.514  29.541  31.298  1.00  0.00     0.167 HD
ATOM     26  C   UNL A   1      38.921  31.800  34.748  1.00  0.00     0.031 A 
ATOM     27  C   UNL A   1      40.458  28.440  28.735  1.00  0.00     0.031 A 
ATOM     28  C   UNL A   1      38.156  32.197  33.594  1.00  0.00     0.049 A 
ATOM     29  C   UNL A   1      39.335  29.427  28.817  1.00  0.00     0.074 A 
ATOM     30  C   UNL A   1      37.174  33.167  33.505  1.00  0.00     0.029 A 
ATOM     31  N   UNL A   1      38.270  31.623  32.334  1.00  0.00    -0.354 N 
ATOM     32  N   UNL A   1      38.953  30.142  29.849  1.00  0.00    -0.248 NA
ATOM     33  C   UNL A   1      38.556  29.657  27.597  1.00  0.00     0.031 C 
ATOM     34  C   UNL A   1      36.641  33.125  32.215  1.00  0.00     0.029 A 
ATOM     35  C   UNL A   1      37.342  32.184  31.475  1.00  0.00     0.049 A 
ATOM     36  H   UNL A   1      38.916  30.921  32.089  1.00  0.00     0.167 HD
ATOM     37  C   UNL A   1      37.898  30.923  29.401  1.00  0.00     0.074 A 
ATOM     38  C   UNL A   1      37.710  30.600  27.999  1.00  0.00     0.031 C 
ATOM     39  C   UNL A   1      37.160  31.827  30.089  1.00  0.00     0.031 A 
BRANCH  26  40
ATOM     40  C   UNL A   1      38.562  32.409  36.077  1.00  0.00    -0.014 A 
ATOM     41  C   UNL A   1      39.145  33.623  36.476  1.00  0.00     0.009 A 
ATOM     42  C   UNL A   1      37.746  31.723  36.992  1.00  0.00     0.009 A 
ATOM     43  C   UNL A   1      38.936  34.128  37.762  1.00  0.00     0.001 A 
ATOM     44  C   UNL A   1      37.515  32.244  38.269  1.00  0.00     0.001 A 
ATOM     45  C   UNL A   1      38.119  33.439  38.656  1.00  0.00     0.000 A 
ENDBRANCH  26  40
BRANCH  27  46
ATOM     46  C   UNL A   1      40.792  27.687  27.500  1.00  0.00    -0.014 A 
ATOM     47  C   UNL A   1      40.420  26.340  27.359  1.00  0.00     0.009 A 
ATOM     48  C   UNL A   1      41.638  28.262  26.541  1.00  0.00     0.009 A 
ATOM     49  C   UNL A   1      40.923  25.572  26.306  1.00  0.00     0.001 A 
ATOM     50  C   UNL A   1      42.119  27.498  25.475  1.00  0.00     0.001 A 
ATOM     51  C   UNL A   1      41.774  26.152  25.367  1.00  0.00     0.000 A 
ENDBRANCH  27  46
BRANCH  39  52
ATOM     52  C   UNL A   1      36.057  32.530  29.351  1.00  0.00    -0.014 A 
ATOM     53  C   UNL A   1      36.252  33.843  28.893  1.00  0.00     0.009 A 
ATOM     54  C   UNL A   1      34.789  31.944  29.232  1.00  0.00     0.009 A 
ATOM     55  C   UNL A   1      35.188  34.568  28.357  1.00  0.00     0.001 A 
ATOM     56  C   UNL A   1      33.734  32.662  28.667  1.00  0.00     0.001 A 
ATOM     57  C   UNL A   1      33.930  33.976  28.244  1.00  0.00     0.000 A 
ENDBRANCH  39  52
ENDBRANCH  13  14
ENDBRANCH   6   8
ENDBRANCH   5   6
ENDBRANCH   4   5
ENDBRANCH   3   4
ENDBRANCH   2   3
ENDBRANCH   1   2
BRANCH   1  58
ATOM     58  C   UNL A   1      49.626  26.669  31.361  1.00  0.00     0.261 C 
BRANCH  58  59
ATOM     59  O   UNL A   1      48.429  27.452  31.470  1.00  0.00    -0.460 OA
BRANCH  59  60
ATOM     60  C   UNL A   1      47.753  27.651  30.311  1.00  0.00     0.338 C 
ATOM     61  O   UNL A   1      48.011  28.435  29.416  1.00  0.00    -0.246 OA
BRANCH  60  62
ATOM     62  C   UNL A   1      46.738  26.584  30.212  1.00  0.00     0.062 A 
ATOM     63  C   UNL A   1      46.200  26.005  31.367  1.00  0.00     0.016 A 
ATOM     64  C   UNL A   1      46.384  26.108  28.941  1.00  0.00     0.045 A 
ATOM     65  C   UNL A   1      45.300  24.955  31.246  1.00  0.00     0.017 A 
ATOM     66  C   UNL A   1      45.504  25.036  28.813  1.00  0.00     0.079 A 
ATOM     67  C   UNL A   1      44.961  24.485  29.972  1.00  0.00     0.066 A 
ATOM     68  N   UNL A   1      45.197  24.549  27.536  1.00  0.00    -0.228 NA
ATOM     69  C   UNL A   1      43.963  23.425  29.823  1.00  0.00     0.265 A 
ATOM     70  C   UNL A   1      44.283  23.634  27.417  1.00  0.00     0.159 A 
ATOM     71  O   UNL A   1      43.469  22.926  30.833  1.00  0.00    -0.268 OA
ATOM     72  N   UNL A   1      43.614  23.086  28.517  1.00  0.00    -0.266 N 
ATOM     73  C   UNL A   1      43.866  23.093  26.074  1.00  0.00     0.085 A 
ATOM     74  C   UNL A   1      42.542  22.223  28.353  1.00  0.00     0.109 A 
ATOM     75  C   UNL A   1      42.799  22.286  25.972  1.00  0.00     0.038 A 
ATOM     76  Cl  UNL A   1      44.792  23.523  24.689  1.00  0.00    -0.080 Cl
ATOM     77  C   UNL A   1      42.058  21.886  27.148  1.00  0.00     0.041 A 
BRANCH  77  78
ATOM     78  C   UNL A   1      40.831  21.032  27.043  1.00  0.00     0.198 C 
ATOM     79  O   UNL A   1      40.754  19.938  27.592  1.00  0.00    -0.288 OA
BRANCH  78  80
ATOM     80  C   UNL A   1      39.634  21.572  26.353  1.00  0.00     0.067 A 
ATOM     81  C   UNL A   1      39.206  22.889  26.566  1.00  0.00     0.055 A 
ATOM     82  C   UNL A   1      38.868  20.709  25.561  1.00  0.00     0.126 A 
ATOM     83  C   UNL A   1      37.977  23.290  26.053  1.00  0.00     0.124 A 
ATOM     84  C   UNL A   1      37.635  21.122  25.061  1.00  0.00     0.050 A 
ATOM     85  F   UNL A   1      37.540  24.533  26.297  1.00  0.00    -0.207 F 
ATOM     86  C   UNL A   1      37.181  22.416  25.320  1.00  0.00     0.043 A 
BRANCH  82  87
ATOM     87  O   UNL A   1      39.265  19.434  25.270  1.00  0.00    -0.507 OA
ATOM     88  H   UNL A   1      38.750  18.705  25.558  1.00  0.00     0.293 HD
ENDBRANCH  82  87
ENDBRANCH  78  80
ENDBRANCH  77  78
ENDBRANCH  60  62
ENDBRANCH  59  60
ENDBRANCH  58  59
ENDBRANCH   1  58
TORSDOF 17
ENDMDL
