MODEL 1
REMARK VINA RESULT:     -10.4      0.000      0.000
REMARK SMILES CC(C)CCc1cc2c(cc1Cl)C=C(C(=O)OCCOCCOC(=O)c1ccc(-c3c4nc(c(-c5ccccc5)c5ccc([nH]5)c(-c5ccccc5)c5nc(c(-c6ccccc6)c6ccc3[nH]6)C=C5)C=C4)cc1)[C@@H](C(F)(F)F)O2
REMARK SMILES IDX 19 1 18 2 17 3 15 4 16 5 14 6 6 7 7 8 11 9 8 10 10 11 12 12
REMARK SMILES IDX 9 13 79 14 13 15 74 16 5 17 4 18 2 19 1 20 3 21 75 22 76 23
REMARK SMILES IDX 77 24 78 25 20 26 21 27 22 28 23 29 24 30 25 31 26 32 27 33
REMARK SMILES IDX 73 34 28 35 72 36 29 37 30 38 31 39 66 40 32 41 71 42 65 43
REMARK SMILES IDX 67 44 33 45 70 46 64 47 63 48 34 50 56 51 41 52 55 53 42 54
REMARK SMILES IDX 45 55 54 56 68 57 43 58 44 59 53 61 69 62 46 63 35 64 36 65
REMARK SMILES IDX 40 66 37 67 39 68 38 69 57 70 58 71 62 72 59 73 61 74 60 75
REMARK SMILES IDX 47 76 48 77 52 78 49 79 51 80 50 81
REMARK H PARENT 67 49 45 60
REMARK Flexibility Score: inf
ROOT
ATOM      1  C   UNL A   1      32.328  29.514  27.166  1.00  0.00     0.202 C 
ENDROOT
BRANCH   1   2
ATOM      2  C   UNL A   1      32.156  28.308  26.238  1.00  0.00     0.261 C 
BRANCH   2   3
ATOM      3  O   UNL A   1      33.294  27.434  26.270  1.00  0.00    -0.460 OA
BRANCH   3   4
ATOM      4  C   UNL A   1      33.589  26.862  25.078  1.00  0.00     0.338 C 
ATOM      5  O   UNL A   1      33.953  27.431  24.063  1.00  0.00    -0.246 OA
BRANCH   4   6
ATOM      6  C   UNL A   1      33.533  25.395  25.206  1.00  0.00     0.087 C 
ATOM      7  C   UNL A   1      34.710  20.531  24.904  1.00  0.00    -0.026 A 
ATOM      8  C   UNL A   1      33.511  21.246  25.100  1.00  0.00     0.052 A 
ATOM      9  C   UNL A   1      35.921  21.237  24.995  1.00  0.00     0.045 A 
ATOM     10  C   UNL A   1      33.513  22.633  25.249  1.00  0.00     0.128 A 
ATOM     11  C   UNL A   1      35.924  22.624  25.166  1.00  0.00     0.032 A 
ATOM     12  Cl  UNL A   1      37.462  20.464  24.877  1.00  0.00    -0.084 Cl
ATOM     13  C   UNL A   1      34.720  23.326  25.248  1.00  0.00     0.019 A 
ATOM     14  O   UNL A   1      32.294  23.233  25.376  1.00  0.00    -0.475 OA
ATOM     15  C   UNL A   1      34.718  24.776  25.260  1.00  0.00     0.027 C 
ATOM     16  C   UNL A   1      32.209  24.681  25.242  1.00  0.00     0.316 C 
BRANCH   7  17
ATOM     17  C   UNL A   1      34.643  19.054  24.580  1.00  0.00     0.037 C 
BRANCH  17  18
ATOM     18  C   UNL A   1      33.354  18.353  25.053  1.00  0.00     0.008 C 
BRANCH  18  19
ATOM     19  C   UNL A   1      32.998  17.043  24.318  1.00  0.00    -0.017 C 
ATOM     20  C   UNL A   1      34.058  16.640  23.293  1.00  0.00     0.007 C 
ATOM     21  C   UNL A   1      32.807  15.915  25.335  1.00  0.00     0.007 C 
ENDBRANCH  18  19
ENDBRANCH  17  18
ENDBRANCH   7  17
BRANCH  16  22
ATOM     22  C   UNL A   1      31.331  25.009  24.024  1.00  0.00     0.430 C 
ATOM     23  F   UNL A   1      32.073  25.107  22.895  1.00  0.00    -0.167 F 
ATOM     24  F   UNL A   1      30.410  24.043  23.796  1.00  0.00    -0.167 F 
ATOM     25  F   UNL A   1      30.666  26.176  24.176  1.00  0.00    -0.167 F 
ENDBRANCH  16  22
ENDBRANCH   4   6
ENDBRANCH   3   4
ENDBRANCH   2   3
ENDBRANCH   1   2
BRANCH   1  26
ATOM     26  O   UNL A   1      31.887  30.785  26.699  1.00  0.00    -0.374 OA
BRANCH  26  27
ATOM     27  C   UNL A   1      32.667  31.938  27.009  1.00  0.00     0.202 C 
BRANCH  27  28
ATOM     28  C   UNL A   1      31.942  33.232  27.400  1.00  0.00     0.261 C 
BRANCH  28  29
ATOM     29  O   UNL A   1      32.839  34.320  27.673  1.00  0.00    -0.460 OA
BRANCH  29  30
ATOM     30  C   UNL A   1      33.227  34.429  28.969  1.00  0.00     0.338 C 
ATOM     31  O   UNL A   1      32.577  34.870  29.904  1.00  0.00    -0.246 OA
BRANCH  30  32
ATOM     32  C   UNL A   1      34.514  33.733  29.149  1.00  0.00     0.060 A 
ATOM     33  C   UNL A   1      35.593  33.984  28.302  1.00  0.00     0.016 A 
ATOM     34  C   UNL A   1      34.640  32.841  30.222  1.00  0.00     0.016 A 
ATOM     35  C   UNL A   1      36.813  33.350  28.548  1.00  0.00     0.010 A 
ATOM     36  C   UNL A   1      35.858  32.209  30.465  1.00  0.00     0.010 A 
ATOM     37  C   UNL A   1      36.959  32.471  29.638  1.00  0.00    -0.014 A 
BRANCH  37  38
ATOM     38  C   UNL A   1      38.296  31.930  29.987  1.00  0.00     0.031 A 
ATOM     39  C   UNL A   1      39.242  32.685  30.870  1.00  0.00     0.074 A 
ATOM     40  C   UNL A   1      38.656  30.737  29.475  1.00  0.00     0.049 A 
ATOM     41  N   UNL A   1      40.411  32.310  31.325  1.00  0.00    -0.248 NA
ATOM     42  C   UNL A   1      38.834  34.032  31.295  1.00  0.00     0.031 C 
ATOM     43  C   UNL A   1      37.830  29.927  28.580  1.00  0.00     0.029 A 
ATOM     44  N   UNL A   1      39.798  29.994  29.642  1.00  0.00    -0.354 N 
ATOM     45  C   UNL A   1      40.871  33.362  32.104  1.00  0.00     0.074 A 
ATOM     46  C   UNL A   1      39.878  34.413  32.020  1.00  0.00     0.031 C 
ATOM     47  C   UNL A   1      38.472  28.782  28.309  1.00  0.00     0.029 A 
ATOM     48  C   UNL A   1      39.772  28.792  28.975  1.00  0.00     0.049 A 
ATOM     49  H   UNL A   1      40.562  30.292  30.185  1.00  0.00     0.167 HD
ATOM     50  C   UNL A   1      42.008  33.432  32.837  1.00  0.00     0.031 A 
ATOM     51  C   UNL A   1      40.685  27.803  28.910  1.00  0.00     0.031 A 
ATOM     52  C   UNL A   1      43.001  32.388  32.894  1.00  0.00     0.049 A 
ATOM     53  C   UNL A   1      41.960  27.927  29.695  1.00  0.00     0.074 A 
ATOM     54  C   UNL A   1      44.166  32.358  33.640  1.00  0.00     0.029 A 
ATOM     55  N   UNL A   1      42.957  31.204  32.174  1.00  0.00    -0.354 N 
ATOM     56  N   UNL A   1      42.343  28.892  30.496  1.00  0.00    -0.248 NA
ATOM     57  C   UNL A   1      42.921  26.819  29.586  1.00  0.00     0.031 C 
ATOM     58  C   UNL A   1      44.867  31.198  33.310  1.00  0.00     0.029 A 
ATOM     59  C   UNL A   1      44.094  30.455  32.432  1.00  0.00     0.049 A 
ATOM     60  H   UNL A   1      42.227  30.935  31.571  1.00  0.00     0.167 HD
ATOM     61  C   UNL A   1      43.573  28.498  31.006  1.00  0.00     0.074 A 
ATOM     62  C   UNL A   1      43.864  27.197  30.440  1.00  0.00     0.031 C 
ATOM     63  C   UNL A   1      44.383  29.159  31.869  1.00  0.00     0.031 A 
BRANCH  50  64
ATOM     64  C   UNL A   1      42.256  34.673  33.653  1.00  0.00    -0.014 A 
ATOM     65  C   UNL A   1      41.733  34.775  34.953  1.00  0.00     0.009 A 
ATOM     66  C   UNL A   1      42.892  35.791  33.091  1.00  0.00     0.009 A 
ATOM     67  C   UNL A   1      41.819  35.975  35.662  1.00  0.00     0.001 A 
ATOM     68  C   UNL A   1      43.007  36.980  33.816  1.00  0.00     0.001 A 
ATOM     69  C   UNL A   1      42.458  37.075  35.093  1.00  0.00     0.000 A 
ENDBRANCH  50  64
BRANCH  51  70
ATOM     70  C   UNL A   1      40.384  26.590  28.101  1.00  0.00    -0.014 A 
ATOM     71  C   UNL A   1      40.851  26.478  26.780  1.00  0.00     0.009 A 
ATOM     72  C   UNL A   1      39.575  25.568  28.619  1.00  0.00     0.009 A 
ATOM     73  C   UNL A   1      40.488  25.387  25.988  1.00  0.00     0.001 A 
ATOM     74  C   UNL A   1      39.245  24.459  27.836  1.00  0.00     0.001 A 
ATOM     75  C   UNL A   1      39.690  24.376  26.518  1.00  0.00     0.000 A 
ENDBRANCH  51  70
BRANCH  63  76
ATOM     76  C   UNL A   1      45.670  28.496  32.289  1.00  0.00    -0.014 A 
ATOM     77  C   UNL A   1      46.791  28.558  31.444  1.00  0.00     0.009 A 
ATOM     78  C   UNL A   1      45.745  27.715  33.454  1.00  0.00     0.009 A 
ATOM     79  C   UNL A   1      47.948  27.834  31.740  1.00  0.00     0.001 A 
ATOM     80  C   UNL A   1      46.916  27.022  33.766  1.00  0.00     0.001 A 
ATOM     81  C   UNL A   1      48.011  27.070  32.903  1.00  0.00     0.000 A 
ENDBRANCH  63  76
ENDBRANCH  37  38
ENDBRANCH  30  32
ENDBRANCH  29  30
ENDBRANCH  28  29
ENDBRANCH  27  28
ENDBRANCH  26  27
ENDBRANCH   1  26
TORSDOF 18
ENDMDL
MODEL 2
REMARK VINA RESULT:     -10.2      3.369      9.000
REMARK SMILES CC(C)CCc1cc2c(cc1Cl)C=C(C(=O)OCCOCCOC(=O)c1ccc(-c3c4nc(c(-c5ccccc5)c5ccc([nH]5)c(-c5ccccc5)c5nc(c(-c6ccccc6)c6ccc3[nH]6)C=C5)C=C4)cc1)[C@@H](C(F)(F)F)O2
REMARK SMILES IDX 19 1 18 2 17 3 15 4 16 5 14 6 6 7 7 8 11 9 8 10 10 11 12 12
REMARK SMILES IDX 9 13 79 14 13 15 74 16 5 17 4 18 2 19 1 20 3 21 75 22 76 23
REMARK SMILES IDX 77 24 78 25 20 26 21 27 22 28 23 29 24 30 25 31 26 32 27 33
REMARK SMILES IDX 73 34 28 35 72 36 29 37 30 38 31 39 66 40 32 41 71 42 65 43
REMARK SMILES IDX 67 44 33 45 70 46 64 47 63 48 34 50 56 51 41 52 55 53 42 54
REMARK SMILES IDX 45 55 54 56 68 57 43 58 44 59 53 61 69 62 46 63 35 64 36 65
REMARK SMILES IDX 40 66 37 67 39 68 38 69 57 70 58 71 62 72 59 73 61 74 60 75
REMARK SMILES IDX 47 76 48 77 52 78 49 79 51 80 50 81
REMARK H PARENT 67 49 45 60
REMARK Flexibility Score: inf
ROOT
ATOM      1  C   UNL A   1      35.944  20.211  24.978  1.00  0.00     0.202 C 
ENDROOT
BRANCH   1   2
ATOM      2  C   UNL A   1      34.650  21.022  24.857  1.00  0.00     0.261 C 
BRANCH   2   3
ATOM      3  O   UNL A   1      34.849  22.408  25.172  1.00  0.00    -0.460 OA
BRANCH   3   4
ATOM      4  C   UNL A   1      33.883  22.942  25.958  1.00  0.00     0.338 C 
ATOM      5  O   UNL A   1      33.567  22.580  27.078  1.00  0.00    -0.246 OA
BRANCH   4   6
ATOM      6  C   UNL A   1      33.328  24.146  25.313  1.00  0.00     0.087 C 
ATOM      7  C   UNL A   1      31.385  28.712  24.601  1.00  0.00    -0.026 A 
ATOM      8  C   UNL A   1      31.424  27.526  23.839  1.00  0.00     0.052 A 
ATOM      9  C   UNL A   1      32.206  28.793  25.737  1.00  0.00     0.045 A 
ATOM     10  C   UNL A   1      32.153  26.416  24.268  1.00  0.00     0.128 A 
ATOM     11  C   UNL A   1      32.954  27.687  26.155  1.00  0.00     0.032 A 
ATOM     12  Cl  UNL A   1      32.330  30.224  26.698  1.00  0.00    -0.084 Cl
ATOM     13  C   UNL A   1      32.891  26.487  25.445  1.00  0.00     0.019 A 
ATOM     14  O   UNL A   1      32.078  25.300  23.486  1.00  0.00    -0.475 OA
ATOM     15  C   UNL A   1      33.532  25.296  25.966  1.00  0.00     0.027 C 
ATOM     16  C   UNL A   1      32.568  24.037  24.020  1.00  0.00     0.316 C 
BRANCH   7  17
ATOM     17  C   UNL A   1      30.450  29.826  24.182  1.00  0.00     0.037 C 
BRANCH  17  18
ATOM     18  C   UNL A   1      29.768  29.610  22.817  1.00  0.00     0.008 C 
BRANCH  18  19
ATOM     19  C   UNL A   1      28.320  30.133  22.703  1.00  0.00    -0.017 C 
ATOM     20  C   UNL A   1      28.025  30.748  21.335  1.00  0.00     0.007 C 
ATOM     21  C   UNL A   1      27.335  28.994  22.982  1.00  0.00     0.007 C 
ENDBRANCH  18  19
ENDBRANCH  17  18
ENDBRANCH   7  17
BRANCH  16  22
ATOM     22  C   UNL A   1      31.390  23.054  24.112  1.00  0.00     0.430 C 
ATOM     23  F   UNL A   1      30.692  23.231  25.259  1.00  0.00    -0.167 F 
ATOM     24  F   UNL A   1      30.511  23.229  23.096  1.00  0.00    -0.167 F 
ATOM     25  F   UNL A   1      31.798  21.766  24.078  1.00  0.00    -0.167 F 
ENDBRANCH  16  22
ENDBRANCH   4   6
ENDBRANCH   3   4
ENDBRANCH   2   3
ENDBRANCH   1   2
BRANCH   1  26
ATOM     26  O   UNL A   1      37.173  20.867  24.683  1.00  0.00    -0.374 OA
BRANCH  26  27
ATOM     27  C   UNL A   1      38.395  20.170  24.917  1.00  0.00     0.202 C 
BRANCH  27  28
ATOM     28  C   UNL A   1      39.404  20.768  25.907  1.00  0.00     0.261 C 
BRANCH  28  29
ATOM     29  O   UNL A   1      40.344  19.802  26.404  1.00  0.00    -0.460 OA
BRANCH  29  30
ATOM     30  C   UNL A   1      41.631  20.013  26.029  1.00  0.00     0.338 C 
ATOM     31  O   UNL A   1      42.288  19.364  25.230  1.00  0.00    -0.246 OA
BRANCH  30  32
ATOM     32  C   UNL A   1      42.092  21.299  26.583  1.00  0.00     0.060 A 
ATOM     33  C   UNL A   1      42.509  22.336  25.749  1.00  0.00     0.016 A 
ATOM     34  C   UNL A   1      42.061  21.469  27.974  1.00  0.00     0.016 A 
ATOM     35  C   UNL A   1      42.877  23.559  26.315  1.00  0.00     0.010 A 
ATOM     36  C   UNL A   1      42.430  22.690  28.536  1.00  0.00     0.010 A 
ATOM     37  C   UNL A   1      42.826  23.750  27.709  1.00  0.00    -0.014 A 
BRANCH  37  38
ATOM     38  C   UNL A   1      43.062  25.096  28.288  1.00  0.00     0.031 A 
ATOM     39  C   UNL A   1      44.429  25.539  28.710  1.00  0.00     0.074 A 
ATOM     40  C   UNL A   1      42.007  25.918  28.445  1.00  0.00     0.049 A 
ATOM     41  N   UNL A   1      44.806  26.708  29.161  1.00  0.00    -0.248 NA
ATOM     42  C   UNL A   1      45.513  24.549  28.623  1.00  0.00     0.031 C 
ATOM     43  C   UNL A   1      40.625  25.582  28.098  1.00  0.00     0.029 A 
ATOM     44  N   UNL A   1      41.930  27.203  28.921  1.00  0.00    -0.354 N 
ATOM     45  C   UNL A   1      46.170  26.605  29.393  1.00  0.00     0.074 A 
ATOM     46  C   UNL A   1      46.547  25.242  29.082  1.00  0.00     0.031 C 
ATOM     47  C   UNL A   1      39.845  26.646  28.334  1.00  0.00     0.029 A 
ATOM     48  C   UNL A   1      40.659  27.726  28.886  1.00  0.00     0.049 A 
ATOM     49  H   UNL A   1      42.709  27.702  29.256  1.00  0.00     0.167 HD
ATOM     50  C   UNL A   1      47.028  27.567  29.808  1.00  0.00     0.031 A 
ATOM     51  C   UNL A   1      40.197  28.938  29.249  1.00  0.00     0.031 A 
ATOM     52  C   UNL A   1      46.637  28.915  30.138  1.00  0.00     0.049 A 
ATOM     53  C   UNL A   1      41.164  29.973  29.752  1.00  0.00     0.074 A 
ATOM     54  C   UNL A   1      47.446  29.967  30.532  1.00  0.00     0.029 A 
ATOM     55  N   UNL A   1      45.336  29.394  30.128  1.00  0.00    -0.354 N 
ATOM     56  N   UNL A   1      42.466  29.887  29.886  1.00  0.00    -0.248 NA
ATOM     57  C   UNL A   1      40.605  31.278  30.136  1.00  0.00     0.031 C 
ATOM     58  C   UNL A   1      46.629  31.055  30.840  1.00  0.00     0.029 A 
ATOM     59  C   UNL A   1      45.318  30.716  30.544  1.00  0.00     0.049 A 
ATOM     60  H   UNL A   1      44.543  28.874  29.863  1.00  0.00     0.167 HD
ATOM     61  C   UNL A   1      42.885  31.130  30.342  1.00  0.00     0.074 A 
ATOM     62  C   UNL A   1      41.702  31.960  30.443  1.00  0.00     0.031 C 
ATOM     63  C   UNL A   1      44.140  31.542  30.645  1.00  0.00     0.031 A 
BRANCH  50  64
ATOM     64  C   UNL A   1      48.488  27.218  29.930  1.00  0.00    -0.014 A 
ATOM     65  C   UNL A   1      49.332  27.329  28.812  1.00  0.00     0.009 A 
ATOM     66  C   UNL A   1      49.000  26.655  31.110  1.00  0.00     0.009 A 
ATOM     67  C   UNL A   1      50.647  26.863  28.865  1.00  0.00     0.001 A 
ATOM     68  C   UNL A   1      50.326  26.220  31.170  1.00  0.00     0.001 A 
ATOM     69  C   UNL A   1      51.144  26.311  30.045  1.00  0.00     0.000 A 
ENDBRANCH  50  64
BRANCH  51  70
ATOM     70  C   UNL A   1      38.747  29.238  29.095  1.00  0.00    -0.014 A 
ATOM     71  C   UNL A   1      38.244  29.737  27.882  1.00  0.00     0.009 A 
ATOM     72  C   UNL A   1      37.869  29.091  30.179  1.00  0.00     0.009 A 
ATOM     73  C   UNL A   1      36.904  30.111  27.768  1.00  0.00     0.001 A 
ATOM     74  C   UNL A   1      36.520  29.431  30.051  1.00  0.00     0.001 A 
ATOM     75  C   UNL A   1      36.042  29.952  28.850  1.00  0.00     0.000 A 
ENDBRANCH  51  70
BRANCH  63  76
ATOM     76  C   UNL A   1      44.333  32.965  31.103  1.00  0.00    -0.014 A 
ATOM     77  C   UNL A   1      43.883  33.351  32.378  1.00  0.00     0.009 A 
ATOM     78  C   UNL A   1      44.846  33.948  30.242  1.00  0.00     0.009 A 
ATOM     79  C   UNL A   1      43.918  34.690  32.770  1.00  0.00     0.001 A 
ATOM     80  C   UNL A   1      44.914  35.281  30.652  1.00  0.00     0.001 A 
ATOM     81  C   UNL A   1      44.438  35.654  31.909  1.00  0.00     0.000 A 
ENDBRANCH  63  76
ENDBRANCH  37  38
ENDBRANCH  30  32
ENDBRANCH  29  30
ENDBRANCH  28  29
ENDBRANCH  27  28
ENDBRANCH  26  27
ENDBRANCH   1  26
TORSDOF 18
ENDMDL
MODEL 3
REMARK VINA RESULT:      -9.8      3.412      8.603
REMARK SMILES CC(C)CCc1cc2c(cc1Cl)C=C(C(=O)OCCOCCOC(=O)c1ccc(-c3c4nc(c(-c5ccccc5)c5ccc([nH]5)c(-c5ccccc5)c5nc(c(-c6ccccc6)c6ccc3[nH]6)C=C5)C=C4)cc1)[C@@H](C(F)(F)F)O2
REMARK SMILES IDX 19 1 18 2 17 3 15 4 16 5 14 6 6 7 7 8 11 9 8 10 10 11 12 12
REMARK SMILES IDX 9 13 79 14 13 15 74 16 5 17 4 18 2 19 1 20 3 21 75 22 76 23
REMARK SMILES IDX 77 24 78 25 20 26 21 27 22 28 23 29 24 30 25 31 26 32 27 33
REMARK SMILES IDX 73 34 28 35 72 36 29 37 30 38 31 39 66 40 32 41 71 42 65 43
REMARK SMILES IDX 67 44 33 45 70 46 64 47 63 48 34 50 56 51 41 52 55 53 42 54
REMARK SMILES IDX 45 55 54 56 68 57 43 58 44 59 53 61 69 62 46 63 35 64 36 65
REMARK SMILES IDX 40 66 37 67 39 68 38 69 57 70 58 71 62 72 59 73 61 74 60 75
REMARK SMILES IDX 47 76 48 77 52 78 49 79 51 80 50 81
REMARK H PARENT 67 49 45 60
REMARK Flexibility Score: inf
ROOT
ATOM      1  C   UNL A   1      38.815  21.417  25.351  1.00  0.00     0.202 C 
ENDROOT
BRANCH   1   2
ATOM      2  C   UNL A   1      37.411  20.812  25.253  1.00  0.00     0.261 C 
BRANCH   2   3
ATOM      3  O   UNL A   1      36.388  21.768  25.566  1.00  0.00    -0.460 OA
BRANCH   3   4
ATOM      4  C   UNL A   1      35.156  21.432  25.111  1.00  0.00     0.338 C 
ATOM      5  O   UNL A   1      34.780  20.325  24.766  1.00  0.00    -0.246 OA
BRANCH   4   6
ATOM      6  C   UNL A   1      34.257  22.596  25.212  1.00  0.00     0.087 C 
ATOM      7  C   UNL A   1      32.510  27.294  25.166  1.00  0.00    -0.026 A 
ATOM      8  C   UNL A   1      32.076  26.086  25.748  1.00  0.00     0.052 A 
ATOM      9  C   UNL A   1      33.541  27.235  24.215  1.00  0.00     0.045 A 
ATOM     10  C   UNL A   1      32.733  24.883  25.488  1.00  0.00     0.128 A 
ATOM     11  C   UNL A   1      34.186  26.026  23.938  1.00  0.00     0.032 A 
ATOM     12  Cl  UNL A   1      34.096  28.627  23.354  1.00  0.00    -0.084 Cl
ATOM     13  C   UNL A   1      33.811  24.860  24.608  1.00  0.00     0.019 A 
ATOM     14  O   UNL A   1      32.267  23.781  26.145  1.00  0.00    -0.475 OA
ATOM     15  C   UNL A   1      34.582  23.643  24.446  1.00  0.00     0.027 C 
ATOM     16  C   UNL A   1      33.078  22.571  26.146  1.00  0.00     0.316 C 
BRANCH   7  17
ATOM     17  C   UNL A   1      31.873  28.595  25.607  1.00  0.00     0.037 C 
BRANCH  17  18
ATOM     18  C   UNL A   1      30.762  29.112  24.672  1.00  0.00     0.008 C 
BRANCH  18  19
ATOM     19  C   UNL A   1      30.536  28.290  23.385  1.00  0.00    -0.017 C 
ATOM     20  C   UNL A   1      29.220  27.514  23.409  1.00  0.00     0.007 C 
ATOM     21  C   UNL A   1      30.568  29.217  22.166  1.00  0.00     0.007 C 
ENDBRANCH  18  19
ENDBRANCH  17  18
ENDBRANCH   7  17
BRANCH  16  22
ATOM     22  C   UNL A   1      33.483  22.254  27.594  1.00  0.00     0.430 C 
ATOM     23  F   UNL A   1      33.791  20.943  27.742  1.00  0.00    -0.167 F 
ATOM     24  F   UNL A   1      34.581  22.952  27.971  1.00  0.00    -0.167 F 
ATOM     25  F   UNL A   1      32.497  22.542  28.472  1.00  0.00    -0.167 F 
ENDBRANCH  16  22
ENDBRANCH   4   6
ENDBRANCH   3   4
ENDBRANCH   2   3
ENDBRANCH   1   2
BRANCH   1  26
ATOM     26  O   UNL A   1      39.334  21.696  26.648  1.00  0.00    -0.374 OA
BRANCH  26  27
ATOM     27  C   UNL A   1      40.636  21.220  26.982  1.00  0.00     0.202 C 
BRANCH  27  28
ATOM     28  C   UNL A   1      41.847  21.822  26.255  1.00  0.00     0.261 C 
BRANCH  28  29
ATOM     29  O   UNL A   1      42.423  22.938  26.951  1.00  0.00    -0.460 OA
BRANCH  29  30
ATOM     30  C   UNL A   1      42.414  24.107  26.262  1.00  0.00     0.338 C 
ATOM     31  O   UNL A   1      42.544  24.259  25.057  1.00  0.00    -0.246 OA
BRANCH  30  32
ATOM     32  C   UNL A   1      42.013  25.199  27.166  1.00  0.00     0.060 A 
ATOM     33  C   UNL A   1      40.787  25.173  27.828  1.00  0.00     0.016 A 
ATOM     34  C   UNL A   1      42.918  26.249  27.377  1.00  0.00     0.016 A 
ATOM     35  C   UNL A   1      40.475  26.199  28.725  1.00  0.00     0.010 A 
ATOM     36  C   UNL A   1      42.604  27.271  28.272  1.00  0.00     0.010 A 
ATOM     37  C   UNL A   1      41.387  27.245  28.965  1.00  0.00    -0.014 A 
BRANCH  37  38
ATOM     38  C   UNL A   1      41.119  28.238  30.034  1.00  0.00     0.031 A 
ATOM     39  C   UNL A   1      40.036  29.264  29.898  1.00  0.00     0.074 A 
ATOM     40  C   UNL A   1      41.889  28.211  31.139  1.00  0.00     0.049 A 
ATOM     41  N   UNL A   1      39.633  30.148  30.775  1.00  0.00    -0.248 NA
ATOM     42  C   UNL A   1      39.314  29.313  28.618  1.00  0.00     0.031 C 
ATOM     43  C   UNL A   1      42.992  27.278  31.367  1.00  0.00     0.029 A 
ATOM     44  N   UNL A   1      41.856  28.976  32.278  1.00  0.00    -0.354 N 
ATOM     45  C   UNL A   1      38.600  30.846  30.165  1.00  0.00     0.074 A 
ATOM     46  C   UNL A   1      38.471  30.317  28.823  1.00  0.00     0.031 C 
ATOM     47  C   UNL A   1      43.504  27.496  32.587  1.00  0.00     0.029 A 
ATOM     48  C   UNL A   1      42.796  28.611  33.212  1.00  0.00     0.049 A 
ATOM     49  H   UNL A   1      41.221  29.716  32.413  1.00  0.00     0.167 HD
ATOM     50  C   UNL A   1      37.821  31.823  30.688  1.00  0.00     0.031 A 
ATOM     51  C   UNL A   1      43.059  29.107  34.437  1.00  0.00     0.031 A 
ATOM     52  C   UNL A   1      37.974  32.357  32.018  1.00  0.00     0.049 A 
ATOM     53  C   UNL A   1      42.209  30.224  34.974  1.00  0.00     0.074 A 
ATOM     54  C   UNL A   1      37.204  33.323  32.645  1.00  0.00     0.029 A 
ATOM     55  N   UNL A   1      38.962  31.989  32.918  1.00  0.00    -0.354 N 
ATOM     56  N   UNL A   1      41.180  30.817  34.417  1.00  0.00    -0.248 NA
ATOM     57  C   UNL A   1      42.540  30.729  36.315  1.00  0.00     0.031 C 
ATOM     58  C   UNL A   1      37.775  33.598  33.888  1.00  0.00     0.029 A 
ATOM     59  C   UNL A   1      38.842  32.735  34.080  1.00  0.00     0.049 A 
ATOM     60  H   UNL A   1      39.646  31.299  32.757  1.00  0.00     0.167 HD
ATOM     61  C   UNL A   1      40.725  31.743  35.347  1.00  0.00     0.074 A 
ATOM     62  C   UNL A   1      41.577  31.620  36.512  1.00  0.00     0.031 C 
ATOM     63  C   UNL A   1      39.690  32.612  35.240  1.00  0.00     0.031 A 
BRANCH  50  64
ATOM     64  C   UNL A   1      36.716  32.388  29.835  1.00  0.00    -0.014 A 
ATOM     65  C   UNL A   1      35.421  31.850  29.916  1.00  0.00     0.009 A 
ATOM     66  C   UNL A   1      36.984  33.360  28.858  1.00  0.00     0.009 A 
ATOM     67  C   UNL A   1      34.425  32.255  29.025  1.00  0.00     0.001 A 
ATOM     68  C   UNL A   1      35.977  33.787  27.988  1.00  0.00     0.001 A 
ATOM     69  C   UNL A   1      34.704  33.224  28.063  1.00  0.00     0.000 A 
ENDBRANCH  50  64
BRANCH  51  70
ATOM     70  C   UNL A   1      44.152  28.503  35.246  1.00  0.00    -0.014 A 
ATOM     71  C   UNL A   1      45.472  28.970  35.126  1.00  0.00     0.009 A 
ATOM     72  C   UNL A   1      43.896  27.414  36.093  1.00  0.00     0.009 A 
ATOM     73  C   UNL A   1      46.514  28.340  35.811  1.00  0.00     0.001 A 
ATOM     74  C   UNL A   1      44.935  26.810  36.805  1.00  0.00     0.001 A 
ATOM     75  C   UNL A   1      46.243  27.265  36.653  1.00  0.00     0.000 A 
ENDBRANCH  51  70
BRANCH  63  76
ATOM     76  C   UNL A   1      39.386  33.506  36.414  1.00  0.00    -0.014 A 
ATOM     77  C   UNL A   1      40.076  34.722  36.560  1.00  0.00     0.009 A 
ATOM     78  C   UNL A   1      38.510  33.101  37.434  1.00  0.00     0.009 A 
ATOM     79  C   UNL A   1      39.919  35.498  37.710  1.00  0.00     0.001 A 
ATOM     80  C   UNL A   1      38.327  33.898  38.566  1.00  0.00     0.001 A 
ATOM     81  C   UNL A   1      39.041  35.088  38.710  1.00  0.00     0.000 A 
ENDBRANCH  63  76
ENDBRANCH  37  38
ENDBRANCH  30  32
ENDBRANCH  29  30
ENDBRANCH  28  29
ENDBRANCH  27  28
ENDBRANCH  26  27
ENDBRANCH   1  26
TORSDOF 18
ENDMDL
