MODEL 1
REMARK VINA RESULT:      -9.9      0.000      0.000
REMARK SMILES CCC[NH2+][C@]1(C(=O)OCCOCCOC(=O)c2ccc(-c3c4nc(c(-c5ccccc5)c5ccc([nH]5)c(-c5ccccc5)c5nc(c(-c6ccccc6)c6ccc3[nH]6)C=C5)C=C4)cc2)CCC[C@H](n2ccc(C)n2)C1
REMARK SMILES IDX 10 1 9 2 8 3 6 4 7 5 5 6 65 7 75 8 66 9 68 10 67 11 4 12
REMARK SMILES IDX 3 15 2 16 1 17 69 18 70 19 74 20 71 21 72 22 73 23 11 24
REMARK SMILES IDX 12 25 13 26 14 27 15 28 16 29 17 30 18 31 64 32 19 33 63 34
REMARK SMILES IDX 20 35 21 36 22 37 57 38 23 39 62 40 56 41 58 42 24 43 61 44
REMARK SMILES IDX 55 45 54 46 25 48 47 49 32 50 46 51 33 52 36 53 45 54 59 55
REMARK SMILES IDX 34 56 35 57 44 59 60 60 37 61 26 62 27 63 31 64 28 65 30 66
REMARK SMILES IDX 29 67 48 68 49 69 53 70 50 71 52 72 51 73 38 74 39 75 43 76
REMARK SMILES IDX 40 77 42 78 41 79
REMARK H PARENT 4 13 4 14 58 47 36 58
REMARK Flexibility Score: inf
ROOT
ATOM      1  C   UNL A   1      33.366  20.687  24.901  1.00  0.00     0.202 C 
ENDROOT
BRANCH   1   2
ATOM      2  C   UNL A   1      32.142  21.189  25.676  1.00  0.00     0.261 C 
BRANCH   2   3
ATOM      3  O   UNL A   1      32.470  22.179  26.666  1.00  0.00    -0.459 OA
BRANCH   3   4
ATOM      4  C   UNL A   1      31.679  23.286  26.650  1.00  0.00     0.368 C 
ATOM      5  O   UNL A   1      30.616  23.376  27.265  1.00  0.00    -0.245 OA
BRANCH   4   6
ATOM      6  C   UNL A   1      32.265  24.475  25.803  1.00  0.00     0.196 C 
ATOM      7  C   UNL A   1      33.806  24.335  25.831  1.00  0.00     0.081 C 
ATOM      8  C   UNL A   1      31.832  24.394  24.309  1.00  0.00     0.108 C 
ATOM      9  C   UNL A   1      34.506  25.405  25.002  1.00  0.00     0.009 C 
ATOM     10  C   UNL A   1      32.588  25.279  23.266  1.00  0.00     0.114 C 
ATOM     11  C   UNL A   1      34.110  25.308  23.531  1.00  0.00     0.028 C 
BRANCH   6  12
ATOM     12  N   UNL A   1      31.887  25.629  26.632  1.00  0.00    -0.332 N 
ATOM     13  H   UNL A   1      31.581  25.246  27.526  1.00  0.00     0.347 HD
ATOM     14  H   UNL A   1      32.732  26.199  26.584  1.00  0.00     0.347 HD
BRANCH  12  15
ATOM     15  C   UNL A   1      30.885  26.570  26.242  1.00  0.00     0.261 C 
BRANCH  15  16
ATOM     16  C   UNL A   1      31.278  28.024  26.506  1.00  0.00     0.058 C 
ATOM     17  C   UNL A   1      32.463  28.186  27.443  1.00  0.00     0.010 C 
ENDBRANCH  15  16
ENDBRANCH  12  15
ENDBRANCH   6  12
BRANCH  10  18
ATOM     18  N   UNL A   1      31.947  26.571  23.018  1.00  0.00    -0.269 N 
ATOM     19  C   UNL A   1      32.478  27.831  23.004  1.00  0.00     0.109 A 
ATOM     20  N   UNL A   1      30.622  26.586  22.755  1.00  0.00    -0.178 NA
ATOM     21  C   UNL A   1      31.403  28.695  23.014  1.00  0.00     0.045 A 
ATOM     22  C   UNL A   1      30.268  27.861  22.943  1.00  0.00     0.059 A 
ATOM     23  C   UNL A   1      28.841  28.207  23.148  1.00  0.00     0.069 C 
ENDBRANCH  10  18
ENDBRANCH   4   6
ENDBRANCH   3   4
ENDBRANCH   2   3
ENDBRANCH   1   2
BRANCH   1  24
ATOM     24  O   UNL A   1      34.594  20.543  25.613  1.00  0.00    -0.374 OA
BRANCH  24  25
ATOM     25  C   UNL A   1      35.701  21.318  25.160  1.00  0.00     0.202 C 
BRANCH  25  26
ATOM     26  C   UNL A   1      37.040  20.595  25.008  1.00  0.00     0.261 C 
BRANCH  26  27
ATOM     27  O   UNL A   1      38.134  21.526  25.013  1.00  0.00    -0.460 OA
BRANCH  27  28
ATOM     28  C   UNL A   1      39.092  21.234  25.916  1.00  0.00     0.338 C 
ATOM     29  O   UNL A   1      39.662  20.156  26.071  1.00  0.00    -0.246 OA
BRANCH  28  30
ATOM     30  C   UNL A   1      39.523  22.446  26.627  1.00  0.00     0.060 A 
ATOM     31  C   UNL A   1      38.851  23.634  26.308  1.00  0.00     0.016 A 
ATOM     32  C   UNL A   1      40.613  22.454  27.502  1.00  0.00     0.016 A 
ATOM     33  C   UNL A   1      39.339  24.849  26.764  1.00  0.00     0.010 A 
ATOM     34  C   UNL A   1      41.104  23.681  27.961  1.00  0.00     0.010 A 
ATOM     35  C   UNL A   1      40.510  24.881  27.531  1.00  0.00    -0.014 A 
BRANCH  35  36
ATOM     36  C   UNL A   1      41.225  26.172  27.650  1.00  0.00     0.031 A 
ATOM     37  C   UNL A   1      40.629  27.243  28.526  1.00  0.00     0.074 A 
ATOM     38  C   UNL A   1      42.428  26.352  27.081  1.00  0.00     0.049 A 
ATOM     39  N   UNL A   1      41.112  28.415  28.851  1.00  0.00    -0.248 NA
ATOM     40  C   UNL A   1      39.312  26.951  29.115  1.00  0.00     0.031 C 
ATOM     41  C   UNL A   1      43.125  25.372  26.251  1.00  0.00     0.029 A 
ATOM     42  N   UNL A   1      43.279  27.425  27.132  1.00  0.00    -0.354 N 
ATOM     43  C   UNL A   1      40.159  28.997  29.678  1.00  0.00     0.074 A 
ATOM     44  C   UNL A   1      39.051  28.072  29.767  1.00  0.00     0.031 C 
ATOM     45  C   UNL A   1      44.305  25.890  25.871  1.00  0.00     0.029 A 
ATOM     46  C   UNL A   1      44.432  27.241  26.414  1.00  0.00     0.049 A 
ATOM     47  H   UNL A   1      43.081  28.248  27.635  1.00  0.00     0.167 HD
ATOM     48  C   UNL A   1      40.204  30.189  30.319  1.00  0.00     0.031 A 
ATOM     49  C   UNL A   1      45.472  28.073  26.216  1.00  0.00     0.031 A 
ATOM     50  C   UNL A   1      41.297  31.117  30.216  1.00  0.00     0.049 A 
ATOM     51  C   UNL A   1      45.480  29.416  26.893  1.00  0.00     0.074 A 
ATOM     52  C   UNL A   1      41.443  32.354  30.820  1.00  0.00     0.029 A 
ATOM     53  N   UNL A   1      42.432  30.909  29.446  1.00  0.00    -0.354 N 
ATOM     54  N   UNL A   1      44.583  29.949  27.688  1.00  0.00    -0.248 NA
ATOM     55  C   UNL A   1      46.659  30.263  26.662  1.00  0.00     0.031 C 
ATOM     56  C   UNL A   1      42.645  32.916  30.373  1.00  0.00     0.029 A 
ATOM     57  C   UNL A   1      43.276  32.003  29.544  1.00  0.00     0.049 A 
ATOM     58  H   UNL A   1      42.611  30.104  28.910  1.00  0.00     0.167 HD
ATOM     59  C   UNL A   1      45.101  31.178  28.078  1.00  0.00     0.074 A 
ATOM     60  C   UNL A   1      46.397  31.304  27.439  1.00  0.00     0.031 C 
ATOM     61  C   UNL A   1      44.558  32.115  28.894  1.00  0.00     0.031 A 
BRANCH  48  62
ATOM     62  C   UNL A   1      39.006  30.560  31.152  1.00  0.00    -0.014 A 
ATOM     63  C   UNL A   1      37.929  31.279  30.607  1.00  0.00     0.009 A 
ATOM     64  C   UNL A   1      38.963  30.201  32.507  1.00  0.00     0.009 A 
ATOM     65  C   UNL A   1      36.861  31.675  31.416  1.00  0.00     0.001 A 
ATOM     66  C   UNL A   1      37.879  30.570  33.306  1.00  0.00     0.001 A 
ATOM     67  C   UNL A   1      36.836  31.319  32.763  1.00  0.00     0.000 A 
ENDBRANCH  48  62
BRANCH  49  68
ATOM     68  C   UNL A   1      46.591  27.649  25.337  1.00  0.00    -0.014 A 
ATOM     69  C   UNL A   1      46.644  28.046  23.993  1.00  0.00     0.009 A 
ATOM     70  C   UNL A   1      47.628  26.854  25.852  1.00  0.00     0.009 A 
ATOM     71  C   UNL A   1      47.705  27.642  23.178  1.00  0.00     0.001 A 
ATOM     72  C   UNL A   1      48.700  26.475  25.043  1.00  0.00     0.001 A 
ATOM     73  C   UNL A   1      48.735  26.863  23.706  1.00  0.00     0.000 A 
ENDBRANCH  49  68
BRANCH  61  74
ATOM     74  C   UNL A   1      45.385  33.340  29.177  1.00  0.00    -0.014 A 
ATOM     75  C   UNL A   1      45.284  34.495  28.387  1.00  0.00     0.009 A 
ATOM     76  C   UNL A   1      46.262  33.342  30.275  1.00  0.00     0.009 A 
ATOM     77  C   UNL A   1      46.079  35.610  28.661  1.00  0.00     0.001 A 
ATOM     78  C   UNL A   1      47.031  34.469  30.566  1.00  0.00     0.001 A 
ATOM     79  C   UNL A   1      46.949  35.597  29.753  1.00  0.00     0.000 A 
ENDBRANCH  61  74
ENDBRANCH  35  36
ENDBRANCH  28  30
ENDBRANCH  27  28
ENDBRANCH  26  27
ENDBRANCH  25  26
ENDBRANCH  24  25
ENDBRANCH   1  24
TORSDOF 18
ENDMDL
MODEL 2
REMARK VINA RESULT:      -9.7      3.914      6.942
REMARK SMILES CCC[NH2+][C@]1(C(=O)OCCOCCOC(=O)c2ccc(-c3c4nc(c(-c5ccccc5)c5ccc([nH]5)c(-c5ccccc5)c5nc(c(-c6ccccc6)c6ccc3[nH]6)C=C5)C=C4)cc2)CCC[C@H](n2ccc(C)n2)C1
REMARK SMILES IDX 10 1 9 2 8 3 6 4 7 5 5 6 65 7 75 8 66 9 68 10 67 11 4 12
REMARK SMILES IDX 3 15 2 16 1 17 69 18 70 19 74 20 71 21 72 22 73 23 11 24
REMARK SMILES IDX 12 25 13 26 14 27 15 28 16 29 17 30 18 31 64 32 19 33 63 34
REMARK SMILES IDX 20 35 21 36 22 37 57 38 23 39 62 40 56 41 58 42 24 43 61 44
REMARK SMILES IDX 55 45 54 46 25 48 47 49 32 50 46 51 33 52 36 53 45 54 59 55
REMARK SMILES IDX 34 56 35 57 44 59 60 60 37 61 26 62 27 63 31 64 28 65 30 66
REMARK SMILES IDX 29 67 48 68 49 69 53 70 50 71 52 72 51 73 38 74 39 75 43 76
REMARK SMILES IDX 40 77 42 78 41 79
REMARK H PARENT 4 13 4 14 58 47 36 58
REMARK Flexibility Score: inf
ROOT
ATOM      1  C   UNL A   1      31.755  27.976  27.204  1.00  0.00     0.202 C 
ENDROOT
BRANCH   1   2
ATOM      2  C   UNL A   1      31.187  26.729  26.518  1.00  0.00     0.261 C 
BRANCH   2   3
ATOM      3  O   UNL A   1      32.196  25.758  26.191  1.00  0.00    -0.459 OA
BRANCH   3   4
ATOM      4  C   UNL A   1      31.795  24.461  26.292  1.00  0.00     0.368 C 
ATOM      5  O   UNL A   1      30.776  24.105  26.883  1.00  0.00    -0.245 OA
BRANCH   4   6
ATOM      6  C   UNL A   1      32.733  23.445  25.543  1.00  0.00     0.196 C 
ATOM      7  C   UNL A   1      34.129  24.106  25.442  1.00  0.00     0.081 C 
ATOM      8  C   UNL A   1      32.917  22.122  26.345  1.00  0.00     0.108 C 
ATOM      9  C   UNL A   1      35.158  23.201  24.774  1.00  0.00     0.009 C 
ATOM     10  C   UNL A   1      34.070  21.154  25.929  1.00  0.00     0.114 C 
ATOM     11  C   UNL A   1      35.366  21.918  25.575  1.00  0.00     0.028 C 
BRANCH   6  12
ATOM     12  N   UNL A   1      32.127  23.431  24.203  1.00  0.00    -0.332 N 
ATOM     13  H   UNL A   1      32.899  23.317  23.547  1.00  0.00     0.347 HD
ATOM     14  H   UNL A   1      31.430  22.692  24.303  1.00  0.00     0.347 HD
BRANCH  12  15
ATOM     15  C   UNL A   1      31.334  24.507  23.698  1.00  0.00     0.261 C 
BRANCH  15  16
ATOM     16  C   UNL A   1      31.903  25.138  22.427  1.00  0.00     0.058 C 
ATOM     17  C   UNL A   1      33.029  26.127  22.677  1.00  0.00     0.010 C 
ENDBRANCH  15  16
ENDBRANCH  12  15
ENDBRANCH   6  12
BRANCH  10  18
ATOM     18  N   UNL A   1      33.653  20.113  24.988  1.00  0.00    -0.269 N 
ATOM     19  C   UNL A   1      32.448  19.909  24.376  1.00  0.00     0.109 A 
ATOM     20  N   UNL A   1      34.559  19.176  24.631  1.00  0.00    -0.178 NA
ATOM     21  C   UNL A   1      32.508  18.641  23.835  1.00  0.00     0.045 A 
ATOM     22  C   UNL A   1      33.821  18.198  24.097  1.00  0.00     0.059 A 
ATOM     23  C   UNL A   1      34.392  16.837  23.958  1.00  0.00     0.069 C 
ENDBRANCH  10  18
ENDBRANCH   4   6
ENDBRANCH   3   4
ENDBRANCH   2   3
ENDBRANCH   1   2
BRANCH   1  24
ATOM     24  O   UNL A   1      32.598  28.834  26.435  1.00  0.00    -0.374 OA
BRANCH  24  25
ATOM     25  C   UNL A   1      31.974  29.926  25.764  1.00  0.00     0.202 C 
BRANCH  25  26
ATOM     26  C   UNL A   1      31.932  31.263  26.502  1.00  0.00     0.261 C 
BRANCH  26  27
ATOM     27  O   UNL A   1      32.774  31.238  27.666  1.00  0.00    -0.460 OA
BRANCH  27  28
ATOM     28  C   UNL A   1      33.615  32.290  27.752  1.00  0.00     0.338 C 
ATOM     29  O   UNL A   1      33.309  33.477  27.848  1.00  0.00    -0.246 OA
BRANCH  28  30
ATOM     30  C   UNL A   1      35.005  31.835  27.888  1.00  0.00     0.060 A 
ATOM     31  C   UNL A   1      35.219  30.450  27.863  1.00  0.00     0.016 A 
ATOM     32  C   UNL A   1      36.061  32.716  28.137  1.00  0.00     0.016 A 
ATOM     33  C   UNL A   1      36.460  29.934  28.204  1.00  0.00     0.010 A 
ATOM     34  C   UNL A   1      37.312  32.195  28.482  1.00  0.00     0.010 A 
ATOM     35  C   UNL A   1      37.489  30.803  28.587  1.00  0.00    -0.014 A 
BRANCH  35  36
ATOM     36  C   UNL A   1      38.637  30.233  29.328  1.00  0.00     0.031 A 
ATOM     37  C   UNL A   1      38.773  30.551  30.794  1.00  0.00     0.074 A 
ATOM     38  C   UNL A   1      39.479  29.369  28.740  1.00  0.00     0.049 A 
ATOM     39  N   UNL A   1      39.641  30.102  31.664  1.00  0.00    -0.248 NA
ATOM     40  C   UNL A   1      37.797  31.501  31.352  1.00  0.00     0.031 C 
ATOM     41  C   UNL A   1      39.420  28.950  27.341  1.00  0.00     0.029 A 
ATOM     42  N   UNL A   1      40.543  28.678  29.259  1.00  0.00    -0.354 N 
ATOM     43  C   UNL A   1      39.316  30.716  32.868  1.00  0.00     0.074 A 
ATOM     44  C   UNL A   1      38.204  31.603  32.606  1.00  0.00     0.031 C 
ATOM     45  C   UNL A   1      40.407  28.067  27.113  1.00  0.00     0.029 A 
ATOM     46  C   UNL A   1      41.175  27.879  28.342  1.00  0.00     0.049 A 
ATOM     47  H   UNL A   1      40.826  28.749  30.200  1.00  0.00     0.167 HD
ATOM     48  C   UNL A   1      39.880  30.549  34.087  1.00  0.00     0.031 A 
ATOM     49  C   UNL A   1      42.254  27.086  28.481  1.00  0.00     0.031 A 
ATOM     50  C   UNL A   1      40.998  29.682  34.344  1.00  0.00     0.049 A 
ATOM     51  C   UNL A   1      42.903  26.954  29.831  1.00  0.00     0.074 A 
ATOM     52  C   UNL A   1      41.650  29.440  35.540  1.00  0.00     0.029 A 
ATOM     53  N   UNL A   1      41.635  28.917  33.378  1.00  0.00    -0.354 N 
ATOM     54  N   UNL A   1      42.577  27.524  30.966  1.00  0.00    -0.248 NA
ATOM     55  C   UNL A   1      44.057  26.049  29.921  1.00  0.00     0.031 C 
ATOM     56  C   UNL A   1      42.716  28.568  35.287  1.00  0.00     0.029 A 
ATOM     57  C   UNL A   1      42.686  28.216  33.946  1.00  0.00     0.049 A 
ATOM     58  H   UNL A   1      41.378  28.877  32.428  1.00  0.00     0.167 HD
ATOM     59  C   UNL A   1      43.463  27.024  31.912  1.00  0.00     0.074 A 
ATOM     60  C   UNL A   1      44.332  26.095  31.217  1.00  0.00     0.031 C 
ATOM     61  C   UNL A   1      43.546  27.303  33.238  1.00  0.00     0.031 A 
BRANCH  48  62
ATOM     62  C   UNL A   1      39.313  31.364  35.219  1.00  0.00    -0.014 A 
ATOM     63  C   UNL A   1      38.320  30.847  36.068  1.00  0.00     0.009 A 
ATOM     64  C   UNL A   1      39.765  32.676  35.426  1.00  0.00     0.009 A 
ATOM     65  C   UNL A   1      37.757  31.646  37.066  1.00  0.00     0.001 A 
ATOM     66  C   UNL A   1      39.223  33.460  36.446  1.00  0.00     0.001 A 
ATOM     67  C   UNL A   1      38.210  32.950  37.255  1.00  0.00     0.000 A 
ENDBRANCH  48  62
BRANCH  49  68
ATOM     68  C   UNL A   1      42.782  26.356  27.300  1.00  0.00    -0.014 A 
ATOM     69  C   UNL A   1      43.763  26.928  26.476  1.00  0.00     0.009 A 
ATOM     70  C   UNL A   1      42.314  25.065  27.004  1.00  0.00     0.009 A 
ATOM     71  C   UNL A   1      44.253  26.228  25.371  1.00  0.00     0.001 A 
ATOM     72  C   UNL A   1      42.825  24.358  25.915  1.00  0.00     0.001 A 
ATOM     73  C   UNL A   1      43.789  24.941  25.095  1.00  0.00     0.000 A 
ENDBRANCH  49  68
BRANCH  61  74
ATOM     74  C   UNL A   1      44.588  26.560  34.030  1.00  0.00    -0.014 A 
ATOM     75  C   UNL A   1      45.865  27.098  34.253  1.00  0.00     0.009 A 
ATOM     76  C   UNL A   1      44.271  25.309  34.584  1.00  0.00     0.009 A 
ATOM     77  C   UNL A   1      46.818  26.376  34.975  1.00  0.00     0.001 A 
ATOM     78  C   UNL A   1      45.215  24.605  35.332  1.00  0.00     0.001 A 
ATOM     79  C   UNL A   1      46.491  25.133  35.517  1.00  0.00     0.000 A 
ENDBRANCH  61  74
ENDBRANCH  35  36
ENDBRANCH  28  30
ENDBRANCH  27  28
ENDBRANCH  26  27
ENDBRANCH  25  26
ENDBRANCH  24  25
ENDBRANCH   1  24
TORSDOF 18
ENDMDL
MODEL 3
REMARK VINA RESULT:      -9.6      3.933      7.695
REMARK SMILES CCC[NH2+][C@]1(C(=O)OCCOCCOC(=O)c2ccc(-c3c4nc(c(-c5ccccc5)c5ccc([nH]5)c(-c5ccccc5)c5nc(c(-c6ccccc6)c6ccc3[nH]6)C=C5)C=C4)cc2)CCC[C@H](n2ccc(C)n2)C1
REMARK SMILES IDX 10 1 9 2 8 3 6 4 7 5 5 6 65 7 75 8 66 9 68 10 67 11 4 12
REMARK SMILES IDX 3 15 2 16 1 17 69 18 70 19 74 20 71 21 72 22 73 23 11 24
REMARK SMILES IDX 12 25 13 26 14 27 15 28 16 29 17 30 18 31 64 32 19 33 63 34
REMARK SMILES IDX 20 35 21 36 22 37 57 38 23 39 62 40 56 41 58 42 24 43 61 44
REMARK SMILES IDX 55 45 54 46 25 48 47 49 32 50 46 51 33 52 36 53 45 54 59 55
REMARK SMILES IDX 34 56 35 57 44 59 60 60 37 61 26 62 27 63 31 64 28 65 30 66
REMARK SMILES IDX 29 67 48 68 49 69 53 70 50 71 52 72 51 73 38 74 39 75 43 76
REMARK SMILES IDX 40 77 42 78 41 79
REMARK H PARENT 4 13 4 14 58 47 36 58
REMARK Flexibility Score: inf
ROOT
ATOM      1  C   UNL A   1      32.242  29.385  26.963  1.00  0.00     0.202 C 
ENDROOT
BRANCH   1   2
ATOM      2  C   UNL A   1      31.738  27.952  27.169  1.00  0.00     0.261 C 
BRANCH   2   3
ATOM      3  O   UNL A   1      32.063  27.078  26.074  1.00  0.00    -0.459 OA
BRANCH   3   4
ATOM      4  C   UNL A   1      31.590  25.808  26.198  1.00  0.00     0.368 C 
ATOM      5  O   UNL A   1      30.477  25.533  26.646  1.00  0.00    -0.245 OA
BRANCH   4   6
ATOM      6  C   UNL A   1      32.582  24.706  25.674  1.00  0.00     0.196 C 
ATOM      7  C   UNL A   1      33.996  25.336  25.665  1.00  0.00     0.081 C 
ATOM      8  C   UNL A   1      32.643  23.476  26.627  1.00  0.00     0.108 C 
ATOM      9  C   UNL A   1      35.072  24.353  25.219  1.00  0.00     0.009 C 
ATOM     10  C   UNL A   1      33.813  22.455  26.450  1.00  0.00     0.114 C 
ATOM     11  C   UNL A   1      35.158  23.162  26.169  1.00  0.00     0.028 C 
BRANCH   6  12
ATOM     12  N   UNL A   1      32.132  24.555  24.282  1.00  0.00    -0.332 N 
ATOM     13  H   UNL A   1      32.429  23.624  23.990  1.00  0.00     0.347 HD
ATOM     14  H   UNL A   1      31.138  24.769  24.366  1.00  0.00     0.347 HD
BRANCH  12  15
ATOM     15  C   UNL A   1      32.529  25.443  23.236  1.00  0.00     0.261 C 
BRANCH  15  16
ATOM     16  C   UNL A   1      32.870  24.730  21.928  1.00  0.00     0.058 C 
ATOM     17  C   UNL A   1      33.307  23.286  22.104  1.00  0.00     0.010 C 
ENDBRANCH  15  16
ENDBRANCH  12  15
ENDBRANCH   6  12
BRANCH  10  18
ATOM     18  N   UNL A   1      33.481  21.324  25.583  1.00  0.00    -0.269 N 
ATOM     19  C   UNL A   1      32.265  20.867  25.156  1.00  0.00     0.109 A 
ATOM     20  N   UNL A   1      34.494  20.574  25.097  1.00  0.00    -0.178 NA
ATOM     21  C   UNL A   1      32.498  19.620  24.614  1.00  0.00     0.045 A 
ATOM     22  C   UNL A   1      33.897  19.453  24.679  1.00  0.00     0.059 A 
ATOM     23  C   UNL A   1      34.702  18.228  24.459  1.00  0.00     0.069 C 
ENDBRANCH  10  18
ENDBRANCH   4   6
ENDBRANCH   3   4
ENDBRANCH   2   3
ENDBRANCH   1   2
BRANCH   1  24
ATOM     24  O   UNL A   1      33.648  29.615  27.043  1.00  0.00    -0.374 OA
BRANCH  24  25
ATOM     25  C   UNL A   1      34.071  30.880  27.546  1.00  0.00     0.202 C 
BRANCH  25  26
ATOM     26  C   UNL A   1      32.981  31.915  27.827  1.00  0.00     0.261 C 
BRANCH  26  27
ATOM     27  O   UNL A   1      33.468  33.249  27.613  1.00  0.00    -0.460 OA
BRANCH  27  28
ATOM     28  C   UNL A   1      33.563  33.981  28.742  1.00  0.00     0.338 C 
ATOM     29  O   UNL A   1      32.672  34.641  29.274  1.00  0.00    -0.246 OA
BRANCH  28  30
ATOM     30  C   UNL A   1      34.863  33.770  29.393  1.00  0.00     0.060 A 
ATOM     31  C   UNL A   1      35.998  34.153  28.667  1.00  0.00     0.016 A 
ATOM     32  C   UNL A   1      34.987  33.124  30.626  1.00  0.00     0.016 A 
ATOM     33  C   UNL A   1      37.261  33.787  29.111  1.00  0.00     0.010 A 
ATOM     34  C   UNL A   1      36.261  32.755  31.072  1.00  0.00     0.010 A 
ATOM     35  C   UNL A   1      37.389  33.023  30.277  1.00  0.00    -0.014 A 
BRANCH  35  36
ATOM     36  C   UNL A   1      38.667  32.308  30.499  1.00  0.00     0.031 A 
ATOM     37  C   UNL A   1      39.659  32.898  31.465  1.00  0.00     0.074 A 
ATOM     38  C   UNL A   1      38.895  31.109  29.939  1.00  0.00     0.049 A 
ATOM     39  N   UNL A   1      40.801  32.414  31.883  1.00  0.00    -0.248 NA
ATOM     40  C   UNL A   1      39.318  34.211  32.037  1.00  0.00     0.031 C 
ATOM     41  C   UNL A   1      37.989  30.417  29.025  1.00  0.00     0.029 A 
ATOM     42  N   UNL A   1      39.961  30.259  30.074  1.00  0.00    -0.354 N 
ATOM     43  C   UNL A   1      41.310  33.362  32.763  1.00  0.00     0.074 A 
ATOM     44  C   UNL A   1      40.380  34.469  32.781  1.00  0.00     0.031 C 
ATOM     45  C   UNL A   1      38.539  29.240  28.681  1.00  0.00     0.029 A 
ATOM     46  C   UNL A   1      39.840  29.110  29.335  1.00  0.00     0.049 A 
ATOM     47  H   UNL A   1      40.739  30.454  30.645  1.00  0.00     0.167 HD
ATOM     48  C   UNL A   1      42.444  33.314  33.501  1.00  0.00     0.031 A 
ATOM     49  C   UNL A   1      40.686  28.072  29.201  1.00  0.00     0.031 A 
ATOM     50  C   UNL A   1      43.380  32.223  33.469  1.00  0.00     0.049 A 
ATOM     51  C   UNL A   1      41.968  28.060  29.987  1.00  0.00     0.074 A 
ATOM     52  C   UNL A   1      44.561  32.073  34.173  1.00  0.00     0.029 A 
ATOM     53  N   UNL A   1      43.238  31.093  32.676  1.00  0.00    -0.354 N 
ATOM     54  N   UNL A   1      42.431  28.952  30.830  1.00  0.00    -0.248 NA
ATOM     55  C   UNL A   1      42.833  26.884  29.820  1.00  0.00     0.031 C 
ATOM     56  C   UNL A   1      45.161  30.875  33.767  1.00  0.00     0.029 A 
ATOM     57  C   UNL A   1      44.321  30.248  32.860  1.00  0.00     0.049 A 
ATOM     58  H   UNL A   1      42.481  30.916  32.073  1.00  0.00     0.167 HD
ATOM     59  C   UNL A   1      43.624  28.432  31.318  1.00  0.00     0.074 A 
ATOM     60  C   UNL A   1      43.805  27.142  30.684  1.00  0.00     0.031 C 
ATOM     61  C   UNL A   1      44.489  28.971  32.214  1.00  0.00     0.031 A 
BRANCH  48  62
ATOM     62  C   UNL A   1      42.743  34.507  34.370  1.00  0.00    -0.014 A 
ATOM     63  C   UNL A   1      43.584  35.542  33.930  1.00  0.00     0.009 A 
ATOM     64  C   UNL A   1      42.189  34.586  35.657  1.00  0.00     0.009 A 
ATOM     65  C   UNL A   1      43.905  36.603  34.780  1.00  0.00     0.001 A 
ATOM     66  C   UNL A   1      42.485  35.665  36.492  1.00  0.00     0.001 A 
ATOM     67  C   UNL A   1      43.354  36.665  36.058  1.00  0.00     0.000 A 
ENDBRANCH  48  62
BRANCH  49  68
ATOM     68  C   UNL A   1      40.339  26.959  28.281  1.00  0.00    -0.014 A 
ATOM     69  C   UNL A   1      39.590  25.860  28.729  1.00  0.00     0.009 A 
ATOM     70  C   UNL A   1      40.742  27.004  26.937  1.00  0.00     0.009 A 
ATOM     71  C   UNL A   1      39.267  24.821  27.852  1.00  0.00     0.001 A 
ATOM     72  C   UNL A   1      40.395  25.978  26.057  1.00  0.00     0.001 A 
ATOM     73  C   UNL A   1      39.663  24.885  26.516  1.00  0.00     0.000 A 
ENDBRANCH  49  68
BRANCH  61  74
ATOM     74  C   UNL A   1      45.687  28.143  32.593  1.00  0.00    -0.014 A 
ATOM     75  C   UNL A   1      46.907  28.259  31.910  1.00  0.00     0.009 A 
ATOM     76  C   UNL A   1      45.594  27.250  33.673  1.00  0.00     0.009 A 
ATOM     77  C   UNL A   1      47.997  27.463  32.271  1.00  0.00     0.001 A 
ATOM     78  C   UNL A   1      46.694  26.480  34.052  1.00  0.00     0.001 A 
ATOM     79  C   UNL A   1      47.890  26.577  33.344  1.00  0.00     0.000 A 
ENDBRANCH  61  74
ENDBRANCH  35  36
ENDBRANCH  28  30
ENDBRANCH  27  28
ENDBRANCH  26  27
ENDBRANCH  25  26
ENDBRANCH  24  25
ENDBRANCH   1  24
TORSDOF 18
ENDMDL
