MODEL 1
REMARK VINA RESULT:     -11.2      0.000      0.000
REMARK SMILES Cc1oc2cc(OCC(=O)OCCOCCOC(=O)c3ccc(-c4c5nc(c(-c6ccccc6)c6ccc([nH]6)c(-c6ccccc6)c6nc(c(-c7ccccc7)c7ccc4[nH]7)C=C6)C=C5)cc3)ccc2c(=O)c1Oc1ccc(Cl)cc1Cl
REMARK SMILES IDX 13 1 12 2 11 3 9 4 10 5 8 6 7 7 6 8 1 9 2 10 3 11 73 12 4 13
REMARK SMILES IDX 71 14 5 15 70 16 72 17 69 18 68 19 74 20 75 21 76 22 81 23
REMARK SMILES IDX 77 24 80 25 82 26 78 27 79 28 14 29 15 30 16 31 17 32 18 33
REMARK SMILES IDX 19 34 20 35 21 36 67 37 22 38 66 39 23 40 24 41 25 42 60 43
REMARK SMILES IDX 26 44 65 45 59 46 61 47 27 48 64 49 58 50 57 51 28 53 50 54
REMARK SMILES IDX 35 55 49 56 36 57 39 58 48 59 62 60 37 61 38 62 47 64 63 65
REMARK SMILES IDX 40 66 29 67 30 68 34 69 31 70 33 71 32 72 51 73 52 74 56 75
REMARK SMILES IDX 53 76 55 77 54 78 41 79 42 80 46 81 43 82 45 83 44 84
REMARK H PARENT 61 52 39 63
REMARK Flexibility Score: inf
ROOT
ATOM      1  C   UNL A   1      33.864  34.393  30.480  1.00  0.00     0.202 C 
ENDROOT
BRANCH   1   2
ATOM      2  C   UNL A   1      34.907  33.773  29.542  1.00  0.00     0.261 C 
BRANCH   2   3
ATOM      3  O   UNL A   1      34.511  33.805  28.154  1.00  0.00    -0.461 OA
BRANCH   3   4
ATOM      4  C   UNL A   1      33.385  33.105  27.838  1.00  0.00     0.344 C 
ATOM      5  O   UNL A   1      32.295  33.608  27.585  1.00  0.00    -0.248 OA
BRANCH   4   6
ATOM      6  C   UNL A   1      33.587  31.587  27.884  1.00  0.00     0.351 C 
BRANCH   6   7
ATOM      7  O   UNL A   1      33.775  30.859  26.683  1.00  0.00    -0.482 OA
BRANCH   7   8
ATOM      8  C   UNL A   1      32.893  29.874  26.345  1.00  0.00     0.123 A 
ATOM      9  C   UNL A   1      31.600  26.310  21.880  1.00  0.00     0.092 C 
ATOM     10  C   UNL A   1      31.267  26.633  23.310  1.00  0.00     0.148 A 
ATOM     11  O   UNL A   1      31.508  27.983  23.562  1.00  0.00    -0.457 OA
ATOM     12  C   UNL A   1      30.828  25.765  24.258  1.00  0.00     0.213 A 
ATOM     13  C   UNL A   1      31.735  28.369  24.854  1.00  0.00     0.142 A 
ATOM     14  C   UNL A   1      30.665  26.312  25.646  1.00  0.00     0.235 A 
ATOM     15  C   UNL A   1      32.489  29.531  25.055  1.00  0.00     0.094 A 
ATOM     16  C   UNL A   1      31.318  27.597  25.926  1.00  0.00     0.069 A 
ATOM     17  O   UNL A   1      30.092  25.693  26.535  1.00  0.00    -0.285 OA
ATOM     18  C   UNL A   1      31.626  27.989  27.229  1.00  0.00     0.020 A 
ATOM     19  C   UNL A   1      32.427  29.117  27.428  1.00  0.00     0.047 A 
BRANCH  12  20
ATOM     20  O   UNL A   1      30.594  24.397  24.174  1.00  0.00    -0.448 OA
BRANCH  20  21
ATOM     21  C   UNL A   1      31.593  23.488  24.389  1.00  0.00     0.146 A 
ATOM     22  C   UNL A   1      32.656  23.420  23.484  1.00  0.00     0.050 A 
ATOM     23  C   UNL A   1      31.517  22.586  25.458  1.00  0.00     0.085 A 
ATOM     24  C   UNL A   1      33.690  22.510  23.704  1.00  0.00     0.024 A 
ATOM     25  C   UNL A   1      32.555  21.681  25.681  1.00  0.00     0.045 A 
ATOM     26  Cl  UNL A   1      30.182  22.600  26.549  1.00  0.00    -0.080 Cl
ATOM     27  C   UNL A   1      33.643  21.658  24.809  1.00  0.00     0.042 A 
ATOM     28  Cl  UNL A   1      34.946  20.574  25.104  1.00  0.00    -0.084 Cl
ENDBRANCH  20  21
ENDBRANCH  12  20
ENDBRANCH   7   8
ENDBRANCH   6   7
ENDBRANCH   4   6
ENDBRANCH   3   4
ENDBRANCH   2   3
ENDBRANCH   1   2
BRANCH   1  29
ATOM     29  O   UNL A   1      34.345  35.373  31.402  1.00  0.00    -0.374 OA
BRANCH  29  30
ATOM     30  C   UNL A   1      34.321  35.021  32.782  1.00  0.00     0.202 C 
BRANCH  30  31
ATOM     31  C   UNL A   1      35.615  34.428  33.347  1.00  0.00     0.261 C 
BRANCH  31  32
ATOM     32  O   UNL A   1      35.653  33.001  33.221  1.00  0.00    -0.460 OA
BRANCH  32  33
ATOM     33  C   UNL A   1      36.705  32.422  33.839  1.00  0.00     0.338 C 
ATOM     34  O   UNL A   1      36.928  32.366  35.041  1.00  0.00    -0.246 OA
BRANCH  33  35
ATOM     35  C   UNL A   1      37.514  31.680  32.865  1.00  0.00     0.060 A 
ATOM     36  C   UNL A   1      38.566  30.908  33.371  1.00  0.00     0.016 A 
ATOM     37  C   UNL A   1      37.312  31.807  31.488  1.00  0.00     0.016 A 
ATOM     38  C   UNL A   1      39.464  30.308  32.499  1.00  0.00     0.010 A 
ATOM     39  C   UNL A   1      38.219  31.206  30.612  1.00  0.00     0.010 A 
ATOM     40  C   UNL A   1      39.321  30.490  31.117  1.00  0.00    -0.014 A 
BRANCH  40  41
ATOM     41  C   UNL A   1      40.411  30.049  30.221  1.00  0.00     0.031 A 
ATOM     42  C   UNL A   1      41.560  30.981  29.957  1.00  0.00     0.074 A 
ATOM     43  C   UNL A   1      40.397  28.811  29.697  1.00  0.00     0.049 A 
ATOM     44  N   UNL A   1      42.632  30.788  29.235  1.00  0.00    -0.248 NA
ATOM     45  C   UNL A   1      41.490  32.308  30.592  1.00  0.00     0.031 C 
ATOM     46  C   UNL A   1      39.350  27.814  29.917  1.00  0.00     0.029 A 
ATOM     47  N   UNL A   1      41.296  28.184  28.875  1.00  0.00    -0.354 N 
ATOM     48  C   UNL A   1      43.363  31.968  29.323  1.00  0.00     0.074 A 
ATOM     49  C   UNL A   1      42.599  32.880  30.146  1.00  0.00     0.031 C 
ATOM     50  C   UNL A   1      39.666  26.696  29.242  1.00  0.00     0.029 A 
ATOM     51  C   UNL A   1      40.921  26.910  28.525  1.00  0.00     0.049 A 
ATOM     52  H   UNL A   1      42.130  28.605  28.566  1.00  0.00     0.167 HD
ATOM     53  C   UNL A   1      44.564  32.260  28.773  1.00  0.00     0.031 A 
ATOM     54  C   UNL A   1      41.520  26.025  27.706  1.00  0.00     0.031 A 
ATOM     55  C   UNL A   1      45.312  31.350  27.948  1.00  0.00     0.049 A 
ATOM     56  C   UNL A   1      42.825  26.396  27.060  1.00  0.00     0.074 A 
ATOM     57  C   UNL A   1      46.550  31.537  27.360  1.00  0.00     0.029 A 
ATOM     58  N   UNL A   1      44.882  30.083  27.587  1.00  0.00    -0.354 N 
ATOM     59  N   UNL A   1      43.526  27.498  27.186  1.00  0.00    -0.248 NA
ATOM     60  C   UNL A   1      43.428  25.398  26.165  1.00  0.00     0.031 C 
ATOM     61  C   UNL A   1      46.844  30.401  26.598  1.00  0.00     0.029 A 
ATOM     62  C   UNL A   1      45.816  29.487  26.757  1.00  0.00     0.049 A 
ATOM     63  H   UNL A   1      44.037  29.668  27.877  1.00  0.00     0.167 HD
ATOM     64  C   UNL A   1      44.660  27.318  26.405  1.00  0.00     0.074 A 
ATOM     65  C   UNL A   1      44.562  25.994  25.824  1.00  0.00     0.031 C 
ATOM     66  C   UNL A   1      45.691  28.170  26.187  1.00  0.00     0.031 A 
BRANCH  53  67
ATOM     67  C   UNL A   1      45.123  33.633  29.017  1.00  0.00    -0.014 A 
ATOM     68  C   UNL A   1      46.045  33.875  30.047  1.00  0.00     0.009 A 
ATOM     69  C   UNL A   1      44.740  34.696  28.184  1.00  0.00     0.009 A 
ATOM     70  C   UNL A   1      46.548  35.162  30.257  1.00  0.00     0.001 A 
ATOM     71  C   UNL A   1      45.264  35.975  28.380  1.00  0.00     0.001 A 
ATOM     72  C   UNL A   1      46.162  36.208  29.421  1.00  0.00     0.000 A 
ENDBRANCH  53  67
BRANCH  54  73
ATOM     73  C   UNL A   1      40.878  24.712  27.438  1.00  0.00    -0.014 A 
ATOM     74  C   UNL A   1      41.402  23.529  27.982  1.00  0.00     0.009 A 
ATOM     75  C   UNL A   1      39.734  24.637  26.627  1.00  0.00     0.009 A 
ATOM     76  C   UNL A   1      40.806  22.297  27.701  1.00  0.00     0.001 A 
ATOM     77  C   UNL A   1      39.124  23.407  26.370  1.00  0.00     0.001 A 
ATOM     78  C   UNL A   1      39.665  22.238  26.901  1.00  0.00     0.000 A 
ENDBRANCH  54  73
BRANCH  66  79
ATOM     79  C   UNL A   1      46.805  27.686  25.302  1.00  0.00    -0.014 A 
ATOM     80  C   UNL A   1      47.837  26.883  25.809  1.00  0.00     0.009 A 
ATOM     81  C   UNL A   1      46.790  28.000  23.934  1.00  0.00     0.009 A 
ATOM     82  C   UNL A   1      48.852  26.427  24.966  1.00  0.00     0.001 A 
ATOM     83  C   UNL A   1      47.791  27.519  23.089  1.00  0.00     0.001 A 
ATOM     84  C   UNL A   1      48.825  26.741  23.607  1.00  0.00     0.000 A 
ENDBRANCH  66  79
ENDBRANCH  40  41
ENDBRANCH  33  35
ENDBRANCH  32  33
ENDBRANCH  31  32
ENDBRANCH  30  31
ENDBRANCH  29  30
ENDBRANCH   1  29
TORSDOF 18
ENDMDL
MODEL 2
REMARK VINA RESULT:     -11.1      4.665     10.144
REMARK SMILES Cc1oc2cc(OCC(=O)OCCOCCOC(=O)c3ccc(-c4c5nc(c(-c6ccccc6)c6ccc([nH]6)c(-c6ccccc6)c6nc(c(-c7ccccc7)c7ccc4[nH]7)C=C6)C=C5)cc3)ccc2c(=O)c1Oc1ccc(Cl)cc1Cl
REMARK SMILES IDX 13 1 12 2 11 3 9 4 10 5 8 6 7 7 6 8 1 9 2 10 3 11 73 12 4 13
REMARK SMILES IDX 71 14 5 15 70 16 72 17 69 18 68 19 74 20 75 21 76 22 81 23
REMARK SMILES IDX 77 24 80 25 82 26 78 27 79 28 14 29 15 30 16 31 17 32 18 33
REMARK SMILES IDX 19 34 20 35 21 36 67 37 22 38 66 39 23 40 24 41 25 42 60 43
REMARK SMILES IDX 26 44 65 45 59 46 61 47 27 48 64 49 58 50 57 51 28 53 50 54
REMARK SMILES IDX 35 55 49 56 36 57 39 58 48 59 62 60 37 61 38 62 47 64 63 65
REMARK SMILES IDX 40 66 29 67 30 68 34 69 31 70 33 71 32 72 51 73 52 74 56 75
REMARK SMILES IDX 53 76 55 77 54 78 41 79 42 80 46 81 43 82 45 83 44 84
REMARK H PARENT 61 52 39 63
REMARK Flexibility Score: inf
ROOT
ATOM      1  C   UNL A   1      42.958  20.644  25.746  1.00  0.00     0.202 C 
ENDROOT
BRANCH   1   2
ATOM      2  C   UNL A   1      41.982  19.606  26.313  1.00  0.00     0.261 C 
BRANCH   2   3
ATOM      3  O   UNL A   1      40.600  20.004  26.195  1.00  0.00    -0.461 OA
BRANCH   3   4
ATOM      4  C   UNL A   1      40.241  21.129  26.876  1.00  0.00     0.344 C 
ATOM      5  O   UNL A   1      40.662  21.440  27.986  1.00  0.00    -0.248 OA
BRANCH   4   6
ATOM      6  C   UNL A   1      39.192  21.969  26.141  1.00  0.00     0.351 C 
BRANCH   6   7
ATOM      7  O   UNL A   1      38.262  21.344  25.275  1.00  0.00    -0.482 OA
BRANCH   7   8
ATOM      8  C   UNL A   1      36.925  21.562  25.449  1.00  0.00     0.123 A 
ATOM      9  C   UNL A   1      33.113  25.967  26.060  1.00  0.00     0.092 C 
ATOM     10  C   UNL A   1      33.229  24.476  25.905  1.00  0.00     0.148 A 
ATOM     11  O   UNL A   1      34.443  24.036  26.430  1.00  0.00    -0.457 OA
ATOM     12  C   UNL A   1      32.328  23.647  25.316  1.00  0.00     0.213 A 
ATOM     13  C   UNL A   1      34.952  22.851  25.975  1.00  0.00     0.142 A 
ATOM     14  C   UNL A   1      32.722  22.206  25.191  1.00  0.00     0.235 A 
ATOM     15  C   UNL A   1      36.339  22.675  26.051  1.00  0.00     0.094 A 
ATOM     16  C   UNL A   1      34.146  21.895  25.378  1.00  0.00     0.069 A 
ATOM     17  O   UNL A   1      31.928  21.330  24.866  1.00  0.00    -0.285 OA
ATOM     18  C   UNL A   1      34.711  20.728  24.865  1.00  0.00     0.020 A 
ATOM     19  C   UNL A   1      36.100  20.577  24.889  1.00  0.00     0.047 A 
BRANCH  12  20
ATOM     20  O   UNL A   1      31.112  23.940  24.708  1.00  0.00    -0.448 OA
BRANCH  20  21
ATOM     21  C   UNL A   1      30.908  25.126  24.057  1.00  0.00     0.146 A 
ATOM     22  C   UNL A   1      29.943  26.011  24.544  1.00  0.00     0.050 A 
ATOM     23  C   UNL A   1      31.603  25.418  22.876  1.00  0.00     0.085 A 
ATOM     24  C   UNL A   1      29.740  27.232  23.899  1.00  0.00     0.024 A 
ATOM     25  C   UNL A   1      31.404  26.642  22.235  1.00  0.00     0.045 A 
ATOM     26  Cl  UNL A   1      32.748  24.312  22.213  1.00  0.00    -0.080 Cl
ATOM     27  C   UNL A   1      30.483  27.548  22.759  1.00  0.00     0.042 A 
ATOM     28  Cl  UNL A   1      30.266  29.076  21.999  1.00  0.00    -0.084 Cl
ENDBRANCH  20  21
ENDBRANCH  12  20
ENDBRANCH   7   8
ENDBRANCH   6   7
ENDBRANCH   4   6
ENDBRANCH   3   4
ENDBRANCH   2   3
ENDBRANCH   1   2
BRANCH   1  29
ATOM     29  O   UNL A   1      43.968  20.148  24.866  1.00  0.00    -0.374 OA
BRANCH  29  30
ATOM     30  C   UNL A   1      44.692  21.115  24.111  1.00  0.00     0.202 C 
BRANCH  30  31
ATOM     31  C   UNL A   1      45.181  22.343  24.884  1.00  0.00     0.261 C 
BRANCH  31  32
ATOM     32  O   UNL A   1      44.370  23.498  24.630  1.00  0.00    -0.460 OA
BRANCH  32  33
ATOM     33  C   UNL A   1      44.926  24.660  25.032  1.00  0.00     0.338 C 
ATOM     34  O   UNL A   1      45.967  25.168  24.634  1.00  0.00    -0.246 OA
BRANCH  33  35
ATOM     35  C   UNL A   1      44.009  25.372  25.929  1.00  0.00     0.060 A 
ATOM     36  C   UNL A   1      44.213  26.749  26.082  1.00  0.00     0.016 A 
ATOM     37  C   UNL A   1      43.037  24.701  26.675  1.00  0.00     0.016 A 
ATOM     38  C   UNL A   1      43.486  27.454  27.032  1.00  0.00     0.010 A 
ATOM     39  C   UNL A   1      42.309  25.412  27.633  1.00  0.00     0.010 A 
ATOM     40  C   UNL A   1      42.562  26.780  27.842  1.00  0.00    -0.014 A 
BRANCH  40  41
ATOM     41  C   UNL A   1      41.975  27.490  28.998  1.00  0.00     0.031 A 
ATOM     42  C   UNL A   1      42.689  27.446  30.319  1.00  0.00     0.074 A 
ATOM     43  C   UNL A   1      40.848  28.208  28.850  1.00  0.00     0.049 A 
ATOM     44  N   UNL A   1      42.372  28.021  31.451  1.00  0.00    -0.248 NA
ATOM     45  C   UNL A   1      43.925  26.646  30.374  1.00  0.00     0.031 C 
ATOM     46  C   UNL A   1      40.095  28.349  27.605  1.00  0.00     0.029 A 
ATOM     47  N   UNL A   1      40.146  28.958  29.758  1.00  0.00    -0.354 N 
ATOM     48  C   UNL A   1      43.365  27.650  32.351  1.00  0.00     0.074 A 
ATOM     49  C   UNL A   1      44.278  26.779  31.644  1.00  0.00     0.031 C 
ATOM     50  C   UNL A   1      39.030  29.138  27.828  1.00  0.00     0.029 A 
ATOM     51  C   UNL A   1      39.015  29.533  29.234  1.00  0.00     0.049 A 
ATOM     52  H   UNL A   1      40.426  29.072  30.695  1.00  0.00     0.167 HD
ATOM     53  C   UNL A   1      43.503  28.009  33.649  1.00  0.00     0.031 A 
ATOM     54  C   UNL A   1      38.070  30.283  29.830  1.00  0.00     0.031 A 
ATOM     55  C   UNL A   1      42.585  28.867  34.347  1.00  0.00     0.049 A 
ATOM     56  C   UNL A   1      38.216  30.620  31.288  1.00  0.00     0.074 A 
ATOM     57  C   UNL A   1      42.645  29.313  35.656  1.00  0.00     0.029 A 
ATOM     58  N   UNL A   1      41.432  29.400  33.792  1.00  0.00    -0.354 N 
ATOM     59  N   UNL A   1      39.181  30.298  32.118  1.00  0.00    -0.248 NA
ATOM     60  C   UNL A   1      37.149  31.430  31.891  1.00  0.00     0.031 C 
ATOM     61  C   UNL A   1      41.498  30.073  35.908  1.00  0.00     0.029 A 
ATOM     62  C   UNL A   1      40.754  30.146  34.742  1.00  0.00     0.049 A 
ATOM     63  H   UNL A   1      41.139  29.269  32.862  1.00  0.00     0.167 HD
ATOM     64  C   UNL A   1      38.848  30.883  33.332  1.00  0.00     0.074 A 
ATOM     65  C   UNL A   1      37.602  31.594  33.127  1.00  0.00     0.031 C 
ATOM     66  C   UNL A   1      39.512  30.839  34.512  1.00  0.00     0.031 A 
BRANCH  53  67
ATOM     67  C   UNL A   1      44.672  27.442  34.404  1.00  0.00    -0.014 A 
ATOM     68  C   UNL A   1      44.592  26.197  35.048  1.00  0.00     0.009 A 
ATOM     69  C   UNL A   1      45.882  28.153  34.447  1.00  0.00     0.009 A 
ATOM     70  C   UNL A   1      45.692  25.692  35.747  1.00  0.00     0.001 A 
ATOM     71  C   UNL A   1      46.985  27.633  35.125  1.00  0.00     0.001 A 
ATOM     72  C   UNL A   1      46.888  26.407  35.781  1.00  0.00     0.000 A 
ENDBRANCH  53  67
BRANCH  54  73
ATOM     73  C   UNL A   1      36.893  30.749  29.052  1.00  0.00    -0.014 A 
ATOM     74  C   UNL A   1      35.879  29.855  28.675  1.00  0.00     0.009 A 
ATOM     75  C   UNL A   1      36.782  32.097  28.676  1.00  0.00     0.009 A 
ATOM     76  C   UNL A   1      34.790  30.298  27.920  1.00  0.00     0.001 A 
ATOM     77  C   UNL A   1      35.679  32.543  27.945  1.00  0.00     0.001 A 
ATOM     78  C   UNL A   1      34.688  31.642  27.561  1.00  0.00     0.000 A 
ENDBRANCH  54  73
BRANCH  66  79
ATOM     79  C   UNL A   1      38.916  31.597  35.664  1.00  0.00    -0.014 A 
ATOM     80  C   UNL A   1      39.087  32.984  35.786  1.00  0.00     0.009 A 
ATOM     81  C   UNL A   1      38.131  30.919  36.610  1.00  0.00     0.009 A 
ATOM     82  C   UNL A   1      38.508  33.674  36.852  1.00  0.00     0.001 A 
ATOM     83  C   UNL A   1      37.531  31.616  37.659  1.00  0.00     0.001 A 
ATOM     84  C   UNL A   1      37.726  32.990  37.784  1.00  0.00     0.000 A 
ENDBRANCH  66  79
ENDBRANCH  40  41
ENDBRANCH  33  35
ENDBRANCH  32  33
ENDBRANCH  31  32
ENDBRANCH  30  31
ENDBRANCH  29  30
ENDBRANCH   1  29
TORSDOF 18
ENDMDL
MODEL 3
REMARK VINA RESULT:     -11.0      3.699      6.841
REMARK SMILES Cc1oc2cc(OCC(=O)OCCOCCOC(=O)c3ccc(-c4c5nc(c(-c6ccccc6)c6ccc([nH]6)c(-c6ccccc6)c6nc(c(-c7ccccc7)c7ccc4[nH]7)C=C6)C=C5)cc3)ccc2c(=O)c1Oc1ccc(Cl)cc1Cl
REMARK SMILES IDX 13 1 12 2 11 3 9 4 10 5 8 6 7 7 6 8 1 9 2 10 3 11 73 12 4 13
REMARK SMILES IDX 71 14 5 15 70 16 72 17 69 18 68 19 74 20 75 21 76 22 81 23
REMARK SMILES IDX 77 24 80 25 82 26 78 27 79 28 14 29 15 30 16 31 17 32 18 33
REMARK SMILES IDX 19 34 20 35 21 36 67 37 22 38 66 39 23 40 24 41 25 42 60 43
REMARK SMILES IDX 26 44 65 45 59 46 61 47 27 48 64 49 58 50 57 51 28 53 50 54
REMARK SMILES IDX 35 55 49 56 36 57 39 58 48 59 62 60 37 61 38 62 47 64 63 65
REMARK SMILES IDX 40 66 29 67 30 68 34 69 31 70 33 71 32 72 51 73 52 74 56 75
REMARK SMILES IDX 53 76 55 77 54 78 41 79 42 80 46 81 43 82 45 83 44 84
REMARK H PARENT 61 52 39 63
REMARK Flexibility Score: inf
ROOT
ATOM      1  C   UNL A   1      33.032  30.134  26.205  1.00  0.00     0.202 C 
ENDROOT
BRANCH   1   2
ATOM      2  C   UNL A   1      32.662  29.090  25.145  1.00  0.00     0.261 C 
BRANCH   2   3
ATOM      3  O   UNL A   1      31.237  28.962  24.949  1.00  0.00    -0.461 OA
BRANCH   3   4
ATOM      4  C   UNL A   1      30.828  28.732  23.670  1.00  0.00     0.344 C 
ATOM      5  O   UNL A   1      31.263  29.312  22.680  1.00  0.00    -0.248 OA
BRANCH   4   6
ATOM      6  C   UNL A   1      29.702  27.698  23.574  1.00  0.00     0.351 C 
BRANCH   6   7
ATOM      7  O   UNL A   1      30.010  26.328  23.386  1.00  0.00    -0.482 OA
BRANCH   7   8
ATOM      8  C   UNL A   1      31.275  25.879  23.637  1.00  0.00     0.123 A 
ATOM      9  C   UNL A   1      34.235  22.671  27.543  1.00  0.00     0.092 C 
ATOM     10  C   UNL A   1      34.349  23.387  26.227  1.00  0.00     0.148 A 
ATOM     11  O   UNL A   1      33.447  24.450  26.183  1.00  0.00    -0.457 OA
ATOM     12  C   UNL A   1      35.167  23.062  25.192  1.00  0.00     0.213 A 
ATOM     13  C   UNL A   1      33.048  24.910  24.958  1.00  0.00     0.142 A 
ATOM     14  C   UNL A   1      35.020  23.873  23.939  1.00  0.00     0.235 A 
ATOM     15  C   UNL A   1      31.803  25.545  24.884  1.00  0.00     0.094 A 
ATOM     16  C   UNL A   1      33.798  24.679  23.816  1.00  0.00     0.069 A 
ATOM     17  O   UNL A   1      35.826  23.813  23.017  1.00  0.00    -0.285 OA
ATOM     18  C   UNL A   1      33.327  25.104  22.575  1.00  0.00     0.020 A 
ATOM     19  C   UNL A   1      32.059  25.687  22.492  1.00  0.00     0.047 A 
BRANCH  12  20
ATOM     20  O   UNL A   1      36.071  22.014  25.068  1.00  0.00    -0.448 OA
BRANCH  20  21
ATOM     21  C   UNL A   1      37.334  22.095  25.589  1.00  0.00     0.146 A 
ATOM     22  C   UNL A   1      37.765  23.306  26.138  1.00  0.00     0.050 A 
ATOM     23  C   UNL A   1      38.209  21.005  25.508  1.00  0.00     0.085 A 
ATOM     24  C   UNL A   1      39.044  23.395  26.690  1.00  0.00     0.024 A 
ATOM     25  C   UNL A   1      39.485  21.092  26.066  1.00  0.00     0.045 A 
ATOM     26  Cl  UNL A   1      37.727  19.522  24.771  1.00  0.00    -0.080 Cl
ATOM     27  C   UNL A   1      39.890  22.284  26.667  1.00  0.00     0.042 A 
ATOM     28  Cl  UNL A   1      41.445  22.383  27.395  1.00  0.00    -0.084 Cl
ENDBRANCH  20  21
ENDBRANCH  12  20
ENDBRANCH   7   8
ENDBRANCH   6   7
ENDBRANCH   4   6
ENDBRANCH   3   4
ENDBRANCH   2   3
ENDBRANCH   1   2
BRANCH   1  29
ATOM     29  O   UNL A   1      31.958  30.633  27.003  1.00  0.00    -0.374 OA
BRANCH  29  30
ATOM     30  C   UNL A   1      31.372  31.864  26.591  1.00  0.00     0.202 C 
BRANCH  30  31
ATOM     31  C   UNL A   1      32.230  33.117  26.789  1.00  0.00     0.261 C 
BRANCH  31  32
ATOM     32  O   UNL A   1      32.142  33.625  28.127  1.00  0.00    -0.460 OA
BRANCH  32  33
ATOM     33  C   UNL A   1      33.170  34.427  28.479  1.00  0.00     0.338 C 
ATOM     34  O   UNL A   1      33.133  35.625  28.727  1.00  0.00    -0.246 OA
BRANCH  33  35
ATOM     35  C   UNL A   1      34.377  33.624  28.709  1.00  0.00     0.060 A 
ATOM     36  C   UNL A   1      34.199  32.362  29.287  1.00  0.00     0.016 A 
ATOM     37  C   UNL A   1      35.656  34.126  28.455  1.00  0.00     0.016 A 
ATOM     38  C   UNL A   1      35.305  31.617  29.675  1.00  0.00     0.010 A 
ATOM     39  C   UNL A   1      36.768  33.377  28.850  1.00  0.00     0.010 A 
ATOM     40  C   UNL A   1      36.593  32.140  29.498  1.00  0.00    -0.014 A 
BRANCH  40  41
ATOM     41  C   UNL A   1      37.737  31.448  30.128  1.00  0.00     0.031 A 
ATOM     42  C   UNL A   1      38.013  31.675  31.587  1.00  0.00     0.074 A 
ATOM     43  C   UNL A   1      38.483  30.587  29.414  1.00  0.00     0.049 A 
ATOM     44  N   UNL A   1      38.939  31.148  32.345  1.00  0.00    -0.248 NA
ATOM     45  C   UNL A   1      37.129  32.623  32.285  1.00  0.00     0.031 C 
ATOM     46  C   UNL A   1      38.280  30.265  28.001  1.00  0.00     0.029 A 
ATOM     47  N   UNL A   1      39.559  29.823  29.784  1.00  0.00    -0.354 N 
ATOM     48  C   UNL A   1      38.752  31.702  33.607  1.00  0.00     0.074 A 
ATOM     49  C   UNL A   1      37.644  32.626  33.506  1.00  0.00     0.031 C 
ATOM     50  C   UNL A   1      39.207  29.368  27.623  1.00  0.00     0.029 A 
ATOM     51  C   UNL A   1      40.079  29.076  28.757  1.00  0.00     0.049 A 
ATOM     52  H   UNL A   1      39.923  29.812  30.699  1.00  0.00     0.167 HD
ATOM     53  C   UNL A   1      39.440  31.457  34.747  1.00  0.00     0.031 A 
ATOM     54  C   UNL A   1      41.149  28.259  28.736  1.00  0.00     0.031 A 
ATOM     55  C   UNL A   1      40.546  30.544  34.836  1.00  0.00     0.049 A 
ATOM     56  C   UNL A   1      41.932  28.048  30.002  1.00  0.00     0.074 A 
ATOM     57  C   UNL A   1      41.297  30.204  35.948  1.00  0.00     0.029 A 
ATOM     58  N   UNL A   1      41.067  29.834  33.766  1.00  0.00    -0.354 N 
ATOM     59  N   UNL A   1      41.719  28.546  31.198  1.00  0.00    -0.248 NA
ATOM     60  C   UNL A   1      43.098  27.157  29.919  1.00  0.00     0.031 C 
ATOM     61  C   UNL A   1      42.308  29.327  35.537  1.00  0.00     0.029 A 
ATOM     62  C   UNL A   1      42.150  29.080  34.183  1.00  0.00     0.049 A 
ATOM     63  H   UNL A   1      40.718  29.861  32.846  1.00  0.00     0.167 HD
ATOM     64  C   UNL A   1      42.709  28.013  32.012  1.00  0.00     0.074 A 
ATOM     65  C   UNL A   1      43.512  27.140  31.179  1.00  0.00     0.031 C 
ATOM     66  C   UNL A   1      42.936  28.224  33.332  1.00  0.00     0.031 A 
BRANCH  53  67
ATOM     67  C   UNL A   1      39.034  32.217  35.977  1.00  0.00    -0.014 A 
ATOM     68  C   UNL A   1      38.077  31.709  36.869  1.00  0.00     0.009 A 
ATOM     69  C   UNL A   1      39.642  33.451  36.263  1.00  0.00     0.009 A 
ATOM     70  C   UNL A   1      37.714  32.436  38.006  1.00  0.00     0.001 A 
ATOM     71  C   UNL A   1      39.295  34.162  37.413  1.00  0.00     0.001 A 
ATOM     72  C   UNL A   1      38.326  33.658  38.279  1.00  0.00     0.000 A 
ENDBRANCH  53  67
BRANCH  54  73
ATOM     73  C   UNL A   1      41.551  27.597  27.468  1.00  0.00    -0.014 A 
ATOM     74  C   UNL A   1      41.053  26.330  27.127  1.00  0.00     0.009 A 
ATOM     75  C   UNL A   1      42.445  28.233  26.592  1.00  0.00     0.009 A 
ATOM     76  C   UNL A   1      41.459  25.706  25.944  1.00  0.00     0.001 A 
ATOM     77  C   UNL A   1      42.828  27.618  25.397  1.00  0.00     0.001 A 
ATOM     78  C   UNL A   1      42.340  26.352  25.079  1.00  0.00     0.000 A 
ENDBRANCH  54  73
BRANCH  66  79
ATOM     79  C   UNL A   1      44.082  27.482  33.958  1.00  0.00    -0.014 A 
ATOM     80  C   UNL A   1      45.358  28.058  34.045  1.00  0.00     0.009 A 
ATOM     81  C   UNL A   1      43.867  26.210  34.510  1.00  0.00     0.009 A 
ATOM     82  C   UNL A   1      46.406  27.361  34.649  1.00  0.00     0.001 A 
ATOM     83  C   UNL A   1      44.910  25.526  35.137  1.00  0.00     0.001 A 
ATOM     84  C   UNL A   1      46.179  26.098  35.199  1.00  0.00     0.000 A 
ENDBRANCH  66  79
ENDBRANCH  40  41
ENDBRANCH  33  35
ENDBRANCH  32  33
ENDBRANCH  31  32
ENDBRANCH  30  31
ENDBRANCH  29  30
ENDBRANCH   1  29
TORSDOF 18
ENDMDL
