MODEL 1
REMARK VINA RESULT:     -11.7      0.000      0.000
REMARK SMILES O=C(OCCOCCOC(=O)c1ccccc1Nc1nc(Cl)nc(Nc2ccc(N3CCOCC3=O)cc2)n1)c1ccc(-c2c3nc(c(-c4ccccc4)c4ccc([nH]4)c(-c4ccccc4)c4nc(c(-c5ccccc5)c5ccc2[nH]5)C=C4)C=C3)cc1
REMARK SMILES IDX 7 1 6 2 5 3 4 4 3 5 2 6 1 7 40 8 41 9 87 10 42 11 86 12
REMARK SMILES IDX 43 13 44 14 45 15 80 16 46 17 85 18 79 19 81 20 47 21 84 22
REMARK SMILES IDX 78 23 77 24 48 26 70 27 55 28 69 29 56 30 59 31 68 32 82 33
REMARK SMILES IDX 57 34 58 35 67 37 83 38 60 39 49 40 50 41 54 42 51 43 53 44
REMARK SMILES IDX 52 45 71 46 72 47 76 48 73 49 75 50 74 51 61 52 62 53 66 54
REMARK SMILES IDX 63 55 65 56 64 57 8 58 9 59 10 60 11 61 12 62 13 63 17 64
REMARK SMILES IDX 14 65 16 66 15 67 18 68 19 70 20 71 39 72 21 73 24 74 22 75
REMARK SMILES IDX 23 76 25 77 26 79 27 80 38 81 28 82 37 83 29 84 30 85 31 86
REMARK SMILES IDX 35 87 32 88 34 89 36 90 33 91
REMARK H PARENT 81 25 59 36 18 69 25 78
REMARK Flexibility Score: inf
ROOT
ATOM      1  C   UNL A   1      37.791  22.517  25.801  1.00  0.00     0.202 C 
ENDROOT
BRANCH   1   2
ATOM      2  O   UNL A   1      38.988  21.864  26.236  1.00  0.00    -0.374 OA
BRANCH   2   3
ATOM      3  C   UNL A   1      39.499  20.839  25.385  1.00  0.00     0.202 C 
BRANCH   3   4
ATOM      4  C   UNL A   1      39.642  19.484  26.075  1.00  0.00     0.261 C 
BRANCH   4   5
ATOM      5  O   UNL A   1      41.012  19.051  26.032  1.00  0.00    -0.460 OA
BRANCH   5   6
ATOM      6  C   UNL A   1      42.123  19.787  25.805  1.00  0.00     0.338 C 
ATOM      7  O   UNL A   1      42.995  19.324  25.071  1.00  0.00    -0.246 OA
BRANCH   6   8
ATOM      8  C   UNL A   1      42.365  21.138  26.395  1.00  0.00     0.060 A 
ATOM      9  C   UNL A   1      42.391  21.421  27.761  1.00  0.00     0.016 A 
ATOM     10  C   UNL A   1      42.697  22.174  25.505  1.00  0.00     0.016 A 
ATOM     11  C   UNL A   1      42.695  22.686  28.239  1.00  0.00     0.010 A 
ATOM     12  C   UNL A   1      43.034  23.446  25.975  1.00  0.00     0.010 A 
ATOM     13  C   UNL A   1      43.024  23.701  27.349  1.00  0.00    -0.014 A 
BRANCH  13  14
ATOM     14  C   UNL A   1      43.251  25.041  27.908  1.00  0.00     0.031 A 
ATOM     15  C   UNL A   1      44.662  25.501  28.090  1.00  0.00     0.074 A 
ATOM     16  C   UNL A   1      42.204  25.865  28.089  1.00  0.00     0.049 A 
ATOM     17  N   UNL A   1      45.106  26.633  28.563  1.00  0.00    -0.248 NA
ATOM     18  C   UNL A   1      45.715  24.565  27.660  1.00  0.00     0.031 C 
ATOM     19  C   UNL A   1      40.808  25.533  27.790  1.00  0.00     0.029 A 
ATOM     20  N   UNL A   1      42.154  27.160  28.525  1.00  0.00    -0.354 N 
ATOM     21  C   UNL A   1      46.489  26.535  28.514  1.00  0.00     0.074 A 
ATOM     22  C   UNL A   1      46.814  25.238  27.965  1.00  0.00     0.031 C 
ATOM     23  C   UNL A   1      40.042  26.610  28.028  1.00  0.00     0.029 A 
ATOM     24  C   UNL A   1      40.881  27.677  28.558  1.00  0.00     0.049 A 
ATOM     25  H   UNL A   1      42.952  27.672  28.789  1.00  0.00     0.167 HD
ATOM     26  C   UNL A   1      47.403  27.450  28.910  1.00  0.00     0.031 A 
ATOM     27  C   UNL A   1      40.452  28.871  29.005  1.00  0.00     0.031 A 
ATOM     28  C   UNL A   1      47.044  28.722  29.474  1.00  0.00     0.049 A 
ATOM     29  C   UNL A   1      41.480  29.825  29.549  1.00  0.00     0.074 A 
ATOM     30  C   UNL A   1      47.864  29.705  29.991  1.00  0.00     0.029 A 
ATOM     31  N   UNL A   1      45.737  29.179  29.591  1.00  0.00    -0.354 N 
ATOM     32  N   UNL A   1      42.788  29.698  29.578  1.00  0.00    -0.248 NA
ATOM     33  C   UNL A   1      40.980  31.072  30.137  1.00  0.00     0.031 C 
ATOM     34  C   UNL A   1      47.048  30.738  30.468  1.00  0.00     0.029 A 
ATOM     35  C   UNL A   1      45.725  30.423  30.193  1.00  0.00     0.049 A 
ATOM     36  H   UNL A   1      44.938  28.690  29.290  1.00  0.00     0.167 HD
ATOM     37  C   UNL A   1      43.267  30.854  30.176  1.00  0.00     0.074 A 
ATOM     38  C   UNL A   1      42.110  31.679  30.470  1.00  0.00     0.031 C 
ATOM     39  C   UNL A   1      44.545  31.206  30.465  1.00  0.00     0.031 A 
BRANCH  26  40
ATOM     40  C   UNL A   1      48.846  27.045  28.829  1.00  0.00    -0.014 A 
ATOM     41  C   UNL A   1      49.624  27.308  27.689  1.00  0.00     0.009 A 
ATOM     42  C   UNL A   1      49.421  26.337  29.895  1.00  0.00     0.009 A 
ATOM     43  C   UNL A   1      50.935  26.830  27.604  1.00  0.00     0.001 A 
ATOM     44  C   UNL A   1      50.739  25.884  29.818  1.00  0.00     0.001 A 
ATOM     45  C   UNL A   1      51.490  26.119  28.668  1.00  0.00     0.000 A 
ENDBRANCH  26  40
BRANCH  27  46
ATOM     46  C   UNL A   1      39.000  29.196  29.023  1.00  0.00    -0.014 A 
ATOM     47  C   UNL A   1      38.218  28.962  30.162  1.00  0.00     0.009 A 
ATOM     48  C   UNL A   1      38.381  29.737  27.882  1.00  0.00     0.009 A 
ATOM     49  C   UNL A   1      36.847  29.239  30.152  1.00  0.00     0.001 A 
ATOM     50  C   UNL A   1      37.019  30.043  27.883  1.00  0.00     0.001 A 
ATOM     51  C   UNL A   1      36.250  29.784  29.015  1.00  0.00     0.000 A 
ENDBRANCH  27  46
BRANCH  39  52
ATOM     52  C   UNL A   1      44.746  32.548  31.103  1.00  0.00    -0.014 A 
ATOM     53  C   UNL A   1      44.786  32.689  32.499  1.00  0.00     0.009 A 
ATOM     54  C   UNL A   1      44.946  33.675  30.292  1.00  0.00     0.009 A 
ATOM     55  C   UNL A   1      44.997  33.944  33.069  1.00  0.00     0.001 A 
ATOM     56  C   UNL A   1      45.186  34.922  30.866  1.00  0.00     0.001 A 
ATOM     57  C   UNL A   1      45.203  35.057  32.253  1.00  0.00     0.000 A 
ENDBRANCH  39  52
ENDBRANCH  13  14
ENDBRANCH   6   8
ENDBRANCH   5   6
ENDBRANCH   4   5
ENDBRANCH   3   4
ENDBRANCH   2   3
ENDBRANCH   1   2
BRANCH   1  58
ATOM     58  C   UNL A   1      37.071  21.586  24.820  1.00  0.00     0.261 C 
BRANCH  58  59
ATOM     59  O   UNL A   1      35.684  21.963  24.785  1.00  0.00    -0.460 OA
BRANCH  59  60
ATOM     60  C   UNL A   1      34.853  21.217  25.561  1.00  0.00     0.340 C 
ATOM     61  O   UNL A   1      34.700  21.341  26.765  1.00  0.00    -0.246 OA
BRANCH  60  62
ATOM     62  C   UNL A   1      34.025  20.320  24.693  1.00  0.00     0.083 A 
ATOM     63  C   UNL A   1      34.414  18.971  24.646  1.00  0.00     0.018 A 
ATOM     64  C   UNL A   1      32.886  20.758  23.976  1.00  0.00     0.055 A 
ATOM     65  C   UNL A   1      33.680  18.049  23.904  1.00  0.00     0.001 A 
ATOM     66  C   UNL A   1      32.165  19.809  23.236  1.00  0.00     0.027 A 
ATOM     67  C   UNL A   1      32.558  18.469  23.197  1.00  0.00     0.002 A 
BRANCH  64  68
ATOM     68  N   UNL A   1      32.503  22.108  24.008  1.00  0.00    -0.323 N 
ATOM     69  H   UNL A   1      32.742  22.619  23.201  1.00  0.00     0.170 HD
BRANCH  68  70
ATOM     70  C   UNL A   1      31.846  22.842  24.977  1.00  0.00     0.233 A 
ATOM     71  N   UNL A   1      30.848  22.330  25.671  1.00  0.00    -0.182 NA
ATOM     72  N   UNL A   1      32.315  24.076  25.117  1.00  0.00    -0.176 NA
ATOM     73  C   UNL A   1      30.366  23.166  26.574  1.00  0.00     0.228 A 
ATOM     74  C   UNL A   1      31.686  24.851  25.981  1.00  0.00     0.233 A 
ATOM     75  Cl  UNL A   1      29.098  22.573  27.552  1.00  0.00    -0.041 Cl
ATOM     76  N   UNL A   1      30.719  24.422  26.777  1.00  0.00    -0.182 NA
BRANCH  74  77
ATOM     77  N   UNL A   1      32.012  26.204  25.918  1.00  0.00    -0.324 N 
ATOM     78  H   UNL A   1      32.707  26.530  26.534  1.00  0.00     0.170 HD
BRANCH  77  79
ATOM     79  C   UNL A   1      31.434  27.136  25.056  1.00  0.00     0.041 A 
ATOM     80  C   UNL A   1      30.316  26.791  24.294  1.00  0.00     0.028 A 
ATOM     81  C   UNL A   1      31.848  28.468  25.092  1.00  0.00     0.028 A 
ATOM     82  C   UNL A   1      29.581  27.784  23.638  1.00  0.00     0.028 A 
ATOM     83  C   UNL A   1      31.147  29.449  24.402  1.00  0.00     0.028 A 
ATOM     84  C   UNL A   1      29.983  29.124  23.701  1.00  0.00     0.044 A 
BRANCH  84  85
ATOM     85  N   UNL A   1      29.169  30.160  23.161  1.00  0.00    -0.308 N 
ATOM     86  C   UNL A   1      28.496  31.032  24.133  1.00  0.00     0.154 C 
ATOM     87  C   UNL A   1      29.317  30.560  21.828  1.00  0.00     0.253 C 
ATOM     88  C   UNL A   1      27.500  31.987  23.492  1.00  0.00     0.183 C 
ATOM     89  C   UNL A   1      28.563  31.836  21.429  1.00  0.00     0.260 C 
ATOM     90  O   UNL A   1      29.927  29.920  20.968  1.00  0.00    -0.272 OA
ATOM     91  O   UNL A   1      28.149  32.720  22.458  1.00  0.00    -0.370 OA
ENDBRANCH  84  85
ENDBRANCH  77  79
ENDBRANCH  74  77
ENDBRANCH  68  70
ENDBRANCH  64  68
ENDBRANCH  60  62
ENDBRANCH  59  60
ENDBRANCH  58  59
ENDBRANCH   1  58
TORSDOF 19
ENDMDL
MODEL 2
REMARK VINA RESULT:     -11.6      3.223      9.134
REMARK SMILES O=C(OCCOCCOC(=O)c1ccccc1Nc1nc(Cl)nc(Nc2ccc(N3CCOCC3=O)cc2)n1)c1ccc(-c2c3nc(c(-c4ccccc4)c4ccc([nH]4)c(-c4ccccc4)c4nc(c(-c5ccccc5)c5ccc2[nH]5)C=C4)C=C3)cc1
REMARK SMILES IDX 7 1 6 2 5 3 4 4 3 5 2 6 1 7 40 8 41 9 87 10 42 11 86 12
REMARK SMILES IDX 43 13 44 14 45 15 80 16 46 17 85 18 79 19 81 20 47 21 84 22
REMARK SMILES IDX 78 23 77 24 48 26 70 27 55 28 69 29 56 30 59 31 68 32 82 33
REMARK SMILES IDX 57 34 58 35 67 37 83 38 60 39 49 40 50 41 54 42 51 43 53 44
REMARK SMILES IDX 52 45 71 46 72 47 76 48 73 49 75 50 74 51 61 52 62 53 66 54
REMARK SMILES IDX 63 55 65 56 64 57 8 58 9 59 10 60 11 61 12 62 13 63 17 64
REMARK SMILES IDX 14 65 16 66 15 67 18 68 19 70 20 71 39 72 21 73 24 74 22 75
REMARK SMILES IDX 23 76 25 77 26 79 27 80 38 81 28 82 37 83 29 84 30 85 31 86
REMARK SMILES IDX 35 87 32 88 34 89 36 90 33 91
REMARK H PARENT 81 25 59 36 18 69 25 78
REMARK Flexibility Score: inf
ROOT
ATOM      1  C   UNL A   1      34.046  34.696  29.186  1.00  0.00     0.202 C 
ENDROOT
BRANCH   1   2
ATOM      2  O   UNL A   1      35.419  34.860  28.817  1.00  0.00    -0.374 OA
BRANCH   2   3
ATOM      3  C   UNL A   1      36.304  33.798  29.170  1.00  0.00     0.202 C 
BRANCH   3   4
ATOM      4  C   UNL A   1      36.019  33.193  30.544  1.00  0.00     0.261 C 
BRANCH   4   5
ATOM      5  O   UNL A   1      35.818  31.775  30.426  1.00  0.00    -0.460 OA
BRANCH   5   6
ATOM      6  C   UNL A   1      36.503  30.773  31.019  1.00  0.00     0.338 C 
ATOM      7  O   UNL A   1      35.990  30.196  31.977  1.00  0.00    -0.246 OA
BRANCH   6   8
ATOM      8  C   UNL A   1      37.858  30.318  30.586  1.00  0.00     0.060 A 
ATOM      9  C   UNL A   1      38.821  29.757  31.425  1.00  0.00     0.016 A 
ATOM     10  C   UNL A   1      38.136  30.362  29.208  1.00  0.00     0.016 A 
ATOM     11  C   UNL A   1      40.031  29.289  30.939  1.00  0.00     0.010 A 
ATOM     12  C   UNL A   1      39.340  29.867  28.701  1.00  0.00     0.010 A 
ATOM     13  C   UNL A   1      40.292  29.335  29.576  1.00  0.00    -0.014 A 
BRANCH  13  14
ATOM     14  C   UNL A   1      41.625  28.907  29.129  1.00  0.00     0.031 A 
ATOM     15  C   UNL A   1      41.792  27.500  28.649  1.00  0.00     0.074 A 
ATOM     16  C   UNL A   1      42.607  29.818  29.016  1.00  0.00     0.049 A 
ATOM     17  N   UNL A   1      42.864  26.898  28.213  1.00  0.00    -0.248 NA
ATOM     18  C   UNL A   1      40.578  26.665  28.641  1.00  0.00     0.031 C 
ATOM     19  C   UNL A   1      42.473  31.245  29.326  1.00  0.00     0.029 A 
ATOM     20  N   UNL A   1      43.894  29.692  28.570  1.00  0.00    -0.354 N 
ATOM     21  C   UNL A   1      42.461  25.607  27.904  1.00  0.00     0.074 A 
ATOM     22  C   UNL A   1      41.050  25.509  28.200  1.00  0.00     0.031 C 
ATOM     23  C   UNL A   1      43.628  31.866  29.035  1.00  0.00     0.029 A 
ATOM     24  C   UNL A   1      44.596  30.873  28.587  1.00  0.00     0.049 A 
ATOM     25  H   UNL A   1      44.280  28.839  28.268  1.00  0.00     0.167 HD
ATOM     26  C   UNL A   1      43.217  24.591  27.428  1.00  0.00     0.031 A 
ATOM     27  C   UNL A   1      45.890  31.105  28.301  1.00  0.00     0.031 A 
ATOM     28  C   UNL A   1      44.624  24.716  27.168  1.00  0.00     0.049 A 
ATOM     29  C   UNL A   1      46.736  29.932  27.887  1.00  0.00     0.074 A 
ATOM     30  C   UNL A   1      45.522  23.749  26.766  1.00  0.00     0.029 A 
ATOM     31  N   UNL A   1      45.334  25.905  27.292  1.00  0.00    -0.354 N 
ATOM     32  N   UNL A   1      46.371  28.688  27.672  1.00  0.00    -0.248 NA
ATOM     33  C   UNL A   1      48.168  30.185  27.694  1.00  0.00     0.031 C 
ATOM     34  C   UNL A   1      46.789  24.342  26.694  1.00  0.00     0.029 A 
ATOM     35  C   UNL A   1      46.667  25.691  26.994  1.00  0.00     0.049 A 
ATOM     36  H   UNL A   1      44.946  26.771  27.552  1.00  0.00     0.167 HD
ATOM     37  C   UNL A   1      47.526  28.012  27.308  1.00  0.00     0.074 A 
ATOM     38  C   UNL A   1      48.596  28.992  27.306  1.00  0.00     0.031 C 
ATOM     39  C   UNL A   1      47.696  26.700  27.007  1.00  0.00     0.031 A 
BRANCH  26  40
ATOM     40  C   UNL A   1      42.540  23.261  27.268  1.00  0.00    -0.014 A 
ATOM     41  C   UNL A   1      42.456  22.342  28.326  1.00  0.00     0.009 A 
ATOM     42  C   UNL A   1      42.024  22.901  26.013  1.00  0.00     0.009 A 
ATOM     43  C   UNL A   1      41.909  21.072  28.118  1.00  0.00     0.001 A 
ATOM     44  C   UNL A   1      41.454  21.642  25.815  1.00  0.00     0.001 A 
ATOM     45  C   UNL A   1      41.409  20.725  26.863  1.00  0.00     0.000 A 
ENDBRANCH  26  40
BRANCH  27  46
ATOM     46  C   UNL A   1      46.470  32.466  28.465  1.00  0.00    -0.014 A 
ATOM     47  C   UNL A   1      46.460  33.390  27.411  1.00  0.00     0.009 A 
ATOM     48  C   UNL A   1      47.054  32.844  29.687  1.00  0.00     0.009 A 
ATOM     49  C   UNL A   1      47.042  34.653  27.569  1.00  0.00     0.001 A 
ATOM     50  C   UNL A   1      47.606  34.116  29.853  1.00  0.00     0.001 A 
ATOM     51  C   UNL A   1      47.609  35.017  28.790  1.00  0.00     0.000 A 
ENDBRANCH  27  46
BRANCH  39  52
ATOM     52  C   UNL A   1      49.081  26.271  26.625  1.00  0.00    -0.014 A 
ATOM     53  C   UNL A   1      49.558  26.443  25.317  1.00  0.00     0.009 A 
ATOM     54  C   UNL A   1      49.932  25.735  27.603  1.00  0.00     0.009 A 
ATOM     55  C   UNL A   1      50.859  26.057  24.990  1.00  0.00     0.001 A 
ATOM     56  C   UNL A   1      51.240  25.378  27.280  1.00  0.00     0.001 A 
ATOM     57  C   UNL A   1      51.699  25.531  25.972  1.00  0.00     0.000 A 
ENDBRANCH  39  52
ENDBRANCH  13  14
ENDBRANCH   6   8
ENDBRANCH   5   6
ENDBRANCH   4   5
ENDBRANCH   3   4
ENDBRANCH   2   3
ENDBRANCH   1   2
BRANCH   1  58
ATOM     58  C   UNL A   1      33.292  34.135  27.976  1.00  0.00     0.261 C 
BRANCH  58  59
ATOM     59  O   UNL A   1      33.437  32.705  27.984  1.00  0.00    -0.460 OA
BRANCH  59  60
ATOM     60  C   UNL A   1      32.530  32.019  27.237  1.00  0.00     0.340 C 
ATOM     61  O   UNL A   1      31.470  32.458  26.824  1.00  0.00    -0.246 OA
BRANCH  60  62
ATOM     62  C   UNL A   1      33.099  30.688  26.854  1.00  0.00     0.083 A 
ATOM     63  C   UNL A   1      34.184  30.233  27.622  1.00  0.00     0.018 A 
ATOM     64  C   UNL A   1      32.580  29.885  25.810  1.00  0.00     0.055 A 
ATOM     65  C   UNL A   1      34.753  28.985  27.374  1.00  0.00     0.001 A 
ATOM     66  C   UNL A   1      33.172  28.634  25.580  1.00  0.00     0.027 A 
ATOM     67  C   UNL A   1      34.249  28.189  26.352  1.00  0.00     0.002 A 
BRANCH  64  68
ATOM     68  N   UNL A   1      31.507  30.342  25.029  1.00  0.00    -0.323 N 
ATOM     69  H   UNL A   1      31.196  31.249  25.254  1.00  0.00     0.170 HD
BRANCH  68  70
ATOM     70  C   UNL A   1      30.812  29.737  23.999  1.00  0.00     0.233 A 
ATOM     71  N   UNL A   1      29.560  30.056  23.732  1.00  0.00    -0.182 NA
ATOM     72  N   UNL A   1      31.523  28.831  23.340  1.00  0.00    -0.176 NA
ATOM     73  C   UNL A   1      29.072  29.401  22.694  1.00  0.00     0.228 A 
ATOM     74  C   UNL A   1      30.894  28.169  22.386  1.00  0.00     0.233 A 
ATOM     75  Cl  UNL A   1      27.469  29.782  22.246  1.00  0.00    -0.041 Cl
ATOM     76  N   UNL A   1      29.663  28.453  21.990  1.00  0.00    -0.182 NA
BRANCH  74  77
ATOM     77  N   UNL A   1      31.561  27.048  21.896  1.00  0.00    -0.324 N 
ATOM     78  H   UNL A   1      31.825  27.059  20.947  1.00  0.00     0.170 HD
BRANCH  77  79
ATOM     79  C   UNL A   1      31.886  25.912  22.636  1.00  0.00     0.041 A 
ATOM     80  C   UNL A   1      33.219  25.619  22.929  1.00  0.00     0.028 A 
ATOM     81  C   UNL A   1      30.876  25.170  23.250  1.00  0.00     0.028 A 
ATOM     82  C   UNL A   1      33.531  24.644  23.881  1.00  0.00     0.028 A 
ATOM     83  C   UNL A   1      31.185  24.167  24.160  1.00  0.00     0.028 A 
ATOM     84  C   UNL A   1      32.513  23.921  24.516  1.00  0.00     0.044 A 
BRANCH  84  85
ATOM     85  N   UNL A   1      32.806  23.030  25.588  1.00  0.00    -0.308 N 
ATOM     86  C   UNL A   1      33.893  22.070  25.357  1.00  0.00     0.154 C 
ATOM     87  C   UNL A   1      32.366  23.310  26.887  1.00  0.00     0.253 C 
ATOM     88  C   UNL A   1      34.021  21.032  26.462  1.00  0.00     0.183 C 
ATOM     89  C   UNL A   1      32.941  22.411  27.992  1.00  0.00     0.260 C 
ATOM     90  O   UNL A   1      31.509  24.149  27.171  1.00  0.00    -0.272 OA
ATOM     91  O   UNL A   1      34.133  21.693  27.719  1.00  0.00    -0.370 OA
ENDBRANCH  84  85
ENDBRANCH  77  79
ENDBRANCH  74  77
ENDBRANCH  68  70
ENDBRANCH  64  68
ENDBRANCH  60  62
ENDBRANCH  59  60
ENDBRANCH  58  59
ENDBRANCH   1  58
TORSDOF 19
ENDMDL
MODEL 3
REMARK VINA RESULT:     -11.4      3.722      7.551
REMARK SMILES O=C(OCCOCCOC(=O)c1ccccc1Nc1nc(Cl)nc(Nc2ccc(N3CCOCC3=O)cc2)n1)c1ccc(-c2c3nc(c(-c4ccccc4)c4ccc([nH]4)c(-c4ccccc4)c4nc(c(-c5ccccc5)c5ccc2[nH]5)C=C4)C=C3)cc1
REMARK SMILES IDX 7 1 6 2 5 3 4 4 3 5 2 6 1 7 40 8 41 9 87 10 42 11 86 12
REMARK SMILES IDX 43 13 44 14 45 15 80 16 46 17 85 18 79 19 81 20 47 21 84 22
REMARK SMILES IDX 78 23 77 24 48 26 70 27 55 28 69 29 56 30 59 31 68 32 82 33
REMARK SMILES IDX 57 34 58 35 67 37 83 38 60 39 49 40 50 41 54 42 51 43 53 44
REMARK SMILES IDX 52 45 71 46 72 47 76 48 73 49 75 50 74 51 61 52 62 53 66 54
REMARK SMILES IDX 63 55 65 56 64 57 8 58 9 59 10 60 11 61 12 62 13 63 17 64
REMARK SMILES IDX 14 65 16 66 15 67 18 68 19 70 20 71 39 72 21 73 24 74 22 75
REMARK SMILES IDX 23 76 25 77 26 79 27 80 38 81 28 82 37 83 29 84 30 85 31 86
REMARK SMILES IDX 35 87 32 88 34 89 36 90 33 91
REMARK H PARENT 81 25 59 36 18 69 25 78
REMARK Flexibility Score: inf
ROOT
ATOM      1  C   UNL A   1      38.649  21.893  25.976  1.00  0.00     0.202 C 
ENDROOT
BRANCH   1   2
ATOM      2  O   UNL A   1      39.364  20.654  25.955  1.00  0.00    -0.374 OA
BRANCH   2   3
ATOM      3  C   UNL A   1      40.728  20.699  26.368  1.00  0.00     0.202 C 
BRANCH   3   4
ATOM      4  C   UNL A   1      41.010  21.753  27.439  1.00  0.00     0.261 C 
BRANCH   4   5
ATOM      5  O   UNL A   1      41.909  22.749  26.925  1.00  0.00    -0.460 OA
BRANCH   5   6
ATOM      6  C   UNL A   1      41.671  24.058  26.688  1.00  0.00     0.338 C 
ATOM      7  O   UNL A   1      40.507  24.431  26.554  1.00  0.00    -0.246 OA
BRANCH   6   8
ATOM      8  C   UNL A   1      42.743  25.093  26.573  1.00  0.00     0.060 A 
ATOM      9  C   UNL A   1      43.086  25.763  25.398  1.00  0.00     0.016 A 
ATOM     10  C   UNL A   1      43.374  25.493  27.763  1.00  0.00     0.016 A 
ATOM     11  C   UNL A   1      44.042  26.766  25.381  1.00  0.00     0.010 A 
ATOM     12  C   UNL A   1      44.319  26.523  27.765  1.00  0.00     0.010 A 
ATOM     13  C   UNL A   1      44.657  27.155  26.564  1.00  0.00    -0.014 A 
BRANCH  13  14
ATOM     14  C   UNL A   1      45.725  28.160  26.471  1.00  0.00     0.031 A 
ATOM     15  C   UNL A   1      45.357  29.599  26.644  1.00  0.00     0.074 A 
ATOM     16  C   UNL A   1      47.005  27.756  26.393  1.00  0.00     0.049 A 
ATOM     17  N   UNL A   1      46.120  30.657  26.601  1.00  0.00    -0.248 NA
ATOM     18  C   UNL A   1      43.939  29.882  26.925  1.00  0.00     0.031 C 
ATOM     19  C   UNL A   1      47.449  26.359  26.371  1.00  0.00     0.029 A 
ATOM     20  N   UNL A   1      48.166  28.478  26.362  1.00  0.00    -0.354 N 
ATOM     21  C   UNL A   1      45.271  31.732  26.822  1.00  0.00     0.074 A 
ATOM     22  C   UNL A   1      43.938  31.204  26.999  1.00  0.00     0.031 C 
ATOM     23  C   UNL A   1      48.792  26.328  26.356  1.00  0.00     0.029 A 
ATOM     24  C   UNL A   1      49.294  27.695  26.297  1.00  0.00     0.049 A 
ATOM     25  H   UNL A   1      48.193  29.461  26.383  1.00  0.00     0.167 HD
ATOM     26  C   UNL A   1      45.586  33.047  26.856  1.00  0.00     0.031 A 
ATOM     27  C   UNL A   1      50.583  28.057  26.170  1.00  0.00     0.031 A 
ATOM     28  C   UNL A   1      46.920  33.539  26.651  1.00  0.00     0.049 A 
ATOM     29  C   UNL A   1      50.892  29.528  26.093  1.00  0.00     0.074 A 
ATOM     30  C   UNL A   1      47.362  34.844  26.577  1.00  0.00     0.029 A 
ATOM     31  N   UNL A   1      48.032  32.723  26.486  1.00  0.00    -0.354 N 
ATOM     32  N   UNL A   1      50.075  30.549  26.220  1.00  0.00    -0.248 NA
ATOM     33  C   UNL A   1      52.288  29.897  25.837  1.00  0.00     0.031 C 
ATOM     34  C   UNL A   1      48.738  34.818  26.317  1.00  0.00     0.029 A 
ATOM     35  C   UNL A   1      49.160  33.496  26.288  1.00  0.00     0.049 A 
ATOM     36  H   UNL A   1      48.019  31.739  26.506  1.00  0.00     0.167 HD
ATOM     37  C   UNL A   1      50.859  31.683  26.072  1.00  0.00     0.074 A 
ATOM     38  C   UNL A   1      52.220  31.221  25.871  1.00  0.00     0.031 C 
ATOM     39  C   UNL A   1      50.495  32.989  26.092  1.00  0.00     0.031 A 
BRANCH  26  40
ATOM     40  C   UNL A   1      44.448  34.011  27.023  1.00  0.00    -0.014 A 
ATOM     41  C   UNL A   1      43.775  34.559  25.919  1.00  0.00     0.009 A 
ATOM     42  C   UNL A   1      44.080  34.422  28.314  1.00  0.00     0.009 A 
ATOM     43  C   UNL A   1      42.787  35.530  26.104  1.00  0.00     0.001 A 
ATOM     44  C   UNL A   1      43.075  35.372  28.497  1.00  0.00     0.001 A 
ATOM     45  C   UNL A   1      42.438  35.935  27.392  1.00  0.00     0.000 A 
ENDBRANCH  26  40
BRANCH  27  46
ATOM     46  C   UNL A   1      51.650  27.028  26.037  1.00  0.00    -0.014 A 
ATOM     47  C   UNL A   1      52.366  26.577  27.154  1.00  0.00     0.009 A 
ATOM     48  C   UNL A   1      51.968  26.497  24.775  1.00  0.00     0.009 A 
ATOM     49  C   UNL A   1      53.391  25.636  27.008  1.00  0.00     0.001 A 
ATOM     50  C   UNL A   1      52.969  25.534  24.634  1.00  0.00     0.001 A 
ATOM     51  C   UNL A   1      53.688  25.112  25.750  1.00  0.00     0.000 A 
ENDBRANCH  27  46
BRANCH  39  52
ATOM     52  C   UNL A   1      51.592  33.997  25.921  1.00  0.00    -0.014 A 
ATOM     53  C   UNL A   1      51.930  34.493  24.652  1.00  0.00     0.009 A 
ATOM     54  C   UNL A   1      52.260  34.490  27.052  1.00  0.00     0.009 A 
ATOM     55  C   UNL A   1      52.939  35.447  24.520  1.00  0.00     0.001 A 
ATOM     56  C   UNL A   1      53.246  35.465  26.918  1.00  0.00     0.001 A 
ATOM     57  C   UNL A   1      53.591  35.936  25.653  1.00  0.00     0.000 A 
ENDBRANCH  39  52
ENDBRANCH  13  14
ENDBRANCH   6   8
ENDBRANCH   5   6
ENDBRANCH   4   5
ENDBRANCH   3   4
ENDBRANCH   2   3
ENDBRANCH   1   2
BRANCH   1  58
ATOM     58  C   UNL A   1      37.529  21.815  24.933  1.00  0.00     0.261 C 
BRANCH  58  59
ATOM     59  O   UNL A   1      36.656  20.733  25.297  1.00  0.00    -0.460 OA
BRANCH  59  60
ATOM     60  C   UNL A   1      35.399  21.095  25.674  1.00  0.00     0.340 C 
ATOM     61  O   UNL A   1      35.119  21.998  26.445  1.00  0.00    -0.246 OA
BRANCH  60  62
ATOM     62  C   UNL A   1      34.394  20.324  24.875  1.00  0.00     0.083 A 
ATOM     63  C   UNL A   1      34.642  18.949  24.727  1.00  0.00     0.018 A 
ATOM     64  C   UNL A   1      33.229  20.901  24.316  1.00  0.00     0.055 A 
ATOM     65  C   UNL A   1      33.740  18.138  24.041  1.00  0.00     0.001 A 
ATOM     66  C   UNL A   1      32.338  20.063  23.629  1.00  0.00     0.027 A 
ATOM     67  C   UNL A   1      32.592  18.696  23.490  1.00  0.00     0.002 A 
BRANCH  64  68
ATOM     68  N   UNL A   1      32.985  22.278  24.447  1.00  0.00    -0.323 N 
ATOM     69  H   UNL A   1      33.625  22.853  23.969  1.00  0.00     0.170 HD
BRANCH  68  70
ATOM     70  C   UNL A   1      32.001  22.964  25.133  1.00  0.00     0.233 A 
ATOM     71  N   UNL A   1      31.128  22.336  25.898  1.00  0.00    -0.182 NA
ATOM     72  N   UNL A   1      32.032  24.276  24.936  1.00  0.00    -0.176 NA
ATOM     73  C   UNL A   1      30.285  23.156  26.499  1.00  0.00     0.228 A 
ATOM     74  C   UNL A   1      31.075  24.981  25.510  1.00  0.00     0.233 A 
ATOM     75  Cl  UNL A   1      29.145  22.434  27.545  1.00  0.00    -0.041 Cl
ATOM     76  N   UNL A   1      30.191  24.465  26.350  1.00  0.00    -0.182 NA
BRANCH  74  77
ATOM     77  N   UNL A   1      30.963  26.301  25.077  1.00  0.00    -0.324 N 
ATOM     78  H   UNL A   1      30.357  26.478  24.321  1.00  0.00     0.170 HD
BRANCH  77  79
ATOM     79  C   UNL A   1      31.637  27.392  25.624  1.00  0.00     0.041 A 
ATOM     80  C   UNL A   1      31.475  27.715  26.973  1.00  0.00     0.028 A 
ATOM     81  C   UNL A   1      32.619  28.047  24.881  1.00  0.00     0.028 A 
ATOM     82  C   UNL A   1      32.339  28.630  27.584  1.00  0.00     0.028 A 
ATOM     83  C   UNL A   1      33.447  28.992  25.474  1.00  0.00     0.028 A 
ATOM     84  C   UNL A   1      33.342  29.264  26.841  1.00  0.00     0.044 A 
BRANCH  84  85
ATOM     85  N   UNL A   1      34.317  30.085  27.475  1.00  0.00    -0.308 N 
ATOM     86  C   UNL A   1      35.668  29.523  27.588  1.00  0.00     0.154 C 
ATOM     87  C   UNL A   1      34.104  31.461  27.618  1.00  0.00     0.253 C 
ATOM     88  C   UNL A   1      36.602  30.370  28.441  1.00  0.00     0.183 C 
ATOM     89  C   UNL A   1      35.315  32.276  28.096  1.00  0.00     0.260 C 
ATOM     90  O   UNL A   1      33.015  32.021  27.471  1.00  0.00    -0.272 OA
ATOM     91  O   UNL A   1      36.605  31.706  27.950  1.00  0.00    -0.370 OA
ENDBRANCH  84  85
ENDBRANCH  77  79
ENDBRANCH  74  77
ENDBRANCH  68  70
ENDBRANCH  64  68
ENDBRANCH  60  62
ENDBRANCH  59  60
ENDBRANCH  58  59
ENDBRANCH   1  58
TORSDOF 19
ENDMDL
