MODEL 1
REMARK VINA RESULT:      -9.2      0.000      0.000
REMARK SMILES N#C[C@H]1CN(C(=O)[C@H]([NH3+])CC(=O)OCCOCCOC(=O)c2ccc(-c3c4nc(c(-c5ccccc5)c5ccc([nH]5)c(-c5ccccc5)c5nc(c(-c6ccccc6)c6ccc3[nH]6)C=C5)C=C4)cc2)CCO1
REMARK SMILES IDX 15 1 14 2 13 3 11 4 12 5 10 6 8 7 6 8 7 9 5 10 3 11 4 12
REMARK SMILES IDX 72 13 71 14 70 15 2 16 1 17 9 18 16 22 17 23 18 24 19 25
REMARK SMILES IDX 20 26 21 27 22 28 23 29 69 30 24 31 68 32 25 33 26 34 27 35
REMARK SMILES IDX 62 36 28 37 67 38 61 39 63 40 29 41 66 42 60 43 59 44 30 46
REMARK SMILES IDX 52 47 37 48 51 49 38 50 41 51 50 52 64 53 39 54 40 55 49 57
REMARK SMILES IDX 65 58 42 59 31 60 32 61 36 62 33 63 35 64 34 65 53 66 54 67
REMARK SMILES IDX 58 68 55 69 57 70 56 71 43 72 44 73 48 74 45 75 47 76 46 77
REMARK H PARENT 9 19 9 20 9 21 63 45 41 56
REMARK Flexibility Score: inf
ROOT
ATOM      1  C   UNL A   1      33.677  21.146  24.788  1.00  0.00     0.202 C 
ENDROOT
BRANCH   1   2
ATOM      2  C   UNL A   1      32.314  21.800  24.553  1.00  0.00     0.261 C 
BRANCH   2   3
ATOM      3  O   UNL A   1      31.342  21.341  25.503  1.00  0.00    -0.463 OA
BRANCH   3   4
ATOM      4  C   UNL A   1      30.652  22.319  26.131  1.00  0.00     0.312 C 
ATOM      5  O   UNL A   1      29.552  22.180  26.652  1.00  0.00    -0.252 OA
BRANCH   4   6
ATOM      6  C   UNL A   1      31.344  23.654  26.115  1.00  0.00     0.198 C 
BRANCH   6   7
ATOM      7  C   UNL A   1      30.596  24.941  25.728  1.00  0.00     0.282 C 
BRANCH   7   8
ATOM      8  C   UNL A   1      31.510  26.150  26.049  1.00  0.00     0.281 C 
ATOM      9  O   UNL A   1      31.381  26.730  27.130  1.00  0.00    -0.268 OA
BRANCH   8  10
ATOM     10  N   UNL A   1      32.428  26.587  25.105  1.00  0.00    -0.332 N 
ATOM     11  C   UNL A   1      32.362  26.663  22.646  1.00  0.00     0.240 C 
ATOM     12  C   UNL A   1      32.865  25.890  23.884  1.00  0.00     0.167 C 
ATOM     13  O   UNL A   1      32.877  28.014  22.682  1.00  0.00    -0.360 OA
ATOM     14  C   UNL A   1      32.429  28.703  23.868  1.00  0.00     0.183 C 
ATOM     15  C   UNL A   1      32.889  27.980  25.144  1.00  0.00     0.148 C 
BRANCH  11  16
ATOM     16  C   UNL A   1      32.768  25.955  21.424  1.00  0.00     0.096 C 
ATOM     17  N   UNL A   1      33.029  25.347  20.467  1.00  0.00    -0.195 NA
ENDBRANCH  11  16
ENDBRANCH   8  10
ENDBRANCH   7   8
BRANCH   7  18
ATOM     18  N   UNL A   1      29.240  25.184  26.235  1.00  0.00    -0.347 N 
ATOM     19  H   UNL A   1      28.755  25.832  25.613  1.00  0.00     0.345 HD
ATOM     20  H   UNL A   1      29.293  25.587  27.170  1.00  0.00     0.345 HD
ATOM     21  H   UNL A   1      28.727  24.303  26.273  1.00  0.00     0.345 HD
ENDBRANCH   7  18
ENDBRANCH   6   7
ENDBRANCH   4   6
ENDBRANCH   3   4
ENDBRANCH   2   3
ENDBRANCH   1   2
BRANCH   1  22
ATOM     22  O   UNL A   1      34.358  21.422  26.009  1.00  0.00    -0.374 OA
BRANCH  22  23
ATOM     23  C   UNL A   1      35.738  21.778  25.950  1.00  0.00     0.202 C 
BRANCH  23  24
ATOM     24  C   UNL A   1      36.736  20.805  25.303  1.00  0.00     0.261 C 
BRANCH  24  25
ATOM     25  O   UNL A   1      38.011  21.401  25.013  1.00  0.00    -0.460 OA
BRANCH  25  26
ATOM     26  C   UNL A   1      38.984  21.105  25.908  1.00  0.00     0.338 C 
ATOM     27  O   UNL A   1      39.483  20.013  26.123  1.00  0.00    -0.246 OA
BRANCH  26  28
ATOM     28  C   UNL A   1      39.543  22.345  26.477  1.00  0.00     0.060 A 
ATOM     29  C   UNL A   1      39.014  23.558  26.018  1.00  0.00     0.016 A 
ATOM     30  C   UNL A   1      40.612  22.331  27.372  1.00  0.00     0.016 A 
ATOM     31  C   UNL A   1      39.577  24.765  26.422  1.00  0.00     0.010 A 
ATOM     32  C   UNL A   1      41.184  23.545  27.770  1.00  0.00     0.010 A 
ATOM     33  C   UNL A   1      40.688  24.766  27.275  1.00  0.00    -0.014 A 
BRANCH  33  34
ATOM     34  C   UNL A   1      41.376  26.043  27.580  1.00  0.00     0.031 A 
ATOM     35  C   UNL A   1      40.709  27.059  28.466  1.00  0.00     0.074 A 
ATOM     36  C   UNL A   1      42.605  26.284  27.087  1.00  0.00     0.049 A 
ATOM     37  N   UNL A   1      41.125  28.248  28.820  1.00  0.00    -0.248 NA
ATOM     38  C   UNL A   1      39.401  26.685  29.028  1.00  0.00     0.031 C 
ATOM     39  C   UNL A   1      43.379  25.359  26.259  1.00  0.00     0.029 A 
ATOM     40  N   UNL A   1      43.415  27.384  27.212  1.00  0.00    -0.354 N 
ATOM     41  C   UNL A   1      40.127  28.771  29.633  1.00  0.00     0.074 A 
ATOM     42  C   UNL A   1      39.072  27.781  29.696  1.00  0.00     0.031 C 
ATOM     43  C   UNL A   1      44.553  25.932  25.948  1.00  0.00     0.029 A 
ATOM     44  C   UNL A   1      44.593  27.279  26.512  1.00  0.00     0.049 A 
ATOM     45  H   UNL A   1      43.177  28.173  27.750  1.00  0.00     0.167 HD
ATOM     46  C   UNL A   1      40.092  29.966  30.270  1.00  0.00     0.031 A 
ATOM     47  C   UNL A   1      45.578  28.177  26.321  1.00  0.00     0.031 A 
ATOM     48  C   UNL A   1      41.135  30.957  30.190  1.00  0.00     0.049 A 
ATOM     49  C   UNL A   1      45.470  29.535  26.962  1.00  0.00     0.074 A 
ATOM     50  C   UNL A   1      41.201  32.191  30.814  1.00  0.00     0.029 A 
ATOM     51  N   UNL A   1      42.287  30.835  29.428  1.00  0.00    -0.354 N 
ATOM     52  N   UNL A   1      44.536  30.006  27.752  1.00  0.00    -0.248 NA
ATOM     53  C   UNL A   1      46.558  30.483  26.687  1.00  0.00     0.031 C 
ATOM     54  C   UNL A   1      42.352  32.847  30.368  1.00  0.00     0.029 A 
ATOM     55  C   UNL A   1      43.048  31.988  29.533  1.00  0.00     0.049 A 
ATOM     56  H   UNL A   1      42.529  30.045  28.892  1.00  0.00     0.167 HD
ATOM     57  C   UNL A   1      44.938  31.293  28.092  1.00  0.00     0.074 A 
ATOM     58  C   UNL A   1      46.213  31.517  27.440  1.00  0.00     0.031 C 
ATOM     59  C   UNL A   1      44.311  32.206  28.873  1.00  0.00     0.031 A 
BRANCH  46  60
ATOM     60  C   UNL A   1      38.864  30.293  31.079  1.00  0.00    -0.014 A 
ATOM     61  C   UNL A   1      38.780  29.987  32.446  1.00  0.00     0.009 A 
ATOM     62  C   UNL A   1      37.791  30.963  30.468  1.00  0.00     0.009 A 
ATOM     63  C   UNL A   1      37.633  30.313  33.175  1.00  0.00     0.001 A 
ATOM     64  C   UNL A   1      36.661  31.318  31.208  1.00  0.00     0.001 A 
ATOM     65  C   UNL A   1      36.578  30.984  32.557  1.00  0.00     0.000 A 
ENDBRANCH  46  60
BRANCH  47  66
ATOM     66  C   UNL A   1      46.741  27.836  25.459  1.00  0.00    -0.014 A 
ATOM     67  C   UNL A   1      46.684  28.017  24.070  1.00  0.00     0.009 A 
ATOM     68  C   UNL A   1      47.911  27.304  26.024  1.00  0.00     0.009 A 
ATOM     69  C   UNL A   1      47.761  27.644  23.262  1.00  0.00     0.001 A 
ATOM     70  C   UNL A   1      49.001  26.966  25.219  1.00  0.00     0.001 A 
ATOM     71  C   UNL A   1      48.919  27.126  23.837  1.00  0.00     0.000 A 
ENDBRANCH  47  66
BRANCH  59  72
ATOM     72  C   UNL A   1      45.010  33.521  29.098  1.00  0.00    -0.014 A 
ATOM     73  C   UNL A   1      45.933  33.695  30.141  1.00  0.00     0.009 A 
ATOM     74  C   UNL A   1      44.764  34.595  28.227  1.00  0.00     0.009 A 
ATOM     75  C   UNL A   1      46.560  34.928  30.333  1.00  0.00     0.001 A 
ATOM     76  C   UNL A   1      45.421  35.814  28.397  1.00  0.00     0.001 A 
ATOM     77  C   UNL A   1      46.309  35.983  29.458  1.00  0.00     0.000 A 
ENDBRANCH  59  72
ENDBRANCH  33  34
ENDBRANCH  26  28
ENDBRANCH  25  26
ENDBRANCH  24  25
ENDBRANCH  23  24
ENDBRANCH  22  23
ENDBRANCH   1  22
TORSDOF 19
ENDMDL
MODEL 2
REMARK VINA RESULT:      -9.1      3.851      9.286
REMARK SMILES N#C[C@H]1CN(C(=O)[C@H]([NH3+])CC(=O)OCCOCCOC(=O)c2ccc(-c3c4nc(c(-c5ccccc5)c5ccc([nH]5)c(-c5ccccc5)c5nc(c(-c6ccccc6)c6ccc3[nH]6)C=C5)C=C4)cc2)CCO1
REMARK SMILES IDX 15 1 14 2 13 3 11 4 12 5 10 6 8 7 6 8 7 9 5 10 3 11 4 12
REMARK SMILES IDX 72 13 71 14 70 15 2 16 1 17 9 18 16 22 17 23 18 24 19 25
REMARK SMILES IDX 20 26 21 27 22 28 23 29 69 30 24 31 68 32 25 33 26 34 27 35
REMARK SMILES IDX 62 36 28 37 67 38 61 39 63 40 29 41 66 42 60 43 59 44 30 46
REMARK SMILES IDX 52 47 37 48 51 49 38 50 41 51 50 52 64 53 39 54 40 55 49 57
REMARK SMILES IDX 65 58 42 59 31 60 32 61 36 62 33 63 35 64 34 65 53 66 54 67
REMARK SMILES IDX 58 68 55 69 57 70 56 71 43 72 44 73 48 74 45 75 47 76 46 77
REMARK H PARENT 9 19 9 20 9 21 63 45 41 56
REMARK Flexibility Score: inf
ROOT
ATOM      1  C   UNL A   1      33.125  29.606  25.866  1.00  0.00     0.202 C 
ENDROOT
BRANCH   1   2
ATOM      2  C   UNL A   1      32.826  29.154  24.434  1.00  0.00     0.261 C 
BRANCH   2   3
ATOM      3  O   UNL A   1      31.552  28.503  24.346  1.00  0.00    -0.463 OA
BRANCH   3   4
ATOM      4  C   UNL A   1      31.588  27.157  24.463  1.00  0.00     0.312 C 
ATOM      5  O   UNL A   1      30.845  26.492  25.173  1.00  0.00    -0.252 OA
BRANCH   4   6
ATOM      6  C   UNL A   1      32.675  26.509  23.649  1.00  0.00     0.198 C 
BRANCH   6   7
ATOM      7  C   UNL A   1      32.435  25.187  22.900  1.00  0.00     0.282 C 
BRANCH   7   8
ATOM      8  C   UNL A   1      33.528  24.177  23.335  1.00  0.00     0.281 C 
ATOM      9  O   UNL A   1      34.607  24.167  22.738  1.00  0.00    -0.268 OA
BRANCH   8  10
ATOM     10  N   UNL A   1      33.263  23.277  24.357  1.00  0.00    -0.332 N 
ATOM     11  C   UNL A   1      31.179  22.637  25.498  1.00  0.00     0.240 C 
ATOM     12  C   UNL A   1      32.457  23.502  25.567  1.00  0.00     0.167 C 
ATOM     13  O   UNL A   1      31.549  21.245  25.374  1.00  0.00    -0.360 OA
ATOM     14  C   UNL A   1      32.321  21.022  24.175  1.00  0.00     0.183 C 
ATOM     15  C   UNL A   1      33.607  21.863  24.173  1.00  0.00     0.148 C 
BRANCH  11  16
ATOM     16  C   UNL A   1      30.354  22.881  26.690  1.00  0.00     0.096 C 
ATOM     17  N   UNL A   1      29.652  23.115  27.588  1.00  0.00    -0.195 NA
ENDBRANCH  11  16
ENDBRANCH   8  10
ENDBRANCH   7   8
BRANCH   7  18
ATOM     18  N   UNL A   1      32.298  25.185  21.438  1.00  0.00    -0.347 N 
ATOM     19  H   UNL A   1      33.210  25.347  21.010  1.00  0.00     0.345 HD
ATOM     20  H   UNL A   1      31.653  25.922  21.155  1.00  0.00     0.345 HD
ATOM     21  H   UNL A   1      31.936  24.281  21.132  1.00  0.00     0.345 HD
ENDBRANCH   7  18
ENDBRANCH   6   7
ENDBRANCH   4   6
ENDBRANCH   3   4
ENDBRANCH   2   3
ENDBRANCH   1   2
BRANCH   1  22
ATOM     22  O   UNL A   1      32.051  30.112  26.654  1.00  0.00    -0.374 OA
BRANCH  22  23
ATOM     23  C   UNL A   1      31.342  31.255  26.179  1.00  0.00     0.202 C 
BRANCH  23  24
ATOM     24  C   UNL A   1      31.454  32.579  26.949  1.00  0.00     0.261 C 
BRANCH  24  25
ATOM     25  O   UNL A   1      32.741  33.206  26.824  1.00  0.00    -0.460 OA
BRANCH  25  26
ATOM     26  C   UNL A   1      33.170  33.834  27.946  1.00  0.00     0.338 C 
ATOM     27  O   UNL A   1      32.563  34.655  28.612  1.00  0.00    -0.246 OA
BRANCH  26  28
ATOM     28  C   UNL A   1      34.435  33.233  28.410  1.00  0.00     0.060 A 
ATOM     29  C   UNL A   1      34.419  31.869  28.727  1.00  0.00     0.016 A 
ATOM     30  C   UNL A   1      35.585  33.996  28.611  1.00  0.00     0.016 A 
ATOM     31  C   UNL A   1      35.543  31.267  29.285  1.00  0.00     0.010 A 
ATOM     32  C   UNL A   1      36.712  33.392  29.182  1.00  0.00     0.010 A 
ATOM     33  C   UNL A   1      36.687  32.033  29.547  1.00  0.00    -0.014 A 
BRANCH  33  34
ATOM     34  C   UNL A   1      37.824  31.424  30.279  1.00  0.00     0.031 A 
ATOM     35  C   UNL A   1      38.697  30.410  29.593  1.00  0.00     0.074 A 
ATOM     36  C   UNL A   1      38.091  31.796  31.544  1.00  0.00     0.049 A 
ATOM     37  N   UNL A   1      39.712  29.735  30.070  1.00  0.00    -0.248 NA
ATOM     38  C   UNL A   1      38.386  30.118  28.185  1.00  0.00     0.031 C 
ATOM     39  C   UNL A   1      37.352  32.806  32.301  1.00  0.00     0.029 A 
ATOM     40  N   UNL A   1      39.058  31.362  32.415  1.00  0.00    -0.354 N 
ATOM     41  C   UNL A   1      40.153  28.929  29.026  1.00  0.00     0.074 A 
ATOM     42  C   UNL A   1      39.276  29.178  27.901  1.00  0.00     0.031 C 
ATOM     43  C   UNL A   1      37.891  32.913  33.526  1.00  0.00     0.029 A 
ATOM     44  C   UNL A   1      38.980  31.947  33.656  1.00  0.00     0.049 A 
ATOM     45  H   UNL A   1      39.742  30.696  32.175  1.00  0.00     0.167 HD
ATOM     46  C   UNL A   1      41.193  28.062  29.007  1.00  0.00     0.031 A 
ATOM     47  C   UNL A   1      39.686  31.710  34.778  1.00  0.00     0.031 A 
ATOM     48  C   UNL A   1      42.052  27.802  30.135  1.00  0.00     0.049 A 
ATOM     49  C   UNL A   1      40.775  30.671  34.758  1.00  0.00     0.074 A 
ATOM     50  C   UNL A   1      43.144  26.955  30.209  1.00  0.00     0.029 A 
ATOM     51  N   UNL A   1      41.908  28.375  31.389  1.00  0.00    -0.354 N 
ATOM     52  N   UNL A   1      41.200  29.937  33.758  1.00  0.00    -0.248 NA
ATOM     53  C   UNL A   1      41.483  30.432  36.023  1.00  0.00     0.031 C 
ATOM     54  C   UNL A   1      43.611  26.955  31.527  1.00  0.00     0.029 A 
ATOM     55  C   UNL A   1      42.863  27.867  32.255  1.00  0.00     0.049 A 
ATOM     56  H   UNL A   1      41.227  29.044  31.630  1.00  0.00     0.167 HD
ATOM     57  C   UNL A   1      42.245  29.173  34.266  1.00  0.00     0.074 A 
ATOM     58  C   UNL A   1      42.402  29.551  35.656  1.00  0.00     0.031 C 
ATOM     59  C   UNL A   1      43.006  28.243  33.639  1.00  0.00     0.031 A 
BRANCH  46  60
ATOM     60  C   UNL A   1      41.438  27.290  27.738  1.00  0.00    -0.014 A 
ATOM     61  C   UNL A   1      40.820  26.052  27.497  1.00  0.00     0.009 A 
ATOM     62  C   UNL A   1      42.269  27.835  26.745  1.00  0.00     0.009 A 
ATOM     63  C   UNL A   1      41.056  25.363  26.304  1.00  0.00     0.001 A 
ATOM     64  C   UNL A   1      42.475  27.160  25.540  1.00  0.00     0.001 A 
ATOM     65  C   UNL A   1      41.878  25.920  25.325  1.00  0.00     0.000 A 
ENDBRANCH  46  60
BRANCH  47  66
ATOM     66  C   UNL A   1      39.365  32.448  36.030  1.00  0.00    -0.014 A 
ATOM     67  C   UNL A   1      38.373  31.982  36.905  1.00  0.00     0.009 A 
ATOM     68  C   UNL A   1      40.038  33.640  36.343  1.00  0.00     0.009 A 
ATOM     69  C   UNL A   1      38.041  32.709  38.050  1.00  0.00     0.001 A 
ATOM     70  C   UNL A   1      39.731  34.345  37.508  1.00  0.00     0.001 A 
ATOM     71  C   UNL A   1      38.724  33.885  38.354  1.00  0.00     0.000 A 
ENDBRANCH  47  66
BRANCH  59  72
ATOM     72  C   UNL A   1      44.104  27.593  34.439  1.00  0.00    -0.014 A 
ATOM     73  C   UNL A   1      45.384  28.162  34.530  1.00  0.00     0.009 A 
ATOM     74  C   UNL A   1      43.840  26.407  35.143  1.00  0.00     0.009 A 
ATOM     75  C   UNL A   1      46.387  27.534  35.272  1.00  0.00     0.001 A 
ATOM     76  C   UNL A   1      44.833  25.802  35.915  1.00  0.00     0.001 A 
ATOM     77  C   UNL A   1      46.109  26.360  35.969  1.00  0.00     0.000 A 
ENDBRANCH  59  72
ENDBRANCH  33  34
ENDBRANCH  26  28
ENDBRANCH  25  26
ENDBRANCH  24  25
ENDBRANCH  23  24
ENDBRANCH  22  23
ENDBRANCH   1  22
TORSDOF 19
ENDMDL
MODEL 3
REMARK VINA RESULT:      -9.1      2.188      2.782
REMARK SMILES N#C[C@H]1CN(C(=O)[C@H]([NH3+])CC(=O)OCCOCCOC(=O)c2ccc(-c3c4nc(c(-c5ccccc5)c5ccc([nH]5)c(-c5ccccc5)c5nc(c(-c6ccccc6)c6ccc3[nH]6)C=C5)C=C4)cc2)CCO1
REMARK SMILES IDX 15 1 14 2 13 3 11 4 12 5 10 6 8 7 6 8 7 9 5 10 3 11 4 12
REMARK SMILES IDX 72 13 71 14 70 15 2 16 1 17 9 18 16 22 17 23 18 24 19 25
REMARK SMILES IDX 20 26 21 27 22 28 23 29 69 30 24 31 68 32 25 33 26 34 27 35
REMARK SMILES IDX 62 36 28 37 67 38 61 39 63 40 29 41 66 42 60 43 59 44 30 46
REMARK SMILES IDX 52 47 37 48 51 49 38 50 41 51 50 52 64 53 39 54 40 55 49 57
REMARK SMILES IDX 65 58 42 59 31 60 32 61 36 62 33 63 35 64 34 65 53 66 54 67
REMARK SMILES IDX 58 68 55 69 57 70 56 71 43 72 44 73 48 74 45 75 47 76 46 77
REMARK H PARENT 9 19 9 20 9 21 63 45 41 56
REMARK Flexibility Score: inf
ROOT
ATOM      1  C   UNL A   1      34.957  20.530  25.162  1.00  0.00     0.202 C 
ENDROOT
BRANCH   1   2
ATOM      2  C   UNL A   1      34.377  21.922  25.420  1.00  0.00     0.261 C 
BRANCH   2   3
ATOM      3  O   UNL A   1      33.367  21.888  26.438  1.00  0.00    -0.463 OA
BRANCH   3   4
ATOM      4  C   UNL A   1      32.186  22.446  26.089  1.00  0.00     0.312 C 
ATOM      5  O   UNL A   1      31.301  21.882  25.458  1.00  0.00    -0.252 OA
BRANCH   4   6
ATOM      6  C   UNL A   1      32.044  23.879  26.522  1.00  0.00     0.198 C 
BRANCH   6   7
ATOM      7  C   UNL A   1      31.013  24.815  25.868  1.00  0.00     0.282 C 
BRANCH   7   8
ATOM      8  C   UNL A   1      31.598  26.251  25.858  1.00  0.00     0.281 C 
ATOM      9  O   UNL A   1      31.913  26.777  26.929  1.00  0.00    -0.268 OA
BRANCH   8  10
ATOM     10  N   UNL A   1      31.721  26.934  24.658  1.00  0.00    -0.332 N 
ATOM     11  C   UNL A   1      31.598  26.195  22.315  1.00  0.00     0.240 C 
ATOM     12  C   UNL A   1      32.532  26.560  23.488  1.00  0.00     0.167 C 
ATOM     13  O   UNL A   1      30.744  27.322  22.012  1.00  0.00    -0.360 OA
ATOM     14  C   UNL A   1      29.933  27.674  23.153  1.00  0.00     0.183 C 
ATOM     15  C   UNL A   1      30.803  28.041  24.366  1.00  0.00     0.148 C 
BRANCH  11  16
ATOM     16  C   UNL A   1      32.402  25.790  21.152  1.00  0.00     0.096 C 
ATOM     17  N   UNL A   1      32.973  25.439  20.202  1.00  0.00    -0.195 NA
ENDBRANCH  11  16
ENDBRANCH   8  10
ENDBRANCH   7   8
BRANCH   7  18
ATOM     18  N   UNL A   1      29.627  24.838  26.353  1.00  0.00    -0.347 N 
ATOM     19  H   UNL A   1      29.619  24.718  27.366  1.00  0.00     0.345 HD
ATOM     20  H   UNL A   1      29.102  24.080  25.917  1.00  0.00     0.345 HD
ATOM     21  H   UNL A   1      29.198  25.731  26.113  1.00  0.00     0.345 HD
ENDBRANCH   7  18
ENDBRANCH   6   7
ENDBRANCH   4   6
ENDBRANCH   3   4
ENDBRANCH   2   3
ENDBRANCH   1   2
BRANCH   1  22
ATOM     22  O   UNL A   1      36.359  20.411  24.937  1.00  0.00    -0.374 OA
BRANCH  22  23
ATOM     23  C   UNL A   1      37.218  21.424  25.458  1.00  0.00     0.202 C 
BRANCH  23  24
ATOM     24  C   UNL A   1      38.739  21.241  25.355  1.00  0.00     0.261 C 
BRANCH  24  25
ATOM     25  O   UNL A   1      39.245  20.178  26.178  1.00  0.00    -0.460 OA
BRANCH  25  26
ATOM     26  C   UNL A   1      40.588  20.010  26.115  1.00  0.00     0.338 C 
ATOM     27  O   UNL A   1      41.196  19.104  25.571  1.00  0.00    -0.246 OA
BRANCH  26  28
ATOM     28  C   UNL A   1      41.273  21.212  26.629  1.00  0.00     0.060 A 
ATOM     29  C   UNL A   1      41.172  21.471  28.002  1.00  0.00     0.016 A 
ATOM     30  C   UNL A   1      41.924  22.108  25.783  1.00  0.00     0.016 A 
ATOM     31  C   UNL A   1      41.689  22.649  28.531  1.00  0.00     0.010 A 
ATOM     32  C   UNL A   1      42.436  23.298  26.315  1.00  0.00     0.010 A 
ATOM     33  C   UNL A   1      42.296  23.587  27.685  1.00  0.00    -0.014 A 
BRANCH  33  34
ATOM     34  C   UNL A   1      42.708  24.904  28.228  1.00  0.00     0.031 A 
ATOM     35  C   UNL A   1      41.677  25.978  28.444  1.00  0.00     0.074 A 
ATOM     36  C   UNL A   1      43.994  25.131  28.551  1.00  0.00     0.049 A 
ATOM     37  N   UNL A   1      41.838  27.205  28.871  1.00  0.00    -0.248 NA
ATOM     38  C   UNL A   1      40.282  25.623  28.141  1.00  0.00     0.031 C 
ATOM     39  C   UNL A   1      45.078  24.155  28.437  1.00  0.00     0.029 A 
ATOM     40  N   UNL A   1      44.605  26.259  29.039  1.00  0.00    -0.354 N 
ATOM     41  C   UNL A   1      40.570  27.773  28.874  1.00  0.00     0.074 A 
ATOM     42  C   UNL A   1      39.655  26.766  28.380  1.00  0.00     0.031 C 
ATOM     43  C   UNL A   1      46.223  24.728  28.842  1.00  0.00     0.029 A 
ATOM     44  C   UNL A   1      45.963  26.121  29.196  1.00  0.00     0.049 A 
ATOM     45  H   UNL A   1      44.118  27.086  29.255  1.00  0.00     0.167 HD
ATOM     46  C   UNL A   1      40.201  29.019  29.256  1.00  0.00     0.031 A 
ATOM     47  C   UNL A   1      46.895  27.023  29.556  1.00  0.00     0.031 A 
ATOM     48  C   UNL A   1      41.117  30.026  29.730  1.00  0.00     0.049 A 
ATOM     49  C   UNL A   1      46.471  28.431  29.883  1.00  0.00     0.074 A 
ATOM     50  C   UNL A   1      40.837  31.312  30.158  1.00  0.00     0.029 A 
ATOM     51  N   UNL A   1      42.491  29.865  29.825  1.00  0.00    -0.354 N 
ATOM     52  N   UNL A   1      45.266  28.947  29.910  1.00  0.00    -0.248 NA
ATOM     53  C   UNL A   1      47.539  29.378  30.232  1.00  0.00     0.031 C 
ATOM     54  C   UNL A   1      42.048  31.955  30.435  1.00  0.00     0.029 A 
ATOM     55  C   UNL A   1      43.076  31.042  30.263  1.00  0.00     0.049 A 
ATOM     56  H   UNL A   1      42.979  29.037  29.612  1.00  0.00     0.167 HD
ATOM     57  C   UNL A   1      45.428  30.269  30.309  1.00  0.00     0.074 A 
ATOM     58  C   UNL A   1      46.846  30.466  30.534  1.00  0.00     0.031 C 
ATOM     59  C   UNL A   1      44.489  31.232  30.475  1.00  0.00     0.031 A 
BRANCH  46  60
ATOM     60  C   UNL A   1      38.746  29.386  29.135  1.00  0.00    -0.014 A 
ATOM     61  C   UNL A   1      38.200  29.850  27.927  1.00  0.00     0.009 A 
ATOM     62  C   UNL A   1      37.895  29.221  30.241  1.00  0.00     0.009 A 
ATOM     63  C   UNL A   1      36.843  30.172  27.840  1.00  0.00     0.001 A 
ATOM     64  C   UNL A   1      36.533  29.511  30.141  1.00  0.00     0.001 A 
ATOM     65  C   UNL A   1      36.010  29.996  28.945  1.00  0.00     0.000 A 
ENDBRANCH  46  60
BRANCH  47  66
ATOM     66  C   UNL A   1      48.331  26.636  29.597  1.00  0.00    -0.014 A 
ATOM     67  C   UNL A   1      49.153  26.805  28.473  1.00  0.00     0.009 A 
ATOM     68  C   UNL A   1      48.881  26.072  30.759  1.00  0.00     0.009 A 
ATOM     69  C   UNL A   1      50.486  26.388  28.502  1.00  0.00     0.001 A 
ATOM     70  C   UNL A   1      50.224  25.691  30.799  1.00  0.00     0.001 A 
ATOM     71  C   UNL A   1      51.021  25.839  29.666  1.00  0.00     0.000 A 
ENDBRANCH  47  66
BRANCH  59  72
ATOM     72  C   UNL A   1      44.958  32.579  30.957  1.00  0.00    -0.014 A 
ATOM     73  C   UNL A   1      45.304  33.602  30.060  1.00  0.00     0.009 A 
ATOM     74  C   UNL A   1      45.021  32.840  32.335  1.00  0.00     0.009 A 
ATOM     75  C   UNL A   1      45.745  34.840  30.533  1.00  0.00     0.001 A 
ATOM     76  C   UNL A   1      45.424  34.091  32.806  1.00  0.00     0.001 A 
ATOM     77  C   UNL A   1      45.798  35.086  31.904  1.00  0.00     0.000 A 
ENDBRANCH  59  72
ENDBRANCH  33  34
ENDBRANCH  26  28
ENDBRANCH  25  26
ENDBRANCH  24  25
ENDBRANCH  23  24
ENDBRANCH  22  23
ENDBRANCH   1  22
TORSDOF 19
ENDMDL
