MODEL 1
REMARK VINA RESULT:      -9.0      0.000      0.000
REMARK SMILES CC(C)[NH2+][C@@H](CSc1cccc(F)c1)C(=O)OCCOCCOC(=O)c1ccc(-c2c3nc(c(-c4ccccc4)c4ccc([nH]4)c(-c4ccccc4)c4nc(c(-c5ccccc5)c5ccc2[nH]5)C=C4)C=C3)cc1
REMARK SMILES IDX 19 1 18 2 17 3 15 4 16 5 5 6 4 7 2 10 1 11 3 12 6 13 7 14
REMARK SMILES IDX 8 15 9 16 14 17 10 18 12 19 11 20 13 21 20 22 21 23 22 24
REMARK SMILES IDX 23 25 24 26 25 27 26 28 27 29 73 30 28 31 72 32 29 33 30 34
REMARK SMILES IDX 31 35 66 36 32 37 71 38 65 39 67 40 33 41 70 42 64 43 63 44
REMARK SMILES IDX 34 46 56 47 41 48 55 49 42 50 45 51 54 52 68 53 43 54 44 55
REMARK SMILES IDX 53 57 69 58 46 59 35 60 36 61 40 62 37 63 39 64 38 65 57 66
REMARK SMILES IDX 58 67 62 68 59 69 61 70 60 71 47 72 48 73 52 74 49 75 51 76
REMARK SMILES IDX 50 77
REMARK H PARENT 4 8 4 9 67 45 45 56
REMARK Flexibility Score: inf
ROOT
ATOM      1  C   UNL A   1      36.852  22.069  25.809  1.00  0.00     0.202 C 
ENDROOT
BRANCH   1   2
ATOM      2  C   UNL A   1      36.144  23.408  26.006  1.00  0.00     0.261 C 
BRANCH   2   3
ATOM      3  O   UNL A   1      36.078  24.145  24.774  1.00  0.00    -0.459 OA
BRANCH   3   4
ATOM      4  C   UNL A   1      35.280  23.621  23.801  1.00  0.00     0.365 C 
ATOM      5  O   UNL A   1      35.650  23.353  22.662  1.00  0.00    -0.245 OA
BRANCH   4   6
ATOM      6  C   UNL A   1      33.817  23.468  24.249  1.00  0.00     0.304 C 
BRANCH   6   7
ATOM      7  N   UNL A   1      33.037  24.705  24.014  1.00  0.00    -0.332 N 
ATOM      8  H   UNL A   1      32.417  24.837  24.812  1.00  0.00     0.347 HD
ATOM      9  H   UNL A   1      33.733  25.441  23.890  1.00  0.00     0.347 HD
BRANCH   7  10
ATOM     10  C   UNL A   1      32.214  24.743  22.798  1.00  0.00     0.176 C 
ATOM     11  C   UNL A   1      30.887  25.434  23.132  1.00  0.00     0.075 C 
ATOM     12  C   UNL A   1      32.836  25.430  21.581  1.00  0.00     0.075 C 
ENDBRANCH   7  10
ENDBRANCH   6   7
BRANCH   6  13
ATOM     13  C   UNL A   1      33.267  22.157  23.640  1.00  0.00     0.152 C 
BRANCH  13  14
ATOM     14  S   UNL A   1      32.416  20.962  24.761  1.00  0.00    -0.119 SA
BRANCH  14  15
ATOM     15  C   UNL A   1      33.032  19.399  24.178  1.00  0.00     0.010 A 
ATOM     16  C   UNL A   1      32.383  18.766  23.109  1.00  0.00     0.015 A 
ATOM     17  C   UNL A   1      34.153  18.799  24.750  1.00  0.00     0.054 A 
ATOM     18  C   UNL A   1      32.824  17.523  22.651  1.00  0.00     0.004 A 
ATOM     19  C   UNL A   1      34.590  17.565  24.276  1.00  0.00     0.124 A 
ATOM     20  C   UNL A   1      33.931  16.918  23.237  1.00  0.00     0.039 A 
ATOM     21  F   UNL A   1      35.655  16.982  24.841  1.00  0.00    -0.207 F 
ENDBRANCH  14  15
ENDBRANCH  13  14
ENDBRANCH   6  13
ENDBRANCH   4   6
ENDBRANCH   3   4
ENDBRANCH   2   3
ENDBRANCH   1   2
BRANCH   1  22
ATOM     22  O   UNL A   1      38.267  22.135  25.628  1.00  0.00    -0.374 OA
BRANCH  22  23
ATOM     23  C   UNL A   1      38.990  23.025  26.476  1.00  0.00     0.202 C 
BRANCH  23  24
ATOM     24  C   UNL A   1      40.211  22.431  27.189  1.00  0.00     0.261 C 
BRANCH  24  25
ATOM     25  O   UNL A   1      41.257  23.394  27.423  1.00  0.00    -0.460 OA
BRANCH  25  26
ATOM     26  C   UNL A   1      42.267  23.361  26.522  1.00  0.00     0.338 C 
ATOM     27  O   UNL A   1      42.497  22.493  25.690  1.00  0.00    -0.246 OA
BRANCH  26  28
ATOM     28  C   UNL A   1      43.033  24.619  26.565  1.00  0.00     0.060 A 
ATOM     29  C   UNL A   1      43.276  25.278  25.354  1.00  0.00     0.016 A 
ATOM     30  C   UNL A   1      43.595  25.095  27.752  1.00  0.00     0.016 A 
ATOM     31  C   UNL A   1      44.121  26.385  25.320  1.00  0.00     0.010 A 
ATOM     32  C   UNL A   1      44.434  26.215  27.719  1.00  0.00     0.010 A 
ATOM     33  C   UNL A   1      44.736  26.839  26.495  1.00  0.00    -0.014 A 
BRANCH  33  34
ATOM     34  C   UNL A   1      45.810  27.861  26.400  1.00  0.00     0.031 A 
ATOM     35  C   UNL A   1      45.456  29.318  26.555  1.00  0.00     0.074 A 
ATOM     36  C   UNL A   1      47.096  27.498  26.248  1.00  0.00     0.049 A 
ATOM     37  N   UNL A   1      46.242  30.365  26.564  1.00  0.00    -0.248 NA
ATOM     38  C   UNL A   1      44.029  29.635  26.721  1.00  0.00     0.031 C 
ATOM     39  C   UNL A   1      47.579  26.124  26.112  1.00  0.00     0.029 A 
ATOM     40  N   UNL A   1      48.236  28.262  26.194  1.00  0.00    -0.354 N 
ATOM     41  C   UNL A   1      45.407  31.460  26.747  1.00  0.00     0.074 A 
ATOM     42  C   UNL A   1      44.052  30.957  26.797  1.00  0.00     0.031 C 
ATOM     43  C   UNL A   1      48.918  26.143  25.996  1.00  0.00     0.029 A 
ATOM     44  C   UNL A   1      49.384  27.527  26.032  1.00  0.00     0.049 A 
ATOM     45  H   UNL A   1      48.229  29.244  26.266  1.00  0.00     0.167 HD
ATOM     46  C   UNL A   1      45.736  32.768  26.881  1.00  0.00     0.031 A 
ATOM     47  C   UNL A   1      50.665  27.926  25.919  1.00  0.00     0.031 A 
ATOM     48  C   UNL A   1      47.078  33.281  26.819  1.00  0.00     0.049 A 
ATOM     49  C   UNL A   1      51.000  29.391  26.014  1.00  0.00     0.074 A 
ATOM     50  C   UNL A   1      47.507  34.593  26.938  1.00  0.00     0.029 A 
ATOM     51  N   UNL A   1      48.208  32.507  26.619  1.00  0.00    -0.354 N 
ATOM     52  N   UNL A   1      50.201  30.411  26.212  1.00  0.00    -0.248 NA
ATOM     53  C   UNL A   1      52.419  29.755  25.883  1.00  0.00     0.031 C 
ATOM     54  C   UNL A   1      48.896  34.615  26.770  1.00  0.00     0.029 A 
ATOM     55  C   UNL A   1      49.335  33.312  26.596  1.00  0.00     0.049 A 
ATOM     56  H   UNL A   1      48.211  31.527  26.510  1.00  0.00     0.167 HD
ATOM     57  C   UNL A   1      51.021  31.532  26.255  1.00  0.00     0.074 A 
ATOM     58  C   UNL A   1      52.381  31.065  26.082  1.00  0.00     0.031 C 
ATOM     59  C   UNL A   1      50.680  32.834  26.420  1.00  0.00     0.031 A 
BRANCH  46  60
ATOM     60  C   UNL A   1      44.610  33.740  27.095  1.00  0.00    -0.014 A 
ATOM     61  C   UNL A   1      44.003  34.393  26.010  1.00  0.00     0.009 A 
ATOM     62  C   UNL A   1      44.129  33.982  28.390  1.00  0.00     0.009 A 
ATOM     63  C   UNL A   1      42.957  35.294  26.223  1.00  0.00     0.001 A 
ATOM     64  C   UNL A   1      43.066  34.865  28.598  1.00  0.00     0.001 A 
ATOM     65  C   UNL A   1      42.488  35.525  27.515  1.00  0.00     0.000 A 
ENDBRANCH  46  60
BRANCH  47  66
ATOM     66  C   UNL A   1      51.741  26.924  25.695  1.00  0.00    -0.014 A 
ATOM     67  C   UNL A   1      52.397  26.317  26.776  1.00  0.00     0.009 A 
ATOM     68  C   UNL A   1      52.138  26.598  24.389  1.00  0.00     0.009 A 
ATOM     69  C   UNL A   1      53.448  25.424  26.554  1.00  0.00     0.001 A 
ATOM     70  C   UNL A   1      53.170  25.684  24.170  1.00  0.00     0.001 A 
ATOM     71  C   UNL A   1      53.833  25.106  25.252  1.00  0.00     0.000 A 
ENDBRANCH  47  66
BRANCH  59  72
ATOM     72  C   UNL A   1      51.798  33.838  26.453  1.00  0.00    -0.014 A 
ATOM     73  C   UNL A   1      52.438  34.175  27.656  1.00  0.00     0.009 A 
ATOM     74  C   UNL A   1      52.233  34.434  25.259  1.00  0.00     0.009 A 
ATOM     75  C   UNL A   1      53.467  35.120  27.666  1.00  0.00     0.001 A 
ATOM     76  C   UNL A   1      53.280  35.356  25.269  1.00  0.00     0.001 A 
ATOM     77  C   UNL A   1      53.889  35.706  26.473  1.00  0.00     0.000 A 
ENDBRANCH  59  72
ENDBRANCH  33  34
ENDBRANCH  26  28
ENDBRANCH  25  26
ENDBRANCH  24  25
ENDBRANCH  23  24
ENDBRANCH  22  23
ENDBRANCH   1  22
TORSDOF 19
ENDMDL
MODEL 2
REMARK VINA RESULT:      -8.7      7.618     10.562
REMARK SMILES CC(C)[NH2+][C@@H](CSc1cccc(F)c1)C(=O)OCCOCCOC(=O)c1ccc(-c2c3nc(c(-c4ccccc4)c4ccc([nH]4)c(-c4ccccc4)c4nc(c(-c5ccccc5)c5ccc2[nH]5)C=C4)C=C3)cc1
REMARK SMILES IDX 19 1 18 2 17 3 15 4 16 5 5 6 4 7 2 10 1 11 3 12 6 13 7 14
REMARK SMILES IDX 8 15 9 16 14 17 10 18 12 19 11 20 13 21 20 22 21 23 22 24
REMARK SMILES IDX 23 25 24 26 25 27 26 28 27 29 73 30 28 31 72 32 29 33 30 34
REMARK SMILES IDX 31 35 66 36 32 37 71 38 65 39 67 40 33 41 70 42 64 43 63 44
REMARK SMILES IDX 34 46 56 47 41 48 55 49 42 50 45 51 54 52 68 53 43 54 44 55
REMARK SMILES IDX 53 57 69 58 46 59 35 60 36 61 40 62 37 63 39 64 38 65 57 66
REMARK SMILES IDX 58 67 62 68 59 69 61 70 60 71 47 72 48 73 52 74 49 75 51 76
REMARK SMILES IDX 50 77
REMARK H PARENT 4 8 4 9 67 45 45 56
REMARK Flexibility Score: inf
ROOT
ATOM      1  C   UNL A   1      32.683  29.212  26.458  1.00  0.00     0.202 C 
ENDROOT
BRANCH   1   2
ATOM      2  C   UNL A   1      33.486  27.913  26.487  1.00  0.00     0.261 C 
BRANCH   2   3
ATOM      3  O   UNL A   1      32.957  26.957  25.554  1.00  0.00    -0.459 OA
BRANCH   3   4
ATOM      4  C   UNL A   1      32.029  26.087  26.045  1.00  0.00     0.365 C 
ATOM      5  O   UNL A   1      31.394  26.254  27.082  1.00  0.00    -0.245 OA
BRANCH   4   6
ATOM      6  C   UNL A   1      31.907  24.807  25.202  1.00  0.00     0.304 C 
BRANCH   6   7
ATOM      7  N   UNL A   1      30.831  23.920  25.700  1.00  0.00    -0.332 N 
ATOM      8  H   UNL A   1      30.254  24.463  26.343  1.00  0.00     0.347 HD
ATOM      9  H   UNL A   1      30.344  23.593  24.865  1.00  0.00     0.347 HD
BRANCH   7  10
ATOM     10  C   UNL A   1      31.254  22.701  26.402  1.00  0.00     0.176 C 
ATOM     11  C   UNL A   1      31.407  21.576  25.372  1.00  0.00     0.075 C 
ATOM     12  C   UNL A   1      32.546  22.804  27.216  1.00  0.00     0.075 C 
ENDBRANCH   7  10
ENDBRANCH   6   7
BRANCH   6  13
ATOM     13  C   UNL A   1      31.850  25.221  23.713  1.00  0.00     0.152 C 
BRANCH  13  14
ATOM     14  S   UNL A   1      33.193  24.635  22.590  1.00  0.00    -0.119 SA
BRANCH  14  15
ATOM     15  C   UNL A   1      34.264  23.764  23.712  1.00  0.00     0.010 A 
ATOM     16  C   UNL A   1      34.221  22.364  23.747  1.00  0.00     0.015 A 
ATOM     17  C   UNL A   1      35.153  24.444  24.544  1.00  0.00     0.054 A 
ATOM     18  C   UNL A   1      35.027  21.654  24.641  1.00  0.00     0.004 A 
ATOM     19  C   UNL A   1      35.959  23.724  25.422  1.00  0.00     0.124 A 
ATOM     20  C   UNL A   1      35.899  22.337  25.483  1.00  0.00     0.039 A 
ATOM     21  F   UNL A   1      36.798  24.381  26.234  1.00  0.00    -0.207 F 
ENDBRANCH  14  15
ENDBRANCH  13  14
ENDBRANCH   6  13
ENDBRANCH   4   6
ENDBRANCH   3   4
ENDBRANCH   2   3
ENDBRANCH   1   2
BRANCH   1  22
ATOM     22  O   UNL A   1      33.291  30.333  27.101  1.00  0.00    -0.374 OA
BRANCH  22  23
ATOM     23  C   UNL A   1      32.595  31.576  27.035  1.00  0.00     0.202 C 
BRANCH  23  24
ATOM     24  C   UNL A   1      33.148  32.703  27.916  1.00  0.00     0.261 C 
BRANCH  24  25
ATOM     25  O   UNL A   1      32.534  33.980  27.658  1.00  0.00    -0.460 OA
BRANCH  25  26
ATOM     26  C   UNL A   1      32.905  34.968  28.507  1.00  0.00     0.338 C 
ATOM     27  O   UNL A   1      32.304  36.007  28.751  1.00  0.00    -0.246 OA
BRANCH  26  28
ATOM     28  C   UNL A   1      34.117  34.579  29.248  1.00  0.00     0.060 A 
ATOM     29  C   UNL A   1      35.341  34.628  28.572  1.00  0.00     0.016 A 
ATOM     30  C   UNL A   1      34.050  34.075  30.550  1.00  0.00     0.016 A 
ATOM     31  C   UNL A   1      36.493  34.128  29.177  1.00  0.00     0.010 A 
ATOM     32  C   UNL A   1      35.209  33.584  31.161  1.00  0.00     0.010 A 
ATOM     33  C   UNL A   1      36.429  33.568  30.461  1.00  0.00    -0.014 A 
BRANCH  33  34
ATOM     34  C   UNL A   1      37.606  32.830  30.986  1.00  0.00     0.031 A 
ATOM     35  C   UNL A   1      38.223  33.261  32.292  1.00  0.00     0.074 A 
ATOM     36  C   UNL A   1      38.081  31.744  30.349  1.00  0.00     0.049 A 
ATOM     37  N   UNL A   1      39.214  32.724  32.958  1.00  0.00    -0.248 NA
ATOM     38  C   UNL A   1      37.645  34.455  32.930  1.00  0.00     0.031 C 
ATOM     39  C   UNL A   1      37.562  31.205  29.093  1.00  0.00     0.029 A 
ATOM     40  N   UNL A   1      39.105  30.894  30.683  1.00  0.00    -0.354 N 
ATOM     41  C   UNL A   1      39.371  33.507  34.095  1.00  0.00     0.074 A 
ATOM     42  C   UNL A   1      38.406  34.581  34.007  1.00  0.00     0.031 C 
ATOM     43  C   UNL A   1      38.268  30.109  28.765  1.00  0.00     0.029 A 
ATOM     44  C   UNL A   1      39.298  29.882  29.777  1.00  0.00     0.049 A 
ATOM     45  H   UNL A   1      39.650  31.001  31.496  1.00  0.00     0.167 HD
ATOM     46  C   UNL A   1      40.227  33.340  35.131  1.00  0.00     0.031 A 
ATOM     47  C   UNL A   1      40.206  28.887  29.761  1.00  0.00     0.031 A 
ATOM     48  C   UNL A   1      41.199  32.284  35.223  1.00  0.00     0.049 A 
ATOM     49  C   UNL A   1      41.186  28.756  30.897  1.00  0.00     0.074 A 
ATOM     50  C   UNL A   1      42.114  32.037  36.233  1.00  0.00     0.029 A 
ATOM     51  N   UNL A   1      41.384  31.299  34.267  1.00  0.00    -0.354 N 
ATOM     52  N   UNL A   1      41.304  29.489  31.977  1.00  0.00    -0.248 NA
ATOM     53  C   UNL A   1      42.148  27.647  30.815  1.00  0.00     0.031 C 
ATOM     54  C   UNL A   1      42.880  30.925  35.867  1.00  0.00     0.029 A 
ATOM     55  C   UNL A   1      42.408  30.451  34.654  1.00  0.00     0.049 A 
ATOM     56  H   UNL A   1      40.863  31.215  33.434  1.00  0.00     0.167 HD
ATOM     57  C   UNL A   1      42.334  28.916  32.713  1.00  0.00     0.074 A 
ATOM     58  C   UNL A   1      42.794  27.764  31.966  1.00  0.00     0.031 C 
ATOM     59  C   UNL A   1      42.856  29.311  33.901  1.00  0.00     0.031 A 
BRANCH  46  60
ATOM     60  C   UNL A   1      40.155  34.341  36.250  1.00  0.00    -0.014 A 
ATOM     61  C   UNL A   1      39.335  34.118  37.368  1.00  0.00     0.009 A 
ATOM     62  C   UNL A   1      40.938  35.504  36.203  1.00  0.00     0.009 A 
ATOM     63  C   UNL A   1      39.277  35.056  38.400  1.00  0.00     0.001 A 
ATOM     64  C   UNL A   1      40.897  36.428  37.249  1.00  0.00     0.001 A 
ATOM     65  C   UNL A   1      40.061  36.206  38.342  1.00  0.00     0.000 A 
ENDBRANCH  46  60
BRANCH  47  66
ATOM     66  C   UNL A   1      40.244  27.930  28.624  1.00  0.00    -0.014 A 
ATOM     67  C   UNL A   1      39.562  26.705  28.689  1.00  0.00     0.009 A 
ATOM     68  C   UNL A   1      40.995  28.229  27.476  1.00  0.00     0.009 A 
ATOM     69  C   UNL A   1      39.656  25.787  27.641  1.00  0.00     0.001 A 
ATOM     70  C   UNL A   1      41.064  27.321  26.418  1.00  0.00     0.001 A 
ATOM     71  C   UNL A   1      40.405  26.097  26.505  1.00  0.00     0.000 A 
ENDBRANCH  47  66
BRANCH  59  72
ATOM     72  C   UNL A   1      43.960  28.470  34.478  1.00  0.00    -0.014 A 
ATOM     73  C   UNL A   1      43.681  27.370  35.305  1.00  0.00     0.009 A 
ATOM     74  C   UNL A   1      45.296  28.767  34.168  1.00  0.00     0.009 A 
ATOM     75  C   UNL A   1      44.721  26.610  35.842  1.00  0.00     0.001 A 
ATOM     76  C   UNL A   1      46.333  27.987  34.683  1.00  0.00     0.001 A 
ATOM     77  C   UNL A   1      46.045  26.916  35.527  1.00  0.00     0.000 A 
ENDBRANCH  59  72
ENDBRANCH  33  34
ENDBRANCH  26  28
ENDBRANCH  25  26
ENDBRANCH  24  25
ENDBRANCH  23  24
ENDBRANCH  22  23
ENDBRANCH   1  22
TORSDOF 19
ENDMDL
MODEL 3
REMARK VINA RESULT:      -8.6      7.937     12.684
REMARK SMILES CC(C)[NH2+][C@@H](CSc1cccc(F)c1)C(=O)OCCOCCOC(=O)c1ccc(-c2c3nc(c(-c4ccccc4)c4ccc([nH]4)c(-c4ccccc4)c4nc(c(-c5ccccc5)c5ccc2[nH]5)C=C4)C=C3)cc1
REMARK SMILES IDX 19 1 18 2 17 3 15 4 16 5 5 6 4 7 2 10 1 11 3 12 6 13 7 14
REMARK SMILES IDX 8 15 9 16 14 17 10 18 12 19 11 20 13 21 20 22 21 23 22 24
REMARK SMILES IDX 23 25 24 26 25 27 26 28 27 29 73 30 28 31 72 32 29 33 30 34
REMARK SMILES IDX 31 35 66 36 32 37 71 38 65 39 67 40 33 41 70 42 64 43 63 44
REMARK SMILES IDX 34 46 56 47 41 48 55 49 42 50 45 51 54 52 68 53 43 54 44 55
REMARK SMILES IDX 53 57 69 58 46 59 35 60 36 61 40 62 37 63 39 64 38 65 57 66
REMARK SMILES IDX 58 67 62 68 59 69 61 70 60 71 47 72 48 73 52 74 49 75 51 76
REMARK SMILES IDX 50 77
REMARK H PARENT 4 8 4 9 67 45 45 56
REMARK Flexibility Score: inf
ROOT
ATOM      1  C   UNL A   1      32.981  35.810  30.066  1.00  0.00     0.202 C 
ENDROOT
BRANCH   1   2
ATOM      2  C   UNL A   1      33.204  35.234  31.463  1.00  0.00     0.261 C 
BRANCH   2   3
ATOM      3  O   UNL A   1      34.390  34.423  31.506  1.00  0.00    -0.459 OA
BRANCH   3   4
ATOM      4  C   UNL A   1      34.638  33.782  32.683  1.00  0.00     0.365 C 
ATOM      5  O   UNL A   1      33.775  33.319  33.423  1.00  0.00    -0.245 OA
BRANCH   4   6
ATOM      6  C   UNL A   1      36.132  33.763  33.048  1.00  0.00     0.304 C 
BRANCH   6   7
ATOM      7  N   UNL A   1      36.353  33.302  34.438  1.00  0.00    -0.332 N 
ATOM      8  H   UNL A   1      36.068  34.055  35.063  1.00  0.00     0.347 HD
ATOM      9  H   UNL A   1      35.806  32.445  34.526  1.00  0.00     0.347 HD
BRANCH   7  10
ATOM     10  C   UNL A   1      37.726  32.921  34.794  1.00  0.00     0.176 C 
ATOM     11  C   UNL A   1      38.327  34.030  35.667  1.00  0.00     0.075 C 
ATOM     12  C   UNL A   1      37.891  31.582  35.515  1.00  0.00     0.075 C 
ENDBRANCH   7  10
ENDBRANCH   6   7
BRANCH   6  13
ATOM     13  C   UNL A   1      36.887  33.015  31.924  1.00  0.00     0.152 C 
BRANCH  13  14
ATOM     14  S   UNL A   1      37.563  34.002  30.519  1.00  0.00    -0.119 SA
BRANCH  14  15
ATOM     15  C   UNL A   1      39.298  34.065  30.906  1.00  0.00     0.010 A 
ATOM     16  C   UNL A   1      39.695  34.453  32.194  1.00  0.00     0.015 A 
ATOM     17  C   UNL A   1      40.267  33.723  29.965  1.00  0.00     0.054 A 
ATOM     18  C   UNL A   1      41.051  34.544  32.517  1.00  0.00     0.004 A 
ATOM     19  C   UNL A   1      41.615  33.806  30.304  1.00  0.00     0.124 A 
ATOM     20  C   UNL A   1      42.016  34.220  31.568  1.00  0.00     0.039 A 
ATOM     21  F   UNL A   1      42.544  33.496  29.390  1.00  0.00    -0.207 F 
ENDBRANCH  14  15
ENDBRANCH  13  14
ENDBRANCH   6  13
ENDBRANCH   4   6
ENDBRANCH   3   4
ENDBRANCH   2   3
ENDBRANCH   1   2
BRANCH   1  22
ATOM     22  O   UNL A   1      34.046  35.611  29.136  1.00  0.00    -0.374 OA
BRANCH  22  23
ATOM     23  C   UNL A   1      33.787  34.754  28.025  1.00  0.00     0.202 C 
BRANCH  23  24
ATOM     24  C   UNL A   1      33.620  33.264  28.352  1.00  0.00     0.261 C 
BRANCH  24  25
ATOM     25  O   UNL A   1      34.852  32.523  28.274  1.00  0.00    -0.460 OA
BRANCH  25  26
ATOM     26  C   UNL A   1      34.709  31.222  27.928  1.00  0.00     0.338 C 
ATOM     27  O   UNL A   1      33.780  30.710  27.316  1.00  0.00    -0.246 OA
BRANCH  26  28
ATOM     28  C   UNL A   1      35.924  30.463  28.274  1.00  0.00     0.060 A 
ATOM     29  C   UNL A   1      35.899  29.683  29.436  1.00  0.00     0.016 A 
ATOM     30  C   UNL A   1      37.102  30.590  27.534  1.00  0.00     0.016 A 
ATOM     31  C   UNL A   1      37.064  29.068  29.887  1.00  0.00     0.010 A 
ATOM     32  C   UNL A   1      38.270  29.962  27.983  1.00  0.00     0.010 A 
ATOM     33  C   UNL A   1      38.267  29.234  29.186  1.00  0.00    -0.014 A 
BRANCH  33  34
ATOM     34  C   UNL A   1      39.536  28.774  29.808  1.00  0.00     0.031 A 
ATOM     35  C   UNL A   1      40.305  27.649  29.166  1.00  0.00     0.074 A 
ATOM     36  C   UNL A   1      40.037  29.395  30.891  1.00  0.00     0.049 A 
ATOM     37  N   UNL A   1      41.458  27.133  29.508  1.00  0.00    -0.248 NA
ATOM     38  C   UNL A   1      39.693  27.024  27.983  1.00  0.00     0.031 C 
ATOM     39  C   UNL A   1      39.408  30.512  31.595  1.00  0.00     0.029 A 
ATOM     40  N   UNL A   1      41.203  29.175  31.581  1.00  0.00    -0.354 N 
ATOM     41  C   UNL A   1      41.714  26.132  28.579  1.00  0.00     0.074 A 
ATOM     42  C   UNL A   1      40.576  26.081  27.687  1.00  0.00     0.031 C 
ATOM     43  C   UNL A   1      40.200  30.885  32.615  1.00  0.00     0.029 A 
ATOM     44  C   UNL A   1      41.379  30.021  32.647  1.00  0.00     0.049 A 
ATOM     45  H   UNL A   1      41.851  28.476  31.335  1.00  0.00     0.167 HD
ATOM     46  C   UNL A   1      42.804  25.337  28.463  1.00  0.00     0.031 A 
ATOM     47  C   UNL A   1      42.377  30.090  33.550  1.00  0.00     0.031 A 
ATOM     48  C   UNL A   1      43.935  25.369  29.351  1.00  0.00     0.049 A 
ATOM     49  C   UNL A   1      43.552  29.156  33.434  1.00  0.00     0.074 A 
ATOM     50  C   UNL A   1      45.084  24.596  29.315  1.00  0.00     0.029 A 
ATOM     51  N   UNL A   1      44.058  26.218  30.437  1.00  0.00    -0.354 N 
ATOM     52  N   UNL A   1      43.789  28.234  32.534  1.00  0.00    -0.248 NA
ATOM     53  C   UNL A   1      44.604  29.288  34.453  1.00  0.00     0.031 C 
ATOM     54  C   UNL A   1      45.884  24.952  30.406  1.00  0.00     0.029 A 
ATOM     55  C   UNL A   1      45.255  25.980  31.090  1.00  0.00     0.049 A 
ATOM     56  H   UNL A   1      43.391  26.893  30.706  1.00  0.00     0.167 HD
ATOM     57  C   UNL A   1      45.026  27.693  32.864  1.00  0.00     0.074 A 
ATOM     58  C   UNL A   1      45.498  28.404  34.034  1.00  0.00     0.031 C 
ATOM     59  C   UNL A   1      45.710  26.693  32.254  1.00  0.00     0.031 A 
BRANCH  46  60
ATOM     60  C   UNL A   1      42.815  24.348  27.331  1.00  0.00    -0.014 A 
ATOM     61  C   UNL A   1      43.383  24.677  26.089  1.00  0.00     0.009 A 
ATOM     62  C   UNL A   1      42.283  23.063  27.516  1.00  0.00     0.009 A 
ATOM     63  C   UNL A   1      43.387  23.749  25.046  1.00  0.00     0.001 A 
ATOM     64  C   UNL A   1      42.311  22.129  26.478  1.00  0.00     0.001 A 
ATOM     65  C   UNL A   1      42.856  22.476  25.243  1.00  0.00     0.000 A 
ENDBRANCH  46  60
BRANCH  47  66
ATOM     66  C   UNL A   1      42.311  31.078  34.659  1.00  0.00    -0.014 A 
ATOM     67  C   UNL A   1      41.583  30.804  35.827  1.00  0.00     0.009 A 
ATOM     68  C   UNL A   1      42.952  32.321  34.535  1.00  0.00     0.009 A 
ATOM     69  C   UNL A   1      41.476  31.765  36.835  1.00  0.00     0.001 A 
ATOM     70  C   UNL A   1      42.866  33.268  35.556  1.00  0.00     0.001 A 
ATOM     71  C   UNL A   1      42.119  32.995  36.701  1.00  0.00     0.000 A 
ENDBRANCH  47  66
BRANCH  59  72
ATOM     72  C   UNL A   1      47.055  26.335  32.823  1.00  0.00    -0.014 A 
ATOM     73  C   UNL A   1      47.190  25.324  33.788  1.00  0.00     0.009 A 
ATOM     74  C   UNL A   1      48.203  27.001  32.368  1.00  0.00     0.009 A 
ATOM     75  C   UNL A   1      48.446  25.016  34.314  1.00  0.00     0.001 A 
ATOM     76  C   UNL A   1      49.461  26.671  32.875  1.00  0.00     0.001 A 
ATOM     77  C   UNL A   1      49.580  25.686  33.854  1.00  0.00     0.000 A 
ENDBRANCH  59  72
ENDBRANCH  33  34
ENDBRANCH  26  28
ENDBRANCH  25  26
ENDBRANCH  24  25
ENDBRANCH  23  24
ENDBRANCH  22  23
ENDBRANCH   1  22
TORSDOF 19
ENDMDL
