MODEL 1
REMARK VINA RESULT:      -9.8      0.000      0.000
REMARK SMILES CC[C@@](C)([NH2+][C@H]1CC[C@H](C)[C@H](C)C1)C(=O)OCCOCCOC(=O)c1ccc(-c2c3nc(c(-c4ccccc4)c4ccc([nH]4)c(-c4ccccc4)c4nc(c(-c5ccccc5)c5ccc2[nH]5)C=C4)C=C3)cc1
REMARK SMILES IDX 19 1 18 2 17 3 16 4 14 5 15 6 3 7 4 8 2 9 1 10 5 11 6 14
REMARK SMILES IDX 7 15 13 16 8 17 11 18 9 19 12 20 10 21 20 22 21 23 22 24
REMARK SMILES IDX 23 25 24 26 25 27 26 28 72 29 27 30 71 31 28 32 29 33 30 34
REMARK SMILES IDX 65 35 31 36 70 37 64 38 66 39 32 40 69 41 63 42 62 43 33 45
REMARK SMILES IDX 55 46 40 47 54 48 41 49 44 50 53 51 67 52 42 53 43 54 52 56
REMARK SMILES IDX 68 57 45 58 34 59 35 60 39 61 36 62 38 63 37 64 56 65 57 66
REMARK SMILES IDX 61 67 58 68 60 69 59 70 46 71 47 72 51 73 48 74 50 75 49 76
REMARK H PARENT 5 12 5 13 66 44 44 55
REMARK Flexibility Score: inf
ROOT
ATOM      1  O   UNL A   1      42.414  20.563  26.654  1.00  0.00    -0.374 OA
ENDROOT
BRANCH   1   2
ATOM      2  C   UNL A   1      41.469  21.514  26.154  1.00  0.00     0.202 C 
BRANCH   2   3
ATOM      3  C   UNL A   1      40.069  21.345  26.733  1.00  0.00     0.261 C 
BRANCH   3   4
ATOM      4  O   UNL A   1      39.125  21.597  25.682  1.00  0.00    -0.459 OA
BRANCH   4   5
ATOM      5  C   UNL A   1      38.256  22.622  25.861  1.00  0.00     0.367 C 
ATOM      6  O   UNL A   1      38.583  23.703  26.343  1.00  0.00    -0.245 OA
BRANCH   5   7
ATOM      7  C   UNL A   1      36.796  22.285  25.423  1.00  0.00     0.191 C 
ATOM      8  C   UNL A   1      35.850  23.278  26.110  1.00  0.00     0.092 C 
BRANCH   7   9
ATOM      9  C   UNL A   1      36.711  22.451  23.867  1.00  0.00     0.077 C 
ATOM     10  C   UNL A   1      35.522  23.221  23.293  1.00  0.00     0.011 C 
ENDBRANCH   7   9
BRANCH   7  11
ATOM     11  N   UNL A   1      36.412  20.855  25.632  1.00  0.00    -0.330 N 
ATOM     12  H   UNL A   1      36.120  20.796  26.608  1.00  0.00     0.347 HD
ATOM     13  H   UNL A   1      37.251  20.393  25.282  1.00  0.00     0.347 HD
BRANCH  11  14
ATOM     14  C   UNL A   1      35.385  20.119  24.878  1.00  0.00     0.183 C 
ATOM     15  C   UNL A   1      35.906  18.669  24.772  1.00  0.00     0.065 C 
ATOM     16  C   UNL A   1      33.923  20.250  25.331  1.00  0.00     0.068 C 
ATOM     17  C   UNL A   1      34.885  17.666  24.252  1.00  0.00     0.010 C 
ATOM     18  C   UNL A   1      32.954  19.144  24.913  1.00  0.00    -0.006 C 
ATOM     19  C   UNL A   1      33.606  17.767  25.078  1.00  0.00    -0.011 C 
ATOM     20  C   UNL A   1      32.367  19.396  23.521  1.00  0.00     0.008 C 
ATOM     21  C   UNL A   1      32.619  16.664  24.750  1.00  0.00     0.008 C 
ENDBRANCH  11  14
ENDBRANCH   7  11
ENDBRANCH   5   7
ENDBRANCH   4   5
ENDBRANCH   3   4
ENDBRANCH   2   3
ENDBRANCH   1   2
BRANCH   1  22
ATOM     22  C   UNL A   1      42.250  19.226  26.177  1.00  0.00     0.202 C 
BRANCH  22  23
ATOM     23  C   UNL A   1      43.540  18.568  25.671  1.00  0.00     0.261 C 
BRANCH  23  24
ATOM     24  O   UNL A   1      43.959  19.099  24.398  1.00  0.00    -0.460 OA
BRANCH  24  25
ATOM     25  C   UNL A   1      45.189  19.667  24.369  1.00  0.00     0.338 C 
ATOM     26  O   UNL A   1      46.224  19.173  23.953  1.00  0.00    -0.246 OA
BRANCH  25  27
ATOM     27  C   UNL A   1      45.072  21.089  24.762  1.00  0.00     0.060 A 
ATOM     28  C   UNL A   1      44.546  22.010  23.843  1.00  0.00     0.016 A 
ATOM     29  C   UNL A   1      45.482  21.519  26.021  1.00  0.00     0.016 A 
ATOM     30  C   UNL A   1      44.450  23.370  24.170  1.00  0.00     0.010 A 
ATOM     31  C   UNL A   1      45.374  22.872  26.348  1.00  0.00     0.010 A 
ATOM     32  C   UNL A   1      44.883  23.822  25.420  1.00  0.00    -0.014 A 
BRANCH  32  33
ATOM     33  C   UNL A   1      44.971  25.271  25.777  1.00  0.00     0.031 A 
ATOM     34  C   UNL A   1      46.340  25.895  25.846  1.00  0.00     0.074 A 
ATOM     35  C   UNL A   1      43.905  26.015  26.137  1.00  0.00     0.049 A 
ATOM     36  N   UNL A   1      46.709  27.051  26.334  1.00  0.00    -0.248 NA
ATOM     37  C   UNL A   1      47.444  25.086  25.303  1.00  0.00     0.031 C 
ATOM     38  C   UNL A   1      42.507  25.603  26.072  1.00  0.00     0.029 A 
ATOM     39  N   UNL A   1      43.850  27.269  26.709  1.00  0.00    -0.354 N 
ATOM     40  C   UNL A   1      48.086  27.099  26.169  1.00  0.00     0.074 A 
ATOM     41  C   UNL A   1      48.494  25.824  25.623  1.00  0.00     0.031 C 
ATOM     42  C   UNL A   1      41.744  26.527  26.685  1.00  0.00     0.029 A 
ATOM     43  C   UNL A   1      42.598  27.609  27.166  1.00  0.00     0.049 A 
ATOM     44  H   UNL A   1      44.632  27.864  26.783  1.00  0.00     0.167 HD
ATOM     45  C   UNL A   1      48.939  28.122  26.410  1.00  0.00     0.031 A 
ATOM     46  C   UNL A   1      42.180  28.655  27.909  1.00  0.00     0.031 A 
ATOM     47  C   UNL A   1      48.545  29.394  26.945  1.00  0.00     0.049 A 
ATOM     48  C   UNL A   1      43.150  29.749  28.269  1.00  0.00     0.074 A 
ATOM     49  C   UNL A   1      49.323  30.519  27.155  1.00  0.00     0.029 A 
ATOM     50  N   UNL A   1      47.263  29.707  27.370  1.00  0.00    -0.354 N 
ATOM     51  N   UNL A   1      44.436  29.821  28.032  1.00  0.00    -0.248 NA
ATOM     52  C   UNL A   1      42.599  30.932  28.952  1.00  0.00     0.031 C 
ATOM     53  C   UNL A   1      48.527  31.490  27.771  1.00  0.00     0.029 A 
ATOM     54  C   UNL A   1      47.236  30.995  27.877  1.00  0.00     0.049 A 
ATOM     55  H   UNL A   1      46.488  29.103  27.319  1.00  0.00     0.167 HD
ATOM     56  C   UNL A   1      44.836  31.078  28.473  1.00  0.00     0.074 A 
ATOM     57  C   UNL A   1      43.660  31.727  29.013  1.00  0.00     0.031 C 
ATOM     58  C   UNL A   1      46.064  31.646  28.406  1.00  0.00     0.031 A 
BRANCH  45  59
ATOM     59  C   UNL A   1      50.390  27.875  26.101  1.00  0.00    -0.014 A 
ATOM     60  C   UNL A   1      50.933  28.185  24.843  1.00  0.00     0.009 A 
ATOM     61  C   UNL A   1      51.216  27.291  27.071  1.00  0.00     0.009 A 
ATOM     62  C   UNL A   1      52.252  27.846  24.538  1.00  0.00     0.001 A 
ATOM     63  C   UNL A   1      52.547  26.990  26.778  1.00  0.00     0.001 A 
ATOM     64  C   UNL A   1      53.057  27.249  25.506  1.00  0.00     0.000 A 
ENDBRANCH  45  59
BRANCH  46  65
ATOM     65  C   UNL A   1      40.758  28.737  28.341  1.00  0.00    -0.014 A 
ATOM     66  C   UNL A   1      39.779  29.261  27.484  1.00  0.00     0.009 A 
ATOM     67  C   UNL A   1      40.373  28.290  29.615  1.00  0.00     0.009 A 
ATOM     68  C   UNL A   1      38.448  29.355  27.900  1.00  0.00     0.001 A 
ATOM     69  C   UNL A   1      39.037  28.366  30.021  1.00  0.00     0.001 A 
ATOM     70  C   UNL A   1      38.077  28.904  29.166  1.00  0.00     0.000 A 
ENDBRANCH  46  65
BRANCH  58  71
ATOM     71  C   UNL A   1      46.210  33.071  28.865  1.00  0.00    -0.014 A 
ATOM     72  C   UNL A   1      46.598  33.392  30.173  1.00  0.00     0.009 A 
ATOM     73  C   UNL A   1      46.041  34.109  27.933  1.00  0.00     0.009 A 
ATOM     74  C   UNL A   1      46.796  34.725  30.544  1.00  0.00     0.001 A 
ATOM     75  C   UNL A   1      46.269  35.437  28.297  1.00  0.00     0.001 A 
ATOM     76  C   UNL A   1      46.641  35.745  29.603  1.00  0.00     0.000 A 
ENDBRANCH  58  71
ENDBRANCH  32  33
ENDBRANCH  25  27
ENDBRANCH  24  25
ENDBRANCH  23  24
ENDBRANCH  22  23
ENDBRANCH   1  22
TORSDOF 17
ENDMDL
MODEL 2
REMARK VINA RESULT:      -9.6      5.098     10.013
REMARK SMILES CC[C@@](C)([NH2+][C@H]1CC[C@H](C)[C@H](C)C1)C(=O)OCCOCCOC(=O)c1ccc(-c2c3nc(c(-c4ccccc4)c4ccc([nH]4)c(-c4ccccc4)c4nc(c(-c5ccccc5)c5ccc2[nH]5)C=C4)C=C3)cc1
REMARK SMILES IDX 19 1 18 2 17 3 16 4 14 5 15 6 3 7 4 8 2 9 1 10 5 11 6 14
REMARK SMILES IDX 7 15 13 16 8 17 11 18 9 19 12 20 10 21 20 22 21 23 22 24
REMARK SMILES IDX 23 25 24 26 25 27 26 28 72 29 27 30 71 31 28 32 29 33 30 34
REMARK SMILES IDX 65 35 31 36 70 37 64 38 66 39 32 40 69 41 63 42 62 43 33 45
REMARK SMILES IDX 55 46 40 47 54 48 41 49 44 50 53 51 67 52 42 53 43 54 52 56
REMARK SMILES IDX 68 57 45 58 34 59 35 60 39 61 36 62 38 63 37 64 56 65 57 66
REMARK SMILES IDX 61 67 58 68 60 69 59 70 46 71 47 72 51 73 48 74 50 75 49 76
REMARK H PARENT 5 12 5 13 66 44 44 55
REMARK Flexibility Score: inf
ROOT
ATOM      1  O   UNL A   1      34.470  34.381  29.048  1.00  0.00    -0.374 OA
ENDROOT
BRANCH   1   2
ATOM      2  C   UNL A   1      33.817  33.529  28.102  1.00  0.00     0.202 C 
BRANCH   2   3
ATOM      3  C   UNL A   1      34.249  32.071  28.192  1.00  0.00     0.261 C 
BRANCH   3   4
ATOM      4  O   UNL A   1      33.420  31.310  27.301  1.00  0.00    -0.459 OA
BRANCH   4   5
ATOM      5  C   UNL A   1      33.671  29.981  27.204  1.00  0.00     0.367 C 
ATOM      6  O   UNL A   1      34.503  29.402  27.896  1.00  0.00    -0.245 OA
BRANCH   5   7
ATOM      7  C   UNL A   1      32.821  29.266  26.108  1.00  0.00     0.191 C 
ATOM      8  C   UNL A   1      33.746  28.326  25.324  1.00  0.00     0.092 C 
BRANCH   7   9
ATOM      9  C   UNL A   1      31.701  28.440  26.829  1.00  0.00     0.077 C 
ATOM     10  C   UNL A   1      31.803  26.916  26.797  1.00  0.00     0.011 C 
ENDBRANCH   7   9
BRANCH   7  11
ATOM     11  N   UNL A   1      32.043  30.198  25.234  1.00  0.00    -0.330 N 
ATOM     12  H   UNL A   1      32.659  30.406  24.448  1.00  0.00     0.347 HD
ATOM     13  H   UNL A   1      31.775  30.903  25.922  1.00  0.00     0.347 HD
BRANCH  11  14
ATOM     14  C   UNL A   1      30.729  29.922  24.632  1.00  0.00     0.183 C 
ATOM     15  C   UNL A   1      30.058  31.300  24.446  1.00  0.00     0.065 C 
ATOM     16  C   UNL A   1      30.678  29.005  23.400  1.00  0.00     0.068 C 
ATOM     17  C   UNL A   1      28.791  31.278  23.601  1.00  0.00     0.010 C 
ATOM     18  C   UNL A   1      29.455  29.116  22.490  1.00  0.00    -0.006 C 
ATOM     19  C   UNL A   1      29.079  30.586  22.272  1.00  0.00    -0.011 C 
ATOM     20  C   UNL A   1      28.299  28.239  22.979  1.00  0.00     0.008 C 
ATOM     21  C   UNL A   1      27.922  30.703  21.299  1.00  0.00     0.008 C 
ENDBRANCH  11  14
ENDBRANCH   7  11
ENDBRANCH   5   7
ENDBRANCH   4   5
ENDBRANCH   3   4
ENDBRANCH   2   3
ENDBRANCH   1   2
BRANCH   1  22
ATOM     22  C   UNL A   1      33.727  34.662  30.236  1.00  0.00     0.202 C 
BRANCH  22  23
ATOM     23  C   UNL A   1      34.430  34.256  31.538  1.00  0.00     0.261 C 
BRANCH  23  24
ATOM     24  O   UNL A   1      34.903  32.895  31.499  1.00  0.00    -0.460 OA
BRANCH  24  25
ATOM     25  C   UNL A   1      35.749  32.533  32.494  1.00  0.00     0.338 C 
ATOM     26  O   UNL A   1      35.502  32.455  33.686  1.00  0.00    -0.246 OA
BRANCH  25  27
ATOM     27  C   UNL A   1      37.017  32.056  31.898  1.00  0.00     0.060 A 
ATOM     28  C   UNL A   1      37.222  32.207  30.518  1.00  0.00     0.016 A 
ATOM     29  C   UNL A   1      37.997  31.457  32.685  1.00  0.00     0.016 A 
ATOM     30  C   UNL A   1      38.397  31.739  29.914  1.00  0.00     0.010 A 
ATOM     31  C   UNL A   1      39.171  31.002  32.083  1.00  0.00     0.010 A 
ATOM     32  C   UNL A   1      39.378  31.110  30.687  1.00  0.00    -0.014 A 
BRANCH  32  33
ATOM     33  C   UNL A   1      40.574  30.437  30.094  1.00  0.00     0.031 A 
ATOM     34  C   UNL A   1      41.781  31.287  29.794  1.00  0.00     0.074 A 
ATOM     35  C   UNL A   1      40.592  29.140  29.723  1.00  0.00     0.049 A 
ATOM     36  N   UNL A   1      42.848  31.007  29.093  1.00  0.00    -0.248 NA
ATOM     37  C   UNL A   1      41.763  32.650  30.351  1.00  0.00     0.031 C 
ATOM     38  C   UNL A   1      39.547  28.156  29.988  1.00  0.00     0.029 A 
ATOM     39  N   UNL A   1      41.511  28.446  28.964  1.00  0.00    -0.354 N 
ATOM     40  C   UNL A   1      43.619  32.161  29.114  1.00  0.00     0.074 A 
ATOM     41  C   UNL A   1      42.856  33.168  29.817  1.00  0.00     0.031 C 
ATOM     42  C   UNL A   1      39.822  27.027  29.310  1.00  0.00     0.029 A 
ATOM     43  C   UNL A   1      41.075  27.199  28.581  1.00  0.00     0.049 A 
ATOM     44  H   UNL A   1      42.394  28.808  28.720  1.00  0.00     0.167 HD
ATOM     45  C   UNL A   1      44.867  32.363  28.631  1.00  0.00     0.031 A 
ATOM     46  C   UNL A   1      41.603  26.302  27.722  1.00  0.00     0.031 A 
ATOM     47  C   UNL A   1      45.636  31.368  27.938  1.00  0.00     0.049 A 
ATOM     48  C   UNL A   1      42.948  26.567  27.099  1.00  0.00     0.074 A 
ATOM     49  C   UNL A   1      46.937  31.454  27.476  1.00  0.00     0.029 A 
ATOM     50  N   UNL A   1      45.169  30.110  27.594  1.00  0.00    -0.354 N 
ATOM     51  N   UNL A   1      43.705  27.631  27.197  1.00  0.00    -0.248 NA
ATOM     52  C   UNL A   1      43.535  25.486  26.291  1.00  0.00     0.031 C 
ATOM     53  C   UNL A   1      47.234  30.272  26.790  1.00  0.00     0.029 A 
ATOM     54  C   UNL A   1      46.143  29.423  26.890  1.00  0.00     0.049 A 
ATOM     55  H   UNL A   1      44.277  29.758  27.816  1.00  0.00     0.167 HD
ATOM     56  C   UNL A   1      44.883  27.325  26.522  1.00  0.00     0.074 A 
ATOM     57  C   UNL A   1      44.730  25.983  26.001  1.00  0.00     0.031 C 
ATOM     58  C   UNL A   1      45.997  28.083  26.378  1.00  0.00     0.031 A 
BRANCH  45  59
ATOM     59  C   UNL A   1      45.453  33.732  28.834  1.00  0.00    -0.014 A 
ATOM     60  C   UNL A   1      45.298  34.745  27.872  1.00  0.00     0.009 A 
ATOM     61  C   UNL A   1      46.204  34.002  29.987  1.00  0.00     0.009 A 
ATOM     62  C   UNL A   1      45.943  35.973  28.026  1.00  0.00     0.001 A 
ATOM     63  C   UNL A   1      46.814  35.245  30.158  1.00  0.00     0.001 A 
ATOM     64  C   UNL A   1      46.700  36.221  29.169  1.00  0.00     0.000 A 
ENDBRANCH  45  59
BRANCH  46  65
ATOM     65  C   UNL A   1      40.870  25.042  27.422  1.00  0.00    -0.014 A 
ATOM     66  C   UNL A   1      41.301  23.818  27.955  1.00  0.00     0.009 A 
ATOM     67  C   UNL A   1      39.732  25.059  26.599  1.00  0.00     0.009 A 
ATOM     68  C   UNL A   1      40.621  22.635  27.654  1.00  0.00     0.001 A 
ATOM     69  C   UNL A   1      39.042  23.876  26.317  1.00  0.00     0.001 A 
ATOM     70  C   UNL A   1      39.490  22.664  26.840  1.00  0.00     0.000 A 
ENDBRANCH  46  65
BRANCH  58  71
ATOM     71  C   UNL A   1      47.183  27.473  25.684  1.00  0.00    -0.014 A 
ATOM     72  C   UNL A   1      48.118  26.684  26.370  1.00  0.00     0.009 A 
ATOM     73  C   UNL A   1      47.311  27.622  24.292  1.00  0.00     0.009 A 
ATOM     74  C   UNL A   1      49.166  26.072  25.679  1.00  0.00     0.001 A 
ATOM     75  C   UNL A   1      48.342  26.984  23.600  1.00  0.00     0.001 A 
ATOM     76  C   UNL A   1      49.272  26.214  24.294  1.00  0.00     0.000 A 
ENDBRANCH  58  71
ENDBRANCH  32  33
ENDBRANCH  25  27
ENDBRANCH  24  25
ENDBRANCH  23  24
ENDBRANCH  22  23
ENDBRANCH   1  22
TORSDOF 17
ENDMDL
MODEL 3
REMARK VINA RESULT:      -9.4      6.820     11.865
REMARK SMILES CC[C@@](C)([NH2+][C@H]1CC[C@H](C)[C@H](C)C1)C(=O)OCCOCCOC(=O)c1ccc(-c2c3nc(c(-c4ccccc4)c4ccc([nH]4)c(-c4ccccc4)c4nc(c(-c5ccccc5)c5ccc2[nH]5)C=C4)C=C3)cc1
REMARK SMILES IDX 19 1 18 2 17 3 16 4 14 5 15 6 3 7 4 8 2 9 1 10 5 11 6 14
REMARK SMILES IDX 7 15 13 16 8 17 11 18 9 19 12 20 10 21 20 22 21 23 22 24
REMARK SMILES IDX 23 25 24 26 25 27 26 28 72 29 27 30 71 31 28 32 29 33 30 34
REMARK SMILES IDX 65 35 31 36 70 37 64 38 66 39 32 40 69 41 63 42 62 43 33 45
REMARK SMILES IDX 55 46 40 47 54 48 41 49 44 50 53 51 67 52 42 53 43 54 52 56
REMARK SMILES IDX 68 57 45 58 34 59 35 60 39 61 36 62 38 63 37 64 56 65 57 66
REMARK SMILES IDX 61 67 58 68 60 69 59 70 46 71 47 72 51 73 48 74 50 75 49 76
REMARK H PARENT 5 12 5 13 66 44 44 55
REMARK Flexibility Score: inf
ROOT
ATOM      1  O   UNL A   1      32.967  31.310  27.389  1.00  0.00    -0.374 OA
ENDROOT
BRANCH   1   2
ATOM      2  C   UNL A   1      32.561  29.948  27.227  1.00  0.00     0.202 C 
BRANCH   2   3
ATOM      3  C   UNL A   1      31.908  29.662  25.880  1.00  0.00     0.261 C 
BRANCH   3   4
ATOM      4  O   UNL A   1      31.587  28.263  25.834  1.00  0.00    -0.459 OA
BRANCH   4   5
ATOM      5  C   UNL A   1      31.939  27.582  24.715  1.00  0.00     0.367 C 
ATOM      6  O   UNL A   1      32.971  27.807  24.088  1.00  0.00    -0.245 OA
BRANCH   5   7
ATOM      7  C   UNL A   1      30.893  26.506  24.287  1.00  0.00     0.191 C 
ATOM      8  C   UNL A   1      31.648  25.334  23.648  1.00  0.00     0.092 C 
BRANCH   7   9
ATOM      9  C   UNL A   1      30.143  26.025  25.576  1.00  0.00     0.077 C 
ATOM     10  C   UNL A   1      30.436  24.616  26.090  1.00  0.00     0.011 C 
ENDBRANCH   7   9
BRANCH   7  11
ATOM     11  N   UNL A   1      29.787  27.038  23.431  1.00  0.00    -0.330 N 
ATOM     12  H   UNL A   1      28.945  26.559  23.754  1.00  0.00     0.347 HD
ATOM     13  H   UNL A   1      30.187  26.880  22.507  1.00  0.00     0.347 HD
BRANCH  11  14
ATOM     14  C   UNL A   1      29.400  28.452  23.302  1.00  0.00     0.183 C 
ATOM     15  C   UNL A   1      30.256  29.013  22.145  1.00  0.00     0.065 C 
ATOM     16  C   UNL A   1      27.903  28.786  23.221  1.00  0.00     0.068 C 
ATOM     17  C   UNL A   1      29.839  30.396  21.663  1.00  0.00     0.010 C 
ATOM     18  C   UNL A   1      27.513  30.125  22.594  1.00  0.00    -0.006 C 
ATOM     19  C   UNL A   1      28.349  30.393  21.337  1.00  0.00    -0.011 C 
ATOM     20  C   UNL A   1      27.539  31.264  23.617  1.00  0.00     0.008 C 
ATOM     21  C   UNL A   1      27.904  31.676  20.662  1.00  0.00     0.008 C 
ENDBRANCH  11  14
ENDBRANCH   7  11
ENDBRANCH   5   7
ENDBRANCH   4   5
ENDBRANCH   3   4
ENDBRANCH   2   3
ENDBRANCH   1   2
BRANCH   1  22
ATOM     22  C   UNL A   1      31.928  32.281  27.243  1.00  0.00     0.202 C 
BRANCH  22  23
ATOM     23  C   UNL A   1      32.421  33.730  27.141  1.00  0.00     0.261 C 
BRANCH  23  24
ATOM     24  O   UNL A   1      32.378  34.410  28.411  1.00  0.00    -0.460 OA
BRANCH  24  25
ATOM     25  C   UNL A   1      33.504  35.074  28.767  1.00  0.00     0.338 C 
ATOM     26  O   UNL A   1      33.659  36.282  28.847  1.00  0.00    -0.246 OA
BRANCH  25  27
ATOM     27  C   UNL A   1      34.513  34.097  29.234  1.00  0.00     0.060 A 
ATOM     28  C   UNL A   1      34.150  33.154  30.208  1.00  0.00     0.016 A 
ATOM     29  C   UNL A   1      35.809  34.108  28.725  1.00  0.00     0.016 A 
ATOM     30  C   UNL A   1      35.089  32.234  30.696  1.00  0.00     0.010 A 
ATOM     31  C   UNL A   1      36.738  33.182  29.204  1.00  0.00     0.010 A 
ATOM     32  C   UNL A   1      36.401  32.250  30.215  1.00  0.00    -0.014 A 
BRANCH  32  33
ATOM     33  C   UNL A   1      37.495  31.419  30.805  1.00  0.00     0.031 A 
ATOM     34  C   UNL A   1      38.070  31.853  32.127  1.00  0.00     0.074 A 
ATOM     35  C   UNL A   1      38.057  30.370  30.171  1.00  0.00     0.049 A 
ATOM     36  N   UNL A   1      39.151  31.448  32.743  1.00  0.00    -0.248 NA
ATOM     37  C   UNL A   1      37.327  32.905  32.839  1.00  0.00     0.031 C 
ATOM     38  C   UNL A   1      37.596  29.772  28.922  1.00  0.00     0.029 A 
ATOM     39  N   UNL A   1      39.205  29.664  30.467  1.00  0.00    -0.354 N 
ATOM     40  C   UNL A   1      39.221  32.205  33.903  1.00  0.00     0.074 A 
ATOM     41  C   UNL A   1      38.130  33.152  33.860  1.00  0.00     0.031 C 
ATOM     42  C   UNL A   1      38.506  28.875  28.499  1.00  0.00     0.029 A 
ATOM     43  C   UNL A   1      39.604  28.818  29.458  1.00  0.00     0.049 A 
ATOM     44  H   UNL A   1      39.692  29.758  31.318  1.00  0.00     0.167 HD
ATOM     45  C   UNL A   1      40.088  32.103  34.938  1.00  0.00     0.031 A 
ATOM     46  C   UNL A   1      40.734  28.096  29.304  1.00  0.00     0.031 A 
ATOM     47  C   UNL A   1      41.171  31.162  34.995  1.00  0.00     0.049 A 
ATOM     48  C   UNL A   1      41.753  28.059  30.411  1.00  0.00     0.074 A 
ATOM     49  C   UNL A   1      42.057  30.931  36.032  1.00  0.00     0.029 A 
ATOM     50  N   UNL A   1      41.524  30.305  33.966  1.00  0.00    -0.354 N 
ATOM     51  N   UNL A   1      41.764  28.717  31.543  1.00  0.00    -0.248 NA
ATOM     52  C   UNL A   1      42.889  27.137  30.243  1.00  0.00     0.031 C 
ATOM     53  C   UNL A   1      42.991  29.983  35.603  1.00  0.00     0.029 A 
ATOM     54  C   UNL A   1      42.640  29.570  34.327  1.00  0.00     0.049 A 
ATOM     55  H   UNL A   1      41.052  30.230  33.105  1.00  0.00     0.167 HD
ATOM     56  C   UNL A   1      42.865  28.244  32.250  1.00  0.00     0.074 A 
ATOM     57  C   UNL A   1      43.510  27.258  31.409  1.00  0.00     0.031 C 
ATOM     58  C   UNL A   1      43.279  28.581  33.495  1.00  0.00     0.031 A 
BRANCH  45  59
ATOM     59  C   UNL A   1      39.889  33.060  36.080  1.00  0.00    -0.014 A 
ATOM     60  C   UNL A   1      40.587  34.279  36.144  1.00  0.00     0.009 A 
ATOM     61  C   UNL A   1      39.018  32.723  37.125  1.00  0.00     0.009 A 
ATOM     62  C   UNL A   1      40.474  35.101  37.265  1.00  0.00     0.001 A 
ATOM     63  C   UNL A   1      38.875  33.567  38.227  1.00  0.00     0.001 A 
ATOM     64  C   UNL A   1      39.618  34.744  38.305  1.00  0.00     0.000 A 
ENDBRANCH  45  59
BRANCH  46  65
ATOM     65  C   UNL A   1      40.950  27.316  28.055  1.00  0.00    -0.014 A 
ATOM     66  C   UNL A   1      40.517  25.985  27.959  1.00  0.00     0.009 A 
ATOM     67  C   UNL A   1      41.592  27.900  26.952  1.00  0.00     0.009 A 
ATOM     68  C   UNL A   1      40.739  25.249  26.791  1.00  0.00     0.001 A 
ATOM     69  C   UNL A   1      41.794  27.168  25.777  1.00  0.00     0.001 A 
ATOM     70  C   UNL A   1      41.373  25.842  25.701  1.00  0.00     0.000 A 
ENDBRANCH  46  65
BRANCH  58  71
ATOM     71  C   UNL A   1      44.451  27.840  34.076  1.00  0.00    -0.014 A 
ATOM     72  C   UNL A   1      45.761  28.331  33.979  1.00  0.00     0.009 A 
ATOM     73  C   UNL A   1      44.220  26.666  34.814  1.00  0.00     0.009 A 
ATOM     74  C   UNL A   1      46.817  27.654  34.594  1.00  0.00     0.001 A 
ATOM     75  C   UNL A   1      45.272  26.008  35.453  1.00  0.00     0.001 A 
ATOM     76  C   UNL A   1      46.570  26.499  35.338  1.00  0.00     0.000 A 
ENDBRANCH  58  71
ENDBRANCH  32  33
ENDBRANCH  25  27
ENDBRANCH  24  25
ENDBRANCH  23  24
ENDBRANCH  22  23
ENDBRANCH   1  22
TORSDOF 17
ENDMDL
