MODEL 1
REMARK VINA RESULT:      -9.0      0.000      0.000
REMARK SMILES C[C@H]1CC[C@](C#N)([C@H](O)C(=O)OCCOCCOC(=O)c2ccc(-c3c4nc(c(-c5ccccc5)c5ccc([nH]5)c(-c5ccccc5)c5nc(c(-c6ccccc6)c6ccc3[nH]6)C=C5)C=C4)cc2)C1
REMARK SMILES IDX 15 1 14 2 13 3 12 4 10 5 11 6 8 7 5 8 1 9 2 10 3 11 69 12
REMARK SMILES IDX 4 13 6 14 7 15 9 16 16 18 17 19 18 20 19 21 20 22 21 23
REMARK SMILES IDX 22 24 68 25 23 26 67 27 24 28 25 29 26 30 61 31 27 32 66 33
REMARK SMILES IDX 60 34 62 35 28 36 65 37 59 38 58 39 29 41 51 42 36 43 50 44
REMARK SMILES IDX 37 45 40 46 49 47 63 48 38 49 39 50 48 52 64 53 41 54 30 55
REMARK SMILES IDX 31 56 35 57 32 58 34 59 33 60 52 61 53 62 57 63 54 64 56 65
REMARK SMILES IDX 55 66 42 67 43 68 47 69 44 70 46 71 45 72
REMARK H PARENT 9 17 62 40 40 51
REMARK Flexibility Score: inf
ROOT
ATOM      1  O   UNL A   1      42.173  19.109  25.387  1.00  0.00    -0.374 OA
ENDROOT
BRANCH   1   2
ATOM      2  C   UNL A   1      43.534  18.672  25.411  1.00  0.00     0.202 C 
BRANCH   2   3
ATOM      3  C   UNL A   1      44.467  19.202  24.307  1.00  0.00     0.261 C 
BRANCH   3   4
ATOM      4  O   UNL A   1      44.622  20.634  24.411  1.00  0.00    -0.461 OA
BRANCH   4   5
ATOM      5  C   UNL A   1      45.835  21.102  24.802  1.00  0.00     0.336 C 
ATOM      6  O   UNL A   1      46.700  20.415  25.333  1.00  0.00    -0.249 OA
BRANCH   5   7
ATOM      7  C   UNL A   1      46.094  22.560  24.348  1.00  0.00     0.244 C 
BRANCH   7   8
ATOM      8  C   UNL A   1      45.905  23.722  25.353  1.00  0.00     0.094 C 
ATOM      9  C   UNL A   1      45.954  26.683  26.551  1.00  0.00     0.008 C 
ATOM     10  C   UNL A   1      47.024  25.597  26.449  1.00  0.00    -0.013 C 
ATOM     11  C   UNL A   1      46.851  24.507  27.506  1.00  0.00     0.005 C 
ATOM     12  C   UNL A   1      46.977  24.805  25.142  1.00  0.00     0.029 C 
ATOM     13  C   UNL A   1      45.960  23.421  26.873  1.00  0.00     0.026 C 
BRANCH   8  14
ATOM     14  C   UNL A   1      44.564  24.296  25.052  1.00  0.00     0.072 C 
ATOM     15  N   UNL A   1      43.508  24.743  24.854  1.00  0.00    -0.198 NA
ENDBRANCH   8  14
ENDBRANCH   7   8
BRANCH   7  16
ATOM     16  O   UNL A   1      45.340  22.827  23.153  1.00  0.00    -0.380 OA
ATOM     17  H   UNL A   1      45.302  22.026  22.607  1.00  0.00     0.211 HD
ENDBRANCH   7  16
ENDBRANCH   5   7
ENDBRANCH   4   5
ENDBRANCH   3   4
ENDBRANCH   2   3
ENDBRANCH   1   2
BRANCH   1  18
ATOM     18  C   UNL A   1      41.692  19.759  26.561  1.00  0.00     0.202 C 
BRANCH  18  19
ATOM     19  C   UNL A   1      41.671  21.290  26.580  1.00  0.00     0.261 C 
BRANCH  19  20
ATOM     20  O   UNL A   1      40.518  21.799  27.273  1.00  0.00    -0.460 OA
BRANCH  20  21
ATOM     21  C   UNL A   1      39.686  22.521  26.490  1.00  0.00     0.338 C 
ATOM     22  O   UNL A   1      38.963  22.110  25.598  1.00  0.00    -0.246 OA
BRANCH  21  23
ATOM     23  C   UNL A   1      39.622  23.910  26.978  1.00  0.00     0.060 A 
ATOM     24  C   UNL A   1      40.183  24.899  26.162  1.00  0.00     0.016 A 
ATOM     25  C   UNL A   1      39.109  24.230  28.236  1.00  0.00     0.016 A 
ATOM     26  C   UNL A   1      40.320  26.198  26.637  1.00  0.00     0.010 A 
ATOM     27  C   UNL A   1      39.245  25.538  28.712  1.00  0.00     0.010 A 
ATOM     28  C   UNL A   1      39.903  26.511  27.936  1.00  0.00    -0.014 A 
BRANCH  28  29
ATOM     29  C   UNL A   1      40.323  27.799  28.539  1.00  0.00     0.031 A 
ATOM     30  C   UNL A   1      41.758  27.972  28.965  1.00  0.00     0.074 A 
ATOM     31  C   UNL A   1      39.457  28.820  28.661  1.00  0.00     0.049 A 
ATOM     32  N   UNL A   1      42.340  29.001  29.526  1.00  0.00    -0.248 NA
ATOM     33  C   UNL A   1      42.656  26.829  28.729  1.00  0.00     0.031 C 
ATOM     34  C   UNL A   1      38.057  28.796  28.243  1.00  0.00     0.029 A 
ATOM     35  N   UNL A   1      39.637  30.079  29.174  1.00  0.00    -0.354 N 
ATOM     36  C   UNL A   1      43.663  28.626  29.722  1.00  0.00     0.074 A 
ATOM     37  C   UNL A   1      43.789  27.260  29.262  1.00  0.00     0.031 C 
ATOM     38  C   UNL A   1      37.503  29.989  28.517  1.00  0.00     0.029 A 
ATOM     39  C   UNL A   1      38.495  30.842  29.167  1.00  0.00     0.049 A 
ATOM     40  H   UNL A   1      40.501  30.405  29.515  1.00  0.00     0.167 HD
ATOM     41  C   UNL A   1      44.687  29.353  30.230  1.00  0.00     0.031 A 
ATOM     42  C   UNL A   1      38.271  32.079  29.650  1.00  0.00     0.031 A 
ATOM     43  C   UNL A   1      44.557  30.706  30.703  1.00  0.00     0.049 A 
ATOM     44  C   UNL A   1      39.405  32.839  30.287  1.00  0.00     0.074 A 
ATOM     45  C   UNL A   1      45.536  31.534  31.227  1.00  0.00     0.029 A 
ATOM     46  N   UNL A   1      43.373  31.428  30.717  1.00  0.00    -0.354 N 
ATOM     47  N   UNL A   1      40.655  32.481  30.451  1.00  0.00    -0.248 NA
ATOM     48  C   UNL A   1      39.094  34.184  30.792  1.00  0.00     0.031 C 
ATOM     49  C   UNL A   1      44.928  32.729  31.626  1.00  0.00     0.029 A 
ATOM     50  C   UNL A   1      43.591  32.681  31.267  1.00  0.00     0.049 A 
ATOM     51  H   UNL A   1      42.507  31.100  30.385  1.00  0.00     0.167 HD
ATOM     52  C   UNL A   1      41.289  33.569  31.040  1.00  0.00     0.074 A 
ATOM     53  C   UNL A   1      40.287  34.603  31.191  1.00  0.00     0.031 C 
ATOM     54  C   UNL A   1      42.586  33.703  31.414  1.00  0.00     0.031 A 
BRANCH  41  55
ATOM     55  C   UNL A   1      46.030  28.682  30.336  1.00  0.00    -0.014 A 
ATOM     56  C   UNL A   1      46.979  28.766  29.304  1.00  0.00     0.009 A 
ATOM     57  C   UNL A   1      46.362  27.973  31.501  1.00  0.00     0.009 A 
ATOM     58  C   UNL A   1      48.212  28.119  29.418  1.00  0.00     0.001 A 
ATOM     59  C   UNL A   1      47.609  27.358  31.629  1.00  0.00     0.001 A 
ATOM     60  C   UNL A   1      48.528  27.421  30.582  1.00  0.00     0.000 A 
ENDBRANCH  41  55
BRANCH  42  61
ATOM     61  C   UNL A   1      36.910  32.671  29.570  1.00  0.00    -0.014 A 
ATOM     62  C   UNL A   1      35.971  32.461  30.591  1.00  0.00     0.009 A 
ATOM     63  C   UNL A   1      36.536  33.439  28.456  1.00  0.00     0.009 A 
ATOM     64  C   UNL A   1      34.678  32.980  30.482  1.00  0.00     0.001 A 
ATOM     65  C   UNL A   1      35.254  33.987  28.366  1.00  0.00     0.001 A 
ATOM     66  C   UNL A   1      34.324  33.747  29.373  1.00  0.00     0.000 A 
ENDBRANCH  42  61
BRANCH  54  67
ATOM     67  C   UNL A   1      43.014  35.038  31.967  1.00  0.00    -0.014 A 
ATOM     68  C   UNL A   1      43.557  36.041  31.149  1.00  0.00     0.009 A 
ATOM     69  C   UNL A   1      42.837  35.304  33.334  1.00  0.00     0.009 A 
ATOM     70  C   UNL A   1      43.957  37.262  31.699  1.00  0.00     0.001 A 
ATOM     71  C   UNL A   1      43.199  36.539  33.874  1.00  0.00     0.001 A 
ATOM     72  C   UNL A   1      43.772  37.512  33.058  1.00  0.00     0.000 A 
ENDBRANCH  54  67
ENDBRANCH  28  29
ENDBRANCH  21  23
ENDBRANCH  20  21
ENDBRANCH  19  20
ENDBRANCH  18  19
ENDBRANCH   1  18
TORSDOF 17
ENDMDL
MODEL 2
REMARK VINA RESULT:      -8.5      3.849      7.125
REMARK SMILES C[C@H]1CC[C@](C#N)([C@H](O)C(=O)OCCOCCOC(=O)c2ccc(-c3c4nc(c(-c5ccccc5)c5ccc([nH]5)c(-c5ccccc5)c5nc(c(-c6ccccc6)c6ccc3[nH]6)C=C5)C=C4)cc2)C1
REMARK SMILES IDX 15 1 14 2 13 3 12 4 10 5 11 6 8 7 5 8 1 9 2 10 3 11 69 12
REMARK SMILES IDX 4 13 6 14 7 15 9 16 16 18 17 19 18 20 19 21 20 22 21 23
REMARK SMILES IDX 22 24 68 25 23 26 67 27 24 28 25 29 26 30 61 31 27 32 66 33
REMARK SMILES IDX 60 34 62 35 28 36 65 37 59 38 58 39 29 41 51 42 36 43 50 44
REMARK SMILES IDX 37 45 40 46 49 47 63 48 38 49 39 50 48 52 64 53 41 54 30 55
REMARK SMILES IDX 31 56 35 57 32 58 34 59 33 60 52 61 53 62 57 63 54 64 56 65
REMARK SMILES IDX 55 66 42 67 43 68 47 69 44 70 46 71 45 72
REMARK H PARENT 9 17 62 40 40 51
REMARK Flexibility Score: inf
ROOT
ATOM      1  O   UNL A   1      37.915  21.762  25.734  1.00  0.00    -0.374 OA
ENDROOT
BRANCH   1   2
ATOM      2  C   UNL A   1      36.644  22.416  25.783  1.00  0.00     0.202 C 
BRANCH   2   3
ATOM      3  C   UNL A   1      35.506  21.815  24.938  1.00  0.00     0.261 C 
BRANCH   3   4
ATOM      4  O   UNL A   1      34.741  20.864  25.711  1.00  0.00    -0.461 OA
BRANCH   4   5
ATOM      5  C   UNL A   1      33.717  21.349  26.458  1.00  0.00     0.336 C 
ATOM      6  O   UNL A   1      33.776  21.539  27.667  1.00  0.00    -0.249 OA
BRANCH   5   7
ATOM      7  C   UNL A   1      32.512  21.813  25.602  1.00  0.00     0.244 C 
BRANCH   7   8
ATOM      8  C   UNL A   1      31.983  23.261  25.743  1.00  0.00     0.094 C 
ATOM      9  C   UNL A   1      30.223  25.873  25.204  1.00  0.00     0.008 C 
ATOM     10  C   UNL A   1      31.470  25.313  24.520  1.00  0.00    -0.013 C 
ATOM     11  C   UNL A   1      32.743  25.582  25.319  1.00  0.00     0.005 C 
ATOM     12  C   UNL A   1      31.471  23.789  24.391  1.00  0.00     0.029 C 
ATOM     13  C   UNL A   1      32.943  24.369  26.248  1.00  0.00     0.026 C 
BRANCH   8  14
ATOM     14  C   UNL A   1      30.843  23.178  26.698  1.00  0.00     0.072 C 
ATOM     15  N   UNL A   1      29.929  23.113  27.416  1.00  0.00    -0.198 NA
ENDBRANCH   8  14
ENDBRANCH   7   8
BRANCH   7  16
ATOM     16  O   UNL A   1      31.427  20.884  25.763  1.00  0.00    -0.380 OA
ATOM     17  H   UNL A   1      31.777  20.020  26.032  1.00  0.00     0.211 HD
ENDBRANCH   7  16
ENDBRANCH   5   7
ENDBRANCH   4   5
ENDBRANCH   3   4
ENDBRANCH   2   3
ENDBRANCH   1   2
BRANCH   1  18
ATOM     18  C   UNL A   1      37.989  20.573  24.949  1.00  0.00     0.202 C 
BRANCH  18  19
ATOM     19  C   UNL A   1      39.037  19.524  25.328  1.00  0.00     0.261 C 
BRANCH  19  20
ATOM     20  O   UNL A   1      39.861  19.964  26.421  1.00  0.00    -0.460 OA
BRANCH  20  21
ATOM     21  C   UNL A   1      41.186  19.797  26.207  1.00  0.00     0.338 C 
ATOM     22  O   UNL A   1      41.736  18.857  25.658  1.00  0.00    -0.246 OA
BRANCH  21  23
ATOM     23  C   UNL A   1      41.911  21.024  26.581  1.00  0.00     0.060 A 
ATOM     24  C   UNL A   1      42.050  21.290  27.948  1.00  0.00     0.016 A 
ATOM     25  C   UNL A   1      42.365  21.936  25.627  1.00  0.00     0.016 A 
ATOM     26  C   UNL A   1      42.560  22.512  28.371  1.00  0.00     0.010 A 
ATOM     27  C   UNL A   1      42.880  23.163  26.054  1.00  0.00     0.010 A 
ATOM     28  C   UNL A   1      42.924  23.477  27.426  1.00  0.00    -0.014 A 
BRANCH  28  29
ATOM     29  C   UNL A   1      43.175  24.869  27.873  1.00  0.00     0.031 A 
ATOM     30  C   UNL A   1      44.597  25.328  28.067  1.00  0.00     0.074 A 
ATOM     31  C   UNL A   1      42.159  25.730  28.055  1.00  0.00     0.049 A 
ATOM     32  N   UNL A   1      45.047  26.490  28.465  1.00  0.00    -0.248 NA
ATOM     33  C   UNL A   1      45.652  24.343  27.776  1.00  0.00     0.031 C 
ATOM     34  C   UNL A   1      40.744  25.424  27.853  1.00  0.00     0.029 A 
ATOM     35  N   UNL A   1      42.169  27.043  28.451  1.00  0.00    -0.354 N 
ATOM     36  C   UNL A   1      46.431  26.371  28.486  1.00  0.00     0.074 A 
ATOM     37  C   UNL A   1      46.745  25.012  28.103  1.00  0.00     0.031 C 
ATOM     38  C   UNL A   1      40.020  26.521  28.128  1.00  0.00     0.029 A 
ATOM     39  C   UNL A   1      40.915  27.591  28.564  1.00  0.00     0.049 A 
ATOM     40  H   UNL A   1      42.995  27.545  28.636  1.00  0.00     0.167 HD
ATOM     41  C   UNL A   1      47.361  27.310  28.785  1.00  0.00     0.031 A 
ATOM     42  C   UNL A   1      40.532  28.809  28.992  1.00  0.00     0.031 A 
ATOM     43  C   UNL A   1      47.047  28.658  29.182  1.00  0.00     0.049 A 
ATOM     44  C   UNL A   1      41.580  29.811  29.401  1.00  0.00     0.074 A 
ATOM     45  C   UNL A   1      47.916  29.688  29.498  1.00  0.00     0.029 A 
ATOM     46  N   UNL A   1      45.763  29.160  29.325  1.00  0.00    -0.354 N 
ATOM     47  N   UNL A   1      42.886  29.693  29.399  1.00  0.00    -0.248 NA
ATOM     48  C   UNL A   1      41.096  31.122  29.857  1.00  0.00     0.031 C 
ATOM     49  C   UNL A   1      47.157  30.790  29.902  1.00  0.00     0.029 A 
ATOM     50  C   UNL A   1      45.816  30.477  29.752  1.00  0.00     0.049 A 
ATOM     51  H   UNL A   1      44.936  28.656  29.149  1.00  0.00     0.167 HD
ATOM     52  C   UNL A   1      43.380  30.925  29.814  1.00  0.00     0.074 A 
ATOM     53  C   UNL A   1      42.232  31.778  30.044  1.00  0.00     0.031 C 
ATOM     54  C   UNL A   1      44.667  31.317  29.980  1.00  0.00     0.031 A 
BRANCH  41  55
ATOM     55  C   UNL A   1      48.807  26.896  28.734  1.00  0.00    -0.014 A 
ATOM     56  C   UNL A   1      49.466  26.381  29.862  1.00  0.00     0.009 A 
ATOM     57  C   UNL A   1      49.517  27.000  27.527  1.00  0.00     0.009 A 
ATOM     58  C   UNL A   1      50.815  26.021  29.794  1.00  0.00     0.001 A 
ATOM     59  C   UNL A   1      50.854  26.604  27.452  1.00  0.00     0.001 A 
ATOM     60  C   UNL A   1      51.505  26.127  28.588  1.00  0.00     0.000 A 
ENDBRANCH  41  55
BRANCH  42  61
ATOM     61  C   UNL A   1      39.086  29.145  29.078  1.00  0.00    -0.014 A 
ATOM     62  C   UNL A   1      38.355  28.893  30.249  1.00  0.00     0.009 A 
ATOM     63  C   UNL A   1      38.423  29.706  27.974  1.00  0.00     0.009 A 
ATOM     64  C   UNL A   1      36.986  29.165  30.301  1.00  0.00     0.001 A 
ATOM     65  C   UNL A   1      37.062  30.011  28.041  1.00  0.00     0.001 A 
ATOM     66  C   UNL A   1      36.342  29.729  29.200  1.00  0.00     0.000 A 
ENDBRANCH  42  61
BRANCH  54  67
ATOM     67  C   UNL A   1      44.911  32.751  30.373  1.00  0.00    -0.014 A 
ATOM     68  C   UNL A   1      45.036  33.772  29.418  1.00  0.00     0.009 A 
ATOM     69  C   UNL A   1      44.982  33.088  31.734  1.00  0.00     0.009 A 
ATOM     70  C   UNL A   1      45.276  35.089  29.818  1.00  0.00     0.001 A 
ATOM     71  C   UNL A   1      45.181  34.411  32.133  1.00  0.00     0.001 A 
ATOM     72  C   UNL A   1      45.342  35.408  31.174  1.00  0.00     0.000 A 
ENDBRANCH  54  67
ENDBRANCH  28  29
ENDBRANCH  21  23
ENDBRANCH  20  21
ENDBRANCH  19  20
ENDBRANCH  18  19
ENDBRANCH   1  18
TORSDOF 17
ENDMDL
MODEL 3
REMARK VINA RESULT:      -8.5      3.595      9.243
REMARK SMILES C[C@H]1CC[C@](C#N)([C@H](O)C(=O)OCCOCCOC(=O)c2ccc(-c3c4nc(c(-c5ccccc5)c5ccc([nH]5)c(-c5ccccc5)c5nc(c(-c6ccccc6)c6ccc3[nH]6)C=C5)C=C4)cc2)C1
REMARK SMILES IDX 15 1 14 2 13 3 12 4 10 5 11 6 8 7 5 8 1 9 2 10 3 11 69 12
REMARK SMILES IDX 4 13 6 14 7 15 9 16 16 18 17 19 18 20 19 21 20 22 21 23
REMARK SMILES IDX 22 24 68 25 23 26 67 27 24 28 25 29 26 30 61 31 27 32 66 33
REMARK SMILES IDX 60 34 62 35 28 36 65 37 59 38 58 39 29 41 51 42 36 43 50 44
REMARK SMILES IDX 37 45 40 46 49 47 63 48 38 49 39 50 48 52 64 53 41 54 30 55
REMARK SMILES IDX 31 56 35 57 32 58 34 59 33 60 52 61 53 62 57 63 54 64 56 65
REMARK SMILES IDX 55 66 42 67 43 68 47 69 44 70 46 71 45 72
REMARK H PARENT 9 17 62 40 40 51
REMARK Flexibility Score: inf
ROOT
ATOM      1  O   UNL A   1      36.632  21.676  25.472  1.00  0.00    -0.374 OA
ENDROOT
BRANCH   1   2
ATOM      2  C   UNL A   1      35.258  22.071  25.502  1.00  0.00     0.202 C 
BRANCH   2   3
ATOM      3  C   UNL A   1      34.470  21.992  24.183  1.00  0.00     0.261 C 
BRANCH   3   4
ATOM      4  O   UNL A   1      33.355  22.909  24.195  1.00  0.00    -0.461 OA
BRANCH   4   5
ATOM      5  C   UNL A   1      33.530  24.111  23.587  1.00  0.00     0.336 C 
ATOM      6  O   UNL A   1      34.395  24.339  22.749  1.00  0.00    -0.249 OA
BRANCH   5   7
ATOM      7  C   UNL A   1      32.410  25.126  23.924  1.00  0.00     0.244 C 
BRANCH   7   8
ATOM      8  C   UNL A   1      32.480  25.937  25.240  1.00  0.00     0.094 C 
ATOM      9  C   UNL A   1      31.634  27.975  27.551  1.00  0.00     0.008 C 
ATOM     10  C   UNL A   1      32.320  28.178  26.200  1.00  0.00    -0.013 C 
ATOM     11  C   UNL A   1      33.797  27.788  26.232  1.00  0.00     0.005 C 
ATOM     12  C   UNL A   1      31.764  27.290  25.086  1.00  0.00     0.029 C 
ATOM     13  C   UNL A   1      33.867  26.303  25.829  1.00  0.00     0.026 C 
BRANCH   8  14
ATOM     14  C   UNL A   1      31.759  25.116  26.253  1.00  0.00     0.072 C 
ATOM     15  N   UNL A   1      31.211  24.495  27.071  1.00  0.00    -0.198 NA
ENDBRANCH   8  14
ENDBRANCH   7   8
BRANCH   7  16
ATOM     16  O   UNL A   1      31.132  24.475  23.823  1.00  0.00    -0.380 OA
ATOM     17  H   UNL A   1      30.597  24.691  24.603  1.00  0.00     0.211 HD
ENDBRANCH   7  16
ENDBRANCH   5   7
ENDBRANCH   4   5
ENDBRANCH   3   4
ENDBRANCH   2   3
ENDBRANCH   1   2
BRANCH   1  18
ATOM     18  C   UNL A   1      36.914  20.393  24.918  1.00  0.00     0.202 C 
BRANCH  18  19
ATOM     19  C   UNL A   1      38.344  19.858  25.028  1.00  0.00     0.261 C 
BRANCH  19  20
ATOM     20  O   UNL A   1      39.119  20.601  25.984  1.00  0.00    -0.460 OA
BRANCH  20  21
ATOM     21  C   UNL A   1      40.399  20.181  26.094  1.00  0.00     0.338 C 
ATOM     22  O   UNL A   1      40.864  19.115  25.726  1.00  0.00    -0.246 OA
BRANCH  21  23
ATOM     23  C   UNL A   1      41.246  21.283  26.582  1.00  0.00     0.060 A 
ATOM     24  C   UNL A   1      41.263  21.510  27.963  1.00  0.00     0.016 A 
ATOM     25  C   UNL A   1      41.935  22.129  25.712  1.00  0.00     0.016 A 
ATOM     26  C   UNL A   1      41.894  22.638  28.475  1.00  0.00     0.010 A 
ATOM     27  C   UNL A   1      42.570  23.262  26.228  1.00  0.00     0.010 A 
ATOM     28  C   UNL A   1      42.501  23.550  27.605  1.00  0.00    -0.014 A 
BRANCH  28  29
ATOM     29  C   UNL A   1      42.898  24.884  28.116  1.00  0.00     0.031 A 
ATOM     30  C   UNL A   1      41.833  25.928  28.335  1.00  0.00     0.074 A 
ATOM     31  C   UNL A   1      44.177  25.151  28.433  1.00  0.00     0.049 A 
ATOM     32  N   UNL A   1      41.953  27.161  28.757  1.00  0.00    -0.248 NA
ATOM     33  C   UNL A   1      40.449  25.529  28.030  1.00  0.00     0.031 C 
ATOM     34  C   UNL A   1      45.291  24.212  28.315  1.00  0.00     0.029 A 
ATOM     35  N   UNL A   1      44.749  26.298  28.922  1.00  0.00    -0.354 N 
ATOM     36  C   UNL A   1      40.667  27.686  28.758  1.00  0.00     0.074 A 
ATOM     37  C   UNL A   1      39.788  26.655  28.251  1.00  0.00     0.031 C 
ATOM     38  C   UNL A   1      46.417  24.823  28.721  1.00  0.00     0.029 A 
ATOM     39  C   UNL A   1      46.109  26.204  29.087  1.00  0.00     0.049 A 
ATOM     40  H   UNL A   1      44.235  27.109  29.135  1.00  0.00     0.167 HD
ATOM     41  C   UNL A   1      40.249  28.913  29.153  1.00  0.00     0.031 A 
ATOM     42  C   UNL A   1      47.006  27.134  29.467  1.00  0.00     0.031 A 
ATOM     43  C   UNL A   1      41.126  29.943  29.642  1.00  0.00     0.049 A 
ATOM     44  C   UNL A   1      46.530  28.517  29.822  1.00  0.00     0.074 A 
ATOM     45  C   UNL A   1      40.801  31.218  30.077  1.00  0.00     0.029 A 
ATOM     46  N   UNL A   1      42.503  29.823  29.753  1.00  0.00    -0.354 N 
ATOM     47  N   UNL A   1      45.310  28.997  29.836  1.00  0.00    -0.248 NA
ATOM     48  C   UNL A   1      47.559  29.483  30.231  1.00  0.00     0.031 C 
ATOM     49  C   UNL A   1      41.989  31.891  30.381  1.00  0.00     0.029 A 
ATOM     50  C   UNL A   1      43.045  31.008  30.222  1.00  0.00     0.049 A 
ATOM     51  H   UNL A   1      43.019  29.014  29.532  1.00  0.00     0.167 HD
ATOM     52  C   UNL A   1      45.420  30.306  30.292  1.00  0.00     0.074 A 
ATOM     53  C   UNL A   1      46.824  30.538  30.557  1.00  0.00     0.031 C 
ATOM     54  C   UNL A   1      44.445  31.229  30.482  1.00  0.00     0.031 A 
BRANCH  41  55
ATOM     55  C   UNL A   1      38.780  29.218  29.034  1.00  0.00    -0.014 A 
ATOM     56  C   UNL A   1      37.911  29.095  30.131  1.00  0.00     0.009 A 
ATOM     57  C   UNL A   1      38.259  29.660  27.807  1.00  0.00     0.009 A 
ATOM     58  C   UNL A   1      36.547  29.366  29.990  1.00  0.00     0.001 A 
ATOM     59  C   UNL A   1      36.904  29.967  27.679  1.00  0.00     0.001 A 
ATOM     60  C   UNL A   1      36.047  29.807  28.766  1.00  0.00     0.000 A 
ENDBRANCH  41  55
BRANCH  42  61
ATOM     61  C   UNL A   1      48.453  26.793  29.512  1.00  0.00    -0.014 A 
ATOM     62  C   UNL A   1      49.278  27.003  28.397  1.00  0.00     0.009 A 
ATOM     63  C   UNL A   1      49.014  26.236  30.673  1.00  0.00     0.009 A 
ATOM     64  C   UNL A   1      50.625  26.633  28.432  1.00  0.00     0.001 A 
ATOM     65  C   UNL A   1      50.369  25.900  30.718  1.00  0.00     0.001 A 
ATOM     66  C   UNL A   1      51.170  26.088  29.594  1.00  0.00     0.000 A 
ENDBRANCH  42  61
BRANCH  54  67
ATOM     67  C   UNL A   1      44.853  32.559  31.062  1.00  0.00    -0.014 A 
ATOM     68  C   UNL A   1      45.172  33.658  30.249  1.00  0.00     0.009 A 
ATOM     69  C   UNL A   1      44.883  32.720  32.457  1.00  0.00     0.009 A 
ATOM     70  C   UNL A   1      45.560  34.872  30.821  1.00  0.00     0.001 A 
ATOM     71  C   UNL A   1      45.232  33.945  33.026  1.00  0.00     0.001 A 
ATOM     72  C   UNL A   1      45.584  35.016  32.208  1.00  0.00     0.000 A 
ENDBRANCH  54  67
ENDBRANCH  28  29
ENDBRANCH  21  23
ENDBRANCH  20  21
ENDBRANCH  19  20
ENDBRANCH  18  19
ENDBRANCH   1  18
TORSDOF 17
ENDMDL
