MODEL 1
REMARK VINA RESULT:      -9.6      0.000      0.000
REMARK SMILES O=C(OCCOCCOC(=O)[C@H](CCO)NC(=O)c1cccc(C(F)(F)F)c1F)c1ccc(-c2c3nc(c(-c4ccccc4)c4ccc([nH]4)c(-c4ccccc4)c4nc(c(-c5ccccc5)c5ccc2[nH]5)C=C4)C=C3)cc1
REMARK SMILES IDX 7 1 6 2 5 3 4 4 3 5 2 6 1 7 30 8 31 9 77 10 32 11 76 12
REMARK SMILES IDX 33 13 34 14 35 15 70 16 36 17 75 18 69 19 71 20 37 21 74 22
REMARK SMILES IDX 68 23 67 24 38 26 60 27 45 28 59 29 46 30 49 31 58 32 72 33
REMARK SMILES IDX 47 34 48 35 57 37 73 38 50 39 39 40 40 41 44 42 41 43 43 44
REMARK SMILES IDX 42 45 61 46 62 47 66 48 63 49 65 50 64 51 51 52 52 53 56 54
REMARK SMILES IDX 53 55 55 56 54 57 8 58 9 59 10 60 11 61 12 62 16 63 17 64
REMARK SMILES IDX 18 66 19 67 20 68 28 69 21 70 23 71 29 72 22 73 24 74 25 75
REMARK SMILES IDX 26 76 27 77 13 78 14 79 15 80
REMARK H PARENT 71 25 49 36 16 65 15 81
REMARK Flexibility Score: inf
ROOT
ATOM      1  C   UNL A   1      35.497  21.059  25.747  1.00  0.00     0.202 C 
ENDROOT
BRANCH   1   2
ATOM      2  O   UNL A   1      36.214  20.675  24.572  1.00  0.00    -0.374 OA
BRANCH   2   3
ATOM      3  C   UNL A   1      37.304  19.779  24.775  1.00  0.00     0.202 C 
BRANCH   3   4
ATOM      4  C   UNL A   1      38.492  20.425  25.486  1.00  0.00     0.261 C 
BRANCH   4   5
ATOM      5  O   UNL A   1      39.609  19.522  25.484  1.00  0.00    -0.460 OA
BRANCH   5   6
ATOM      6  C   UNL A   1      40.847  19.739  25.980  1.00  0.00     0.338 C 
ATOM      7  O   UNL A   1      41.672  18.827  25.946  1.00  0.00    -0.246 OA
BRANCH   6   8
ATOM      8  C   UNL A   1      41.292  21.058  26.516  1.00  0.00     0.060 A 
ATOM      9  C   UNL A   1      41.749  22.120  25.735  1.00  0.00     0.016 A 
ATOM     10  C   UNL A   1      41.139  21.268  27.896  1.00  0.00     0.016 A 
ATOM     11  C   UNL A   1      42.095  23.338  26.294  1.00  0.00     0.010 A 
ATOM     12  C   UNL A   1      41.456  22.503  28.467  1.00  0.00     0.010 A 
ATOM     13  C   UNL A   1      41.941  23.535  27.660  1.00  0.00    -0.014 A 
BRANCH  13  14
ATOM     14  C   UNL A   1      42.380  24.823  28.211  1.00  0.00     0.031 A 
ATOM     15  C   UNL A   1      41.354  25.879  28.455  1.00  0.00     0.074 A 
ATOM     16  C   UNL A   1      43.656  24.965  28.610  1.00  0.00     0.049 A 
ATOM     17  N   UNL A   1      41.516  27.101  28.880  1.00  0.00    -0.248 NA
ATOM     18  C   UNL A   1      39.954  25.500  28.200  1.00  0.00     0.031 C 
ATOM     19  C   UNL A   1      44.682  23.920  28.539  1.00  0.00     0.029 A 
ATOM     20  N   UNL A   1      44.296  26.027  29.184  1.00  0.00    -0.354 N 
ATOM     21  C   UNL A   1      40.243  27.653  28.904  1.00  0.00     0.074 A 
ATOM     22  C   UNL A   1      39.318  26.630  28.471  1.00  0.00     0.031 C 
ATOM     23  C   UNL A   1      45.820  24.391  29.073  1.00  0.00     0.029 A 
ATOM     24  C   UNL A   1      45.620  25.784  29.451  1.00  0.00     0.049 A 
ATOM     25  H   UNL A   1      43.850  26.882  29.387  1.00  0.00     0.167 HD
ATOM     26  C   UNL A   1      39.894  28.917  29.232  1.00  0.00     0.031 A 
ATOM     27  C   UNL A   1      46.570  26.620  29.909  1.00  0.00     0.031 A 
ATOM     28  C   UNL A   1      40.844  29.913  29.635  1.00  0.00     0.049 A 
ATOM     29  C   UNL A   1      46.175  28.042  30.187  1.00  0.00     0.074 A 
ATOM     30  C   UNL A   1      40.641  31.253  29.905  1.00  0.00     0.029 A 
ATOM     31  N   UNL A   1      42.197  29.662  29.827  1.00  0.00    -0.354 N 
ATOM     32  N   UNL A   1      44.986  28.594  30.113  1.00  0.00    -0.248 NA
ATOM     33  C   UNL A   1      47.248  28.962  30.584  1.00  0.00     0.031 C 
ATOM     34  C   UNL A   1      41.881  31.819  30.225  1.00  0.00     0.029 A 
ATOM     35  C   UNL A   1      42.848  30.823  30.195  1.00  0.00     0.049 A 
ATOM     36  H   UNL A   1      42.629  28.784  29.717  1.00  0.00     0.167 HD
ATOM     37  C   UNL A   1      45.166  29.929  30.445  1.00  0.00     0.074 A 
ATOM     38  C   UNL A   1      46.575  30.093  30.749  1.00  0.00     0.031 C 
ATOM     39  C   UNL A   1      44.256  30.935  30.480  1.00  0.00     0.031 A 
BRANCH  26  40
ATOM     40  C   UNL A   1      38.449  29.278  29.047  1.00  0.00    -0.014 A 
ATOM     41  C   UNL A   1      37.947  29.696  27.805  1.00  0.00     0.009 A 
ATOM     42  C   UNL A   1      37.597  29.278  30.161  1.00  0.00     0.009 A 
ATOM     43  C   UNL A   1      36.629  30.148  27.694  1.00  0.00     0.001 A 
ATOM     44  C   UNL A   1      36.275  29.709  30.043  1.00  0.00     0.001 A 
ATOM     45  C   UNL A   1      35.795  30.156  28.813  1.00  0.00     0.000 A 
ENDBRANCH  26  40
BRANCH  27  46
ATOM     46  C   UNL A   1      47.971  26.147  30.041  1.00  0.00    -0.014 A 
ATOM     47  C   UNL A   1      48.848  26.158  28.948  1.00  0.00     0.009 A 
ATOM     48  C   UNL A   1      48.453  25.708  31.288  1.00  0.00     0.009 A 
ATOM     49  C   UNL A   1      50.173  25.737  29.099  1.00  0.00     0.001 A 
ATOM     50  C   UNL A   1      49.783  25.315  31.442  1.00  0.00     0.001 A 
ATOM     51  C   UNL A   1      50.642  25.325  30.346  1.00  0.00     0.000 A 
ENDBRANCH  27  46
BRANCH  39  52
ATOM     52  C   UNL A   1      44.771  32.287  30.865  1.00  0.00    -0.014 A 
ATOM     53  C   UNL A   1      45.206  33.193  29.886  1.00  0.00     0.009 A 
ATOM     54  C   UNL A   1      44.766  32.676  32.212  1.00  0.00     0.009 A 
ATOM     55  C   UNL A   1      45.647  34.463  30.256  1.00  0.00     0.001 A 
ATOM     56  C   UNL A   1      45.189  33.953  32.576  1.00  0.00     0.001 A 
ATOM     57  C   UNL A   1      45.633  34.843  31.598  1.00  0.00     0.000 A 
ENDBRANCH  39  52
ENDBRANCH  13  14
ENDBRANCH   6   8
ENDBRANCH   5   6
ENDBRANCH   4   5
ENDBRANCH   3   4
ENDBRANCH   2   3
ENDBRANCH   1   2
BRANCH   1  58
ATOM     58  C   UNL A   1      34.065  20.557  25.630  1.00  0.00     0.261 C 
BRANCH  58  59
ATOM     59  O   UNL A   1      33.176  21.637  25.967  1.00  0.00    -0.462 OA
BRANCH  59  60
ATOM     60  C   UNL A   1      32.721  22.375  24.914  1.00  0.00     0.328 C 
ATOM     61  O   UNL A   1      32.478  21.964  23.787  1.00  0.00    -0.250 OA
BRANCH  60  62
ATOM     62  C   UNL A   1      32.556  23.833  25.344  1.00  0.00     0.194 C 
BRANCH  62  63
ATOM     63  N   UNL A   1      31.374  23.888  26.209  1.00  0.00    -0.338 N 
ATOM     64  C   UNL A   1      30.380  24.840  26.181  1.00  0.00     0.254 C 
ATOM     65  H   UNL A   1      31.281  23.172  26.878  1.00  0.00     0.164 HD
ATOM     66  O   UNL A   1      29.366  24.730  26.857  1.00  0.00    -0.269 OA
BRANCH  64  67
ATOM     67  C   UNL A   1      30.623  26.066  25.406  1.00  0.00     0.076 A 
ATOM     68  C   UNL A   1      29.978  26.204  24.177  1.00  0.00     0.017 A 
ATOM     69  C   UNL A   1      31.340  27.127  25.962  1.00  0.00     0.148 A 
ATOM     70  C   UNL A   1      30.016  27.433  23.525  1.00  0.00     0.002 A 
ATOM     71  C   UNL A   1      31.324  28.380  25.354  1.00  0.00     0.092 A 
ATOM     72  F   UNL A   1      31.974  26.960  27.130  1.00  0.00    -0.205 F 
ATOM     73  C   UNL A   1      30.669  28.519  24.117  1.00  0.00     0.016 A 
BRANCH  71  74
ATOM     74  C   UNL A   1      31.959  29.564  26.022  1.00  0.00     0.419 C 
ATOM     75  F   UNL A   1      31.659  30.738  25.406  1.00  0.00    -0.166 F 
ATOM     76  F   UNL A   1      31.537  29.705  27.313  1.00  0.00    -0.166 F 
ATOM     77  F   UNL A   1      33.317  29.509  26.099  1.00  0.00    -0.166 F 
ENDBRANCH  71  74
ENDBRANCH  64  67
ENDBRANCH  62  63
BRANCH  62  78
ATOM     78  C   UNL A   1      33.829  24.338  26.023  1.00  0.00     0.065 C 
BRANCH  78  79
ATOM     79  C   UNL A   1      34.871  24.835  25.032  1.00  0.00     0.159 C 
BRANCH  79  80
ATOM     80  O   UNL A   1      36.146  24.289  25.316  1.00  0.00    -0.396 OA
ATOM     81  H   UNL A   1      36.127  23.854  26.182  1.00  0.00     0.210 HD
ENDBRANCH  79  80
ENDBRANCH  78  79
ENDBRANCH  62  78
ENDBRANCH  60  62
ENDBRANCH  59  60
ENDBRANCH  58  59
ENDBRANCH   1  58
TORSDOF 20
ENDMDL
MODEL 2
REMARK VINA RESULT:      -9.6      1.772      6.244
REMARK SMILES O=C(OCCOCCOC(=O)[C@H](CCO)NC(=O)c1cccc(C(F)(F)F)c1F)c1ccc(-c2c3nc(c(-c4ccccc4)c4ccc([nH]4)c(-c4ccccc4)c4nc(c(-c5ccccc5)c5ccc2[nH]5)C=C4)C=C3)cc1
REMARK SMILES IDX 7 1 6 2 5 3 4 4 3 5 2 6 1 7 30 8 31 9 77 10 32 11 76 12
REMARK SMILES IDX 33 13 34 14 35 15 70 16 36 17 75 18 69 19 71 20 37 21 74 22
REMARK SMILES IDX 68 23 67 24 38 26 60 27 45 28 59 29 46 30 49 31 58 32 72 33
REMARK SMILES IDX 47 34 48 35 57 37 73 38 50 39 39 40 40 41 44 42 41 43 43 44
REMARK SMILES IDX 42 45 61 46 62 47 66 48 63 49 65 50 64 51 51 52 52 53 56 54
REMARK SMILES IDX 53 55 55 56 54 57 8 58 9 59 10 60 11 61 12 62 16 63 17 64
REMARK SMILES IDX 18 66 19 67 20 68 28 69 21 70 23 71 29 72 22 73 24 74 25 75
REMARK SMILES IDX 26 76 27 77 13 78 14 79 15 80
REMARK H PARENT 71 25 49 36 16 65 15 81
REMARK Flexibility Score: inf
ROOT
ATOM      1  C   UNL A   1      36.351  21.506  24.938  1.00  0.00     0.202 C 
ENDROOT
BRANCH   1   2
ATOM      2  O   UNL A   1      37.761  21.287  24.866  1.00  0.00    -0.374 OA
BRANCH   2   3
ATOM      3  C   UNL A   1      38.171  19.932  24.701  1.00  0.00     0.202 C 
BRANCH   3   4
ATOM      4  C   UNL A   1      38.969  19.395  25.888  1.00  0.00     0.261 C 
BRANCH   4   5
ATOM      5  O   UNL A   1      40.285  19.014  25.456  1.00  0.00    -0.460 OA
BRANCH   5   6
ATOM      6  C   UNL A   1      41.468  19.344  26.022  1.00  0.00     0.338 C 
ATOM      7  O   UNL A   1      42.313  18.467  26.190  1.00  0.00    -0.246 OA
BRANCH   6   8
ATOM      8  C   UNL A   1      41.829  20.740  26.402  1.00  0.00     0.060 A 
ATOM      9  C   UNL A   1      41.994  21.792  25.501  1.00  0.00     0.016 A 
ATOM     10  C   UNL A   1      41.907  21.026  27.775  1.00  0.00     0.016 A 
ATOM     11  C   UNL A   1      42.277  23.078  25.927  1.00  0.00     0.010 A 
ATOM     12  C   UNL A   1      42.161  22.326  28.218  1.00  0.00     0.010 A 
ATOM     13  C   UNL A   1      42.353  23.350  27.286  1.00  0.00    -0.014 A 
BRANCH  13  14
ATOM     14  C   UNL A   1      42.716  24.716  27.684  1.00  0.00     0.031 A 
ATOM     15  C   UNL A   1      44.151  25.120  27.610  1.00  0.00     0.074 A 
ATOM     16  C   UNL A   1      41.742  25.599  27.961  1.00  0.00     0.049 A 
ATOM     17  N   UNL A   1      44.708  26.245  27.959  1.00  0.00    -0.248 NA
ATOM     18  C   UNL A   1      45.082  24.124  27.052  1.00  0.00     0.031 C 
ATOM     19  C   UNL A   1      40.305  25.313  27.907  1.00  0.00     0.029 A 
ATOM     20  N   UNL A   1      41.810  26.919  28.309  1.00  0.00    -0.354 N 
ATOM     21  C   UNL A   1      46.062  26.080  27.703  1.00  0.00     0.074 A 
ATOM     22  C   UNL A   1      46.241  24.756  27.152  1.00  0.00     0.031 C 
ATOM     23  C   UNL A   1      39.627  26.436  28.191  1.00  0.00     0.029 A 
ATOM     24  C   UNL A   1      40.580  27.491  28.516  1.00  0.00     0.049 A 
ATOM     25  H   UNL A   1      42.659  27.411  28.400  1.00  0.00     0.167 HD
ATOM     26  C   UNL A   1      47.063  26.956  27.941  1.00  0.00     0.031 A 
ATOM     27  C   UNL A   1      40.271  28.721  28.965  1.00  0.00     0.031 A 
ATOM     28  C   UNL A   1      46.849  28.256  28.512  1.00  0.00     0.049 A 
ATOM     29  C   UNL A   1      41.403  29.647  29.302  1.00  0.00     0.074 A 
ATOM     30  C   UNL A   1      47.778  29.204  28.892  1.00  0.00     0.029 A 
ATOM     31  N   UNL A   1      45.594  28.785  28.784  1.00  0.00    -0.354 N 
ATOM     32  N   UNL A   1      42.694  29.455  29.155  1.00  0.00    -0.248 NA
ATOM     33  C   UNL A   1      41.045  30.944  29.889  1.00  0.00     0.031 C 
ATOM     34  C   UNL A   1      47.083  30.295  29.429  1.00  0.00     0.029 A 
ATOM     35  C   UNL A   1      45.721  30.042  29.344  1.00  0.00     0.049 A 
ATOM     36  H   UNL A   1      44.739  28.333  28.605  1.00  0.00     0.167 HD
ATOM     37  C   UNL A   1      43.306  30.602  29.640  1.00  0.00     0.074 A 
ATOM     38  C   UNL A   1      42.240  31.495  30.056  1.00  0.00     0.031 C 
ATOM     39  C   UNL A   1      44.627  30.888  29.748  1.00  0.00     0.031 A 
BRANCH  26  40
ATOM     40  C   UNL A   1      48.456  26.463  27.682  1.00  0.00    -0.014 A 
ATOM     41  C   UNL A   1      49.104  26.691  26.458  1.00  0.00     0.009 A 
ATOM     42  C   UNL A   1      49.097  25.684  28.658  1.00  0.00     0.009 A 
ATOM     43  C   UNL A   1      50.349  26.110  26.201  1.00  0.00     0.001 A 
ATOM     44  C   UNL A   1      50.350  25.123  28.406  1.00  0.00     0.001 A 
ATOM     45  C   UNL A   1      50.969  25.325  27.174  1.00  0.00     0.000 A 
ENDBRANCH  26  40
BRANCH  27  46
ATOM     46  C   UNL A   1      38.850  29.090  29.192  1.00  0.00    -0.014 A 
ATOM     47  C   UNL A   1      38.241  28.903  30.440  1.00  0.00     0.009 A 
ATOM     48  C   UNL A   1      38.099  29.672  28.155  1.00  0.00     0.009 A 
ATOM     49  C   UNL A   1      36.912  29.285  30.643  1.00  0.00     0.001 A 
ATOM     50  C   UNL A   1      36.780  30.079  28.369  1.00  0.00     0.001 A 
ATOM     51  C   UNL A   1      36.186  29.881  29.612  1.00  0.00     0.000 A 
ENDBRANCH  27  46
BRANCH  39  52
ATOM     52  C   UNL A   1      44.975  32.221  30.335  1.00  0.00    -0.014 A 
ATOM     53  C   UNL A   1      45.085  33.356  29.519  1.00  0.00     0.009 A 
ATOM     54  C   UNL A   1      45.136  32.350  31.722  1.00  0.00     0.009 A 
ATOM     55  C   UNL A   1      45.372  34.599  30.083  1.00  0.00     0.001 A 
ATOM     56  C   UNL A   1      45.403  33.597  32.285  1.00  0.00     0.001 A 
ATOM     57  C   UNL A   1      45.525  34.718  31.465  1.00  0.00     0.000 A 
ENDBRANCH  39  52
ENDBRANCH  13  14
ENDBRANCH   6   8
ENDBRANCH   5   6
ENDBRANCH   4   5
ENDBRANCH   3   4
ENDBRANCH   2   3
ENDBRANCH   1   2
BRANCH   1  58
ATOM     58  C   UNL A   1      36.091  23.006  24.964  1.00  0.00     0.261 C 
BRANCH  58  59
ATOM     59  O   UNL A   1      34.739  23.239  24.531  1.00  0.00    -0.462 OA
BRANCH  59  60
ATOM     60  C   UNL A   1      33.923  23.836  25.447  1.00  0.00     0.328 C 
ATOM     61  O   UNL A   1      34.059  23.823  26.663  1.00  0.00    -0.250 OA
BRANCH  60  62
ATOM     62  C   UNL A   1      32.773  24.540  24.725  1.00  0.00     0.194 C 
BRANCH  62  63
ATOM     63  N   UNL A   1      33.253  24.861  23.378  1.00  0.00    -0.338 N 
ATOM     64  C   UNL A   1      33.368  26.115  22.824  1.00  0.00     0.254 C 
ATOM     65  H   UNL A   1      33.518  24.101  22.811  1.00  0.00     0.164 HD
ATOM     66  O   UNL A   1      33.900  26.291  21.736  1.00  0.00    -0.269 OA
BRANCH  64  67
ATOM     67  C   UNL A   1      32.721  27.238  23.520  1.00  0.00     0.076 A 
ATOM     68  C   UNL A   1      33.455  27.920  24.490  1.00  0.00     0.017 A 
ATOM     69  C   UNL A   1      31.474  27.707  23.102  1.00  0.00     0.148 A 
ATOM     70  C   UNL A   1      32.952  29.110  25.009  1.00  0.00     0.002 A 
ATOM     71  C   UNL A   1      30.996  28.932  23.561  1.00  0.00     0.092 A 
ATOM     72  F   UNL A   1      30.776  27.018  22.190  1.00  0.00    -0.205 F 
ATOM     73  C   UNL A   1      31.740  29.622  24.536  1.00  0.00     0.016 A 
BRANCH  71  74
ATOM     74  C   UNL A   1      29.734  29.521  23.002  1.00  0.00     0.419 C 
ATOM     75  F   UNL A   1      28.736  28.607  22.882  1.00  0.00    -0.166 F 
ATOM     76  F   UNL A   1      29.238  30.510  23.802  1.00  0.00    -0.166 F 
ATOM     77  F   UNL A   1      29.875  30.097  21.777  1.00  0.00    -0.166 F 
ENDBRANCH  71  74
ENDBRANCH  64  67
ENDBRANCH  62  63
BRANCH  62  78
ATOM     78  C   UNL A   1      31.520  23.665  24.732  1.00  0.00     0.065 C 
BRANCH  78  79
ATOM     79  C   UNL A   1      30.916  23.487  23.347  1.00  0.00     0.159 C 
BRANCH  79  80
ATOM     80  O   UNL A   1      31.586  22.470  22.625  1.00  0.00    -0.396 OA
ATOM     81  H   UNL A   1      30.941  21.963  22.106  1.00  0.00     0.210 HD
ENDBRANCH  79  80
ENDBRANCH  78  79
ENDBRANCH  62  78
ENDBRANCH  60  62
ENDBRANCH  59  60
ENDBRANCH  58  59
ENDBRANCH   1  58
TORSDOF 20
ENDMDL
MODEL 3
REMARK VINA RESULT:      -9.5      4.199      9.101
REMARK SMILES O=C(OCCOCCOC(=O)[C@H](CCO)NC(=O)c1cccc(C(F)(F)F)c1F)c1ccc(-c2c3nc(c(-c4ccccc4)c4ccc([nH]4)c(-c4ccccc4)c4nc(c(-c5ccccc5)c5ccc2[nH]5)C=C4)C=C3)cc1
REMARK SMILES IDX 7 1 6 2 5 3 4 4 3 5 2 6 1 7 30 8 31 9 77 10 32 11 76 12
REMARK SMILES IDX 33 13 34 14 35 15 70 16 36 17 75 18 69 19 71 20 37 21 74 22
REMARK SMILES IDX 68 23 67 24 38 26 60 27 45 28 59 29 46 30 49 31 58 32 72 33
REMARK SMILES IDX 47 34 48 35 57 37 73 38 50 39 39 40 40 41 44 42 41 43 43 44
REMARK SMILES IDX 42 45 61 46 62 47 66 48 63 49 65 50 64 51 51 52 52 53 56 54
REMARK SMILES IDX 53 55 55 56 54 57 8 58 9 59 10 60 11 61 12 62 16 63 17 64
REMARK SMILES IDX 18 66 19 67 20 68 28 69 21 70 23 71 29 72 22 73 24 74 25 75
REMARK SMILES IDX 26 76 27 77 13 78 14 79 15 80
REMARK H PARENT 71 25 49 36 16 65 15 81
REMARK Flexibility Score: inf
ROOT
ATOM      1  C   UNL A   1      34.156  29.828  26.686  1.00  0.00     0.202 C 
ENDROOT
BRANCH   1   2
ATOM      2  O   UNL A   1      33.680  30.915  27.482  1.00  0.00    -0.374 OA
BRANCH   2   3
ATOM      3  C   UNL A   1      32.360  31.368  27.190  1.00  0.00     0.202 C 
BRANCH   3   4
ATOM      4  C   UNL A   1      32.305  32.837  26.773  1.00  0.00     0.261 C 
BRANCH   4   5
ATOM      5  O   UNL A   1      32.113  33.663  27.932  1.00  0.00    -0.460 OA
BRANCH   5   6
ATOM      6  C   UNL A   1      33.034  34.426  28.564  1.00  0.00     0.338 C 
ATOM      7  O   UNL A   1      32.791  35.615  28.760  1.00  0.00    -0.246 OA
BRANCH   6   8
ATOM      8  C   UNL A   1      34.317  33.882  29.096  1.00  0.00     0.060 A 
ATOM      9  C   UNL A   1      35.585  34.247  28.643  1.00  0.00     0.016 A 
ATOM     10  C   UNL A   1      34.232  33.018  30.200  1.00  0.00     0.016 A 
ATOM     11  C   UNL A   1      36.738  33.743  29.219  1.00  0.00     0.010 A 
ATOM     12  C   UNL A   1      35.388  32.527  30.810  1.00  0.00     0.010 A 
ATOM     13  C   UNL A   1      36.643  32.889  30.310  1.00  0.00    -0.014 A 
BRANCH  13  14
ATOM     14  C   UNL A   1      37.892  32.334  30.845  1.00  0.00     0.031 A 
ATOM     15  C   UNL A   1      38.526  31.189  30.128  1.00  0.00     0.074 A 
ATOM     16  C   UNL A   1      38.500  32.957  31.869  1.00  0.00     0.049 A 
ATOM     17  N   UNL A   1      39.591  30.508  30.445  1.00  0.00    -0.248 NA
ATOM     18  C   UNL A   1      37.879  30.764  28.875  1.00  0.00     0.031 C 
ATOM     19  C   UNL A   1      38.013  34.174  32.524  1.00  0.00     0.029 A 
ATOM     20  N   UNL A   1      39.672  32.674  32.513  1.00  0.00    -0.354 N 
ATOM     21  C   UNL A   1      39.721  29.545  29.454  1.00  0.00     0.074 A 
ATOM     22  C   UNL A   1      38.639  29.742  28.515  1.00  0.00     0.031 C 
ATOM     23  C   UNL A   1      38.894  34.545  33.466  1.00  0.00     0.029 A 
ATOM     24  C   UNL A   1      39.962  33.554  33.525  1.00  0.00     0.049 A 
ATOM     25  H   UNL A   1      40.251  31.914  32.272  1.00  0.00     0.167 HD
ATOM     26  C   UNL A   1      40.650  28.568  29.364  1.00  0.00     0.031 A 
ATOM     27  C   UNL A   1      40.961  33.525  34.426  1.00  0.00     0.031 A 
ATOM     28  C   UNL A   1      41.697  28.390  30.329  1.00  0.00     0.049 A 
ATOM     29  C   UNL A   1      41.933  32.383  34.357  1.00  0.00     0.074 A 
ATOM     30  C   UNL A   1      42.646  27.390  30.411  1.00  0.00     0.029 A 
ATOM     31  N   UNL A   1      41.926  29.254  31.392  1.00  0.00    -0.354 N 
ATOM     32  N   UNL A   1      41.997  31.411  33.477  1.00  0.00    -0.248 NA
ATOM     33  C   UNL A   1      42.950  32.314  35.413  1.00  0.00     0.031 C 
ATOM     34  C   UNL A   1      43.427  27.631  31.549  1.00  0.00     0.029 A 
ATOM     35  C   UNL A   1      42.990  28.803  32.149  1.00  0.00     0.049 A 
ATOM     36  H   UNL A   1      41.406  30.069  31.580  1.00  0.00     0.167 HD
ATOM     37  C   UNL A   1      43.054  30.607  33.875  1.00  0.00     0.074 A 
ATOM     38  C   UNL A   1      43.621  31.225  35.060  1.00  0.00     0.031 C 
ATOM     39  C   UNL A   1      43.510  29.453  33.325  1.00  0.00     0.031 A 
BRANCH  26  40
ATOM     40  C   UNL A   1      40.474  27.582  28.246  1.00  0.00    -0.014 A 
ATOM     41  C   UNL A   1      39.717  26.412  28.407  1.00  0.00     0.009 A 
ATOM     42  C   UNL A   1      41.151  27.795  27.036  1.00  0.00     0.009 A 
ATOM     43  C   UNL A   1      39.678  25.453  27.391  1.00  0.00     0.001 A 
ATOM     44  C   UNL A   1      41.092  26.845  26.015  1.00  0.00     0.001 A 
ATOM     45  C   UNL A   1      40.367  25.669  26.198  1.00  0.00     0.000 A 
ENDBRANCH  26  40
BRANCH  27  46
ATOM     46  C   UNL A   1      41.023  34.555  35.495  1.00  0.00    -0.014 A 
ATOM     47  C   UNL A   1      41.805  35.709  35.347  1.00  0.00     0.009 A 
ATOM     48  C   UNL A   1      40.262  34.401  36.668  1.00  0.00     0.009 A 
ATOM     49  C   UNL A   1      41.827  36.682  36.350  1.00  0.00     0.001 A 
ATOM     50  C   UNL A   1      40.265  35.387  37.656  1.00  0.00     0.001 A 
ATOM     51  C   UNL A   1      41.051  36.526  37.499  1.00  0.00     0.000 A 
ENDBRANCH  27  46
BRANCH  39  52
ATOM     52  C   UNL A   1      44.675  28.804  34.006  1.00  0.00    -0.014 A 
ATOM     53  C   UNL A   1      44.476  27.791  34.956  1.00  0.00     0.009 A 
ATOM     54  C   UNL A   1      45.981  29.170  33.651  1.00  0.00     0.009 A 
ATOM     55  C   UNL A   1      45.571  27.169  35.555  1.00  0.00     0.001 A 
ATOM     56  C   UNL A   1      47.073  28.532  34.237  1.00  0.00     0.001 A 
ATOM     57  C   UNL A   1      46.867  27.536  35.192  1.00  0.00     0.000 A 
ENDBRANCH  39  52
ENDBRANCH  13  14
ENDBRANCH   6   8
ENDBRANCH   5   6
ENDBRANCH   4   5
ENDBRANCH   3   4
ENDBRANCH   2   3
ENDBRANCH   1   2
BRANCH   1  58
ATOM     58  C   UNL A   1      33.575  28.532  27.235  1.00  0.00     0.261 C 
BRANCH  58  59
ATOM     59  O   UNL A   1      32.887  27.856  26.168  1.00  0.00    -0.462 OA
BRANCH  59  60
ATOM     60  C   UNL A   1      31.809  27.108  26.544  1.00  0.00     0.328 C 
ATOM     61  O   UNL A   1      30.949  27.425  27.354  1.00  0.00    -0.250 OA
BRANCH  60  62
ATOM     62  C   UNL A   1      31.826  25.775  25.796  1.00  0.00     0.194 C 
BRANCH  62  63
ATOM     63  N   UNL A   1      30.876  24.894  26.481  1.00  0.00    -0.338 N 
ATOM     64  C   UNL A   1      31.117  23.615  26.928  1.00  0.00     0.254 C 
ATOM     65  H   UNL A   1      29.972  25.253  26.636  1.00  0.00     0.164 HD
ATOM     66  O   UNL A   1      30.299  23.005  27.604  1.00  0.00    -0.269 OA
BRANCH  64  67
ATOM     67  C   UNL A   1      32.342  22.944  26.467  1.00  0.00     0.076 A 
ATOM     68  C   UNL A   1      33.562  23.374  26.988  1.00  0.00     0.017 A 
ATOM     69  C   UNL A   1      32.268  21.804  25.664  1.00  0.00     0.148 A 
ATOM     70  C   UNL A   1      34.709  22.626  26.738  1.00  0.00     0.002 A 
ATOM     71  C   UNL A   1      33.394  21.010  25.468  1.00  0.00     0.092 A 
ATOM     72  F   UNL A   1      31.088  21.428  25.152  1.00  0.00    -0.205 F 
ATOM     73  C   UNL A   1      34.623  21.442  25.998  1.00  0.00     0.016 A 
BRANCH  71  74
ATOM     74  C   UNL A   1      33.292  19.701  24.739  1.00  0.00     0.419 C 
ATOM     75  F   UNL A   1      34.489  19.065  24.632  1.00  0.00    -0.166 F 
ATOM     76  F   UNL A   1      32.463  18.827  25.381  1.00  0.00    -0.166 F 
ATOM     77  F   UNL A   1      32.795  19.796  23.476  1.00  0.00    -0.166 F 
ENDBRANCH  71  74
ENDBRANCH  64  67
ENDBRANCH  62  63
BRANCH  62  78
ATOM     78  C   UNL A   1      31.501  25.986  24.318  1.00  0.00     0.065 C 
BRANCH  78  79
ATOM     79  C   UNL A   1      30.141  26.631  24.097  1.00  0.00     0.159 C 
BRANCH  79  80
ATOM     80  O   UNL A   1      29.143  25.652  23.868  1.00  0.00    -0.396 OA
ATOM     81  H   UNL A   1      29.461  25.013  23.212  1.00  0.00     0.210 HD
ENDBRANCH  79  80
ENDBRANCH  78  79
ENDBRANCH  62  78
ENDBRANCH  60  62
ENDBRANCH  59  60
ENDBRANCH  58  59
ENDBRANCH   1  58
TORSDOF 20
ENDMDL
