MODEL 1
REMARK VINA RESULT:     -11.6      0.000      0.000
REMARK SMILES C/C(=N\NC(N)=O)c1nnn(-c2ccc(C(=O)OCCOCCOC(=O)c3ccc(-c4c5nc(c(-c6ccccc6)c6ccc([nH]6)c(-c6ccccc6)c6nc(c(-c7ccccc7)c7ccc4[nH]7)C=C6)C=C5)cc3)cc2)c1C
REMARK SMILES IDX 20 1 19 2 18 3 16 4 17 5 15 6 12 7 13 8 76 9 14 10 75 11
REMARK SMILES IDX 11 12 8 13 9 14 77 15 10 16 78 17 2 18 1 19 3 20 4 21 5 22
REMARK SMILES IDX 6 24 7 25 21 28 22 29 23 30 24 31 25 32 26 33 27 34 28 35
REMARK SMILES IDX 74 36 29 37 73 38 30 39 31 40 32 41 67 42 33 43 72 44 66 45
REMARK SMILES IDX 68 46 34 47 71 48 65 49 64 50 35 52 57 53 42 54 56 55 43 56
REMARK SMILES IDX 46 57 55 58 69 59 44 60 45 61 54 63 70 64 47 65 36 66 37 67
REMARK SMILES IDX 41 68 38 69 40 70 39 71 58 72 59 73 63 74 60 75 62 76 61 77
REMARK SMILES IDX 48 78 49 79 53 80 50 81 52 82 51 83
REMARK H PARENT 4 23 6 26 6 27 68 51 46 62
REMARK Flexibility Score: inf
ROOT
ATOM      1  C   UNL A   1      40.849  21.443  26.030  1.00  0.00     0.202 C 
ENDROOT
BRANCH   1   2
ATOM      2  C   UNL A   1      39.447  21.822  26.503  1.00  0.00     0.261 C 
BRANCH   2   3
ATOM      3  O   UNL A   1      38.568  22.095  25.398  1.00  0.00    -0.460 OA
BRANCH   3   4
ATOM      4  C   UNL A   1      37.841  21.032  24.987  1.00  0.00     0.338 C 
ATOM      5  O   UNL A   1      38.148  19.850  25.073  1.00  0.00    -0.246 OA
BRANCH   4   6
ATOM      6  C   UNL A   1      36.512  21.462  24.513  1.00  0.00     0.060 A 
ATOM      7  C   UNL A   1      34.086  22.677  23.989  1.00  0.00     0.067 A 
ATOM      8  C   UNL A   1      35.234  23.163  23.356  1.00  0.00     0.029 A 
ATOM      9  C   UNL A   1      34.120  21.498  24.747  1.00  0.00     0.029 A 
ATOM     10  C   UNL A   1      36.456  22.566  23.649  1.00  0.00     0.018 A 
ATOM     11  C   UNL A   1      35.342  20.876  25.001  1.00  0.00     0.018 A 
BRANCH   7  12
ATOM     12  N   UNL A   1      32.962  23.526  24.065  1.00  0.00    -0.217 N 
ATOM     13  C   UNL A   1      31.740  25.306  24.341  1.00  0.00     0.132 A 
ATOM     14  N   UNL A   1      31.201  24.560  23.329  1.00  0.00    -0.128 NA
ATOM     15  C   UNL A   1      32.869  24.677  24.832  1.00  0.00     0.071 A 
ATOM     16  N   UNL A   1      31.989  23.513  23.126  1.00  0.00    -0.061 NA
ATOM     17  C   UNL A   1      33.905  25.166  25.774  1.00  0.00     0.069 C 
BRANCH  13  18
ATOM     18  C   UNL A   1      31.295  26.649  24.658  1.00  0.00     0.087 C 
ATOM     19  C   UNL A   1      31.078  26.949  26.121  1.00  0.00     0.071 C 
ATOM     20  N   UNL A   1      31.139  27.444  23.639  1.00  0.00    -0.174 NA
BRANCH  20  21
ATOM     21  N   UNL A   1      30.638  28.706  23.794  1.00  0.00    -0.229 N 
ATOM     22  C   UNL A   1      30.078  29.476  22.797  1.00  0.00     0.332 C 
ATOM     23  H   UNL A   1      30.680  29.099  24.696  1.00  0.00     0.195 HD
ATOM     24  N   UNL A   1      29.691  30.702  23.242  1.00  0.00    -0.350 N 
ATOM     25  O   UNL A   1      29.904  29.156  21.628  1.00  0.00    -0.247 OA
ATOM     26  H   UNL A   1      29.834  30.953  24.184  1.00  0.00     0.161 HD
ATOM     27  H   UNL A   1      29.267  31.340  22.623  1.00  0.00     0.161 HD
ENDBRANCH  20  21
ENDBRANCH  13  18
ENDBRANCH   7  12
ENDBRANCH   4   6
ENDBRANCH   3   4
ENDBRANCH   2   3
ENDBRANCH   1   2
BRANCH   1  28
ATOM     28  O   UNL A   1      41.620  20.575  26.860  1.00  0.00    -0.374 OA
BRANCH  28  29
ATOM     29  C   UNL A   1      41.868  19.234  26.453  1.00  0.00     0.202 C 
BRANCH  29  30
ATOM     30  C   UNL A   1      43.222  18.912  25.838  1.00  0.00     0.261 C 
BRANCH  30  31
ATOM     31  O   UNL A   1      43.384  19.501  24.557  1.00  0.00    -0.460 OA
BRANCH  31  32
ATOM     32  C   UNL A   1      44.671  19.687  24.199  1.00  0.00     0.338 C 
ATOM     33  O   UNL A   1      45.490  18.828  23.884  1.00  0.00    -0.246 OA
BRANCH  32  34
ATOM     34  C   UNL A   1      45.016  21.089  24.427  1.00  0.00     0.060 A 
ATOM     35  C   UNL A   1      46.028  21.326  25.361  1.00  0.00     0.016 A 
ATOM     36  C   UNL A   1      44.128  22.094  24.013  1.00  0.00     0.016 A 
ATOM     37  C   UNL A   1      45.991  22.501  26.072  1.00  0.00     0.010 A 
ATOM     38  C   UNL A   1      44.067  23.248  24.750  1.00  0.00     0.010 A 
ATOM     39  C   UNL A   1      44.947  23.394  25.821  1.00  0.00    -0.014 A 
BRANCH  39  40
ATOM     40  C   UNL A   1      44.815  24.535  26.694  1.00  0.00     0.031 A 
ATOM     41  C   UNL A   1      45.972  25.447  26.647  1.00  0.00     0.074 A 
ATOM     42  C   UNL A   1      43.680  24.788  27.366  1.00  0.00     0.049 A 
ATOM     43  N   UNL A   1      46.814  25.708  27.589  1.00  0.00    -0.248 NA
ATOM     44  C   UNL A   1      46.322  26.014  25.336  1.00  0.00     0.031 C 
ATOM     45  C   UNL A   1      42.383  24.122  27.216  1.00  0.00     0.029 A 
ATOM     46  N   UNL A   1      43.417  25.801  28.233  1.00  0.00    -0.354 N 
ATOM     47  C   UNL A   1      47.693  26.634  27.039  1.00  0.00     0.074 A 
ATOM     48  C   UNL A   1      47.479  26.608  25.617  1.00  0.00     0.031 C 
ATOM     49  C   UNL A   1      41.429  24.895  27.784  1.00  0.00     0.029 A 
ATOM     50  C   UNL A   1      42.064  26.037  28.422  1.00  0.00     0.049 A 
ATOM     51  H   UNL A   1      44.122  26.318  28.685  1.00  0.00     0.167 HD
ATOM     52  C   UNL A   1      48.299  27.574  27.813  1.00  0.00     0.031 A 
ATOM     53  C   UNL A   1      41.516  27.144  28.976  1.00  0.00     0.031 A 
ATOM     54  C   UNL A   1      48.279  27.209  29.208  1.00  0.00     0.049 A 
ATOM     55  C   UNL A   1      42.584  27.866  29.710  1.00  0.00     0.074 A 
ATOM     56  C   UNL A   1      48.734  26.133  29.944  1.00  0.00     0.029 A 
ATOM     57  N   UNL A   1      47.381  27.867  30.014  1.00  0.00    -0.354 N 
ATOM     58  N   UNL A   1      43.123  27.439  30.815  1.00  0.00    -0.248 NA
ATOM     59  C   UNL A   1      43.351  28.880  28.999  1.00  0.00     0.031 C 
ATOM     60  C   UNL A   1      47.772  25.952  30.982  1.00  0.00     0.029 A 
ATOM     61  C   UNL A   1      46.802  26.948  30.847  1.00  0.00     0.049 A 
ATOM     62  H   UNL A   1      47.187  28.833  29.996  1.00  0.00     0.167 HD
ATOM     63  C   UNL A   1      44.463  27.788  30.715  1.00  0.00     0.074 A 
ATOM     64  C   UNL A   1      44.515  28.781  29.647  1.00  0.00     0.031 C 
ATOM     65  C   UNL A   1      45.432  27.026  31.305  1.00  0.00     0.031 A 
BRANCH  52  66
ATOM     66  C   UNL A   1      48.461  29.008  27.354  1.00  0.00    -0.014 A 
ATOM     67  C   UNL A   1      49.722  29.612  27.499  1.00  0.00     0.009 A 
ATOM     68  C   UNL A   1      47.384  29.871  27.070  1.00  0.00     0.009 A 
ATOM     69  C   UNL A   1      49.868  31.005  27.483  1.00  0.00     0.001 A 
ATOM     70  C   UNL A   1      47.534  31.258  27.006  1.00  0.00     0.001 A 
ATOM     71  C   UNL A   1      48.771  31.827  27.251  1.00  0.00     0.000 A 
ENDBRANCH  52  66
BRANCH  53  72
ATOM     72  C   UNL A   1      40.199  27.756  28.704  1.00  0.00    -0.014 A 
ATOM     73  C   UNL A   1      39.205  27.778  29.694  1.00  0.00     0.009 A 
ATOM     74  C   UNL A   1      39.993  28.537  27.552  1.00  0.00     0.009 A 
ATOM     75  C   UNL A   1      38.064  28.579  29.551  1.00  0.00     0.001 A 
ATOM     76  C   UNL A   1      38.849  29.328  27.403  1.00  0.00     0.001 A 
ATOM     77  C   UNL A   1      37.893  29.361  28.411  1.00  0.00     0.000 A 
ENDBRANCH  53  72
BRANCH  65  78
ATOM     78  C   UNL A   1      44.997  25.989  32.309  1.00  0.00    -0.014 A 
ATOM     79  C   UNL A   1      44.592  24.694  31.945  1.00  0.00     0.009 A 
ATOM     80  C   UNL A   1      45.129  26.286  33.675  1.00  0.00     0.009 A 
ATOM     81  C   UNL A   1      44.286  23.739  32.919  1.00  0.00     0.001 A 
ATOM     82  C   UNL A   1      44.848  25.324  34.646  1.00  0.00     0.001 A 
ATOM     83  C   UNL A   1      44.417  24.054  34.269  1.00  0.00     0.000 A 
ENDBRANCH  65  78
ENDBRANCH  39  40
ENDBRANCH  32  34
ENDBRANCH  31  32
ENDBRANCH  30  31
ENDBRANCH  29  30
ENDBRANCH  28  29
ENDBRANCH   1  28
TORSDOF 17
ENDMDL
MODEL 2
REMARK VINA RESULT:     -11.2      2.086      6.001
REMARK SMILES C/C(=N\NC(N)=O)c1nnn(-c2ccc(C(=O)OCCOCCOC(=O)c3ccc(-c4c5nc(c(-c6ccccc6)c6ccc([nH]6)c(-c6ccccc6)c6nc(c(-c7ccccc7)c7ccc4[nH]7)C=C6)C=C5)cc3)cc2)c1C
REMARK SMILES IDX 20 1 19 2 18 3 16 4 17 5 15 6 12 7 13 8 76 9 14 10 75 11
REMARK SMILES IDX 11 12 8 13 9 14 77 15 10 16 78 17 2 18 1 19 3 20 4 21 5 22
REMARK SMILES IDX 6 24 7 25 21 28 22 29 23 30 24 31 25 32 26 33 27 34 28 35
REMARK SMILES IDX 74 36 29 37 73 38 30 39 31 40 32 41 67 42 33 43 72 44 66 45
REMARK SMILES IDX 68 46 34 47 71 48 65 49 64 50 35 52 57 53 42 54 56 55 43 56
REMARK SMILES IDX 46 57 55 58 69 59 44 60 45 61 54 63 70 64 47 65 36 66 37 67
REMARK SMILES IDX 41 68 38 69 40 70 39 71 58 72 59 73 63 74 60 75 62 76 61 77
REMARK SMILES IDX 48 78 49 79 53 80 50 81 52 82 51 83
REMARK H PARENT 4 23 6 26 6 27 68 51 46 62
REMARK Flexibility Score: inf
ROOT
ATOM      1  C   UNL A   1      36.133  21.318  25.154  1.00  0.00     0.202 C 
ENDROOT
BRANCH   1   2
ATOM      2  C   UNL A   1      35.015  20.300  24.940  1.00  0.00     0.261 C 
BRANCH   2   3
ATOM      3  O   UNL A   1      33.878  20.576  25.776  1.00  0.00    -0.460 OA
BRANCH   3   4
ATOM      4  C   UNL A   1      32.683  20.314  25.200  1.00  0.00     0.338 C 
ATOM      5  O   UNL A   1      32.075  19.252  25.215  1.00  0.00    -0.246 OA
BRANCH   4   6
ATOM      6  C   UNL A   1      32.099  21.542  24.629  1.00  0.00     0.060 A 
ATOM      7  C   UNL A   1      31.529  24.007  23.518  1.00  0.00     0.067 A 
ATOM      8  C   UNL A   1      31.875  22.950  22.671  1.00  0.00     0.029 A 
ATOM      9  C   UNL A   1      31.311  23.797  24.888  1.00  0.00     0.029 A 
ATOM     10  C   UNL A   1      32.190  21.720  23.241  1.00  0.00     0.018 A 
ATOM     11  C   UNL A   1      31.585  22.550  25.446  1.00  0.00     0.018 A 
BRANCH   7  12
ATOM     12  N   UNL A   1      31.657  25.322  23.023  1.00  0.00    -0.217 N 
ATOM     13  C   UNL A   1      31.395  27.470  22.792  1.00  0.00     0.132 A 
ATOM     14  N   UNL A   1      32.696  27.157  22.506  1.00  0.00    -0.128 NA
ATOM     15  C   UNL A   1      30.703  26.323  23.131  1.00  0.00     0.071 A 
ATOM     16  N   UNL A   1      32.860  25.857  22.713  1.00  0.00    -0.061 NA
ATOM     17  C   UNL A   1      29.346  26.156  23.707  1.00  0.00     0.069 C 
BRANCH  13  18
ATOM     18  C   UNL A   1      30.922  28.834  22.929  1.00  0.00     0.087 C 
ATOM     19  C   UNL A   1      30.895  29.390  24.331  1.00  0.00     0.071 C 
ATOM     20  N   UNL A   1      30.579  29.423  21.820  1.00  0.00    -0.174 NA
BRANCH  20  21
ATOM     21  N   UNL A   1      30.033  30.676  21.822  1.00  0.00    -0.229 N 
ATOM     22  C   UNL A   1      28.695  30.969  21.666  1.00  0.00     0.332 C 
ATOM     23  H   UNL A   1      30.649  31.435  21.945  1.00  0.00     0.195 HD
ATOM     24  N   UNL A   1      28.450  32.308  21.684  1.00  0.00    -0.350 N 
ATOM     25  O   UNL A   1      27.775  30.171  21.537  1.00  0.00    -0.247 OA
ATOM     26  H   UNL A   1      29.194  32.944  21.789  1.00  0.00     0.161 HD
ATOM     27  H   UNL A   1      27.528  32.642  21.592  1.00  0.00     0.161 HD
ENDBRANCH  20  21
ENDBRANCH  13  18
ENDBRANCH   7  12
ENDBRANCH   4   6
ENDBRANCH   3   4
ENDBRANCH   2   3
ENDBRANCH   1   2
BRANCH   1  28
ATOM     28  O   UNL A   1      37.422  21.012  24.622  1.00  0.00    -0.374 OA
BRANCH  28  29
ATOM     29  C   UNL A   1      38.558  20.979  25.479  1.00  0.00     0.202 C 
BRANCH  29  30
ATOM     30  C   UNL A   1      39.376  19.697  25.532  1.00  0.00     0.261 C 
BRANCH  30  31
ATOM     31  O   UNL A   1      40.453  19.784  26.452  1.00  0.00    -0.460 OA
BRANCH  31  32
ATOM     32  C   UNL A   1      41.667  19.865  25.869  1.00  0.00     0.338 C 
ATOM     33  O   UNL A   1      42.146  19.104  25.032  1.00  0.00    -0.246 OA
BRANCH  32  34
ATOM     34  C   UNL A   1      42.431  20.918  26.536  1.00  0.00     0.060 A 
ATOM     35  C   UNL A   1      42.430  20.883  27.934  1.00  0.00     0.016 A 
ATOM     36  C   UNL A   1      42.800  22.064  25.816  1.00  0.00     0.016 A 
ATOM     37  C   UNL A   1      42.552  22.071  28.612  1.00  0.00     0.010 A 
ATOM     38  C   UNL A   1      42.881  23.254  26.491  1.00  0.00     0.010 A 
ATOM     39  C   UNL A   1      42.673  23.248  27.868  1.00  0.00    -0.014 A 
BRANCH  39  40
ATOM     40  C   UNL A   1      42.619  24.500  28.582  1.00  0.00     0.031 A 
ATOM     41  C   UNL A   1      41.483  25.352  28.189  1.00  0.00     0.074 A 
ATOM     42  C   UNL A   1      43.454  24.775  29.597  1.00  0.00     0.049 A 
ATOM     43  N   UNL A   1      41.518  26.497  27.596  1.00  0.00    -0.248 NA
ATOM     44  C   UNL A   1      40.136  24.778  28.335  1.00  0.00     0.031 C 
ATOM     45  C   UNL A   1      44.388  23.861  30.262  1.00  0.00     0.029 A 
ATOM     46  N   UNL A   1      43.537  25.909  30.343  1.00  0.00    -0.354 N 
ATOM     47  C   UNL A   1      40.188  26.880  27.472  1.00  0.00     0.074 A 
ATOM     48  C   UNL A   1      39.398  25.706  27.731  1.00  0.00     0.031 C 
ATOM     49  C   UNL A   1      44.760  24.403  31.444  1.00  0.00     0.029 A 
ATOM     50  C   UNL A   1      44.180  25.732  31.558  1.00  0.00     0.049 A 
ATOM     51  H   UNL A   1      43.175  26.774  30.046  1.00  0.00     0.167 HD
ATOM     52  C   UNL A   1      39.829  28.191  27.480  1.00  0.00     0.031 A 
ATOM     53  C   UNL A   1      44.146  26.583  32.611  1.00  0.00     0.031 A 
ATOM     54  C   UNL A   1      40.947  29.052  27.182  1.00  0.00     0.049 A 
ATOM     55  C   UNL A   1      43.665  27.898  32.122  1.00  0.00     0.074 A 
ATOM     56  C   UNL A   1      41.833  29.174  26.131  1.00  0.00     0.029 A 
ATOM     57  N   UNL A   1      41.512  29.731  28.236  1.00  0.00    -0.354 N 
ATOM     58  N   UNL A   1      44.361  28.688  31.357  1.00  0.00    -0.248 NA
ATOM     59  C   UNL A   1      42.234  28.168  32.151  1.00  0.00     0.031 C 
ATOM     60  C   UNL A   1      43.075  29.548  26.726  1.00  0.00     0.029 A 
ATOM     61  C   UNL A   1      42.873  29.670  28.102  1.00  0.00     0.049 A 
ATOM     62  H   UNL A   1      41.023  30.184  28.961  1.00  0.00     0.167 HD
ATOM     63  C   UNL A   1      43.435  29.251  30.490  1.00  0.00     0.074 A 
ATOM     64  C   UNL A   1      42.137  28.997  31.108  1.00  0.00     0.031 C 
ATOM     65  C   UNL A   1      43.790  29.606  29.219  1.00  0.00     0.031 A 
BRANCH  52  66
ATOM     66  C   UNL A   1      38.606  28.684  28.226  1.00  0.00    -0.014 A 
ATOM     67  C   UNL A   1      37.800  29.657  27.609  1.00  0.00     0.009 A 
ATOM     68  C   UNL A   1      38.378  28.464  29.600  1.00  0.00     0.009 A 
ATOM     69  C   UNL A   1      36.911  30.444  28.352  1.00  0.00     0.001 A 
ATOM     70  C   UNL A   1      37.458  29.214  30.334  1.00  0.00     0.001 A 
ATOM     71  C   UNL A   1      36.752  30.231  29.716  1.00  0.00     0.000 A 
ENDBRANCH  52  66
BRANCH  53  72
ATOM     72  C   UNL A   1      44.254  26.272  34.051  1.00  0.00    -0.014 A 
ATOM     73  C   UNL A   1      43.407  25.321  34.640  1.00  0.00     0.009 A 
ATOM     74  C   UNL A   1      45.350  26.729  34.806  1.00  0.00     0.009 A 
ATOM     75  C   UNL A   1      43.667  24.822  35.923  1.00  0.00     0.001 A 
ATOM     76  C   UNL A   1      45.605  26.239  36.091  1.00  0.00     0.001 A 
ATOM     77  C   UNL A   1      44.772  25.273  36.642  1.00  0.00     0.000 A 
ENDBRANCH  53  72
BRANCH  65  78
ATOM     78  C   UNL A   1      45.260  29.659  28.888  1.00  0.00    -0.014 A 
ATOM     79  C   UNL A   1      46.035  28.509  28.660  1.00  0.00     0.009 A 
ATOM     80  C   UNL A   1      45.849  30.913  28.668  1.00  0.00     0.009 A 
ATOM     81  C   UNL A   1      47.372  28.613  28.266  1.00  0.00     0.001 A 
ATOM     82  C   UNL A   1      47.177  31.016  28.249  1.00  0.00     0.001 A 
ATOM     83  C   UNL A   1      47.941  29.866  28.058  1.00  0.00     0.000 A 
ENDBRANCH  65  78
ENDBRANCH  39  40
ENDBRANCH  32  34
ENDBRANCH  31  32
ENDBRANCH  30  31
ENDBRANCH  29  30
ENDBRANCH  28  29
ENDBRANCH   1  28
TORSDOF 17
ENDMDL
MODEL 3
REMARK VINA RESULT:     -11.1      3.983      6.227
REMARK SMILES C/C(=N\NC(N)=O)c1nnn(-c2ccc(C(=O)OCCOCCOC(=O)c3ccc(-c4c5nc(c(-c6ccccc6)c6ccc([nH]6)c(-c6ccccc6)c6nc(c(-c7ccccc7)c7ccc4[nH]7)C=C6)C=C5)cc3)cc2)c1C
REMARK SMILES IDX 20 1 19 2 18 3 16 4 17 5 15 6 12 7 13 8 76 9 14 10 75 11
REMARK SMILES IDX 11 12 8 13 9 14 77 15 10 16 78 17 2 18 1 19 3 20 4 21 5 22
REMARK SMILES IDX 6 24 7 25 21 28 22 29 23 30 24 31 25 32 26 33 27 34 28 35
REMARK SMILES IDX 74 36 29 37 73 38 30 39 31 40 32 41 67 42 33 43 72 44 66 45
REMARK SMILES IDX 68 46 34 47 71 48 65 49 64 50 35 52 57 53 42 54 56 55 43 56
REMARK SMILES IDX 46 57 55 58 69 59 44 60 45 61 54 63 70 64 47 65 36 66 37 67
REMARK SMILES IDX 41 68 38 69 40 70 39 71 58 72 59 73 63 74 60 75 62 76 61 77
REMARK SMILES IDX 48 78 49 79 53 80 50 81 52 82 51 83
REMARK H PARENT 4 23 6 26 6 27 68 51 46 62
REMARK Flexibility Score: inf
ROOT
ATOM      1  C   UNL A   1      40.008  23.283  26.923  1.00  0.00     0.202 C 
ENDROOT
BRANCH   1   2
ATOM      2  C   UNL A   1      39.397  22.057  26.246  1.00  0.00     0.261 C 
BRANCH   2   3
ATOM      3  O   UNL A   1      38.008  22.257  25.937  1.00  0.00    -0.460 OA
BRANCH   3   4
ATOM      4  C   UNL A   1      37.473  21.315  25.129  1.00  0.00     0.338 C 
ATOM      5  O   UNL A   1      37.903  20.187  24.925  1.00  0.00    -0.246 OA
BRANCH   4   6
ATOM      6  C   UNL A   1      36.178  21.767  24.587  1.00  0.00     0.060 A 
ATOM      7  C   UNL A   1      33.870  23.085  23.832  1.00  0.00     0.067 A 
ATOM      8  C   UNL A   1      35.037  23.293  23.091  1.00  0.00     0.029 A 
ATOM      9  C   UNL A   1      33.812  22.109  24.837  1.00  0.00     0.029 A 
ATOM     10  C   UNL A   1      36.202  22.649  23.497  1.00  0.00     0.018 A 
ATOM     11  C   UNL A   1      34.973  21.434  25.209  1.00  0.00     0.018 A 
BRANCH   7  12
ATOM     12  N   UNL A   1      32.840  24.045  23.729  1.00  0.00    -0.217 N 
ATOM     13  C   UNL A   1      31.816  25.962  23.609  1.00  0.00     0.132 A 
ATOM     14  N   UNL A   1      31.167  25.069  22.800  1.00  0.00    -0.128 NA
ATOM     15  C   UNL A   1      32.893  25.342  24.214  1.00  0.00     0.071 A 
ATOM     16  N   UNL A   1      31.837  23.925  22.830  1.00  0.00    -0.061 NA
ATOM     17  C   UNL A   1      34.007  25.917  25.007  1.00  0.00     0.069 C 
BRANCH  13  18
ATOM     18  C   UNL A   1      31.520  27.381  23.618  1.00  0.00     0.087 C 
ATOM     19  C   UNL A   1      31.222  27.988  24.967  1.00  0.00     0.071 C 
ATOM     20  N   UNL A   1      31.553  27.969  22.457  1.00  0.00    -0.174 NA
BRANCH  20  21
ATOM     21  N   UNL A   1      31.205  29.283  22.318  1.00  0.00    -0.229 N 
ATOM     22  C   UNL A   1      29.935  29.755  22.061  1.00  0.00     0.332 C 
ATOM     23  H   UNL A   1      31.923  29.951  22.409  1.00  0.00     0.195 HD
ATOM     24  N   UNL A   1      29.898  31.111  21.946  1.00  0.00    -0.350 N 
ATOM     25  O   UNL A   1      28.911  29.094  21.949  1.00  0.00    -0.247 OA
ATOM     26  H   UNL A   1      30.725  31.637  22.037  1.00  0.00     0.161 HD
ATOM     27  H   UNL A   1      29.043  31.568  21.773  1.00  0.00     0.161 HD
ENDBRANCH  20  21
ENDBRANCH  13  18
ENDBRANCH   7  12
ENDBRANCH   4   6
ENDBRANCH   3   4
ENDBRANCH   2   3
ENDBRANCH   1   2
BRANCH   1  28
ATOM     28  O   UNL A   1      41.405  23.255  27.215  1.00  0.00    -0.374 OA
BRANCH  28  29
ATOM     29  C   UNL A   1      41.877  22.586  28.378  1.00  0.00     0.202 C 
BRANCH  29  30
ATOM     30  C   UNL A   1      43.209  23.026  28.966  1.00  0.00     0.261 C 
BRANCH  30  31
ATOM     31  O   UNL A   1      43.239  24.416  29.251  1.00  0.00    -0.460 OA
BRANCH  31  32
ATOM     32  C   UNL A   1      44.452  24.982  29.090  1.00  0.00     0.338 C 
ATOM     33  O   UNL A   1      45.546  24.424  29.117  1.00  0.00    -0.246 OA
BRANCH  32  34
ATOM     34  C   UNL A   1      44.285  26.434  29.066  1.00  0.00     0.060 A 
ATOM     35  C   UNL A   1      44.273  27.070  30.311  1.00  0.00     0.016 A 
ATOM     36  C   UNL A   1      43.799  27.053  27.904  1.00  0.00     0.016 A 
ATOM     37  C   UNL A   1      43.541  28.225  30.441  1.00  0.00     0.010 A 
ATOM     38  C   UNL A   1      43.037  28.183  28.044  1.00  0.00     0.010 A 
ATOM     39  C   UNL A   1      42.852  28.702  29.323  1.00  0.00    -0.014 A 
BRANCH  39  40
ATOM     40  C   UNL A   1      41.947  29.808  29.516  1.00  0.00     0.031 A 
ATOM     41  C   UNL A   1      42.603  31.125  29.435  1.00  0.00     0.074 A 
ATOM     42  C   UNL A   1      40.619  29.630  29.617  1.00  0.00     0.049 A 
ATOM     43  N   UNL A   1      42.752  31.996  30.375  1.00  0.00    -0.248 NA
ATOM     44  C   UNL A   1      43.321  31.438  28.189  1.00  0.00     0.031 C 
ATOM     45  C   UNL A   1      39.860  28.399  29.380  1.00  0.00     0.029 A 
ATOM     46  N   UNL A   1      39.653  30.564  29.819  1.00  0.00    -0.354 N 
ATOM     47  C   UNL A   1      43.417  33.060  29.778  1.00  0.00     0.074 A 
ATOM     48  C   UNL A   1      43.928  32.573  28.525  1.00  0.00     0.031 C 
ATOM     49  C   UNL A   1      38.554  28.716  29.222  1.00  0.00     0.029 A 
ATOM     50  C   UNL A   1      38.384  30.142  29.454  1.00  0.00     0.049 A 
ATOM     51  H   UNL A   1      39.837  31.456  30.192  1.00  0.00     0.167 HD
ATOM     52  C   UNL A   1      43.226  34.337  30.204  1.00  0.00     0.031 A 
ATOM     53  C   UNL A   1      37.302  30.935  29.262  1.00  0.00     0.031 A 
ATOM     54  C   UNL A   1      42.668  34.378  31.534  1.00  0.00     0.049 A 
ATOM     55  C   UNL A   1      37.579  32.247  29.895  1.00  0.00     0.074 A 
ATOM     56  C   UNL A   1      43.048  33.892  32.769  1.00  0.00     0.029 A 
ATOM     57  N   UNL A   1      41.332  34.687  31.643  1.00  0.00    -0.354 N 
ATOM     58  N   UNL A   1      37.635  32.437  31.181  1.00  0.00    -0.248 NA
ATOM     59  C   UNL A   1      38.200  33.289  29.088  1.00  0.00     0.031 C 
ATOM     60  C   UNL A   1      41.833  33.531  33.423  1.00  0.00     0.029 A 
ATOM     61  C   UNL A   1      40.774  33.848  32.569  1.00  0.00     0.049 A 
ATOM     62  H   UNL A   1      40.860  35.392  31.142  1.00  0.00     0.167 HD
ATOM     63  C   UNL A   1      38.654  33.362  31.360  1.00  0.00     0.074 A 
ATOM     64  C   UNL A   1      38.871  33.944  30.039  1.00  0.00     0.031 C 
ATOM     65  C   UNL A   1      39.417  33.355  32.494  1.00  0.00     0.031 A 
BRANCH  52  66
ATOM     66  C   UNL A   1      43.094  35.495  29.237  1.00  0.00    -0.014 A 
ATOM     67  C   UNL A   1      41.939  35.563  28.438  1.00  0.00     0.009 A 
ATOM     68  C   UNL A   1      44.160  36.339  28.866  1.00  0.00     0.009 A 
ATOM     69  C   UNL A   1      41.906  36.335  27.270  1.00  0.00     0.001 A 
ATOM     70  C   UNL A   1      44.113  37.147  27.729  1.00  0.00     0.001 A 
ATOM     71  C   UNL A   1      42.998  37.115  26.909  1.00  0.00     0.000 A 
ENDBRANCH  52  66
BRANCH  53  72
ATOM     72  C   UNL A   1      36.156  30.726  28.354  1.00  0.00    -0.014 A 
ATOM     73  C   UNL A   1      35.992  29.505  27.682  1.00  0.00     0.009 A 
ATOM     74  C   UNL A   1      35.084  31.637  28.327  1.00  0.00     0.009 A 
ATOM     75  C   UNL A   1      34.787  29.195  27.037  1.00  0.00     0.001 A 
ATOM     76  C   UNL A   1      33.885  31.333  27.675  1.00  0.00     0.001 A 
ATOM     77  C   UNL A   1      33.732  30.104  27.044  1.00  0.00     0.000 A 
ENDBRANCH  53  72
BRANCH  65  78
ATOM     78  C   UNL A   1      38.933  32.532  33.661  1.00  0.00    -0.014 A 
ATOM     79  C   UNL A   1      39.309  31.192  33.860  1.00  0.00     0.009 A 
ATOM     80  C   UNL A   1      38.184  33.169  34.662  1.00  0.00     0.009 A 
ATOM     81  C   UNL A   1      38.909  30.499  35.006  1.00  0.00     0.001 A 
ATOM     82  C   UNL A   1      37.806  32.483  35.818  1.00  0.00     0.001 A 
ATOM     83  C   UNL A   1      38.160  31.146  35.986  1.00  0.00     0.000 A 
ENDBRANCH  65  78
ENDBRANCH  39  40
ENDBRANCH  32  34
ENDBRANCH  31  32
ENDBRANCH  30  31
ENDBRANCH  29  30
ENDBRANCH  28  29
ENDBRANCH   1  28
TORSDOF 17
ENDMDL
