MODEL 1
REMARK VINA RESULT:     -11.0      0.000      0.000
REMARK SMILES O=C1C[C@@H](C(=O)Nc2cccc(C(=O)OCCOCCOC(=O)c3ccc(-c4c5nc(c(-c6ccccc6)c6ccc([nH]6)c(-c6ccccc6)c6nc(c(-c7ccccc7)c7ccc4[nH]7)C=C6)C=C5)cc3)c2)[C@H](c2ccccc2)O1
REMARK SMILES IDX 17 1 16 2 15 3 13 4 14 5 12 6 8 7 9 8 72 9 10 10 11 11 7 12
REMARK SMILES IDX 5 13 6 14 4 16 1 17 2 18 3 19 80 20 73 21 74 22 75 23 79 24
REMARK SMILES IDX 76 25 78 26 77 27 18 28 19 29 20 30 21 31 22 32 23 33 24 34
REMARK SMILES IDX 25 35 71 36 26 37 70 38 27 39 28 40 29 41 64 42 30 43 69 44
REMARK SMILES IDX 63 45 65 46 31 47 68 48 62 49 61 50 32 52 54 53 39 54 53 55
REMARK SMILES IDX 40 56 43 57 52 58 66 59 41 60 42 61 51 63 67 64 44 65 33 66
REMARK SMILES IDX 34 67 38 68 35 69 37 70 36 71 55 72 56 73 60 74 57 75 59 76
REMARK SMILES IDX 58 77 45 78 46 79 50 80 47 81 49 82 48 83
REMARK H PARENT 7 15 65 51 43 62
REMARK Flexibility Score: inf
ROOT
ATOM      1  C   UNL A   1      34.727  32.056  29.029  1.00  0.00     0.202 C 
ENDROOT
BRANCH   1   2
ATOM      2  C   UNL A   1      34.168  31.808  27.626  1.00  0.00     0.261 C 
BRANCH   2   3
ATOM      3  O   UNL A   1      33.274  30.684  27.618  1.00  0.00    -0.460 OA
BRANCH   3   4
ATOM      4  C   UNL A   1      33.803  29.524  27.165  1.00  0.00     0.338 C 
ATOM      5  O   UNL A   1      34.843  28.996  27.536  1.00  0.00    -0.246 OA
BRANCH   4   6
ATOM      6  C   UNL A   1      32.880  28.882  26.199  1.00  0.00     0.062 A 
ATOM      7  C   UNL A   1      31.652  26.943  25.434  1.00  0.00     0.042 A 
ATOM      8  C   UNL A   1      30.965  27.752  24.523  1.00  0.00     0.026 A 
ATOM      9  C   UNL A   1      32.685  27.497  26.185  1.00  0.00     0.041 A 
ATOM     10  C   UNL A   1      31.211  29.127  24.473  1.00  0.00     0.003 A 
ATOM     11  C   UNL A   1      32.141  29.698  25.338  1.00  0.00     0.016 A 
BRANCH   7  12
ATOM     12  N   UNL A   1      31.243  25.609  25.557  1.00  0.00    -0.326 N 
ATOM     13  C   UNL A   1      31.826  24.439  25.144  1.00  0.00     0.232 C 
ATOM     14  O   UNL A   1      31.181  23.401  25.310  1.00  0.00    -0.274 OA
ATOM     15  H   UNL A   1      30.384  25.490  26.024  1.00  0.00     0.169 HD
BRANCH  13  16
ATOM     16  C   UNL A   1      33.266  24.394  24.636  1.00  0.00     0.135 C 
ATOM     17  O   UNL A   1      33.277  23.596  21.187  1.00  0.00    -0.252 OA
ATOM     18  C   UNL A   1      33.360  23.643  22.404  1.00  0.00     0.307 C 
ATOM     19  C   UNL A   1      33.374  24.899  23.212  1.00  0.00     0.140 C 
ATOM     20  O   UNL A   1      33.551  22.551  23.194  1.00  0.00    -0.457 OA
ATOM     21  C   UNL A   1      33.755  22.952  24.554  1.00  0.00     0.220 C 
BRANCH  21  22
ATOM     22  C   UNL A   1      35.215  22.791  24.958  1.00  0.00    -0.007 A 
ATOM     23  C   UNL A   1      36.015  21.728  24.514  1.00  0.00     0.007 A 
ATOM     24  C   UNL A   1      35.808  23.752  25.790  1.00  0.00     0.007 A 
ATOM     25  C   UNL A   1      37.371  21.661  24.854  1.00  0.00     0.000 A 
ATOM     26  C   UNL A   1      37.170  23.708  26.100  1.00  0.00     0.000 A 
ATOM     27  C   UNL A   1      37.953  22.662  25.627  1.00  0.00     0.000 A 
ENDBRANCH  21  22
ENDBRANCH  13  16
ENDBRANCH   7  12
ENDBRANCH   4   6
ENDBRANCH   3   4
ENDBRANCH   2   3
ENDBRANCH   1   2
BRANCH   1  28
ATOM     28  O   UNL A   1      34.267  33.218  29.719  1.00  0.00    -0.374 OA
BRANCH  28  29
ATOM     29  C   UNL A   1      33.791  34.317  28.946  1.00  0.00     0.202 C 
BRANCH  29  30
ATOM     30  C   UNL A   1      33.045  35.436  29.681  1.00  0.00     0.261 C 
BRANCH  30  31
ATOM     31  O   UNL A   1      32.452  34.996  30.912  1.00  0.00    -0.460 OA
BRANCH  31  32
ATOM     32  C   UNL A   1      32.869  35.686  32.000  1.00  0.00     0.338 C 
ATOM     33  O   UNL A   1      32.332  36.655  32.517  1.00  0.00    -0.246 OA
BRANCH  32  34
ATOM     34  C   UNL A   1      34.019  35.009  32.623  1.00  0.00     0.060 A 
ATOM     35  C   UNL A   1      35.273  35.615  32.480  1.00  0.00     0.016 A 
ATOM     36  C   UNL A   1      33.894  33.765  33.246  1.00  0.00     0.016 A 
ATOM     37  C   UNL A   1      36.419  34.951  32.905  1.00  0.00     0.010 A 
ATOM     38  C   UNL A   1      35.049  33.095  33.664  1.00  0.00     0.010 A 
ATOM     39  C   UNL A   1      36.318  33.667  33.457  1.00  0.00    -0.014 A 
BRANCH  39  40
ATOM     40  C   UNL A   1      37.552  32.873  33.664  1.00  0.00     0.031 A 
ATOM     41  C   UNL A   1      38.369  33.108  34.905  1.00  0.00     0.074 A 
ATOM     42  C   UNL A   1      37.906  31.914  32.790  1.00  0.00     0.049 A 
ATOM     43  N   UNL A   1      39.480  32.529  35.287  1.00  0.00    -0.248 NA
ATOM     44  C   UNL A   1      37.867  34.126  35.842  1.00  0.00     0.031 C 
ATOM     45  C   UNL A   1      37.169  31.558  31.579  1.00  0.00     0.029 A 
ATOM     46  N   UNL A   1      38.982  31.063  32.795  1.00  0.00    -0.354 N 
ATOM     47  C   UNL A   1      39.804  33.106  36.508  1.00  0.00     0.074 A 
ATOM     48  C   UNL A   1      38.797  34.106  36.787  1.00  0.00     0.031 C 
ATOM     49  C   UNL A   1      37.822  30.563  30.950  1.00  0.00     0.029 A 
ATOM     50  C   UNL A   1      39.033  30.237  31.699  1.00  0.00     0.049 A 
ATOM     51  H   UNL A   1      39.653  31.046  33.515  1.00  0.00     0.167 HD
ATOM     52  C   UNL A   1      40.839  32.820  37.332  1.00  0.00     0.031 A 
ATOM     53  C   UNL A   1      39.963  29.334  31.334  1.00  0.00     0.031 A 
ATOM     54  C   UNL A   1      41.854  31.841  37.049  1.00  0.00     0.049 A 
ATOM     55  C   UNL A   1      41.154  29.099  32.226  1.00  0.00     0.074 A 
ATOM     56  C   UNL A   1      42.954  31.493  37.813  1.00  0.00     0.029 A 
ATOM     57  N   UNL A   1      41.890  31.053  35.910  1.00  0.00    -0.354 N 
ATOM     58  N   UNL A   1      41.442  29.644  33.383  1.00  0.00    -0.248 NA
ATOM     59  C   UNL A   1      42.143  28.115  31.763  1.00  0.00     0.031 C 
ATOM     60  C   UNL A   1      43.682  30.524  37.115  1.00  0.00     0.029 A 
ATOM     61  C   UNL A   1      43.004  30.230  35.943  1.00  0.00     0.049 A 
ATOM     62  H   UNL A   1      41.225  31.075  35.185  1.00  0.00     0.167 HD
ATOM     63  C   UNL A   1      42.627  29.048  33.799  1.00  0.00     0.074 A 
ATOM     64  C   UNL A   1      42.993  28.087  32.779  1.00  0.00     0.031 C 
ATOM     65  C   UNL A   1      43.347  29.274  34.924  1.00  0.00     0.031 A 
BRANCH  52  66
ATOM     66  C   UNL A   1      40.936  33.593  38.616  1.00  0.00    -0.014 A 
ATOM     67  C   UNL A   1      41.558  34.850  38.659  1.00  0.00     0.009 A 
ATOM     68  C   UNL A   1      40.359  33.080  39.789  1.00  0.00     0.009 A 
ATOM     69  C   UNL A   1      41.621  35.568  39.856  1.00  0.00     0.001 A 
ATOM     70  C   UNL A   1      40.402  33.809  40.977  1.00  0.00     0.001 A 
ATOM     71  C   UNL A   1      41.037  35.049  41.012  1.00  0.00     0.000 A 
ENDBRANCH  52  66
BRANCH  53  72
ATOM     72  C   UNL A   1      39.831  28.602  30.047  1.00  0.00    -0.014 A 
ATOM     73  C   UNL A   1      39.315  27.298  30.008  1.00  0.00     0.009 A 
ATOM     74  C   UNL A   1      40.267  29.194  28.851  1.00  0.00     0.009 A 
ATOM     75  C   UNL A   1      39.271  26.590  28.804  1.00  0.00     0.001 A 
ATOM     76  C   UNL A   1      40.192  28.497  27.643  1.00  0.00     0.001 A 
ATOM     77  C   UNL A   1      39.706  27.192  27.624  1.00  0.00     0.000 A 
ENDBRANCH  53  72
BRANCH  65  78
ATOM     78  C   UNL A   1      44.578  28.438  35.134  1.00  0.00    -0.014 A 
ATOM     79  C   UNL A   1      45.841  28.874  34.704  1.00  0.00     0.009 A 
ATOM     80  C   UNL A   1      44.476  27.212  35.811  1.00  0.00     0.009 A 
ATOM     81  C   UNL A   1      46.970  28.082  34.916  1.00  0.00     0.001 A 
ATOM     82  C   UNL A   1      45.611  26.436  36.047  1.00  0.00     0.001 A 
ATOM     83  C   UNL A   1      46.856  26.867  35.592  1.00  0.00     0.000 A 
ENDBRANCH  65  78
ENDBRANCH  39  40
ENDBRANCH  32  34
ENDBRANCH  31  32
ENDBRANCH  30  31
ENDBRANCH  29  30
ENDBRANCH  28  29
ENDBRANCH   1  28
TORSDOF 17
ENDMDL
MODEL 2
REMARK VINA RESULT:     -10.8      5.264     10.544
REMARK SMILES O=C1C[C@@H](C(=O)Nc2cccc(C(=O)OCCOCCOC(=O)c3ccc(-c4c5nc(c(-c6ccccc6)c6ccc([nH]6)c(-c6ccccc6)c6nc(c(-c7ccccc7)c7ccc4[nH]7)C=C6)C=C5)cc3)c2)[C@H](c2ccccc2)O1
REMARK SMILES IDX 17 1 16 2 15 3 13 4 14 5 12 6 8 7 9 8 72 9 10 10 11 11 7 12
REMARK SMILES IDX 5 13 6 14 4 16 1 17 2 18 3 19 80 20 73 21 74 22 75 23 79 24
REMARK SMILES IDX 76 25 78 26 77 27 18 28 19 29 20 30 21 31 22 32 23 33 24 34
REMARK SMILES IDX 25 35 71 36 26 37 70 38 27 39 28 40 29 41 64 42 30 43 69 44
REMARK SMILES IDX 63 45 65 46 31 47 68 48 62 49 61 50 32 52 54 53 39 54 53 55
REMARK SMILES IDX 40 56 43 57 52 58 66 59 41 60 42 61 51 63 67 64 44 65 33 66
REMARK SMILES IDX 34 67 38 68 35 69 37 70 36 71 55 72 56 73 60 74 57 75 59 76
REMARK SMILES IDX 58 77 45 78 46 79 50 80 47 81 49 82 48 83
REMARK H PARENT 7 15 65 51 43 62
REMARK Flexibility Score: inf
ROOT
ATOM      1  C   UNL A   1      40.547  20.745  26.913  1.00  0.00     0.202 C 
ENDROOT
BRANCH   1   2
ATOM      2  C   UNL A   1      39.869  21.942  26.240  1.00  0.00     0.261 C 
BRANCH   2   3
ATOM      3  O   UNL A   1      38.651  21.547  25.590  1.00  0.00    -0.460 OA
BRANCH   3   4
ATOM      4  C   UNL A   1      37.692  22.498  25.525  1.00  0.00     0.338 C 
ATOM      5  O   UNL A   1      37.848  23.708  25.628  1.00  0.00    -0.246 OA
BRANCH   4   6
ATOM      6  C   UNL A   1      36.384  21.886  25.190  1.00  0.00     0.062 A 
ATOM      7  C   UNL A   1      34.187  22.034  24.189  1.00  0.00     0.042 A 
ATOM      8  C   UNL A   1      34.028  20.655  24.359  1.00  0.00     0.026 A 
ATOM      9  C   UNL A   1      35.319  22.655  24.710  1.00  0.00     0.041 A 
ATOM     10  C   UNL A   1      35.057  19.888  24.914  1.00  0.00     0.003 A 
ATOM     11  C   UNL A   1      36.250  20.499  25.294  1.00  0.00     0.016 A 
BRANCH   7  12
ATOM     12  N   UNL A   1      33.196  22.720  23.474  1.00  0.00    -0.326 N 
ATOM     13  C   UNL A   1      32.310  23.692  23.857  1.00  0.00     0.232 C 
ATOM     14  O   UNL A   1      31.475  24.051  23.024  1.00  0.00    -0.274 OA
ATOM     15  H   UNL A   1      33.123  22.456  22.528  1.00  0.00     0.169 HD
BRANCH  13  16
ATOM     16  C   UNL A   1      32.435  24.410  25.200  1.00  0.00     0.135 C 
ATOM     17  O   UNL A   1      29.820  23.366  27.346  1.00  0.00    -0.252 OA
ATOM     18  C   UNL A   1      30.595  23.936  26.595  1.00  0.00     0.307 C 
ATOM     19  C   UNL A   1      32.009  23.523  26.352  1.00  0.00     0.140 C 
ATOM     20  O   UNL A   1      30.306  25.096  25.944  1.00  0.00    -0.457 OA
ATOM     21  C   UNL A   1      31.468  25.587  25.265  1.00  0.00     0.220 C 
BRANCH  21  22
ATOM     22  C   UNL A   1      32.048  26.800  25.982  1.00  0.00    -0.007 A 
ATOM     23  C   UNL A   1      31.275  27.652  26.785  1.00  0.00     0.007 A 
ATOM     24  C   UNL A   1      33.418  27.078  25.863  1.00  0.00     0.007 A 
ATOM     25  C   UNL A   1      31.866  28.712  27.480  1.00  0.00     0.000 A 
ATOM     26  C   UNL A   1      34.017  28.114  26.585  1.00  0.00     0.000 A 
ATOM     27  C   UNL A   1      33.239  28.929  27.399  1.00  0.00     0.000 A 
ENDBRANCH  21  22
ENDBRANCH  13  16
ENDBRANCH   7  12
ENDBRANCH   4   6
ENDBRANCH   3   4
ENDBRANCH   2   3
ENDBRANCH   1   2
BRANCH   1  28
ATOM     28  O   UNL A   1      41.139  19.766  26.060  1.00  0.00    -0.374 OA
BRANCH  28  29
ATOM     29  C   UNL A   1      42.412  19.237  26.423  1.00  0.00     0.202 C 
BRANCH  29  30
ATOM     30  C   UNL A   1      43.475  19.121  25.325  1.00  0.00     0.261 C 
BRANCH  30  31
ATOM     31  O   UNL A   1      43.664  20.346  24.600  1.00  0.00    -0.460 OA
BRANCH  31  32
ATOM     32  C   UNL A   1      44.741  21.061  25.001  1.00  0.00     0.338 C 
ATOM     33  O   UNL A   1      45.918  20.828  24.765  1.00  0.00    -0.246 OA
BRANCH  32  34
ATOM     34  C   UNL A   1      44.311  22.308  25.656  1.00  0.00     0.060 A 
ATOM     35  C   UNL A   1      44.158  23.438  24.845  1.00  0.00     0.016 A 
ATOM     36  C   UNL A   1      44.157  22.398  27.042  1.00  0.00     0.016 A 
ATOM     37  C   UNL A   1      43.911  24.679  25.421  1.00  0.00     0.010 A 
ATOM     38  C   UNL A   1      43.917  23.649  27.619  1.00  0.00     0.010 A 
ATOM     39  C   UNL A   1      43.835  24.800  26.815  1.00  0.00    -0.014 A 
BRANCH  39  40
ATOM     40  C   UNL A   1      43.831  26.152  27.422  1.00  0.00     0.031 A 
ATOM     41  C   UNL A   1      45.145  26.842  27.672  1.00  0.00     0.074 A 
ATOM     42  C   UNL A   1      42.673  26.781  27.690  1.00  0.00     0.049 A 
ATOM     43  N   UNL A   1      45.375  28.021  28.192  1.00  0.00    -0.248 NA
ATOM     44  C   UNL A   1      46.359  26.108  27.281  1.00  0.00     0.031 C 
ATOM     45  C   UNL A   1      41.338  26.239  27.445  1.00  0.00     0.029 A 
ATOM     46  N   UNL A   1      42.442  28.021  28.229  1.00  0.00    -0.354 N 
ATOM     47  C   UNL A   1      46.756  28.172  28.184  1.00  0.00     0.074 A 
ATOM     48  C   UNL A   1      47.314  26.952  27.644  1.00  0.00     0.031 C 
ATOM     49  C   UNL A   1      40.424  27.142  27.842  1.00  0.00     0.029 A 
ATOM     50  C   UNL A   1      41.109  28.308  28.393  1.00  0.00     0.049 A 
ATOM     51  H   UNL A   1      43.162  28.646  28.474  1.00  0.00     0.167 HD
ATOM     52  C   UNL A   1      47.494  29.237  28.577  1.00  0.00     0.031 A 
ATOM     53  C   UNL A   1      40.513  29.382  28.944  1.00  0.00     0.031 A 
ATOM     54  C   UNL A   1      46.943  30.444  29.133  1.00  0.00     0.049 A 
ATOM     55  C   UNL A   1      41.361  30.516  29.458  1.00  0.00     0.074 A 
ATOM     56  C   UNL A   1      47.611  31.571  29.579  1.00  0.00     0.029 A 
ATOM     57  N   UNL A   1      45.591  30.678  29.319  1.00  0.00    -0.354 N 
ATOM     58  N   UNL A   1      42.665  30.650  29.433  1.00  0.00    -0.248 NA
ATOM     59  C   UNL A   1      40.652  31.651  30.065  1.00  0.00     0.031 C 
ATOM     60  C   UNL A   1      46.663  32.471  30.076  1.00  0.00     0.029 A 
ATOM     61  C   UNL A   1      45.403  31.927  29.888  1.00  0.00     0.049 A 
ATOM     62  H   UNL A   1      44.870  30.051  29.082  1.00  0.00     0.167 HD
ATOM     63  C   UNL A   1      42.929  31.895  29.993  1.00  0.00     0.074 A 
ATOM     64  C   UNL A   1      41.649  32.483  30.330  1.00  0.00     0.031 C 
ATOM     65  C   UNL A   1      44.123  32.499  30.207  1.00  0.00     0.031 A 
BRANCH  52  66
ATOM     66  C   UNL A   1      48.985  29.136  28.434  1.00  0.00    -0.014 A 
ATOM     67  C   UNL A   1      49.783  28.659  29.486  1.00  0.00     0.009 A 
ATOM     68  C   UNL A   1      49.599  29.480  27.219  1.00  0.00     0.009 A 
ATOM     69  C   UNL A   1      51.167  28.549  29.331  1.00  0.00     0.001 A 
ATOM     70  C   UNL A   1      50.978  29.347  27.059  1.00  0.00     0.001 A 
ATOM     71  C   UNL A   1      51.762  28.887  28.116  1.00  0.00     0.000 A 
ENDBRANCH  52  66
BRANCH  53  72
ATOM     72  C   UNL A   1      39.032  29.432  29.076  1.00  0.00    -0.014 A 
ATOM     73  C   UNL A   1      38.231  29.918  28.031  1.00  0.00     0.009 A 
ATOM     74  C   UNL A   1      38.417  29.031  30.273  1.00  0.00     0.009 A 
ATOM     75  C   UNL A   1      36.848  30.034  28.197  1.00  0.00     0.001 A 
ATOM     76  C   UNL A   1      37.031  29.119  30.424  1.00  0.00     0.001 A 
ATOM     77  C   UNL A   1      36.251  29.632  29.390  1.00  0.00     0.000 A 
ENDBRANCH  53  72
BRANCH  65  78
ATOM     78  C   UNL A   1      44.100  33.882  30.795  1.00  0.00    -0.014 A 
ATOM     79  C   UNL A   1      44.005  35.021  29.982  1.00  0.00     0.009 A 
ATOM     80  C   UNL A   1      44.133  34.042  32.190  1.00  0.00     0.009 A 
ATOM     81  C   UNL A   1      43.978  36.295  30.552  1.00  0.00     0.001 A 
ATOM     82  C   UNL A   1      44.077  35.315  32.758  1.00  0.00     0.001 A 
ATOM     83  C   UNL A   1      44.009  36.441  31.939  1.00  0.00     0.000 A 
ENDBRANCH  65  78
ENDBRANCH  39  40
ENDBRANCH  32  34
ENDBRANCH  31  32
ENDBRANCH  30  31
ENDBRANCH  29  30
ENDBRANCH  28  29
ENDBRANCH   1  28
TORSDOF 17
ENDMDL
MODEL 3
REMARK VINA RESULT:     -10.8      4.337      8.222
REMARK SMILES O=C1C[C@@H](C(=O)Nc2cccc(C(=O)OCCOCCOC(=O)c3ccc(-c4c5nc(c(-c6ccccc6)c6ccc([nH]6)c(-c6ccccc6)c6nc(c(-c7ccccc7)c7ccc4[nH]7)C=C6)C=C5)cc3)c2)[C@H](c2ccccc2)O1
REMARK SMILES IDX 17 1 16 2 15 3 13 4 14 5 12 6 8 7 9 8 72 9 10 10 11 11 7 12
REMARK SMILES IDX 5 13 6 14 4 16 1 17 2 18 3 19 80 20 73 21 74 22 75 23 79 24
REMARK SMILES IDX 76 25 78 26 77 27 18 28 19 29 20 30 21 31 22 32 23 33 24 34
REMARK SMILES IDX 25 35 71 36 26 37 70 38 27 39 28 40 29 41 64 42 30 43 69 44
REMARK SMILES IDX 63 45 65 46 31 47 68 48 62 49 61 50 32 52 54 53 39 54 53 55
REMARK SMILES IDX 40 56 43 57 52 58 66 59 41 60 42 61 51 63 67 64 44 65 33 66
REMARK SMILES IDX 34 67 38 68 35 69 37 70 36 71 55 72 56 73 60 74 57 75 59 76
REMARK SMILES IDX 58 77 45 78 46 79 50 80 47 81 49 82 48 83
REMARK H PARENT 7 15 65 51 43 62
REMARK Flexibility Score: inf
ROOT
ATOM      1  C   UNL A   1      34.613  32.874  28.218  1.00  0.00     0.202 C 
ENDROOT
BRANCH   1   2
ATOM      2  C   UNL A   1      34.796  31.464  27.650  1.00  0.00     0.261 C 
BRANCH   2   3
ATOM      3  O   UNL A   1      33.564  30.962  27.108  1.00  0.00    -0.460 OA
BRANCH   3   4
ATOM      4  C   UNL A   1      33.587  29.668  26.714  1.00  0.00     0.338 C 
ATOM      5  O   UNL A   1      34.107  28.729  27.304  1.00  0.00    -0.246 OA
BRANCH   4   6
ATOM      6  C   UNL A   1      32.779  29.492  25.484  1.00  0.00     0.062 A 
ATOM      7  C   UNL A   1      32.453  28.488  23.308  1.00  0.00     0.042 A 
ATOM      8  C   UNL A   1      31.145  28.984  23.288  1.00  0.00     0.026 A 
ATOM      9  C   UNL A   1      33.296  28.843  24.357  1.00  0.00     0.041 A 
ATOM     10  C   UNL A   1      30.645  29.704  24.376  1.00  0.00     0.003 A 
ATOM     11  C   UNL A   1      31.450  29.925  25.491  1.00  0.00     0.016 A 
BRANCH   7  12
ATOM     12  N   UNL A   1      32.840  27.631  22.268  1.00  0.00    -0.326 N 
ATOM     13  C   UNL A   1      33.293  26.338  22.281  1.00  0.00     0.232 C 
ATOM     14  O   UNL A   1      33.654  25.859  21.204  1.00  0.00    -0.274 OA
ATOM     15  H   UNL A   1      32.776  28.029  21.370  1.00  0.00     0.169 HD
BRANCH  13  16
ATOM     16  C   UNL A   1      33.219  25.472  23.538  1.00  0.00     0.135 C 
ATOM     17  O   UNL A   1      35.411  22.712  23.201  1.00  0.00    -0.252 OA
ATOM     18  C   UNL A   1      34.479  23.496  23.287  1.00  0.00     0.307 C 
ATOM     19  C   UNL A   1      34.564  24.864  23.879  1.00  0.00     0.140 C 
ATOM     20  O   UNL A   1      33.198  23.192  22.940  1.00  0.00    -0.457 OA
ATOM     21  C   UNL A   1      32.319  24.265  23.298  1.00  0.00     0.220 C 
BRANCH  21  22
ATOM     22  C   UNL A   1      31.474  23.897  24.511  1.00  0.00    -0.007 A 
ATOM     23  C   UNL A   1      31.386  22.590  25.011  1.00  0.00     0.007 A 
ATOM     24  C   UNL A   1      30.765  24.903  25.186  1.00  0.00     0.007 A 
ATOM     25  C   UNL A   1      30.654  22.313  26.171  1.00  0.00     0.000 A 
ATOM     26  C   UNL A   1      30.064  24.636  26.364  1.00  0.00     0.000 A 
ATOM     27  C   UNL A   1      30.013  23.339  26.860  1.00  0.00     0.000 A 
ENDBRANCH  21  22
ENDBRANCH  13  16
ENDBRANCH   7  12
ENDBRANCH   4   6
ENDBRANCH   3   4
ENDBRANCH   2   3
ENDBRANCH   1   2
BRANCH   1  28
ATOM     28  O   UNL A   1      33.959  32.988  29.481  1.00  0.00    -0.374 OA
BRANCH  28  29
ATOM     29  C   UNL A   1      34.586  33.766  30.498  1.00  0.00     0.202 C 
BRANCH  29  30
ATOM     30  C   UNL A   1      34.404  33.320  31.952  1.00  0.00     0.261 C 
BRANCH  30  31
ATOM     31  O   UNL A   1      34.892  31.991  32.193  1.00  0.00    -0.460 OA
BRANCH  31  32
ATOM     32  C   UNL A   1      36.095  31.951  32.814  1.00  0.00     0.338 C 
ATOM     33  O   UNL A   1      36.360  32.331  33.945  1.00  0.00    -0.246 OA
BRANCH  32  34
ATOM     34  C   UNL A   1      37.070  31.216  31.991  1.00  0.00     0.060 A 
ATOM     35  C   UNL A   1      38.078  30.517  32.665  1.00  0.00     0.016 A 
ATOM     36  C   UNL A   1      37.062  31.288  30.596  1.00  0.00     0.016 A 
ATOM     37  C   UNL A   1      39.120  29.936  31.950  1.00  0.00     0.010 A 
ATOM     38  C   UNL A   1      38.116  30.711  29.879  1.00  0.00     0.010 A 
ATOM     39  C   UNL A   1      39.170  30.070  30.556  1.00  0.00    -0.014 A 
BRANCH  39  40
ATOM     40  C   UNL A   1      40.405  29.676  29.838  1.00  0.00     0.031 A 
ATOM     41  C   UNL A   1      40.495  28.294  29.249  1.00  0.00     0.074 A 
ATOM     42  C   UNL A   1      41.406  30.555  29.660  1.00  0.00     0.049 A 
ATOM     43  N   UNL A   1      41.477  27.740  28.584  1.00  0.00    -0.248 NA
ATOM     44  C   UNL A   1      39.323  27.423  29.430  1.00  0.00     0.031 C 
ATOM     45  C   UNL A   1      41.415  31.937  30.138  1.00  0.00     0.029 A 
ATOM     46  N   UNL A   1      42.612  30.409  29.023  1.00  0.00    -0.354 N 
ATOM     47  C   UNL A   1      41.039  26.462  28.261  1.00  0.00     0.074 A 
ATOM     48  C   UNL A   1      39.720  26.307  28.835  1.00  0.00     0.031 C 
ATOM     49  C   UNL A   1      42.579  32.511  29.783  1.00  0.00     0.029 A 
ATOM     50  C   UNL A   1      43.403  31.531  29.081  1.00  0.00     0.049 A 
ATOM     51  H   UNL A   1      42.885  29.580  28.568  1.00  0.00     0.167 HD
ATOM     52  C   UNL A   1      41.671  25.507  27.540  1.00  0.00     0.031 A 
ATOM     53  C   UNL A   1      44.657  31.733  28.636  1.00  0.00     0.031 A 
ATOM     54  C   UNL A   1      42.990  25.650  26.985  1.00  0.00     0.049 A 
ATOM     55  C   UNL A   1      45.374  30.622  27.914  1.00  0.00     0.074 A 
ATOM     56  C   UNL A   1      43.724  24.730  26.255  1.00  0.00     0.029 A 
ATOM     57  N   UNL A   1      43.772  26.787  27.101  1.00  0.00    -0.354 N 
ATOM     58  N   UNL A   1      44.943  29.422  27.607  1.00  0.00    -0.248 NA
ATOM     59  C   UNL A   1      46.747  30.899  27.469  1.00  0.00     0.031 C 
ATOM     60  C   UNL A   1      44.969  25.296  25.966  1.00  0.00     0.029 A 
ATOM     61  C   UNL A   1      44.988  26.588  26.468  1.00  0.00     0.049 A 
ATOM     62  H   UNL A   1      43.505  27.613  27.563  1.00  0.00     0.167 HD
ATOM     63  C   UNL A   1      45.980  28.815  26.908  1.00  0.00     0.074 A 
ATOM     64  C   UNL A   1      47.051  29.784  26.821  1.00  0.00     0.031 C 
ATOM     65  C   UNL A   1      46.039  27.566  26.384  1.00  0.00     0.031 A 
BRANCH  52  66
ATOM     66  C   UNL A   1      40.946  24.210  27.323  1.00  0.00    -0.014 A 
ATOM     67  C   UNL A   1      39.815  24.142  26.493  1.00  0.00     0.009 A 
ATOM     68  C   UNL A   1      41.422  23.031  27.919  1.00  0.00     0.009 A 
ATOM     69  C   UNL A   1      39.164  22.925  26.282  1.00  0.00     0.001 A 
ATOM     70  C   UNL A   1      40.783  21.812  27.687  1.00  0.00     0.001 A 
ATOM     71  C   UNL A   1      39.652  21.760  26.875  1.00  0.00     0.000 A 
ENDBRANCH  52  66
BRANCH  53  72
ATOM     72  C   UNL A   1      45.340  33.031  28.885  1.00  0.00    -0.014 A 
ATOM     73  C   UNL A   1      45.962  33.295  30.114  1.00  0.00     0.009 A 
ATOM     74  C   UNL A   1      45.331  34.032  27.900  1.00  0.00     0.009 A 
ATOM     75  C   UNL A   1      46.530  34.547  30.364  1.00  0.00     0.001 A 
ATOM     76  C   UNL A   1      45.927  35.271  28.142  1.00  0.00     0.001 A 
ATOM     77  C   UNL A   1      46.515  35.531  29.377  1.00  0.00     0.000 A 
ENDBRANCH  53  72
BRANCH  65  78
ATOM     78  C   UNL A   1      47.286  27.194  25.632  1.00  0.00    -0.014 A 
ATOM     79  C   UNL A   1      48.358  26.550  26.267  1.00  0.00     0.009 A 
ATOM     80  C   UNL A   1      47.368  27.456  24.254  1.00  0.00     0.009 A 
ATOM     81  C   UNL A   1      49.503  26.208  25.545  1.00  0.00     0.001 A 
ATOM     82  C   UNL A   1      48.501  27.087  23.530  1.00  0.00     0.001 A 
ATOM     83  C   UNL A   1      49.572  26.471  24.177  1.00  0.00     0.000 A 
ENDBRANCH  65  78
ENDBRANCH  39  40
ENDBRANCH  32  34
ENDBRANCH  31  32
ENDBRANCH  30  31
ENDBRANCH  29  30
ENDBRANCH  28  29
ENDBRANCH   1  28
TORSDOF 17
ENDMDL
