MODEL 1
REMARK VINA RESULT:     -12.2      0.000      0.000
REMARK SMILES COc1ccc(NC(=O)N[C@@H]2C=C[C@H](C(=O)OCCOCCOC(=O)c3ccc(-c4c5nc(c(-c6ccccc6)c6ccc([nH]6)c(-c6ccccc6)c6nc(c(-c7ccccc7)c7ccc4[nH]7)C=C6)C=C5)cc3)C2)c(C)c1
REMARK SMILES IDX 19 1 18 2 17 3 15 4 16 5 14 6 11 7 12 8 74 9 13 10 10 11
REMARK SMILES IDX 7 12 8 13 9 15 6 17 3 18 4 19 77 20 5 21 75 22 76 23 2 24
REMARK SMILES IDX 1 25 20 26 21 27 22 28 23 29 24 30 25 31 26 32 27 33 73 34
REMARK SMILES IDX 28 35 72 36 29 37 30 38 31 39 66 40 32 41 71 42 65 43 67 44
REMARK SMILES IDX 33 45 70 46 64 47 63 48 34 50 56 51 41 52 55 53 42 54 45 55
REMARK SMILES IDX 54 56 68 57 43 58 44 59 53 61 69 62 46 63 35 64 36 65 40 66
REMARK SMILES IDX 37 67 39 68 38 69 57 70 58 71 62 72 59 73 61 74 60 75 47 76
REMARK SMILES IDX 48 77 52 78 49 79 51 80 50 81
REMARK H PARENT 7 14 10 16 67 49 45 60
REMARK Flexibility Score: inf
ROOT
ATOM      1  C   UNL A   1      33.540  30.926  27.453  1.00  0.00     0.202 C 
ENDROOT
BRANCH   1   2
ATOM      2  C   UNL A   1      32.463  31.233  26.517  1.00  0.00     0.261 C 
BRANCH   2   3
ATOM      3  O   UNL A   1      31.735  30.071  26.742  1.00  0.00    -0.463 OA
BRANCH   3   4
ATOM      4  C   UNL A   1      31.770  29.152  25.779  1.00  0.00     0.312 C 
ATOM      5  O   UNL A   1      31.930  29.376  24.591  1.00  0.00    -0.252 OA
BRANCH   4   6
ATOM      6  C   UNL A   1      31.543  27.737  26.552  1.00  0.00     0.124 C 
ATOM      7  C   UNL A   1      33.594  25.494  25.684  1.00  0.00     0.107 C 
ATOM      8  C   UNL A   1      31.827  24.607  25.895  1.00  0.00    -0.006 C 
ATOM      9  C   UNL A   1      33.524  27.294  26.433  1.00  0.00     0.048 C 
ATOM     10  C   UNL A   1      30.630  25.747  26.181  1.00  0.00    -0.014 C 
BRANCH   7  11
ATOM     11  N   UNL A   1      33.835  26.043  24.028  1.00  0.00    -0.332 N 
ATOM     12  N   UNL A   1      34.018  23.910  22.520  1.00  0.00    -0.308 N 
ATOM     13  C   UNL A   1      33.778  25.369  22.714  1.00  0.00     0.319 C 
ATOM     14  H   UNL A   1      34.034  23.589  21.589  1.00  0.00     0.171 HD
ATOM     15  O   UNL A   1      33.499  26.071  21.738  1.00  0.00    -0.248 OA
ATOM     16  H   UNL A   1      34.055  27.001  23.965  1.00  0.00     0.165 HD
BRANCH  12  17
ATOM     17  C   UNL A   1      34.231  22.916  23.547  1.00  0.00     0.046 A 
ATOM     18  C   UNL A   1      33.745  19.399  24.550  1.00  0.00     0.119 A 
ATOM     19  C   UNL A   1      32.497  20.218  23.628  1.00  0.00     0.048 A 
ATOM     20  C   UNL A   1      35.128  20.329  24.916  1.00  0.00     0.052 A 
ATOM     21  C   UNL A   1      32.969  22.149  23.210  1.00  0.00     0.030 A 
ATOM     22  C   UNL A   1      35.358  22.024  24.491  1.00  0.00    -0.024 A 
ATOM     23  C   UNL A   1      36.721  22.399  25.054  1.00  0.00     0.047 C 
BRANCH  18  24
ATOM     24  O   UNL A   1      33.737  18.082  24.849  1.00  0.00    -0.497 OA
ATOM     25  C   UNL A   1      32.629  17.801  25.705  1.00  0.00     0.278 C 
ENDBRANCH  18  24
ENDBRANCH  12  17
ENDBRANCH   7  11
ENDBRANCH   4   6
ENDBRANCH   3   4
ENDBRANCH   2   3
ENDBRANCH   1   2
BRANCH   1  26
ATOM     26  O   UNL A   1      33.832  32.191  28.010  1.00  0.00    -0.374 OA
BRANCH  26  27
ATOM     27  C   UNL A   1      32.869  33.153  27.656  1.00  0.00     0.202 C 
BRANCH  27  28
ATOM     28  C   UNL A   1      33.276  34.472  28.325  1.00  0.00     0.261 C 
BRANCH  28  29
ATOM     29  O   UNL A   1      34.166  34.152  29.458  1.00  0.00    -0.460 OA
BRANCH  29  30
ATOM     30  C   UNL A   1      33.744  34.451  30.736  1.00  0.00     0.338 C 
ATOM     31  O   UNL A   1      32.881  35.283  30.985  1.00  0.00    -0.246 OA
BRANCH  30  32
ATOM     32  C   UNL A   1      34.723  33.946  31.824  1.00  0.00     0.060 A 
ATOM     33  C   UNL A   1      35.928  34.657  32.078  1.00  0.00     0.016 A 
ATOM     34  C   UNL A   1      34.728  32.593  32.126  1.00  0.00     0.016 A 
ATOM     35  C   UNL A   1      37.151  33.988  32.415  1.00  0.00     0.010 A 
ATOM     36  C   UNL A   1      35.962  31.945  32.324  1.00  0.00     0.010 A 
ATOM     37  C   UNL A   1      37.218  32.597  32.438  1.00  0.00    -0.014 A 
BRANCH  37  38
ATOM     38  C   UNL A   1      38.450  31.704  32.507  1.00  0.00     0.031 A 
ATOM     39  C   UNL A   1      38.405  30.474  31.645  1.00  0.00     0.074 A 
ATOM     40  C   UNL A   1      39.677  31.979  33.071  1.00  0.00     0.049 A 
ATOM     41  N   UNL A   1      39.397  29.681  31.471  1.00  0.00    -0.248 NA
ATOM     42  C   UNL A   1      37.254  30.049  30.853  1.00  0.00     0.031 C 
ATOM     43  C   UNL A   1      41.000  31.363  32.779  1.00  0.00     0.029 A 
ATOM     44  N   UNL A   1      40.091  33.006  33.928  1.00  0.00    -0.354 N 
ATOM     45  C   UNL A   1      39.147  28.841  30.421  1.00  0.00     0.074 A 
ATOM     46  C   UNL A   1      37.787  29.120  30.053  1.00  0.00     0.031 C 
ATOM     47  C   UNL A   1      41.983  31.870  33.546  1.00  0.00     0.029 A 
ATOM     48  C   UNL A   1      41.324  32.658  34.550  1.00  0.00     0.049 A 
ATOM     49  H   UNL A   1      39.601  33.847  34.078  1.00  0.00     0.167 HD
ATOM     50  C   UNL A   1      40.161  28.047  29.980  1.00  0.00     0.031 A 
ATOM     51  C   UNL A   1      41.492  32.480  35.892  1.00  0.00     0.031 A 
ATOM     52  C   UNL A   1      41.329  28.144  30.874  1.00  0.00     0.049 A 
ATOM     53  C   UNL A   1      41.816  31.007  36.088  1.00  0.00     0.074 A 
ATOM     54  C   UNL A   1      42.612  28.643  30.745  1.00  0.00     0.029 A 
ATOM     55  N   UNL A   1      41.135  27.943  32.243  1.00  0.00    -0.354 N 
ATOM     56  N   UNL A   1      41.356  30.077  35.282  1.00  0.00    -0.248 NA
ATOM     57  C   UNL A   1      42.856  30.506  36.986  1.00  0.00     0.031 C 
ATOM     58  C   UNL A   1      43.165  28.784  32.057  1.00  0.00     0.029 A 
ATOM     59  C   UNL A   1      42.233  28.332  32.985  1.00  0.00     0.049 A 
ATOM     60  H   UNL A   1      40.313  27.568  32.634  1.00  0.00     0.167 HD
ATOM     61  C   UNL A   1      42.173  28.984  35.362  1.00  0.00     0.074 A 
ATOM     62  C   UNL A   1      43.036  29.260  36.505  1.00  0.00     0.031 C 
ATOM     63  C   UNL A   1      42.310  28.012  34.408  1.00  0.00     0.031 A 
BRANCH  50  64
ATOM     64  C   UNL A   1      40.154  27.243  28.696  1.00  0.00    -0.014 A 
ATOM     65  C   UNL A   1      39.426  26.039  28.643  1.00  0.00     0.009 A 
ATOM     66  C   UNL A   1      40.851  27.575  27.519  1.00  0.00     0.009 A 
ATOM     67  C   UNL A   1      39.409  25.216  27.507  1.00  0.00     0.001 A 
ATOM     68  C   UNL A   1      40.838  26.759  26.374  1.00  0.00     0.001 A 
ATOM     69  C   UNL A   1      40.117  25.576  26.369  1.00  0.00     0.000 A 
ENDBRANCH  50  64
BRANCH  51  70
ATOM     70  C   UNL A   1      40.620  33.402  36.677  1.00  0.00    -0.014 A 
ATOM     71  C   UNL A   1      39.491  32.848  37.330  1.00  0.00     0.009 A 
ATOM     72  C   UNL A   1      41.212  34.538  37.244  1.00  0.00     0.009 A 
ATOM     73  C   UNL A   1      39.114  33.288  38.610  1.00  0.00     0.001 A 
ATOM     74  C   UNL A   1      40.853  34.945  38.537  1.00  0.00     0.001 A 
ATOM     75  C   UNL A   1      39.847  34.287  39.241  1.00  0.00     0.000 A 
ENDBRANCH  51  70
BRANCH  63  76
ATOM     76  C   UNL A   1      42.473  26.561  34.783  1.00  0.00    -0.014 A 
ATOM     77  C   UNL A   1      41.540  25.835  35.525  1.00  0.00     0.009 A 
ATOM     78  C   UNL A   1      43.545  25.827  34.219  1.00  0.00     0.009 A 
ATOM     79  C   UNL A   1      41.688  24.462  35.725  1.00  0.00     0.001 A 
ATOM     80  C   UNL A   1      43.660  24.448  34.358  1.00  0.00     0.001 A 
ATOM     81  C   UNL A   1      42.736  23.767  35.130  1.00  0.00     0.000 A 
ENDBRANCH  63  76
ENDBRANCH  37  38
ENDBRANCH  30  32
ENDBRANCH  29  30
ENDBRANCH  28  29
ENDBRANCH  27  28
ENDBRANCH  26  27
ENDBRANCH   1  26
TORSDOF 17
ENDMDL
MODEL 2
REMARK VINA RESULT:     -12.0      1.715      2.511
REMARK SMILES COc1ccc(NC(=O)N[C@@H]2C=C[C@H](C(=O)OCCOCCOC(=O)c3ccc(-c4c5nc(c(-c6ccccc6)c6ccc([nH]6)c(-c6ccccc6)c6nc(c(-c7ccccc7)c7ccc4[nH]7)C=C6)C=C5)cc3)C2)c(C)c1
REMARK SMILES IDX 19 1 18 2 17 3 15 4 16 5 14 6 11 7 12 8 74 9 13 10 10 11
REMARK SMILES IDX 7 12 8 13 9 15 6 17 3 18 4 19 77 20 5 21 75 22 76 23 2 24
REMARK SMILES IDX 1 25 20 26 21 27 22 28 23 29 24 30 25 31 26 32 27 33 73 34
REMARK SMILES IDX 28 35 72 36 29 37 30 38 31 39 66 40 32 41 71 42 65 43 67 44
REMARK SMILES IDX 33 45 70 46 64 47 63 48 34 50 56 51 41 52 55 53 42 54 45 55
REMARK SMILES IDX 54 56 68 57 43 58 44 59 53 61 69 62 46 63 35 64 36 65 40 66
REMARK SMILES IDX 37 67 39 68 38 69 57 70 58 71 62 72 59 73 61 74 60 75 47 76
REMARK SMILES IDX 48 77 52 78 49 79 51 80 50 81
REMARK H PARENT 7 14 10 16 67 49 45 60
REMARK Flexibility Score: inf
ROOT
ATOM      1  C   UNL A   1      31.487  29.565  26.204  1.00  0.00     0.202 C 
ENDROOT
BRANCH   1   2
ATOM      2  C   UNL A   1      31.174  30.321  24.995  1.00  0.00     0.261 C 
BRANCH   2   3
ATOM      3  O   UNL A   1      30.591  29.265  24.307  1.00  0.00    -0.463 OA
BRANCH   3   4
ATOM      4  C   UNL A   1      30.770  29.244  22.988  1.00  0.00     0.312 C 
ATOM      5  O   UNL A   1      29.981  29.663  22.158  1.00  0.00    -0.252 OA
BRANCH   4   6
ATOM      6  C   UNL A   1      32.225  28.543  22.780  1.00  0.00     0.124 C 
ATOM      7  C   UNL A   1      32.184  25.414  23.224  1.00  0.00     0.107 C 
ATOM      8  C   UNL A   1      33.873  26.087  24.030  1.00  0.00    -0.006 C 
ATOM      9  C   UNL A   1      31.362  26.815  22.144  1.00  0.00     0.048 C 
ATOM     10  C   UNL A   1      33.905  27.764  24.005  1.00  0.00    -0.014 C 
BRANCH   7  11
ATOM     11  N   UNL A   1      30.885  25.376  24.412  1.00  0.00    -0.332 N 
ATOM     12  N   UNL A   1      31.516  23.569  26.198  1.00  0.00    -0.308 N 
ATOM     13  C   UNL A   1      30.747  24.765  25.751  1.00  0.00     0.319 C 
ATOM     14  H   UNL A   1      31.281  23.203  27.082  1.00  0.00     0.171 HD
ATOM     15  O   UNL A   1      29.957  25.303  26.531  1.00  0.00    -0.248 OA
ATOM     16  H   UNL A   1      30.080  25.864  24.122  1.00  0.00     0.165 HD
BRANCH  12  17
ATOM     17  C   UNL A   1      32.567  22.886  25.479  1.00  0.00     0.046 A 
ATOM     18  C   UNL A   1      36.005  21.555  25.615  1.00  0.00     0.119 A 
ATOM     19  C   UNL A   1      35.620  23.048  26.452  1.00  0.00     0.048 A 
ATOM     20  C   UNL A   1      34.712  20.817  24.781  1.00  0.00     0.052 A 
ATOM     21  C   UNL A   1      33.679  23.601  26.219  1.00  0.00     0.030 A 
ATOM     22  C   UNL A   1      33.076  21.462  24.661  1.00  0.00    -0.024 A 
ATOM     23  C   UNL A   1      32.312  20.465  23.802  1.00  0.00     0.047 C 
BRANCH  18  24
ATOM     24  O   UNL A   1      37.186  20.906  25.710  1.00  0.00    -0.497 OA
ATOM     25  C   UNL A   1      38.239  21.787  25.318  1.00  0.00     0.278 C 
ENDBRANCH  18  24
ENDBRANCH  12  17
ENDBRANCH   7  11
ENDBRANCH   4   6
ENDBRANCH   3   4
ENDBRANCH   2   3
ENDBRANCH   1   2
BRANCH   1  26
ATOM     26  O   UNL A   1      32.232  30.495  26.963  1.00  0.00    -0.374 OA
BRANCH  26  27
ATOM     27  C   UNL A   1      33.617  30.315  26.796  1.00  0.00     0.202 C 
BRANCH  27  28
ATOM     28  C   UNL A   1      34.314  31.053  27.945  1.00  0.00     0.261 C 
BRANCH  28  29
ATOM     29  O   UNL A   1      34.099  32.501  27.753  1.00  0.00    -0.460 OA
BRANCH  29  30
ATOM     30  C   UNL A   1      33.810  33.279  28.854  1.00  0.00     0.338 C 
ATOM     31  O   UNL A   1      32.858  34.045  28.908  1.00  0.00    -0.246 OA
BRANCH  30  32
ATOM     32  C   UNL A   1      35.003  33.396  29.834  1.00  0.00     0.060 A 
ATOM     33  C   UNL A   1      36.242  33.929  29.384  1.00  0.00     0.016 A 
ATOM     34  C   UNL A   1      35.062  32.517  30.905  1.00  0.00     0.016 A 
ATOM     35  C   UNL A   1      37.503  33.428  29.850  1.00  0.00     0.010 A 
ATOM     36  C   UNL A   1      36.301  31.947  31.250  1.00  0.00     0.010 A 
ATOM     37  C   UNL A   1      37.557  32.342  30.721  1.00  0.00    -0.014 A 
BRANCH  37  38
ATOM     38  C   UNL A   1      38.765  31.502  31.119  1.00  0.00     0.031 A 
ATOM     39  C   UNL A   1      38.909  30.194  30.393  1.00  0.00     0.074 A 
ATOM     40  C   UNL A   1      39.851  31.872  31.882  1.00  0.00     0.049 A 
ATOM     41  N   UNL A   1      39.927  29.422  30.497  1.00  0.00    -0.248 NA
ATOM     42  C   UNL A   1      37.944  29.656  29.438  1.00  0.00     0.031 C 
ATOM     43  C   UNL A   1      41.214  31.275  31.918  1.00  0.00     0.029 A 
ATOM     44  N   UNL A   1      40.072  32.989  32.696  1.00  0.00    -0.354 N 
ATOM     45  C   UNL A   1      39.902  28.477  29.509  1.00  0.00     0.074 A 
ATOM     46  C   UNL A   1      38.639  28.674  28.856  1.00  0.00     0.031 C 
ATOM     47  C   UNL A   1      42.019  31.887  32.809  1.00  0.00     0.029 A 
ATOM     48  C   UNL A   1      41.162  32.745  33.580  1.00  0.00     0.049 A 
ATOM     49  H   UNL A   1      39.550  33.824  32.661  1.00  0.00     0.167 HD
ATOM     50  C   UNL A   1      40.995  27.679  29.357  1.00  0.00     0.031 A 
ATOM     51  C   UNL A   1      41.063  32.701  34.939  1.00  0.00     0.031 A 
ATOM     52  C   UNL A   1      41.961  27.902  30.449  1.00  0.00     0.049 A 
ATOM     53  C   UNL A   1      41.363  31.266  35.342  1.00  0.00     0.074 A 
ATOM     54  C   UNL A   1      43.237  28.430  30.524  1.00  0.00     0.029 A 
ATOM     55  N   UNL A   1      41.502  27.826  31.766  1.00  0.00    -0.354 N 
ATOM     56  N   UNL A   1      41.086  30.247  34.559  1.00  0.00    -0.248 NA
ATOM     57  C   UNL A   1      42.211  30.888  36.472  1.00  0.00     0.031 C 
ATOM     58  C   UNL A   1      43.516  28.714  31.898  1.00  0.00     0.029 A 
ATOM     59  C   UNL A   1      42.425  28.321  32.666  1.00  0.00     0.049 A 
ATOM     60  H   UNL A   1      40.625  27.462  32.024  1.00  0.00     0.167 HD
ATOM     61  C   UNL A   1      41.886  29.196  34.907  1.00  0.00     0.074 A 
ATOM     62  C   UNL A   1      42.500  29.610  36.164  1.00  0.00     0.031 C 
ATOM     63  C   UNL A   1      42.223  28.142  34.101  1.00  0.00     0.031 A 
BRANCH  50  64
ATOM     64  C   UNL A   1      41.254  26.757  28.184  1.00  0.00    -0.014 A 
ATOM     65  C   UNL A   1      41.787  25.475  28.424  1.00  0.00     0.009 A 
ATOM     66  C   UNL A   1      41.038  27.074  26.830  1.00  0.00     0.009 A 
ATOM     67  C   UNL A   1      42.098  24.582  27.387  1.00  0.00     0.001 A 
ATOM     68  C   UNL A   1      41.343  26.185  25.785  1.00  0.00     0.001 A 
ATOM     69  C   UNL A   1      41.877  24.937  26.065  1.00  0.00     0.000 A 
ENDBRANCH  50  64
BRANCH  51  70
ATOM     70  C   UNL A   1      40.040  33.664  35.441  1.00  0.00    -0.014 A 
ATOM     71  C   UNL A   1      38.898  33.135  36.092  1.00  0.00     0.009 A 
ATOM     72  C   UNL A   1      40.473  34.943  35.815  1.00  0.00     0.009 A 
ATOM     73  C   UNL A   1      38.352  33.775  37.218  1.00  0.00     0.001 A 
ATOM     74  C   UNL A   1      39.945  35.554  36.961  1.00  0.00     0.001 A 
ATOM     75  C   UNL A   1      38.929  34.946  37.694  1.00  0.00     0.000 A 
ENDBRANCH  51  70
BRANCH  63  76
ATOM     76  C   UNL A   1      42.329  26.740  34.645  1.00  0.00    -0.014 A 
ATOM     77  C   UNL A   1      41.332  26.115  35.396  1.00  0.00     0.009 A 
ATOM     78  C   UNL A   1      43.421  25.933  34.242  1.00  0.00     0.009 A 
ATOM     79  C   UNL A   1      41.437  24.771  35.757  1.00  0.00     0.001 A 
ATOM     80  C   UNL A   1      43.496  24.577  34.540  1.00  0.00     0.001 A 
ATOM     81  C   UNL A   1      42.508  23.999  35.316  1.00  0.00     0.000 A 
ENDBRANCH  63  76
ENDBRANCH  37  38
ENDBRANCH  30  32
ENDBRANCH  29  30
ENDBRANCH  28  29
ENDBRANCH  27  28
ENDBRANCH  26  27
ENDBRANCH   1  26
TORSDOF 17
ENDMDL
MODEL 3
REMARK VINA RESULT:     -11.7      2.453      4.155
REMARK SMILES COc1ccc(NC(=O)N[C@@H]2C=C[C@H](C(=O)OCCOCCOC(=O)c3ccc(-c4c5nc(c(-c6ccccc6)c6ccc([nH]6)c(-c6ccccc6)c6nc(c(-c7ccccc7)c7ccc4[nH]7)C=C6)C=C5)cc3)C2)c(C)c1
REMARK SMILES IDX 19 1 18 2 17 3 15 4 16 5 14 6 11 7 12 8 74 9 13 10 10 11
REMARK SMILES IDX 7 12 8 13 9 15 6 17 3 18 4 19 77 20 5 21 75 22 76 23 2 24
REMARK SMILES IDX 1 25 20 26 21 27 22 28 23 29 24 30 25 31 26 32 27 33 73 34
REMARK SMILES IDX 28 35 72 36 29 37 30 38 31 39 66 40 32 41 71 42 65 43 67 44
REMARK SMILES IDX 33 45 70 46 64 47 63 48 34 50 56 51 41 52 55 53 42 54 45 55
REMARK SMILES IDX 54 56 68 57 43 58 44 59 53 61 69 62 46 63 35 64 36 65 40 66
REMARK SMILES IDX 37 67 39 68 38 69 57 70 58 71 62 72 59 73 61 74 60 75 47 76
REMARK SMILES IDX 48 77 52 78 49 79 51 80 50 81
REMARK H PARENT 7 14 10 16 67 49 45 60
REMARK Flexibility Score: inf
ROOT
ATOM      1  C   UNL A   1      34.068  28.729  26.087  1.00  0.00     0.202 C 
ENDROOT
BRANCH   1   2
ATOM      2  C   UNL A   1      33.314  28.136  27.188  1.00  0.00     0.261 C 
BRANCH   2   3
ATOM      3  O   UNL A   1      33.027  26.940  26.544  1.00  0.00    -0.463 OA
BRANCH   3   4
ATOM      4  C   UNL A   1      31.751  26.727  26.225  1.00  0.00     0.312 C 
ATOM      5  O   UNL A   1      30.809  26.783  26.997  1.00  0.00    -0.252 OA
BRANCH   4   6
ATOM      6  C   UNL A   1      31.776  26.382  24.634  1.00  0.00     0.124 C 
ATOM      7  C   UNL A   1      33.627  23.924  23.913  1.00  0.00     0.107 C 
ATOM      8  C   UNL A   1      33.886  25.279  22.480  1.00  0.00    -0.006 C 
ATOM      9  C   UNL A   1      32.090  24.409  25.012  1.00  0.00     0.048 C 
ATOM     10  C   UNL A   1      33.080  26.699  22.865  1.00  0.00    -0.014 C 
BRANCH   7  11
ATOM     11  N   UNL A   1      34.798  24.141  25.210  1.00  0.00    -0.332 N 
ATOM     12  N   UNL A   1      35.667  21.764  25.881  1.00  0.00    -0.308 N 
ATOM     13  C   UNL A   1      35.791  23.250  25.845  1.00  0.00     0.319 C 
ATOM     14  H   UNL A   1      36.348  21.280  26.403  1.00  0.00     0.171 HD
ATOM     15  O   UNL A   1      36.779  23.786  26.355  1.00  0.00    -0.248 OA
ATOM     16  H   UNL A   1      34.788  25.048  25.594  1.00  0.00     0.165 HD
BRANCH  12  17
ATOM     17  C   UNL A   1      34.658  20.956  25.236  1.00  0.00     0.046 A 
ATOM     18  C   UNL A   1      33.542  17.539  24.405  1.00  0.00     0.119 A 
ATOM     19  C   UNL A   1      35.254  17.919  24.390  1.00  0.00     0.048 A 
ATOM     20  C   UNL A   1      32.499  18.825  24.819  1.00  0.00     0.052 A 
ATOM     21  C   UNL A   1      35.632  19.860  24.854  1.00  0.00     0.030 A 
ATOM     22  C   UNL A   1      33.008  20.476  25.169  1.00  0.00    -0.024 A 
ATOM     23  C   UNL A   1      31.723  21.242  25.452  1.00  0.00     0.047 C 
BRANCH  18  24
ATOM     24  O   UNL A   1      33.031  16.298  24.255  1.00  0.00    -0.497 OA
ATOM     25  C   UNL A   1      32.927  15.675  25.535  1.00  0.00     0.278 C 
ENDBRANCH  18  24
ENDBRANCH  12  17
ENDBRANCH   7  11
ENDBRANCH   4   6
ENDBRANCH   3   4
ENDBRANCH   2   3
ENDBRANCH   1   2
BRANCH   1  26
ATOM     26  O   UNL A   1      33.566  30.048  26.047  1.00  0.00    -0.374 OA
BRANCH  26  27
ATOM     27  C   UNL A   1      32.980  30.422  27.270  1.00  0.00     0.202 C 
BRANCH  27  28
ATOM     28  C   UNL A   1      33.400  31.869  27.554  1.00  0.00     0.261 C 
BRANCH  28  29
ATOM     29  O   UNL A   1      34.870  31.945  27.443  1.00  0.00    -0.460 OA
BRANCH  29  30
ATOM     30  C   UNL A   1      35.629  31.782  28.582  1.00  0.00     0.338 C 
ATOM     31  O   UNL A   1      35.970  32.709  29.305  1.00  0.00    -0.246 OA
BRANCH  30  32
ATOM     32  C   UNL A   1      36.337  30.406  28.639  1.00  0.00     0.060 A 
ATOM     33  C   UNL A   1      36.385  29.683  29.861  1.00  0.00     0.016 A 
ATOM     34  C   UNL A   1      37.356  30.154  27.732  1.00  0.00     0.016 A 
ATOM     35  C   UNL A   1      37.528  28.904  30.244  1.00  0.00     0.010 A 
ATOM     36  C   UNL A   1      38.518  29.499  28.179  1.00  0.00     0.010 A 
ATOM     37  C   UNL A   1      38.672  28.885  29.450  1.00  0.00    -0.014 A 
BRANCH  37  38
ATOM     38  C   UNL A   1      40.058  28.354  29.792  1.00  0.00     0.031 A 
ATOM     39  C   UNL A   1      40.446  27.074  29.107  1.00  0.00     0.074 A 
ATOM     40  C   UNL A   1      41.079  28.993  30.461  1.00  0.00     0.049 A 
ATOM     41  N   UNL A   1      41.615  26.551  29.168  1.00  0.00    -0.248 NA
ATOM     42  C   UNL A   1      39.568  26.287  28.245  1.00  0.00     0.031 C 
ATOM     43  C   UNL A   1      42.541  28.713  30.422  1.00  0.00     0.029 A 
ATOM     44  N   UNL A   1      41.096  30.173  31.214  1.00  0.00    -0.354 N 
ATOM     45  C   UNL A   1      41.740  25.573  28.219  1.00  0.00     0.074 A 
ATOM     46  C   UNL A   1      40.427  25.452  27.652  1.00  0.00     0.031 C 
ATOM     47  C   UNL A   1      43.242  29.533  31.229  1.00  0.00     0.029 A 
ATOM     48  C   UNL A   1      42.265  30.221  32.026  1.00  0.00     0.049 A 
ATOM     49  H   UNL A   1      40.399  30.869  31.186  1.00  0.00     0.167 HD
ATOM     50  C   UNL A   1      42.972  25.028  28.020  1.00  0.00     0.031 A 
ATOM     51  C   UNL A   1      42.262  30.228  33.390  1.00  0.00     0.031 A 
ATOM     52  C   UNL A   1      43.929  25.515  29.031  1.00  0.00     0.049 A 
ATOM     53  C   UNL A   1      42.898  28.917  33.824  1.00  0.00     0.074 A 
ATOM     54  C   UNL A   1      45.057  26.313  28.994  1.00  0.00     0.029 A 
ATOM     55  N   UNL A   1      43.581  25.409  30.379  1.00  0.00    -0.354 N 
ATOM     56  N   UNL A   1      42.807  27.823  33.102  1.00  0.00    -0.248 NA
ATOM     57  C   UNL A   1      43.877  28.795  34.904  1.00  0.00     0.031 C 
ATOM     58  C   UNL A   1      45.350  26.723  30.334  1.00  0.00     0.029 A 
ATOM     59  C   UNL A   1      44.424  26.142  31.192  1.00  0.00     0.049 A 
ATOM     60  H   UNL A   1      42.824  24.875  30.713  1.00  0.00     0.167 HD
ATOM     61  C   UNL A   1      43.842  26.992  33.431  1.00  0.00     0.074 A 
ATOM     62  C   UNL A   1      44.424  27.597  34.624  1.00  0.00     0.031 C 
ATOM     63  C   UNL A   1      44.355  25.998  32.644  1.00  0.00     0.031 A 
BRANCH  50  64
ATOM     64  C   UNL A   1      43.358  24.125  26.867  1.00  0.00    -0.014 A 
ATOM     65  C   UNL A   1      44.140  24.646  25.819  1.00  0.00     0.009 A 
ATOM     66  C   UNL A   1      42.976  22.779  26.719  1.00  0.00     0.009 A 
ATOM     67  C   UNL A   1      44.499  23.887  24.695  1.00  0.00     0.001 A 
ATOM     68  C   UNL A   1      43.332  22.008  25.598  1.00  0.00     0.001 A 
ATOM     69  C   UNL A   1      44.094  22.565  24.583  1.00  0.00     0.000 A 
ENDBRANCH  50  64
BRANCH  51  70
ATOM     70  C   UNL A   1      41.082  30.967  33.927  1.00  0.00    -0.014 A 
ATOM     71  C   UNL A   1      40.941  32.333  33.578  1.00  0.00     0.009 A 
ATOM     72  C   UNL A   1      39.916  30.235  34.190  1.00  0.00     0.009 A 
ATOM     73  C   UNL A   1      39.677  32.875  33.293  1.00  0.00     0.001 A 
ATOM     74  C   UNL A   1      38.662  30.775  33.868  1.00  0.00     0.001 A 
ATOM     75  C   UNL A   1      38.547  32.069  33.366  1.00  0.00     0.000 A 
ENDBRANCH  51  70
BRANCH  63  76
ATOM     76  C   UNL A   1      44.805  24.685  33.230  1.00  0.00    -0.014 A 
ATOM     77  C   UNL A   1      46.094  24.443  33.710  1.00  0.00     0.009 A 
ATOM     78  C   UNL A   1      43.838  23.679  33.474  1.00  0.00     0.009 A 
ATOM     79  C   UNL A   1      46.409  23.249  34.361  1.00  0.00     0.001 A 
ATOM     80  C   UNL A   1      44.131  22.518  34.183  1.00  0.00     0.001 A 
ATOM     81  C   UNL A   1      45.427  22.297  34.611  1.00  0.00     0.000 A 
ENDBRANCH  63  76
ENDBRANCH  37  38
ENDBRANCH  30  32
ENDBRANCH  29  30
ENDBRANCH  28  29
ENDBRANCH  27  28
ENDBRANCH  26  27
ENDBRANCH   1  26
TORSDOF 17
ENDMDL
