MODEL 1
REMARK VINA RESULT:     -13.9      0.000      0.000
REMARK SMILES Cc1cc(/C=C2/C(=O)NC(=S)N=C2OCCOCCOC(=O)c2ccc(-c3c4nc(c(-c5ccccc5)c5ccc([nH]5)c(-c5ccccc5)c5nc(c(-c6ccccc6)c6ccc3[nH]6)C=C5)C=C4)cc2)c(C)n1-c1cccc(C(=O)[O-])c1
REMARK SMILES IDX 17 1 16 2 15 3 14 4 13 5 5 6 6 7 7 8 8 9 9 10 12 11 10 12
REMARK SMILES IDX 11 14 4 15 1 16 2 17 3 18 73 19 71 20 72 21 74 22 75 23
REMARK SMILES IDX 82 24 76 25 78 26 77 27 79 28 80 29 81 30 18 31 19 32 20 33
REMARK SMILES IDX 21 34 22 35 23 36 24 37 70 38 25 39 69 40 26 41 27 42 28 43
REMARK SMILES IDX 63 44 29 45 68 46 62 47 64 48 30 49 67 50 61 51 60 52 31 54
REMARK SMILES IDX 53 55 38 56 52 57 39 58 42 59 51 60 65 61 40 62 41 63 50 65
REMARK SMILES IDX 66 66 43 67 32 68 33 69 37 70 34 71 36 72 35 73 54 74 55 75
REMARK SMILES IDX 59 76 56 77 58 78 57 79 44 80 45 81 49 82 46 83 48 84 47 85
REMARK H PARENT 9 13 64 53 42 64
REMARK Flexibility Score: inf
ROOT
ATOM      1  O   UNL A   1      36.167  34.227  33.781  1.00  0.00    -0.374 OA
ENDROOT
BRANCH   1   2
ATOM      2  C   UNL A   1      34.996  33.524  33.468  1.00  0.00     0.202 C 
BRANCH   2   3
ATOM      3  C   UNL A   1      34.832  33.029  32.064  1.00  0.00     0.260 C 
BRANCH   3   4
ATOM      4  O   UNL A   1      33.698  33.776  31.305  1.00  0.00    -0.475 OA
BRANCH   4   5
ATOM      5  C   UNL A   1      33.254  34.934  30.895  1.00  0.00     0.229 C 
ATOM      6  C   UNL A   1      33.634  34.596  28.244  1.00  0.00     0.029 C 
ATOM      7  C   UNL A   1      33.431  35.311  29.414  1.00  0.00     0.103 C 
ATOM      8  C   UNL A   1      33.342  36.831  29.325  1.00  0.00     0.262 C 
ATOM      9  O   UNL A   1      33.198  37.453  28.277  1.00  0.00    -0.269 OA
ATOM     10  N   UNL A   1      33.423  37.489  30.552  1.00  0.00    -0.297 N 
ATOM     11  N   UNL A   1      33.042  35.660  31.909  1.00  0.00    -0.184 NA
ATOM     12  C   UNL A   1      33.356  36.951  31.810  1.00  0.00     0.203 C 
ATOM     13  H   UNL A   1      33.545  38.465  30.508  1.00  0.00     0.172 HD
ATOM     14  S   UNL A   1      33.743  37.815  33.191  1.00  0.00    -0.038 S 
BRANCH   6  15
ATOM     15  C   UNL A   1      33.861  33.158  27.972  1.00  0.00    -0.003 A 
ATOM     16  C   UNL A   1      35.145  29.638  27.873  1.00  0.00     0.065 C 
ATOM     17  C   UNL A   1      34.534  30.948  27.863  1.00  0.00     0.020 A 
ATOM     18  C   UNL A   1      34.914  32.251  28.251  1.00  0.00     0.031 A 
ATOM     19  N   UNL A   1      33.362  30.989  27.212  1.00  0.00    -0.318 N 
ATOM     20  C   UNL A   1      33.040  32.271  27.362  1.00  0.00     0.027 A 
ATOM     21  C   UNL A   1      31.768  32.406  26.935  1.00  0.00     0.065 C 
BRANCH  19  22
ATOM     22  C   UNL A   1      32.499  29.936  26.632  1.00  0.00     0.046 A 
ATOM     23  C   UNL A   1      31.804  28.970  27.431  1.00  0.00     0.026 A 
ATOM     24  C   UNL A   1      32.617  29.665  25.288  1.00  0.00     0.036 A 
ATOM     25  C   UNL A   1      31.386  27.738  26.902  1.00  0.00     0.003 A 
ATOM     26  C   UNL A   1      31.928  28.570  24.742  1.00  0.00    -0.001 A 
ATOM     27  C   UNL A   1      31.382  27.574  25.535  1.00  0.00     0.010 A 
BRANCH  26  28
ATOM     28  C   UNL A   1      31.844  28.361  23.301  1.00  0.00     0.072 C 
ATOM     29  O   UNL A   1      30.892  28.583  22.581  1.00  0.00    -0.545 OA
ATOM     30  O   UNL A   1      32.929  27.697  22.910  1.00  0.00    -0.545 OA
ENDBRANCH  26  28
ENDBRANCH  19  22
ENDBRANCH   6  15
ENDBRANCH   4   5
ENDBRANCH   3   4
ENDBRANCH   2   3
ENDBRANCH   1   2
BRANCH   1  31
ATOM     31  C   UNL A   1      36.965  33.462  34.668  1.00  0.00     0.202 C 
BRANCH  31  32
ATOM     32  C   UNL A   1      37.679  32.124  34.367  1.00  0.00     0.261 C 
BRANCH  32  33
ATOM     33  O   UNL A   1      37.020  30.842  33.628  1.00  0.00    -0.460 OA
BRANCH  33  34
ATOM     34  C   UNL A   1      37.510  30.090  32.467  1.00  0.00     0.338 C 
ATOM     35  O   UNL A   1      36.597  29.528  31.849  1.00  0.00    -0.246 OA
BRANCH  34  36
ATOM     36  C   UNL A   1      39.351  29.853  32.197  1.00  0.00     0.060 A 
ATOM     37  C   UNL A   1      40.711  30.179  32.376  1.00  0.00     0.016 A 
ATOM     38  C   UNL A   1      39.930  29.006  31.282  1.00  0.00     0.016 A 
ATOM     39  C   UNL A   1      42.278  29.630  31.402  1.00  0.00     0.010 A 
ATOM     40  C   UNL A   1      41.537  28.508  30.448  1.00  0.00     0.010 A 
ATOM     41  C   UNL A   1      43.227  28.609  30.055  1.00  0.00    -0.014 A 
BRANCH  41  42
ATOM     42  C   UNL A   1      45.066  27.895  29.166  1.00  0.00     0.031 A 
ATOM     43  C   UNL A   1      44.290  29.742  29.046  1.00  0.00     0.074 A 
ATOM     44  C   UNL A   1      46.491  26.663  28.583  1.00  0.00     0.049 A 
ATOM     45  N   UNL A   1      43.077  30.004  28.441  1.00  0.00    -0.248 NA
ATOM     46  C   UNL A   1      44.414  31.285  29.287  1.00  0.00     0.031 C 
ATOM     47  C   UNL A   1      47.936  25.268  28.260  1.00  0.00     0.029 A 
ATOM     48  N   UNL A   1      47.984  26.536  27.396  1.00  0.00    -0.354 N 
ATOM     49  C   UNL A   1      43.417  30.585  27.335  1.00  0.00     0.074 A 
ATOM     50  C   UNL A   1      44.211  31.652  28.000  1.00  0.00     0.031 C 
ATOM     51  C   UNL A   1      49.356  24.737  27.586  1.00  0.00     0.029 A 
ATOM     52  C   UNL A   1      49.669  25.837  26.875  1.00  0.00     0.049 A 
ATOM     53  H   UNL A   1      47.760  27.167  26.673  1.00  0.00     0.167 HD
ATOM     54  C   UNL A   1      43.553  29.415  26.654  1.00  0.00     0.031 A 
ATOM     55  C   UNL A   1      50.941  25.714  25.727  1.00  0.00     0.031 A 
ATOM     56  C   UNL A   1      44.925  29.205  26.597  1.00  0.00     0.049 A 
ATOM     57  C   UNL A   1      50.479  26.905  25.128  1.00  0.00     0.074 A 
ATOM     58  C   UNL A   1      46.029  29.837  27.151  1.00  0.00     0.029 A 
ATOM     59  N   UNL A   1      45.278  27.966  26.298  1.00  0.00    -0.354 N 
ATOM     60  N   UNL A   1      49.396  26.820  24.435  1.00  0.00    -0.248 NA
ATOM     61  C   UNL A   1      50.817  27.922  26.090  1.00  0.00     0.031 C 
ATOM     62  C   UNL A   1      47.074  29.047  26.993  1.00  0.00     0.029 A 
ATOM     63  C   UNL A   1      46.597  28.083  26.153  1.00  0.00     0.049 A 
ATOM     64  H   UNL A   1      44.714  27.166  26.206  1.00  0.00     0.167 HD
ATOM     65  C   UNL A   1      48.516  27.514  25.195  1.00  0.00     0.074 A 
ATOM     66  C   UNL A   1      49.550  28.282  26.234  1.00  0.00     0.031 C 
ATOM     67  C   UNL A   1      47.169  27.068  25.406  1.00  0.00     0.031 A 
BRANCH  54  68
ATOM     68  C   UNL A   1      42.446  28.184  27.066  1.00  0.00    -0.014 A 
ATOM     69  C   UNL A   1      41.170  28.693  26.992  1.00  0.00     0.009 A 
ATOM     70  C   UNL A   1      42.530  26.824  27.593  1.00  0.00     0.009 A 
ATOM     71  C   UNL A   1      40.057  27.873  27.136  1.00  0.00     0.001 A 
ATOM     72  C   UNL A   1      41.411  25.986  27.723  1.00  0.00     0.001 A 
ATOM     73  C   UNL A   1      40.185  26.506  27.373  1.00  0.00     0.000 A 
ENDBRANCH  54  68
BRANCH  55  74
ATOM     74  C   UNL A   1      52.798  25.723  25.361  1.00  0.00    -0.014 A 
ATOM     75  C   UNL A   1      53.923  26.722  25.019  1.00  0.00     0.009 A 
ATOM     76  C   UNL A   1      53.495  24.541  25.720  1.00  0.00     0.009 A 
ATOM     77  C   UNL A   1      55.412  26.420  24.961  1.00  0.00     0.001 A 
ATOM     78  C   UNL A   1      54.944  24.271  25.755  1.00  0.00     0.001 A 
ATOM     79  C   UNL A   1      55.908  25.202  25.394  1.00  0.00     0.000 A 
ENDBRANCH  55  74
BRANCH  67  80
ATOM     80  C   UNL A   1      46.310  25.441  25.613  1.00  0.00    -0.014 A 
ATOM     81  C   UNL A   1      45.182  24.759  26.483  1.00  0.00     0.009 A 
ATOM     82  C   UNL A   1      46.817  24.572  24.746  1.00  0.00     0.009 A 
ATOM     83  C   UNL A   1      45.150  23.462  26.936  1.00  0.00     0.001 A 
ATOM     84  C   UNL A   1      46.505  23.229  24.956  1.00  0.00     0.001 A 
ATOM     85  C   UNL A   1      45.746  22.674  26.033  1.00  0.00     0.000 A 
ENDBRANCH  67  80
ENDBRANCH  41  42
ENDBRANCH  34  36
ENDBRANCH  33  34
ENDBRANCH  32  33
ENDBRANCH  31  32
ENDBRANCH   1  31
TORSDOF 16
ENDMDL
MODEL 2
REMARK VINA RESULT:     -13.6      1.561      2.433
REMARK SMILES Cc1cc(/C=C2/C(=O)NC(=S)N=C2OCCOCCOC(=O)c2ccc(-c3c4nc(c(-c5ccccc5)c5ccc([nH]5)c(-c5ccccc5)c5nc(c(-c6ccccc6)c6ccc3[nH]6)C=C5)C=C4)cc2)c(C)n1-c1cccc(C(=O)[O-])c1
REMARK SMILES IDX 17 1 16 2 15 3 14 4 13 5 5 6 6 7 7 8 8 9 9 10 12 11 10 12
REMARK SMILES IDX 11 14 4 15 1 16 2 17 3 18 73 19 71 20 72 21 74 22 75 23
REMARK SMILES IDX 82 24 76 25 78 26 77 27 79 28 80 29 81 30 18 31 19 32 20 33
REMARK SMILES IDX 21 34 22 35 23 36 24 37 70 38 25 39 69 40 26 41 27 42 28 43
REMARK SMILES IDX 63 44 29 45 68 46 62 47 64 48 30 49 67 50 61 51 60 52 31 54
REMARK SMILES IDX 53 55 38 56 52 57 39 58 42 59 51 60 65 61 40 62 41 63 50 65
REMARK SMILES IDX 66 66 43 67 32 68 33 69 37 70 34 71 36 72 35 73 54 74 55 75
REMARK SMILES IDX 59 76 56 77 58 78 57 79 44 80 45 81 49 82 46 83 48 84 47 85
REMARK H PARENT 9 13 64 53 42 64
REMARK Flexibility Score: inf
ROOT
ATOM      1  O   UNL A   1      36.666  34.006  32.582  1.00  0.00    -0.374 OA
ENDROOT
BRANCH   1   2
ATOM      2  C   UNL A   1      36.062  32.752  32.419  1.00  0.00     0.202 C 
BRANCH   2   3
ATOM      3  C   UNL A   1      34.565  32.693  32.409  1.00  0.00     0.260 C 
BRANCH   3   4
ATOM      4  O   UNL A   1      33.950  33.536  31.256  1.00  0.00    -0.475 OA
BRANCH   4   5
ATOM      5  C   UNL A   1      33.391  34.671  30.927  1.00  0.00     0.229 C 
ATOM      6  C   UNL A   1      33.440  34.380  28.243  1.00  0.00     0.029 C 
ATOM      7  C   UNL A   1      33.352  35.071  29.442  1.00  0.00     0.103 C 
ATOM      8  C   UNL A   1      33.166  36.584  29.391  1.00  0.00     0.262 C 
ATOM      9  O   UNL A   1      32.852  37.206  28.381  1.00  0.00    -0.269 OA
ATOM     10  N   UNL A   1      33.370  37.234  30.608  1.00  0.00    -0.297 N 
ATOM     11  N   UNL A   1      33.273  35.373  31.972  1.00  0.00    -0.184 NA
ATOM     12  C   UNL A   1      33.499  36.681  31.855  1.00  0.00     0.203 C 
ATOM     13  H   UNL A   1      33.429  38.215  30.565  1.00  0.00     0.172 HD
ATOM     14  S   UNL A   1      34.014  37.553  33.189  1.00  0.00    -0.038 S 
BRANCH   6  15
ATOM     15  C   UNL A   1      33.710  32.960  27.920  1.00  0.00    -0.003 A 
ATOM     16  C   UNL A   1      35.121  29.497  27.666  1.00  0.00     0.065 C 
ATOM     17  C   UNL A   1      34.461  30.782  27.719  1.00  0.00     0.020 A 
ATOM     18  C   UNL A   1      34.806  32.087  28.132  1.00  0.00     0.031 A 
ATOM     19  N   UNL A   1      33.263  30.797  27.115  1.00  0.00    -0.318 N 
ATOM     20  C   UNL A   1      32.900  32.061  27.315  1.00  0.00     0.027 A 
ATOM     21  C   UNL A   1      31.608  32.158  26.940  1.00  0.00     0.065 C 
BRANCH  19  22
ATOM     22  C   UNL A   1      32.419  29.728  26.535  1.00  0.00     0.046 A 
ATOM     23  C   UNL A   1      31.792  28.713  27.331  1.00  0.00     0.026 A 
ATOM     24  C   UNL A   1      32.495  29.501  25.180  1.00  0.00     0.036 A 
ATOM     25  C   UNL A   1      31.401  27.482  26.780  1.00  0.00     0.003 A 
ATOM     26  C   UNL A   1      31.827  28.396  24.627  1.00  0.00    -0.001 A 
ATOM     27  C   UNL A   1      31.351  27.357  25.411  1.00  0.00     0.010 A 
BRANCH  26  28
ATOM     28  C   UNL A   1      31.695  28.226  23.185  1.00  0.00     0.072 C 
ATOM     29  O   UNL A   1      30.807  28.650  22.474  1.00  0.00    -0.545 OA
ATOM     30  O   UNL A   1      32.616  27.355  22.781  1.00  0.00    -0.545 OA
ENDBRANCH  26  28
ENDBRANCH  19  22
ENDBRANCH   6  15
ENDBRANCH   4   5
ENDBRANCH   3   4
ENDBRANCH   2   3
ENDBRANCH   1   2
BRANCH   1  31
ATOM     31  C   UNL A   1      36.698  34.348  33.957  1.00  0.00     0.202 C 
BRANCH  31  32
ATOM     32  C   UNL A   1      37.552  33.692  35.065  1.00  0.00     0.261 C 
BRANCH  32  33
ATOM     33  O   UNL A   1      37.113  32.426  35.977  1.00  0.00    -0.460 OA
BRANCH  33  34
ATOM     34  C   UNL A   1      37.913  31.273  36.405  1.00  0.00     0.338 C 
ATOM     35  O   UNL A   1      37.456  30.733  37.421  1.00  0.00    -0.246 OA
BRANCH  34  36
ATOM     36  C   UNL A   1      39.565  30.910  35.596  1.00  0.00     0.060 A 
ATOM     37  C   UNL A   1      40.946  31.104  35.390  1.00  0.00     0.016 A 
ATOM     38  C   UNL A   1      39.767  30.104  34.500  1.00  0.00     0.016 A 
ATOM     39  C   UNL A   1      42.104  30.517  33.969  1.00  0.00     0.010 A 
ATOM     40  C   UNL A   1      41.008  29.552  33.204  1.00  0.00     0.010 A 
ATOM     41  C   UNL A   1      42.517  29.548  32.342  1.00  0.00    -0.014 A 
BRANCH  41  42
ATOM     42  C   UNL A   1      43.941  28.767  30.912  1.00  0.00     0.031 A 
ATOM     43  C   UNL A   1      43.483  30.691  31.250  1.00  0.00     0.074 A 
ATOM     44  C   UNL A   1      44.955  27.481  29.814  1.00  0.00     0.049 A 
ATOM     45  N   UNL A   1      42.223  31.209  31.028  1.00  0.00    -0.248 NA
ATOM     46  C   UNL A   1      43.921  32.140  31.656  1.00  0.00     0.031 C 
ATOM     47  C   UNL A   1      46.023  25.989  28.936  1.00  0.00     0.029 A 
ATOM     48  N   UNL A   1      46.076  27.370  28.268  1.00  0.00    -0.354 N 
ATOM     49  C   UNL A   1      42.381  31.925  29.960  1.00  0.00     0.074 A 
ATOM     50  C   UNL A   1      43.479  32.748  30.530  1.00  0.00     0.031 C 
ATOM     51  C   UNL A   1      47.130  25.404  27.846  1.00  0.00     0.029 A 
ATOM     52  C   UNL A   1      47.444  26.560  27.233  1.00  0.00     0.049 A 
ATOM     53  H   UNL A   1      45.795  28.141  27.722  1.00  0.00     0.167 HD
ATOM     54  C   UNL A   1      42.149  30.883  29.116  1.00  0.00     0.031 A 
ATOM     55  C   UNL A   1      48.364  26.475  25.785  1.00  0.00     0.031 A 
ATOM     56  C   UNL A   1      43.411  30.510  28.671  1.00  0.00     0.049 A 
ATOM     57  C   UNL A   1      47.980  27.802  25.494  1.00  0.00     0.074 A 
ATOM     58  C   UNL A   1      44.707  30.888  28.995  1.00  0.00     0.029 A 
ATOM     59  N   UNL A   1      43.469  29.307  28.126  1.00  0.00    -0.354 N 
ATOM     60  N   UNL A   1      46.764  27.979  25.107  1.00  0.00    -0.248 NA
ATOM     61  C   UNL A   1      48.706  28.584  26.461  1.00  0.00     0.031 C 
ATOM     62  C   UNL A   1      45.535  30.010  28.463  1.00  0.00     0.029 A 
ATOM     63  C   UNL A   1      44.714  29.276  27.655  1.00  0.00     0.049 A 
ATOM     64  H   UNL A   1      42.771  28.614  28.079  1.00  0.00     0.167 HD
ATOM     65  C   UNL A   1      46.223  28.639  26.158  1.00  0.00     0.074 A 
ATOM     66  C   UNL A   1      47.589  29.074  26.981  1.00  0.00     0.031 C 
ATOM     67  C   UNL A   1      44.909  28.340  26.655  1.00  0.00     0.031 A 
BRANCH  54  68
ATOM     68  C   UNL A   1      40.982  29.752  29.636  1.00  0.00    -0.014 A 
ATOM     69  C   UNL A   1      39.819  30.423  29.936  1.00  0.00     0.009 A 
ATOM     70  C   UNL A   1      40.965  28.327  29.959  1.00  0.00     0.009 A 
ATOM     71  C   UNL A   1      38.651  29.737  30.248  1.00  0.00     0.001 A 
ATOM     72  C   UNL A   1      39.786  27.627  30.258  1.00  0.00     0.001 A 
ATOM     73  C   UNL A   1      38.611  28.345  30.282  1.00  0.00     0.000 A 
ENDBRANCH  54  68
BRANCH  55  74
ATOM     74  C   UNL A   1      50.053  26.307  24.947  1.00  0.00    -0.014 A 
ATOM     75  C   UNL A   1      50.853  26.928  23.783  1.00  0.00     0.009 A 
ATOM     76  C   UNL A   1      51.031  25.595  25.686  1.00  0.00     0.009 A 
ATOM     77  C   UNL A   1      52.321  26.689  23.467  1.00  0.00     0.001 A 
ATOM     78  C   UNL A   1      52.475  25.435  25.435  1.00  0.00     0.001 A 
ATOM     79  C   UNL A   1      53.131  25.986  24.344  1.00  0.00     0.000 A 
ENDBRANCH  55  74
BRANCH  67  80
ATOM     80  C   UNL A   1      43.863  26.827  26.859  1.00  0.00    -0.014 A 
ATOM     81  C   UNL A   1      42.780  26.216  27.832  1.00  0.00     0.009 A 
ATOM     82  C   UNL A   1      44.116  25.989  25.861  1.00  0.00     0.009 A 
ATOM     83  C   UNL A   1      42.625  24.896  28.182  1.00  0.00     0.001 A 
ATOM     84  C   UNL A   1      43.648  24.683  26.009  1.00  0.00     0.001 A 
ATOM     85  C   UNL A   1      42.972  24.129  27.141  1.00  0.00     0.000 A 
ENDBRANCH  67  80
ENDBRANCH  41  42
ENDBRANCH  34  36
ENDBRANCH  33  34
ENDBRANCH  32  33
ENDBRANCH  31  32
ENDBRANCH   1  31
TORSDOF 16
ENDMDL
MODEL 3
REMARK VINA RESULT:     -13.2      6.675     10.232
REMARK SMILES Cc1cc(/C=C2/C(=O)NC(=S)N=C2OCCOCCOC(=O)c2ccc(-c3c4nc(c(-c5ccccc5)c5ccc([nH]5)c(-c5ccccc5)c5nc(c(-c6ccccc6)c6ccc3[nH]6)C=C5)C=C4)cc2)c(C)n1-c1cccc(C(=O)[O-])c1
REMARK SMILES IDX 17 1 16 2 15 3 14 4 13 5 5 6 6 7 7 8 8 9 9 10 12 11 10 12
REMARK SMILES IDX 11 14 4 15 1 16 2 17 3 18 73 19 71 20 72 21 74 22 75 23
REMARK SMILES IDX 82 24 76 25 78 26 77 27 79 28 80 29 81 30 18 31 19 32 20 33
REMARK SMILES IDX 21 34 22 35 23 36 24 37 70 38 25 39 69 40 26 41 27 42 28 43
REMARK SMILES IDX 63 44 29 45 68 46 62 47 64 48 30 49 67 50 61 51 60 52 31 54
REMARK SMILES IDX 53 55 38 56 52 57 39 58 42 59 51 60 65 61 40 62 41 63 50 65
REMARK SMILES IDX 66 66 43 67 32 68 33 69 37 70 34 71 36 72 35 73 54 74 55 75
REMARK SMILES IDX 59 76 56 77 58 78 57 79 44 80 45 81 49 82 46 83 48 84 47 85
REMARK H PARENT 9 13 64 53 42 64
REMARK Flexibility Score: inf
ROOT
ATOM      1  O   UNL A   1      32.530  27.684  26.695  1.00  0.00    -0.374 OA
ENDROOT
BRANCH   1   2
ATOM      2  C   UNL A   1      31.148  27.456  26.646  1.00  0.00     0.202 C 
BRANCH   2   3
ATOM      3  C   UNL A   1      30.675  26.140  26.112  1.00  0.00     0.260 C 
BRANCH   3   4
ATOM      4  O   UNL A   1      30.885  26.017  24.576  1.00  0.00    -0.475 OA
BRANCH   4   5
ATOM      5  C   UNL A   1      31.348  26.595  23.499  1.00  0.00     0.229 C 
ATOM      6  C   UNL A   1      33.928  25.828  23.709  1.00  0.00     0.029 C 
ATOM      7  C   UNL A   1      32.867  26.600  23.259  1.00  0.00     0.103 C 
ATOM      8  C   UNL A   1      33.164  27.743  22.295  1.00  0.00     0.262 C 
ATOM      9  O   UNL A   1      34.229  27.885  21.701  1.00  0.00    -0.269 OA
ATOM     10  N   UNL A   1      32.110  28.638  22.114  1.00  0.00    -0.297 N 
ATOM     11  N   UNL A   1      30.436  27.329  23.019  1.00  0.00    -0.184 NA
ATOM     12  C   UNL A   1      30.806  28.505  22.512  1.00  0.00     0.203 C 
ATOM     13  H   UNL A   1      32.331  29.472  21.640  1.00  0.00     0.172 HD
ATOM     14  S   UNL A   1      29.709  29.770  22.476  1.00  0.00    -0.038 S 
BRANCH   6  15
ATOM     15  C   UNL A   1      34.022  24.729  24.697  1.00  0.00    -0.003 A 
ATOM     16  C   UNL A   1      33.786  22.542  27.731  1.00  0.00     0.065 C 
ATOM     17  C   UNL A   1      33.903  23.274  26.491  1.00  0.00     0.020 A 
ATOM     18  C   UNL A   1      33.750  24.617  26.083  1.00  0.00     0.031 A 
ATOM     19  N   UNL A   1      34.406  22.546  25.482  1.00  0.00    -0.318 N 
ATOM     20  C   UNL A   1      34.398  23.444  24.501  1.00  0.00     0.027 A 
ATOM     21  C   UNL A   1      34.682  22.778  23.362  1.00  0.00     0.065 C 
BRANCH  19  22
ATOM     22  C   UNL A   1      34.724  21.107  25.345  1.00  0.00     0.046 A 
ATOM     23  C   UNL A   1      36.067  20.606  25.312  1.00  0.00     0.026 A 
ATOM     24  C   UNL A   1      33.731  20.258  24.913  1.00  0.00     0.036 A 
ATOM     25  C   UNL A   1      36.377  19.364  24.735  1.00  0.00     0.003 A 
ATOM     26  C   UNL A   1      34.044  18.920  24.624  1.00  0.00    -0.001 A 
ATOM     27  C   UNL A   1      35.351  18.489  24.460  1.00  0.00     0.010 A 
BRANCH  26  28
ATOM     28  C   UNL A   1      33.004  17.930  24.370  1.00  0.00     0.072 C 
ATOM     29  O   UNL A   1      31.931  17.833  24.929  1.00  0.00    -0.545 OA
ATOM     30  O   UNL A   1      33.496  17.008  23.546  1.00  0.00    -0.545 OA
ENDBRANCH  26  28
ENDBRANCH  19  22
ENDBRANCH   6  15
ENDBRANCH   4   5
ENDBRANCH   3   4
ENDBRANCH   2   3
ENDBRANCH   1   2
BRANCH   1  31
ATOM     31  C   UNL A   1      32.842  28.894  26.025  1.00  0.00     0.202 C 
BRANCH  31  32
ATOM     32  C   UNL A   1      31.907  30.103  25.793  1.00  0.00     0.261 C 
BRANCH  32  33
ATOM     33  O   UNL A   1      31.648  31.315  26.837  1.00  0.00    -0.460 OA
BRANCH  33  34
ATOM     34  C   UNL A   1      32.605  32.282  27.387  1.00  0.00     0.338 C 
ATOM     35  O   UNL A   1      32.158  33.436  27.395  1.00  0.00    -0.246 OA
BRANCH  34  36
ATOM     36  C   UNL A   1      34.370  31.766  27.756  1.00  0.00     0.060 A 
ATOM     37  C   UNL A   1      35.495  30.924  27.643  1.00  0.00     0.016 A 
ATOM     38  C   UNL A   1      35.188  32.317  28.714  1.00  0.00     0.016 A 
ATOM     39  C   UNL A   1      37.096  30.809  28.706  1.00  0.00     0.010 A 
ATOM     40  C   UNL A   1      36.812  32.139  29.638  1.00  0.00     0.010 A 
ATOM     41  C   UNL A   1      38.298  31.374  30.117  1.00  0.00    -0.014 A 
BRANCH  41  42
ATOM     42  C   UNL A   1      40.219  31.301  31.112  1.00  0.00     0.031 A 
ATOM     43  C   UNL A   1      38.795  29.887  31.103  1.00  0.00     0.074 A 
ATOM     44  C   UNL A   1      41.970  31.875  31.813  1.00  0.00     0.049 A 
ATOM     45  N   UNL A   1      37.542  30.085  31.647  1.00  0.00    -0.248 NA
ATOM     46  C   UNL A   1      38.338  28.422  30.784  1.00  0.00     0.031 C 
ATOM     47  C   UNL A   1      43.815  32.601  32.266  1.00  0.00     0.029 A 
ATOM     48  N   UNL A   1      43.331  31.381  33.062  1.00  0.00    -0.354 N 
ATOM     49  C   UNL A   1      37.574  29.379  32.731  1.00  0.00     0.074 A 
ATOM     50  C   UNL A   1      37.939  28.115  32.040  1.00  0.00     0.031 C 
ATOM     51  C   UNL A   1      45.291  32.525  33.021  1.00  0.00     0.029 A 
ATOM     52  C   UNL A   1      45.124  31.365  33.683  1.00  0.00     0.049 A 
ATOM     53  H   UNL A   1      42.845  30.858  33.740  1.00  0.00     0.167 HD
ATOM     54  C   UNL A   1      38.105  30.385  33.480  1.00  0.00     0.031 A 
ATOM     55  C   UNL A   1      46.282  30.953  34.882  1.00  0.00     0.031 A 
ATOM     56  C   UNL A   1      39.449  30.054  33.600  1.00  0.00     0.049 A 
ATOM     57  C   UNL A   1      45.370  30.007  35.399  1.00  0.00     0.074 A 
ATOM     58  C   UNL A   1      40.260  29.068  33.054  1.00  0.00     0.029 A 
ATOM     59  N   UNL A   1      40.229  31.052  33.978  1.00  0.00    -0.354 N 
ATOM     60  N   UNL A   1      44.364  30.474  36.054  1.00  0.00    -0.248 NA
ATOM     61  C   UNL A   1      45.350  28.973  34.397  1.00  0.00     0.031 C 
ATOM     62  C   UNL A   1      41.516  29.393  33.293  1.00  0.00     0.029 A 
ATOM     63  C   UNL A   1      41.395  30.436  34.166  1.00  0.00     0.049 A 
ATOM     64  H   UNL A   1      40.006  32.004  34.092  1.00  0.00     0.167 HD
ATOM     65  C   UNL A   1      43.330  30.195  35.224  1.00  0.00     0.074 A 
ATOM     66  C   UNL A   1      44.051  29.129  34.186  1.00  0.00     0.031 C 
ATOM     67  C   UNL A   1      42.266  31.129  34.988  1.00  0.00     0.031 A 
BRANCH  54  68
ATOM     68  C   UNL A   1      37.573  31.959  33.093  1.00  0.00    -0.014 A 
ATOM     69  C   UNL A   1      36.197  31.975  33.100  1.00  0.00     0.009 A 
ATOM     70  C   UNL A   1      38.195  33.200  32.637  1.00  0.00     0.009 A 
ATOM     71  C   UNL A   1      35.490  33.163  32.960  1.00  0.00     0.001 A 
ATOM     72  C   UNL A   1      37.487  34.405  32.512  1.00  0.00     0.001 A 
ATOM     73  C   UNL A   1      36.140  34.384  32.795  1.00  0.00     0.000 A 
ENDBRANCH  54  68
BRANCH  55  74
ATOM     74  C   UNL A   1      47.973  30.223  35.317  1.00  0.00    -0.014 A 
ATOM     75  C   UNL A   1      48.799  28.943  35.070  1.00  0.00     0.009 A 
ATOM     76  C   UNL A   1      48.927  31.149  35.810  1.00  0.00     0.009 A 
ATOM     77  C   UNL A   1      50.263  28.732  35.421  1.00  0.00     0.001 A 
ATOM     78  C   UNL A   1      50.369  30.977  36.066  1.00  0.00     0.001 A 
ATOM     79  C   UNL A   1      51.048  29.784  35.862  1.00  0.00     0.000 A 
ENDBRANCH  55  74
BRANCH  67  80
ATOM     80  C   UNL A   1      42.102  32.967  34.837  1.00  0.00    -0.014 A 
ATOM     81  C   UNL A   1      41.255  34.057  34.069  1.00  0.00     0.009 A 
ATOM     82  C   UNL A   1      42.991  33.547  35.634  1.00  0.00     0.009 A 
ATOM     83  C   UNL A   1      41.691  35.271  33.598  1.00  0.00     0.001 A 
ATOM     84  C   UNL A   1      43.215  34.909  35.431  1.00  0.00     0.001 A 
ATOM     85  C   UNL A   1      42.634  35.741  34.424  1.00  0.00     0.000 A 
ENDBRANCH  67  80
ENDBRANCH  41  42
ENDBRANCH  34  36
ENDBRANCH  33  34
ENDBRANCH  32  33
ENDBRANCH  31  32
ENDBRANCH   1  31
TORSDOF 16
ENDMDL
