MODEL 1
REMARK VINA RESULT:     -10.4      0.000      0.000
REMARK SMILES CC(=O)c1nnn(-c2ccc(C(=O)OCCOCCOC(=O)c3ccc(-c4c5nc(c(-c6ccccc6)c6ccc([nH]6)c(-c6ccccc6)c6nc(c(-c7ccccc7)c7ccc4[nH]7)C=C6)C=C5)cc3)cc2)c1C
REMARK SMILES IDX 17 1 16 2 15 3 14 4 12 5 13 6 11 7 8 8 9 9 72 10 10 11 71 12
REMARK SMILES IDX 7 13 4 14 5 15 73 16 6 17 74 18 2 19 1 20 3 21 18 22 19 23
REMARK SMILES IDX 20 24 21 25 22 26 23 27 24 28 70 29 25 30 69 31 26 32 27 33
REMARK SMILES IDX 28 34 63 35 29 36 68 37 62 38 64 39 30 40 67 41 61 42 60 43
REMARK SMILES IDX 31 45 53 46 38 47 52 48 39 49 42 50 51 51 65 52 40 53 41 54
REMARK SMILES IDX 50 56 66 57 43 58 32 59 33 60 37 61 34 62 36 63 35 64 54 65
REMARK SMILES IDX 55 66 59 67 56 68 58 69 57 70 44 71 45 72 49 73 46 74 48 75
REMARK SMILES IDX 47 76
REMARK H PARENT 64 44 42 55
REMARK Flexibility Score: inf
ROOT
ATOM      1  O   UNL A   1      45.972  20.952  25.404  1.00  0.00    -0.374 OA
ENDROOT
BRANCH   1   2
ATOM      2  C   UNL A   1      46.320  21.864  24.361  1.00  0.00     0.202 C 
BRANCH   2   3
ATOM      3  C   UNL A   1      45.465  23.118  24.194  1.00  0.00     0.261 C 
BRANCH   3   4
ATOM      4  O   UNL A   1      45.414  23.893  25.404  1.00  0.00    -0.460 OA
BRANCH   4   5
ATOM      5  C   UNL A   1      45.159  25.206  25.213  1.00  0.00     0.338 C 
ATOM      6  O   UNL A   1      44.074  25.768  25.290  1.00  0.00    -0.246 OA
BRANCH   5   7
ATOM      7  C   UNL A   1      46.413  25.956  25.020  1.00  0.00     0.060 A 
ATOM      8  C   UNL A   1      48.654  27.309  24.131  1.00  0.00     0.067 A 
ATOM      9  C   UNL A   1      47.442  28.000  24.221  1.00  0.00     0.029 A 
ATOM     10  C   UNL A   1      48.783  26.008  24.637  1.00  0.00     0.029 A 
ATOM     11  C   UNL A   1      46.312  27.305  24.640  1.00  0.00     0.018 A 
ATOM     12  C   UNL A   1      47.657  25.328  25.096  1.00  0.00     0.018 A 
BRANCH   8  13
ATOM     13  N   UNL A   1      49.676  27.859  23.329  1.00  0.00    -0.217 N 
ATOM     14  C   UNL A   1      50.802  28.724  21.673  1.00  0.00     0.151 A 
ATOM     15  N   UNL A   1      51.414  29.059  22.853  1.00  0.00    -0.126 NA
ATOM     16  C   UNL A   1      49.676  27.964  21.944  1.00  0.00     0.073 A 
ATOM     17  N   UNL A   1      50.666  28.613  23.851  1.00  0.00    -0.061 NA
ATOM     18  C   UNL A   1      48.588  27.463  21.068  1.00  0.00     0.069 C 
BRANCH  14  19
ATOM     19  C   UNL A   1      51.282  29.213  20.391  1.00  0.00     0.181 C 
ATOM     20  C   UNL A   1      51.275  30.706  20.164  1.00  0.00     0.095 C 
ATOM     21  O   UNL A   1      51.719  28.448  19.531  1.00  0.00    -0.293 OA
ENDBRANCH  14  19
ENDBRANCH   8  13
ENDBRANCH   5   7
ENDBRANCH   4   5
ENDBRANCH   3   4
ENDBRANCH   2   3
ENDBRANCH   1   2
BRANCH   1  22
ATOM     22  C   UNL A   1      46.028  19.548  25.175  1.00  0.00     0.202 C 
BRANCH  22  23
ATOM     23  C   UNL A   1      44.718  18.783  25.079  1.00  0.00     0.261 C 
BRANCH  23  24
ATOM     24  O   UNL A   1      43.602  19.646  24.938  1.00  0.00    -0.460 OA
BRANCH  24  25
ATOM     25  C   UNL A   1      42.566  19.339  25.744  1.00  0.00     0.338 C 
ATOM     26  O   UNL A   1      42.088  18.225  25.953  1.00  0.00    -0.246 OA
BRANCH  25  27
ATOM     27  C   UNL A   1      41.958  20.581  26.217  1.00  0.00     0.060 A 
ATOM     28  C   UNL A   1      42.268  21.731  25.487  1.00  0.00     0.016 A 
ATOM     29  C   UNL A   1      41.438  20.636  27.518  1.00  0.00     0.016 A 
ATOM     30  C   UNL A   1      42.303  22.931  26.153  1.00  0.00     0.010 A 
ATOM     31  C   UNL A   1      41.517  21.824  28.194  1.00  0.00     0.010 A 
ATOM     32  C   UNL A   1      42.028  22.934  27.522  1.00  0.00    -0.014 A 
BRANCH  32  33
ATOM     33  C   UNL A   1      42.253  24.155  28.254  1.00  0.00     0.031 A 
ATOM     34  C   UNL A   1      41.245  25.195  27.987  1.00  0.00     0.074 A 
ATOM     35  C   UNL A   1      43.208  24.255  29.194  1.00  0.00     0.049 A 
ATOM     36  N   UNL A   1      41.411  26.324  27.385  1.00  0.00    -0.248 NA
ATOM     37  C   UNL A   1      39.844  24.860  28.286  1.00  0.00     0.031 C 
ATOM     38  C   UNL A   1      44.025  23.179  29.760  1.00  0.00     0.029 A 
ATOM     39  N   UNL A   1      43.545  25.335  29.945  1.00  0.00    -0.354 N 
ATOM     40  C   UNL A   1      40.161  26.930  27.409  1.00  0.00     0.074 A 
ATOM     41  C   UNL A   1      39.214  25.902  27.752  1.00  0.00     0.031 C 
ATOM     42  C   UNL A   1      44.580  23.613  30.915  1.00  0.00     0.029 A 
ATOM     43  C   UNL A   1      44.241  25.016  31.101  1.00  0.00     0.049 A 
ATOM     44  H   UNL A   1      43.318  26.259  29.693  1.00  0.00     0.167 HD
ATOM     45  C   UNL A   1      40.034  28.282  27.472  1.00  0.00     0.031 A 
ATOM     46  C   UNL A   1      44.429  25.828  32.169  1.00  0.00     0.031 A 
ATOM     47  C   UNL A   1      41.249  28.955  27.085  1.00  0.00     0.049 A 
ATOM     48  C   UNL A   1      44.118  27.217  31.753  1.00  0.00     0.074 A 
ATOM     49  C   UNL A   1      42.055  28.943  25.964  1.00  0.00     0.029 A 
ATOM     50  N   UNL A   1      42.003  29.519  28.085  1.00  0.00    -0.354 N 
ATOM     51  N   UNL A   1      44.868  27.922  30.958  1.00  0.00    -0.248 NA
ATOM     52  C   UNL A   1      42.747  27.691  31.892  1.00  0.00     0.031 C 
ATOM     53  C   UNL A   1      43.386  29.084  26.457  1.00  0.00     0.029 A 
ATOM     54  C   UNL A   1      43.316  29.216  27.845  1.00  0.00     0.049 A 
ATOM     55  H   UNL A   1      41.660  30.048  28.842  1.00  0.00     0.167 HD
ATOM     56  C   UNL A   1      43.977  28.638  30.170  1.00  0.00     0.074 A 
ATOM     57  C   UNL A   1      42.699  28.552  30.872  1.00  0.00     0.031 C 
ATOM     58  C   UNL A   1      44.292  28.979  28.885  1.00  0.00     0.031 A 
BRANCH  45  59
ATOM     59  C   UNL A   1      38.978  28.949  28.326  1.00  0.00    -0.014 A 
ATOM     60  C   UNL A   1      38.949  28.655  29.699  1.00  0.00     0.009 A 
ATOM     61  C   UNL A   1      37.849  29.614  27.804  1.00  0.00     0.009 A 
ATOM     62  C   UNL A   1      37.816  28.920  30.476  1.00  0.00     0.001 A 
ATOM     63  C   UNL A   1      36.737  29.927  28.586  1.00  0.00     0.001 A 
ATOM     64  C   UNL A   1      36.707  29.547  29.917  1.00  0.00     0.000 A 
ENDBRANCH  45  59
BRANCH  46  65
ATOM     65  C   UNL A   1      44.607  25.461  33.590  1.00  0.00    -0.014 A 
ATOM     66  C   UNL A   1      45.860  25.593  34.206  1.00  0.00     0.009 A 
ATOM     67  C   UNL A   1      43.495  25.210  34.415  1.00  0.00     0.009 A 
ATOM     68  C   UNL A   1      45.989  25.513  35.599  1.00  0.00     0.001 A 
ATOM     69  C   UNL A   1      43.625  25.120  35.803  1.00  0.00     0.001 A 
ATOM     70  C   UNL A   1      44.871  25.287  36.397  1.00  0.00     0.000 A 
ENDBRANCH  46  65
BRANCH  58  71
ATOM     71  C   UNL A   1      45.728  28.829  28.448  1.00  0.00    -0.014 A 
ATOM     72  C   UNL A   1      46.559  29.924  28.150  1.00  0.00     0.009 A 
ATOM     73  C   UNL A   1      46.296  27.547  28.453  1.00  0.00     0.009 A 
ATOM     74  C   UNL A   1      47.903  29.733  27.817  1.00  0.00     0.001 A 
ATOM     75  C   UNL A   1      47.645  27.359  28.145  1.00  0.00     0.001 A 
ATOM     76  C   UNL A   1      48.445  28.451  27.816  1.00  0.00     0.000 A 
ENDBRANCH  58  71
ENDBRANCH  32  33
ENDBRANCH  25  27
ENDBRANCH  24  25
ENDBRANCH  23  24
ENDBRANCH  22  23
ENDBRANCH   1  22
TORSDOF 16
ENDMDL
MODEL 2
REMARK VINA RESULT:      -9.5      7.191     13.233
REMARK SMILES CC(=O)c1nnn(-c2ccc(C(=O)OCCOCCOC(=O)c3ccc(-c4c5nc(c(-c6ccccc6)c6ccc([nH]6)c(-c6ccccc6)c6nc(c(-c7ccccc7)c7ccc4[nH]7)C=C6)C=C5)cc3)cc2)c1C
REMARK SMILES IDX 17 1 16 2 15 3 14 4 12 5 13 6 11 7 8 8 9 9 72 10 10 11 71 12
REMARK SMILES IDX 7 13 4 14 5 15 73 16 6 17 74 18 2 19 1 20 3 21 18 22 19 23
REMARK SMILES IDX 20 24 21 25 22 26 23 27 24 28 70 29 25 30 69 31 26 32 27 33
REMARK SMILES IDX 28 34 63 35 29 36 68 37 62 38 64 39 30 40 67 41 61 42 60 43
REMARK SMILES IDX 31 45 53 46 38 47 52 48 39 49 42 50 51 51 65 52 40 53 41 54
REMARK SMILES IDX 50 56 66 57 43 58 32 59 33 60 37 61 34 62 36 63 35 64 54 65
REMARK SMILES IDX 55 66 59 67 56 68 58 69 57 70 44 71 45 72 49 73 46 74 48 75
REMARK SMILES IDX 47 76
REMARK H PARENT 64 44 42 55
REMARK Flexibility Score: inf
ROOT
ATOM      1  O   UNL A   1      34.120  33.990  29.077  1.00  0.00    -0.374 OA
ENDROOT
BRANCH   1   2
ATOM      2  C   UNL A   1      33.547  33.166  28.060  1.00  0.00     0.202 C 
BRANCH   2   3
ATOM      3  C   UNL A   1      34.320  31.922  27.630  1.00  0.00     0.261 C 
BRANCH   3   4
ATOM      4  O   UNL A   1      33.439  30.835  27.298  1.00  0.00    -0.460 OA
BRANCH   4   5
ATOM      5  C   UNL A   1      34.057  29.643  27.149  1.00  0.00     0.338 C 
ATOM      6  O   UNL A   1      35.086  29.270  27.698  1.00  0.00    -0.246 OA
BRANCH   5   7
ATOM      7  C   UNL A   1      33.250  28.739  26.311  1.00  0.00     0.060 A 
ATOM      8  C   UNL A   1      32.086  26.665  24.900  1.00  0.00     0.067 A 
ATOM      9  C   UNL A   1      31.772  26.819  26.254  1.00  0.00     0.029 A 
ATOM     10  C   UNL A   1      32.838  27.633  24.220  1.00  0.00     0.029 A 
ATOM     11  C   UNL A   1      32.385  27.846  26.965  1.00  0.00     0.018 A 
ATOM     12  C   UNL A   1      33.417  28.685  24.926  1.00  0.00     0.018 A 
BRANCH   8  13
ATOM     13  N   UNL A   1      31.822  25.420  24.291  1.00  0.00    -0.217 N 
ATOM     14  C   UNL A   1      31.816  23.301  23.774  1.00  0.00     0.151 A 
ATOM     15  N   UNL A   1      30.644  23.869  23.347  1.00  0.00    -0.126 NA
ATOM     16  C   UNL A   1      32.590  24.268  24.396  1.00  0.00     0.073 A 
ATOM     17  N   UNL A   1      30.618  25.129  23.755  1.00  0.00    -0.061 NA
ATOM     18  C   UNL A   1      33.863  24.178  25.153  1.00  0.00     0.069 C 
BRANCH  14  19
ATOM     19  C   UNL A   1      32.079  21.878  23.633  1.00  0.00     0.181 C 
ATOM     20  C   UNL A   1      32.191  21.060  24.897  1.00  0.00     0.095 C 
ATOM     21  O   UNL A   1      32.168  21.345  22.528  1.00  0.00    -0.293 OA
ENDBRANCH  14  19
ENDBRANCH   8  13
ENDBRANCH   5   7
ENDBRANCH   4   5
ENDBRANCH   3   4
ENDBRANCH   2   3
ENDBRANCH   1   2
BRANCH   1  22
ATOM     22  C   UNL A   1      34.046  35.408  28.974  1.00  0.00     0.202 C 
BRANCH  22  23
ATOM     23  C   UNL A   1      33.173  36.155  29.970  1.00  0.00     0.261 C 
BRANCH  23  24
ATOM     24  O   UNL A   1      32.555  35.283  30.902  1.00  0.00    -0.460 OA
BRANCH  24  25
ATOM     25  C   UNL A   1      32.672  35.680  32.185  1.00  0.00     0.338 C 
ATOM     26  O   UNL A   1      32.060  36.588  32.743  1.00  0.00    -0.246 OA
BRANCH  25  27
ATOM     27  C   UNL A   1      33.794  34.967  32.792  1.00  0.00     0.060 A 
ATOM     28  C   UNL A   1      34.913  35.741  33.106  1.00  0.00     0.016 A 
ATOM     29  C   UNL A   1      33.853  33.570  32.688  1.00  0.00     0.016 A 
ATOM     30  C   UNL A   1      36.148  35.142  33.061  1.00  0.00     0.010 A 
ATOM     31  C   UNL A   1      35.087  32.982  32.598  1.00  0.00     0.010 A 
ATOM     32  C   UNL A   1      36.215  33.794  32.703  1.00  0.00    -0.014 A 
BRANCH  32  33
ATOM     33  C   UNL A   1      37.517  33.222  32.468  1.00  0.00     0.031 A 
ATOM     34  C   UNL A   1      38.391  33.244  33.653  1.00  0.00     0.074 A 
ATOM     35  C   UNL A   1      37.823  32.600  31.317  1.00  0.00     0.049 A 
ATOM     36  N   UNL A   1      39.472  33.926  33.828  1.00  0.00    -0.248 NA
ATOM     37  C   UNL A   1      37.909  32.541  34.853  1.00  0.00     0.031 C 
ATOM     38  C   UNL A   1      36.916  32.234  30.226  1.00  0.00     0.029 A 
ATOM     39  N   UNL A   1      39.002  32.033  30.950  1.00  0.00    -0.354 N 
ATOM     40  C   UNL A   1      39.914  33.577  35.099  1.00  0.00     0.074 A 
ATOM     41  C   UNL A   1      38.809  32.926  35.752  1.00  0.00     0.031 C 
ATOM     42  C   UNL A   1      37.521  31.310  29.446  1.00  0.00     0.029 A 
ATOM     43  C   UNL A   1      38.881  31.108  29.924  1.00  0.00     0.049 A 
ATOM     44  H   UNL A   1      39.862  32.257  31.373  1.00  0.00     0.167 HD
ATOM     45  C   UNL A   1      41.239  33.551  35.402  1.00  0.00     0.031 A 
ATOM     46  C   UNL A   1      39.804  30.181  29.573  1.00  0.00     0.031 A 
ATOM     47  C   UNL A   1      42.022  34.303  34.454  1.00  0.00     0.049 A 
ATOM     48  C   UNL A   1      41.098  30.563  30.188  1.00  0.00     0.074 A 
ATOM     49  C   UNL A   1      42.011  35.605  33.995  1.00  0.00     0.029 A 
ATOM     50  N   UNL A   1      42.767  33.589  33.546  1.00  0.00    -0.354 N 
ATOM     51  N   UNL A   1      41.817  31.575  29.798  1.00  0.00    -0.248 NA
ATOM     52  C   UNL A   1      41.404  30.063  31.522  1.00  0.00     0.031 C 
ATOM     53  C   UNL A   1      42.365  35.520  32.615  1.00  0.00     0.029 A 
ATOM     54  C   UNL A   1      42.612  34.179  32.320  1.00  0.00     0.049 A 
ATOM     55  H   UNL A   1      43.315  32.795  33.742  1.00  0.00     0.167 HD
ATOM     56  C   UNL A   1      42.339  32.111  30.967  1.00  0.00     0.074 A 
ATOM     57  C   UNL A   1      42.155  31.070  31.975  1.00  0.00     0.031 C 
ATOM     58  C   UNL A   1      42.598  33.449  31.072  1.00  0.00     0.031 A 
BRANCH  45  59
ATOM     59  C   UNL A   1      41.841  32.467  36.269  1.00  0.00    -0.014 A 
ATOM     60  C   UNL A   1      42.617  32.853  37.374  1.00  0.00     0.009 A 
ATOM     61  C   UNL A   1      41.921  31.111  35.889  1.00  0.00     0.009 A 
ATOM     62  C   UNL A   1      43.496  31.956  37.993  1.00  0.00     0.001 A 
ATOM     63  C   UNL A   1      42.758  30.201  36.537  1.00  0.00     0.001 A 
ATOM     64  C   UNL A   1      43.573  30.634  37.568  1.00  0.00     0.000 A 
ENDBRANCH  45  59
BRANCH  46  65
ATOM     65  C   UNL A   1      39.594  28.854  28.958  1.00  0.00    -0.014 A 
ATOM     66  C   UNL A   1      40.152  28.553  27.706  1.00  0.00     0.009 A 
ATOM     67  C   UNL A   1      39.050  27.792  29.704  1.00  0.00     0.009 A 
ATOM     68  C   UNL A   1      40.197  27.234  27.237  1.00  0.00     0.001 A 
ATOM     69  C   UNL A   1      39.085  26.477  29.231  1.00  0.00     0.001 A 
ATOM     70  C   UNL A   1      39.673  26.196  28.003  1.00  0.00     0.000 A 
ENDBRANCH  46  65
BRANCH  58  71
ATOM     71  C   UNL A   1      42.593  34.269  29.805  1.00  0.00    -0.014 A 
ATOM     72  C   UNL A   1      41.468  34.983  29.357  1.00  0.00     0.009 A 
ATOM     73  C   UNL A   1      43.799  34.423  29.106  1.00  0.00     0.009 A 
ATOM     74  C   UNL A   1      41.536  35.783  28.214  1.00  0.00     0.001 A 
ATOM     75  C   UNL A   1      43.873  35.244  27.978  1.00  0.00     0.001 A 
ATOM     76  C   UNL A   1      42.740  35.914  27.526  1.00  0.00     0.000 A 
ENDBRANCH  58  71
ENDBRANCH  32  33
ENDBRANCH  25  27
ENDBRANCH  24  25
ENDBRANCH  23  24
ENDBRANCH  22  23
ENDBRANCH   1  22
TORSDOF 16
ENDMDL
MODEL 3
REMARK VINA RESULT:      -9.5      5.371      9.701
REMARK SMILES CC(=O)c1nnn(-c2ccc(C(=O)OCCOCCOC(=O)c3ccc(-c4c5nc(c(-c6ccccc6)c6ccc([nH]6)c(-c6ccccc6)c6nc(c(-c7ccccc7)c7ccc4[nH]7)C=C6)C=C5)cc3)cc2)c1C
REMARK SMILES IDX 17 1 16 2 15 3 14 4 12 5 13 6 11 7 8 8 9 9 72 10 10 11 71 12
REMARK SMILES IDX 7 13 4 14 5 15 73 16 6 17 74 18 2 19 1 20 3 21 18 22 19 23
REMARK SMILES IDX 20 24 21 25 22 26 23 27 24 28 70 29 25 30 69 31 26 32 27 33
REMARK SMILES IDX 28 34 63 35 29 36 68 37 62 38 64 39 30 40 67 41 61 42 60 43
REMARK SMILES IDX 31 45 53 46 38 47 52 48 39 49 42 50 51 51 65 52 40 53 41 54
REMARK SMILES IDX 50 56 66 57 43 58 32 59 33 60 37 61 34 62 36 63 35 64 54 65
REMARK SMILES IDX 55 66 59 67 56 68 58 69 57 70 44 71 45 72 49 73 46 74 48 75
REMARK SMILES IDX 47 76
REMARK H PARENT 64 44 42 55
REMARK Flexibility Score: inf
ROOT
ATOM      1  O   UNL A   1      36.591  22.381  25.096  1.00  0.00    -0.374 OA
ENDROOT
BRANCH   1   2
ATOM      2  C   UNL A   1      35.558  22.995  25.867  1.00  0.00     0.202 C 
BRANCH   2   3
ATOM      3  C   UNL A   1      34.582  22.083  26.608  1.00  0.00     0.261 C 
BRANCH   3   4
ATOM      4  O   UNL A   1      33.266  22.128  26.029  1.00  0.00    -0.460 OA
BRANCH   4   5
ATOM      5  C   UNL A   1      32.399  22.933  26.682  1.00  0.00     0.338 C 
ATOM      6  O   UNL A   1      32.099  22.890  27.868  1.00  0.00    -0.246 OA
BRANCH   5   7
ATOM      7  C   UNL A   1      31.923  24.011  25.797  1.00  0.00     0.060 A 
ATOM      8  C   UNL A   1      30.606  26.049  24.472  1.00  0.00     0.067 A 
ATOM      9  C   UNL A   1      31.384  26.364  25.589  1.00  0.00     0.029 A 
ATOM     10  C   UNL A   1      30.621  24.759  23.922  1.00  0.00     0.029 A 
ATOM     11  C   UNL A   1      32.019  25.330  26.270  1.00  0.00     0.018 A 
ATOM     12  C   UNL A   1      31.293  23.732  24.582  1.00  0.00     0.018 A 
BRANCH   8  13
ATOM     13  N   UNL A   1      29.643  26.987  24.042  1.00  0.00    -0.217 N 
ATOM     14  C   UNL A   1      28.637  28.656  23.062  1.00  0.00     0.151 A 
ATOM     15  N   UNL A   1      27.706  27.710  23.401  1.00  0.00    -0.126 NA
ATOM     16  C   UNL A   1      29.894  28.217  23.449  1.00  0.00     0.073 A 
ATOM     17  N   UNL A   1      28.341  26.661  23.904  1.00  0.00    -0.061 NA
ATOM     18  C   UNL A   1      31.250  28.767  23.206  1.00  0.00     0.069 C 
BRANCH  14  19
ATOM     19  C   UNL A   1      28.280  29.861  22.332  1.00  0.00     0.181 C 
ATOM     20  C   UNL A   1      27.907  31.082  23.137  1.00  0.00     0.095 C 
ATOM     21  O   UNL A   1      28.319  29.906  21.103  1.00  0.00    -0.293 OA
ENDBRANCH  14  19
ENDBRANCH   8  13
ENDBRANCH   5   7
ENDBRANCH   4   5
ENDBRANCH   3   4
ENDBRANCH   2   3
ENDBRANCH   1   2
BRANCH   1  22
ATOM     22  C   UNL A   1      36.568  20.977  24.859  1.00  0.00     0.202 C 
BRANCH  22  23
ATOM     23  C   UNL A   1      37.896  20.242  24.775  1.00  0.00     0.261 C 
BRANCH  23  24
ATOM     24  O   UNL A   1      38.867  20.784  25.655  1.00  0.00    -0.460 OA
BRANCH  24  25
ATOM     25  C   UNL A   1      39.987  20.042  25.760  1.00  0.00     0.338 C 
ATOM     26  O   UNL A   1      40.119  18.848  25.496  1.00  0.00    -0.246 OA
BRANCH  25  27
ATOM     27  C   UNL A   1      41.017  20.842  26.419  1.00  0.00     0.060 A 
ATOM     28  C   UNL A   1      41.009  20.820  27.816  1.00  0.00     0.016 A 
ATOM     29  C   UNL A   1      41.680  21.839  25.689  1.00  0.00     0.016 A 
ATOM     30  C   UNL A   1      41.445  21.937  28.484  1.00  0.00     0.010 A 
ATOM     31  C   UNL A   1      42.073  22.970  26.352  1.00  0.00     0.010 A 
ATOM     32  C   UNL A   1      41.871  23.033  27.730  1.00  0.00    -0.014 A 
BRANCH  32  33
ATOM     33  C   UNL A   1      42.143  24.266  28.425  1.00  0.00     0.031 A 
ATOM     34  C   UNL A   1      41.185  25.340  28.115  1.00  0.00     0.074 A 
ATOM     35  C   UNL A   1      43.093  24.353  29.372  1.00  0.00     0.049 A 
ATOM     36  N   UNL A   1      41.406  26.441  27.480  1.00  0.00    -0.248 NA
ATOM     37  C   UNL A   1      39.767  25.076  28.410  1.00  0.00     0.031 C 
ATOM     38  C   UNL A   1      43.856  23.261  29.980  1.00  0.00     0.029 A 
ATOM     39  N   UNL A   1      43.471  25.441  30.092  1.00  0.00    -0.354 N 
ATOM     40  C   UNL A   1      40.183  27.102  27.472  1.00  0.00     0.074 A 
ATOM     41  C   UNL A   1      39.189  26.128  27.837  1.00  0.00     0.031 C 
ATOM     42  C   UNL A   1      44.419  23.706  31.126  1.00  0.00     0.029 A 
ATOM     43  C   UNL A   1      44.141  25.129  31.265  1.00  0.00     0.049 A 
ATOM     44  H   UNL A   1      43.286  26.365  29.809  1.00  0.00     0.167 HD
ATOM     45  C   UNL A   1      40.116  28.459  27.491  1.00  0.00     0.031 A 
ATOM     46  C   UNL A   1      44.354  25.965  32.309  1.00  0.00     0.031 A 
ATOM     47  C   UNL A   1      41.363  29.065  27.096  1.00  0.00     0.049 A 
ATOM     48  C   UNL A   1      44.109  27.352  31.846  1.00  0.00     0.074 A 
ATOM     49  C   UNL A   1      42.178  28.982  25.984  1.00  0.00     0.029 A 
ATOM     50  N   UNL A   1      42.132  29.627  28.086  1.00  0.00    -0.354 N 
ATOM     51  N   UNL A   1      44.897  27.998  31.037  1.00  0.00    -0.248 NA
ATOM     52  C   UNL A   1      42.760  27.890  31.956  1.00  0.00     0.031 C 
ATOM     53  C   UNL A   1      43.510  29.080  26.487  1.00  0.00     0.029 A 
ATOM     54  C   UNL A   1      43.432  29.259  27.869  1.00  0.00     0.049 A 
ATOM     55  H   UNL A   1      41.806  30.194  28.823  1.00  0.00     0.167 HD
ATOM     56  C   UNL A   1      44.046  28.727  30.218  1.00  0.00     0.074 A 
ATOM     57  C   UNL A   1      42.759  28.719  30.909  1.00  0.00     0.031 C 
ATOM     58  C   UNL A   1      44.387  29.013  28.926  1.00  0.00     0.031 A 
BRANCH  45  59
ATOM     59  C   UNL A   1      39.083  29.199  28.313  1.00  0.00    -0.014 A 
ATOM     60  C   UNL A   1      39.146  29.094  29.712  1.00  0.00     0.009 A 
ATOM     61  C   UNL A   1      37.898  29.746  27.778  1.00  0.00     0.009 A 
ATOM     62  C   UNL A   1      38.049  29.423  30.516  1.00  0.00     0.001 A 
ATOM     63  C   UNL A   1      36.820  30.123  28.580  1.00  0.00     0.001 A 
ATOM     64  C   UNL A   1      36.883  29.927  29.949  1.00  0.00     0.000 A 
ENDBRANCH  45  59
BRANCH  46  65
ATOM     65  C   UNL A   1      44.504  25.635  33.742  1.00  0.00    -0.014 A 
ATOM     66  C   UNL A   1      43.385  25.276  34.509  1.00  0.00     0.009 A 
ATOM     67  C   UNL A   1      45.777  25.434  34.307  1.00  0.00     0.009 A 
ATOM     68  C   UNL A   1      43.537  24.702  35.778  1.00  0.00     0.001 A 
ATOM     69  C   UNL A   1      45.929  24.871  35.577  1.00  0.00     0.001 A 
ATOM     70  C   UNL A   1      44.808  24.491  36.307  1.00  0.00     0.000 A 
ENDBRANCH  46  65
BRANCH  58  71
ATOM     71  C   UNL A   1      45.820  28.786  28.509  1.00  0.00    -0.014 A 
ATOM     72  C   UNL A   1      46.684  29.828  28.133  1.00  0.00     0.009 A 
ATOM     73  C   UNL A   1      46.348  27.491  28.615  1.00  0.00     0.009 A 
ATOM     74  C   UNL A   1      48.023  29.572  27.822  1.00  0.00     0.001 A 
ATOM     75  C   UNL A   1      47.691  27.240  28.330  1.00  0.00     0.001 A 
ATOM     76  C   UNL A   1      48.525  28.278  27.922  1.00  0.00     0.000 A 
ENDBRANCH  58  71
ENDBRANCH  32  33
ENDBRANCH  25  27
ENDBRANCH  24  25
ENDBRANCH  23  24
ENDBRANCH  22  23
ENDBRANCH   1  22
TORSDOF 16
ENDMDL
