MODEL 1
REMARK VINA RESULT:     -10.0      0.000      0.000
REMARK SMILES C[C@H]1[C@@H](C(=O)OCCOCCOC(=O)c2ccc(-c3c4nc(c(-c5ccccc5)c5ccc([nH]5)c(-c5ccccc5)c5nc(c(-c6ccccc6)c6ccc3[nH]6)C=C5)C=C4)cc2)CCN1S(=O)(=O)Cc1cccc(C#N)c1
REMARK SMILES IDX 8 1 7 2 6 3 4 4 5 5 3 6 1 7 2 8 65 9 63 10 64 11 66 12 67 13
REMARK SMILES IDX 68 14 69 15 70 16 71 17 77 18 72 19 74 20 73 21 75 22 76 23
REMARK SMILES IDX 9 24 10 25 11 26 12 27 13 28 14 29 15 30 16 31 62 32 17 33
REMARK SMILES IDX 61 34 18 35 19 36 20 37 55 38 21 39 60 40 54 41 56 42 22 43
REMARK SMILES IDX 59 44 53 45 52 46 23 48 45 49 30 50 44 51 31 52 34 53 43 54
REMARK SMILES IDX 57 55 32 56 33 57 42 59 58 60 35 61 24 62 25 63 29 64 26 65
REMARK SMILES IDX 28 66 27 67 46 68 47 69 51 70 48 71 50 72 49 73 36 74 37 75
REMARK SMILES IDX 41 76 38 77 40 78 39 79
REMARK H PARENT 56 47 34 58
REMARK Flexibility Score: inf
ROOT
ATOM      1  C   UNL A   1      36.152  21.348  25.453  1.00  0.00     0.202 C 
ENDROOT
BRANCH   1   2
ATOM      2  C   UNL A   1      34.887  21.478  26.311  1.00  0.00     0.261 C 
BRANCH   2   3
ATOM      3  O   UNL A   1      34.565  22.866  26.535  1.00  0.00    -0.463 OA
BRANCH   3   4
ATOM      4  C   UNL A   1      33.270  23.228  26.423  1.00  0.00     0.310 C 
ATOM      5  O   UNL A   1      32.399  22.909  27.225  1.00  0.00    -0.252 OA
BRANCH   4   6
ATOM      6  C   UNL A   1      32.978  24.142  25.236  1.00  0.00     0.118 C 
ATOM      7  C   UNL A   1      32.837  22.137  23.520  1.00  0.00     0.027 C 
ATOM      8  C   UNL A   1      32.619  23.614  23.830  1.00  0.00     0.084 C 
ATOM      9  N   UNL A   1      33.452  24.390  22.844  1.00  0.00    -0.198 NA
ATOM     10  C   UNL A   1      34.149  25.110  25.025  1.00  0.00     0.034 C 
ATOM     11  C   UNL A   1      34.618  24.926  23.595  1.00  0.00     0.103 C 
BRANCH   9  12
ATOM     12  S   UNL A   1      32.694  25.562  21.873  1.00  0.00     0.218 S 
ATOM     13  O   UNL A   1      33.156  25.309  20.522  1.00  0.00    -0.212 OA
ATOM     14  O   UNL A   1      31.276  25.513  22.169  1.00  0.00    -0.212 OA
BRANCH  12  15
ATOM     15  C   UNL A   1      33.355  27.164  22.379  1.00  0.00     0.189 C 
BRANCH  15  16
ATOM     16  C   UNL A   1      32.327  28.093  22.973  1.00  0.00    -0.030 A 
ATOM     17  C   UNL A   1      32.343  28.428  24.335  1.00  0.00     0.005 A 
ATOM     18  C   UNL A   1      31.268  28.574  22.187  1.00  0.00     0.024 A 
ATOM     19  C   UNL A   1      31.354  29.250  24.883  1.00  0.00     0.002 A 
ATOM     20  C   UNL A   1      30.301  29.435  22.722  1.00  0.00     0.052 A 
ATOM     21  C   UNL A   1      30.341  29.766  24.077  1.00  0.00     0.019 A 
BRANCH  20  22
ATOM     22  C   UNL A   1      29.291  29.990  21.872  1.00  0.00     0.099 C 
ATOM     23  N   UNL A   1      28.468  30.409  21.168  1.00  0.00    -0.192 NA
ENDBRANCH  20  22
ENDBRANCH  15  16
ENDBRANCH  12  15
ENDBRANCH   9  12
ENDBRANCH   4   6
ENDBRANCH   3   4
ENDBRANCH   2   3
ENDBRANCH   1   2
BRANCH   1  24
ATOM     24  O   UNL A   1      36.468  20.040  24.972  1.00  0.00    -0.374 OA
BRANCH  24  25
ATOM     25  C   UNL A   1      37.844  19.669  24.942  1.00  0.00     0.202 C 
BRANCH  25  26
ATOM     26  C   UNL A   1      38.866  20.702  25.431  1.00  0.00     0.261 C 
BRANCH  26  27
ATOM     27  O   UNL A   1      39.712  20.175  26.461  1.00  0.00    -0.460 OA
BRANCH  27  28
ATOM     28  C   UNL A   1      41.017  20.120  26.111  1.00  0.00     0.338 C 
ATOM     29  O   UNL A   1      41.545  19.320  25.358  1.00  0.00    -0.246 OA
BRANCH  28  30
ATOM     30  C   UNL A   1      41.730  21.297  26.635  1.00  0.00     0.060 A 
ATOM     31  C   UNL A   1      41.776  21.430  28.027  1.00  0.00     0.016 A 
ATOM     32  C   UNL A   1      42.260  22.284  25.803  1.00  0.00     0.016 A 
ATOM     33  C   UNL A   1      42.243  22.609  28.592  1.00  0.00     0.010 A 
ATOM     34  C   UNL A   1      42.743  23.463  26.374  1.00  0.00     0.010 A 
ATOM     35  C   UNL A   1      42.670  23.656  27.765  1.00  0.00    -0.014 A 
BRANCH  35  36
ATOM     36  C   UNL A   1      42.857  24.998  28.363  1.00  0.00     0.031 A 
ATOM     37  C   UNL A   1      44.242  25.436  28.760  1.00  0.00     0.074 A 
ATOM     38  C   UNL A   1      41.821  25.849  28.456  1.00  0.00     0.049 A 
ATOM     39  N   UNL A   1      44.645  26.597  29.215  1.00  0.00    -0.248 NA
ATOM     40  C   UNL A   1      45.318  24.441  28.623  1.00  0.00     0.031 C 
ATOM     41  C   UNL A   1      40.443  25.548  28.067  1.00  0.00     0.029 A 
ATOM     42  N   UNL A   1      41.774  27.149  28.888  1.00  0.00    -0.354 N 
ATOM     43  C   UNL A   1      46.013  26.463  29.427  1.00  0.00     0.074 A 
ATOM     44  C   UNL A   1      46.365  25.102  29.092  1.00  0.00     0.031 C 
ATOM     45  C   UNL A   1      39.689  26.642  28.258  1.00  0.00     0.029 A 
ATOM     46  C   UNL A   1      40.521  27.703  28.820  1.00  0.00     0.049 A 
ATOM     47  H   UNL A   1      42.564  27.637  29.216  1.00  0.00     0.167 HD
ATOM     48  C   UNL A   1      46.900  27.394  29.851  1.00  0.00     0.031 A 
ATOM     49  C   UNL A   1      40.094  28.928  29.181  1.00  0.00     0.031 A 
ATOM     50  C   UNL A   1      46.544  28.744  30.199  1.00  0.00     0.049 A 
ATOM     51  C   UNL A   1      41.087  29.920  29.719  1.00  0.00     0.074 A 
ATOM     52  C   UNL A   1      47.367  29.772  30.626  1.00  0.00     0.029 A 
ATOM     53  N   UNL A   1      45.252  29.249  30.176  1.00  0.00    -0.354 N 
ATOM     54  N   UNL A   1      42.383  29.795  29.879  1.00  0.00    -0.248 NA
ATOM     55  C   UNL A   1      40.557  31.232  30.112  1.00  0.00     0.031 C 
ATOM     56  C   UNL A   1      46.564  30.875  30.931  1.00  0.00     0.029 A 
ATOM     57  C   UNL A   1      45.251  30.564  30.612  1.00  0.00     0.049 A 
ATOM     58  H   UNL A   1      44.454  28.747  29.892  1.00  0.00     0.167 HD
ATOM     59  C   UNL A   1      42.828  31.023  30.357  1.00  0.00     0.074 A 
ATOM     60  C   UNL A   1      41.665  31.883  30.436  1.00  0.00     0.031 C 
ATOM     61  C   UNL A   1      44.084  31.406  30.695  1.00  0.00     0.031 A 
BRANCH  48  62
ATOM     62  C   UNL A   1      48.338  26.970  29.999  1.00  0.00    -0.014 A 
ATOM     63  C   UNL A   1      49.266  27.131  28.956  1.00  0.00     0.009 A 
ATOM     64  C   UNL A   1      48.778  26.426  31.216  1.00  0.00     0.009 A 
ATOM     65  C   UNL A   1      50.591  26.720  29.117  1.00  0.00     0.001 A 
ATOM     66  C   UNL A   1      50.112  26.050  31.386  1.00  0.00     0.001 A 
ATOM     67  C   UNL A   1      51.015  26.186  30.334  1.00  0.00     0.000 A 
ENDBRANCH  48  62
BRANCH  49  68
ATOM     68  C   UNL A   1      38.654  29.281  29.055  1.00  0.00    -0.014 A 
ATOM     69  C   UNL A   1      38.141  29.808  27.861  1.00  0.00     0.009 A 
ATOM     70  C   UNL A   1      37.787  29.111  30.148  1.00  0.00     0.009 A 
ATOM     71  C   UNL A   1      36.800  30.190  27.774  1.00  0.00     0.001 A 
ATOM     72  C   UNL A   1      36.439  29.459  30.046  1.00  0.00     0.001 A 
ATOM     73  C   UNL A   1      35.950  30.011  28.863  1.00  0.00     0.000 A 
ENDBRANCH  49  68
BRANCH  61  74
ATOM     74  C   UNL A   1      44.270  32.834  31.135  1.00  0.00    -0.014 A 
ATOM     75  C   UNL A   1      44.382  33.885  30.210  1.00  0.00     0.009 A 
ATOM     76  C   UNL A   1      44.321  33.133  32.506  1.00  0.00     0.009 A 
ATOM     77  C   UNL A   1      44.602  35.193  30.648  1.00  0.00     0.001 A 
ATOM     78  C   UNL A   1      44.497  34.446  32.942  1.00  0.00     0.001 A 
ATOM     79  C   UNL A   1      44.656  35.473  32.013  1.00  0.00     0.000 A 
ENDBRANCH  61  74
ENDBRANCH  35  36
ENDBRANCH  28  30
ENDBRANCH  27  28
ENDBRANCH  26  27
ENDBRANCH  25  26
ENDBRANCH  24  25
ENDBRANCH   1  24
TORSDOF 18
ENDMDL
MODEL 2
REMARK VINA RESULT:      -9.8      3.014      4.278
REMARK SMILES C[C@H]1[C@@H](C(=O)OCCOCCOC(=O)c2ccc(-c3c4nc(c(-c5ccccc5)c5ccc([nH]5)c(-c5ccccc5)c5nc(c(-c6ccccc6)c6ccc3[nH]6)C=C5)C=C4)cc2)CCN1S(=O)(=O)Cc1cccc(C#N)c1
REMARK SMILES IDX 8 1 7 2 6 3 4 4 5 5 3 6 1 7 2 8 65 9 63 10 64 11 66 12 67 13
REMARK SMILES IDX 68 14 69 15 70 16 71 17 77 18 72 19 74 20 73 21 75 22 76 23
REMARK SMILES IDX 9 24 10 25 11 26 12 27 13 28 14 29 15 30 16 31 62 32 17 33
REMARK SMILES IDX 61 34 18 35 19 36 20 37 55 38 21 39 60 40 54 41 56 42 22 43
REMARK SMILES IDX 59 44 53 45 52 46 23 48 45 49 30 50 44 51 31 52 34 53 43 54
REMARK SMILES IDX 57 55 32 56 33 57 42 59 58 60 35 61 24 62 25 63 29 64 26 65
REMARK SMILES IDX 28 66 27 67 46 68 47 69 51 70 48 71 50 72 49 73 36 74 37 75
REMARK SMILES IDX 41 76 38 77 40 78 39 79
REMARK H PARENT 56 47 34 58
REMARK Flexibility Score: inf
ROOT
ATOM      1  C   UNL A   1      39.265  21.629  26.101  1.00  0.00     0.202 C 
ENDROOT
BRANCH   1   2
ATOM      2  C   UNL A   1      37.919  21.413  25.399  1.00  0.00     0.261 C 
BRANCH   2   3
ATOM      3  O   UNL A   1      37.522  22.601  24.684  1.00  0.00    -0.463 OA
BRANCH   3   4
ATOM      4  C   UNL A   1      37.021  23.623  25.409  1.00  0.00     0.310 C 
ATOM      5  O   UNL A   1      37.675  24.270  26.219  1.00  0.00    -0.252 OA
BRANCH   4   6
ATOM      6  C   UNL A   1      35.569  23.966  25.086  1.00  0.00     0.118 C 
ATOM      7  C   UNL A   1      34.626  22.655  27.178  1.00  0.00     0.027 C 
ATOM      8  C   UNL A   1      34.391  23.621  26.022  1.00  0.00     0.084 C 
ATOM      9  N   UNL A   1      33.311  23.015  25.165  1.00  0.00    -0.198 NA
ATOM     10  C   UNL A   1      35.190  23.385  23.718  1.00  0.00     0.034 C 
ATOM     11  C   UNL A   1      33.975  22.504  23.937  1.00  0.00     0.103 C 
BRANCH   9  12
ATOM     12  S   UNL A   1      31.917  23.929  24.833  1.00  0.00     0.218 S 
ATOM     13  O   UNL A   1      31.967  24.216  23.413  1.00  0.00    -0.212 OA
ATOM     14  O   UNL A   1      30.788  23.204  25.381  1.00  0.00    -0.212 OA
BRANCH  12  15
ATOM     15  C   UNL A   1      32.102  25.496  25.708  1.00  0.00     0.189 C 
BRANCH  15  16
ATOM     16  C   UNL A   1      32.401  26.670  24.811  1.00  0.00    -0.030 A 
ATOM     17  C   UNL A   1      33.680  27.244  24.758  1.00  0.00     0.005 A 
ATOM     18  C   UNL A   1      31.374  27.278  24.072  1.00  0.00     0.024 A 
ATOM     19  C   UNL A   1      33.931  28.365  23.960  1.00  0.00     0.002 A 
ATOM     20  C   UNL A   1      31.631  28.372  23.236  1.00  0.00     0.052 A 
ATOM     21  C   UNL A   1      32.913  28.921  23.188  1.00  0.00     0.019 A 
BRANCH  20  22
ATOM     22  C   UNL A   1      30.585  28.906  22.417  1.00  0.00     0.099 C 
ATOM     23  N   UNL A   1      29.748  29.320  21.726  1.00  0.00    -0.192 NA
ENDBRANCH  20  22
ENDBRANCH  15  16
ENDBRANCH  12  15
ENDBRANCH   9  12
ENDBRANCH   4   6
ENDBRANCH   3   4
ENDBRANCH   2   3
ENDBRANCH   1   2
BRANCH   1  24
ATOM     24  O   UNL A   1      40.218  20.568  26.001  1.00  0.00    -0.374 OA
BRANCH  24  25
ATOM     25  C   UNL A   1      41.403  20.678  26.783  1.00  0.00     0.202 C 
BRANCH  25  26
ATOM     26  C   UNL A   1      42.641  21.286  26.112  1.00  0.00     0.261 C 
BRANCH  26  27
ATOM     27  O   UNL A   1      43.074  22.484  26.768  1.00  0.00    -0.460 OA
BRANCH  27  28
ATOM     28  C   UNL A   1      43.016  23.581  25.979  1.00  0.00     0.338 C 
ATOM     29  O   UNL A   1      43.342  23.664  24.807  1.00  0.00    -0.246 OA
BRANCH  28  30
ATOM     30  C   UNL A   1      42.322  24.673  26.682  1.00  0.00     0.060 A 
ATOM     31  C   UNL A   1      42.864  25.954  26.536  1.00  0.00     0.016 A 
ATOM     32  C   UNL A   1      41.233  24.448  27.525  1.00  0.00     0.016 A 
ATOM     33  C   UNL A   1      42.398  26.995  27.326  1.00  0.00     0.010 A 
ATOM     34  C   UNL A   1      40.756  25.501  28.310  1.00  0.00     0.010 A 
ATOM     35  C   UNL A   1      41.383  26.757  28.263  1.00  0.00    -0.014 A 
BRANCH  35  36
ATOM     36  C   UNL A   1      41.127  27.781  29.302  1.00  0.00     0.031 A 
ATOM     37  C   UNL A   1      42.077  27.900  30.464  1.00  0.00     0.074 A 
ATOM     38  C   UNL A   1      40.118  28.657  29.155  1.00  0.00     0.049 A 
ATOM     39  N   UNL A   1      42.093  28.780  31.434  1.00  0.00    -0.248 NA
ATOM     40  C   UNL A   1      43.154  26.900  30.545  1.00  0.00     0.031 C 
ATOM     41  C   UNL A   1      39.158  28.663  28.051  1.00  0.00     0.029 A 
ATOM     42  N   UNL A   1      39.747  29.724  29.930  1.00  0.00    -0.354 N 
ATOM     43  C   UNL A   1      43.172  28.432  32.240  1.00  0.00     0.074 A 
ATOM     44  C   UNL A   1      43.759  27.240  31.673  1.00  0.00     0.031 C 
ATOM     45  C   UNL A   1      38.320  29.700  28.209  1.00  0.00     0.029 A 
ATOM     46  C   UNL A   1      38.660  30.404  29.443  1.00  0.00     0.049 A 
ATOM     47  H   UNL A   1      40.217  29.979  30.757  1.00  0.00     0.167 HD
ATOM     48  C   UNL A   1      43.639  29.056  33.347  1.00  0.00     0.031 A 
ATOM     49  C   UNL A   1      38.005  31.468  29.945  1.00  0.00     0.031 A 
ATOM     50  C   UNL A   1      43.041  30.234  33.919  1.00  0.00     0.049 A 
ATOM     51  C   UNL A   1      38.501  32.097  31.217  1.00  0.00     0.074 A 
ATOM     52  C   UNL A   1      43.444  30.954  35.030  1.00  0.00     0.029 A 
ATOM     53  N   UNL A   1      41.901  30.855  33.431  1.00  0.00    -0.354 N 
ATOM     54  N   UNL A   1      39.542  31.783  31.949  1.00  0.00    -0.248 NA
ATOM     55  C   UNL A   1      37.734  33.244  31.723  1.00  0.00     0.031 C 
ATOM     56  C   UNL A   1      42.505  31.966  35.257  1.00  0.00     0.029 A 
ATOM     57  C   UNL A   1      41.567  31.931  34.238  1.00  0.00     0.049 A 
ATOM     58  H   UNL A   1      41.402  30.573  32.629  1.00  0.00     0.167 HD
ATOM     59  C   UNL A   1      39.578  32.714  32.982  1.00  0.00     0.074 A 
ATOM     60  C   UNL A   1      38.465  33.616  32.764  1.00  0.00     0.031 C 
ATOM     61  C   UNL A   1      40.451  32.816  34.014  1.00  0.00     0.031 A 
BRANCH  48  62
ATOM     62  C   UNL A   1      44.834  28.451  34.036  1.00  0.00    -0.014 A 
ATOM     63  C   UNL A   1      44.703  27.697  35.214  1.00  0.00     0.009 A 
ATOM     64  C   UNL A   1      46.112  28.613  33.478  1.00  0.00     0.009 A 
ATOM     65  C   UNL A   1      45.830  27.155  35.837  1.00  0.00     0.001 A 
ATOM     66  C   UNL A   1      47.231  28.039  34.082  1.00  0.00     0.001 A 
ATOM     67  C   UNL A   1      47.092  27.320  35.267  1.00  0.00     0.000 A 
ENDBRANCH  48  62
BRANCH  49  68
ATOM     68  C   UNL A   1      36.803  31.999  29.248  1.00  0.00    -0.014 A 
ATOM     69  C   UNL A   1      36.791  33.297  28.716  1.00  0.00     0.009 A 
ATOM     70  C   UNL A   1      35.646  31.210  29.133  1.00  0.00     0.009 A 
ATOM     71  C   UNL A   1      35.637  33.805  28.115  1.00  0.00     0.001 A 
ATOM     72  C   UNL A   1      34.507  31.706  28.499  1.00  0.00     0.001 A 
ATOM     73  C   UNL A   1      34.498  33.009  28.003  1.00  0.00     0.000 A 
ENDBRANCH  49  68
BRANCH  61  74
ATOM     74  C   UNL A   1      40.266  33.975  34.957  1.00  0.00    -0.014 A 
ATOM     75  C   UNL A   1      40.825  35.237  34.697  1.00  0.00     0.009 A 
ATOM     76  C   UNL A   1      39.505  33.801  36.124  1.00  0.00     0.009 A 
ATOM     77  C   UNL A   1      40.675  36.279  35.615  1.00  0.00     0.001 A 
ATOM     78  C   UNL A   1      39.320  34.855  37.018  1.00  0.00     0.001 A 
ATOM     79  C   UNL A   1      39.921  36.089  36.772  1.00  0.00     0.000 A 
ENDBRANCH  61  74
ENDBRANCH  35  36
ENDBRANCH  28  30
ENDBRANCH  27  28
ENDBRANCH  26  27
ENDBRANCH  25  26
ENDBRANCH  24  25
ENDBRANCH   1  24
TORSDOF 18
ENDMDL
MODEL 3
REMARK VINA RESULT:      -9.8      3.510      5.530
REMARK SMILES C[C@H]1[C@@H](C(=O)OCCOCCOC(=O)c2ccc(-c3c4nc(c(-c5ccccc5)c5ccc([nH]5)c(-c5ccccc5)c5nc(c(-c6ccccc6)c6ccc3[nH]6)C=C5)C=C4)cc2)CCN1S(=O)(=O)Cc1cccc(C#N)c1
REMARK SMILES IDX 8 1 7 2 6 3 4 4 5 5 3 6 1 7 2 8 65 9 63 10 64 11 66 12 67 13
REMARK SMILES IDX 68 14 69 15 70 16 71 17 77 18 72 19 74 20 73 21 75 22 76 23
REMARK SMILES IDX 9 24 10 25 11 26 12 27 13 28 14 29 15 30 16 31 62 32 17 33
REMARK SMILES IDX 61 34 18 35 19 36 20 37 55 38 21 39 60 40 54 41 56 42 22 43
REMARK SMILES IDX 59 44 53 45 52 46 23 48 45 49 30 50 44 51 31 52 34 53 43 54
REMARK SMILES IDX 57 55 32 56 33 57 42 59 58 60 35 61 24 62 25 63 29 64 26 65
REMARK SMILES IDX 28 66 27 67 46 68 47 69 51 70 48 71 50 72 49 73 36 74 37 75
REMARK SMILES IDX 41 76 38 77 40 78 39 79
REMARK H PARENT 56 47 34 58
REMARK Flexibility Score: inf
ROOT
ATOM      1  C   UNL A   1      40.787  21.345  26.106  1.00  0.00     0.202 C 
ENDROOT
BRANCH   1   2
ATOM      2  C   UNL A   1      39.590  21.982  26.823  1.00  0.00     0.261 C 
BRANCH   2   3
ATOM      3  O   UNL A   1      38.479  22.138  25.916  1.00  0.00    -0.463 OA
BRANCH   3   4
ATOM      4  C   UNL A   1      37.834  23.324  25.924  1.00  0.00     0.310 C 
ATOM      5  O   UNL A   1      38.395  24.406  26.058  1.00  0.00    -0.252 OA
BRANCH   4   6
ATOM      6  C   UNL A   1      36.331  23.220  25.676  1.00  0.00     0.118 C 
ATOM      7  C   UNL A   1      36.406  20.599  25.345  1.00  0.00     0.027 C 
ATOM      8  C   UNL A   1      35.590  21.873  25.533  1.00  0.00     0.084 C 
ATOM      9  N   UNL A   1      34.691  21.992  24.331  1.00  0.00    -0.198 NA
ATOM     10  C   UNL A   1      35.953  24.031  24.431  1.00  0.00     0.034 C 
ATOM     11  C   UNL A   1      35.249  23.079  23.484  1.00  0.00     0.103 C 
BRANCH   9  12
ATOM     12  S   UNL A   1      33.014  22.134  24.572  1.00  0.00     0.218 S 
ATOM     13  O   UNL A   1      32.851  23.142  25.601  1.00  0.00    -0.212 OA
ATOM     14  O   UNL A   1      32.408  22.330  23.270  1.00  0.00    -0.212 OA
BRANCH  12  15
ATOM     15  C   UNL A   1      32.452  20.564  25.261  1.00  0.00     0.189 C 
BRANCH  15  16
ATOM     16  C   UNL A   1      32.831  19.359  24.437  1.00  0.00    -0.030 A 
ATOM     17  C   UNL A   1      32.368  19.196  23.124  1.00  0.00     0.005 A 
ATOM     18  C   UNL A   1      33.586  18.321  25.006  1.00  0.00     0.024 A 
ATOM     19  C   UNL A   1      32.685  18.049  22.389  1.00  0.00     0.002 A 
ATOM     20  C   UNL A   1      33.944  17.192  24.258  1.00  0.00     0.052 A 
ATOM     21  C   UNL A   1      33.485  17.053  22.948  1.00  0.00     0.019 A 
BRANCH  20  22
ATOM     22  C   UNL A   1      34.800  16.198  24.833  1.00  0.00     0.099 C 
ATOM     23  N   UNL A   1      35.512  15.417  25.316  1.00  0.00    -0.192 NA
ENDBRANCH  20  22
ENDBRANCH  15  16
ENDBRANCH  12  15
ENDBRANCH   9  12
ENDBRANCH   4   6
ENDBRANCH   3   4
ENDBRANCH   2   3
ENDBRANCH   1   2
BRANCH   1  24
ATOM     24  O   UNL A   1      40.845  19.917  26.100  1.00  0.00    -0.374 OA
BRANCH  24  25
ATOM     25  C   UNL A   1      42.024  19.309  26.618  1.00  0.00     0.202 C 
BRANCH  25  26
ATOM     26  C   UNL A   1      43.010  18.704  25.611  1.00  0.00     0.261 C 
BRANCH  26  27
ATOM     27  O   UNL A   1      44.271  19.385  25.618  1.00  0.00    -0.460 OA
BRANCH  27  28
ATOM     28  C   UNL A   1      44.533  20.047  24.468  1.00  0.00     0.338 C 
ATOM     29  O   UNL A   1      44.272  19.684  23.333  1.00  0.00    -0.246 OA
BRANCH  28  30
ATOM     30  C   UNL A   1      45.038  21.397  24.766  1.00  0.00     0.060 A 
ATOM     31  C   UNL A   1      45.673  21.568  26.001  1.00  0.00     0.016 A 
ATOM     32  C   UNL A   1      44.826  22.482  23.914  1.00  0.00     0.016 A 
ATOM     33  C   UNL A   1      45.989  22.844  26.443  1.00  0.00     0.010 A 
ATOM     34  C   UNL A   1      45.158  23.765  24.355  1.00  0.00     0.010 A 
ATOM     35  C   UNL A   1      45.675  23.955  25.649  1.00  0.00    -0.014 A 
BRANCH  35  36
ATOM     36  C   UNL A   1      45.724  25.301  26.264  1.00  0.00     0.031 A 
ATOM     37  C   UNL A   1      47.020  26.068  26.246  1.00  0.00     0.074 A 
ATOM     38  C   UNL A   1      44.603  25.869  26.740  1.00  0.00     0.049 A 
ATOM     39  N   UNL A   1      47.264  27.292  26.645  1.00  0.00    -0.248 NA
ATOM     40  C   UNL A   1      48.197  25.369  25.705  1.00  0.00     0.031 C 
ATOM     41  C   UNL A   1      43.284  25.238  26.774  1.00  0.00     0.029 A 
ATOM     42  N   UNL A   1      44.394  27.117  27.268  1.00  0.00    -0.354 N 
ATOM     43  C   UNL A   1      48.619  27.500  26.411  1.00  0.00     0.074 A 
ATOM     44  C   UNL A   1      49.153  26.268  25.877  1.00  0.00     0.031 C 
ATOM     45  C   UNL A   1      42.397  26.112  27.276  1.00  0.00     0.029 A 
ATOM     46  C   UNL A   1      43.092  27.345  27.635  1.00  0.00     0.049 A 
ATOM     47  H   UNL A   1      45.110  27.785  27.373  1.00  0.00     0.167 HD
ATOM     48  C   UNL A   1      49.351  28.622  26.612  1.00  0.00     0.031 A 
ATOM     49  C   UNL A   1      42.528  28.426  28.206  1.00  0.00     0.031 A 
ATOM     50  C   UNL A   1      48.819  29.841  27.159  1.00  0.00     0.049 A 
ATOM     51  C   UNL A   1      43.381  29.632  28.487  1.00  0.00     0.074 A 
ATOM     52  C   UNL A   1      49.471  31.041  27.390  1.00  0.00     0.029 A 
ATOM     53  N   UNL A   1      47.508  30.011  27.577  1.00  0.00    -0.354 N 
ATOM     54  N   UNL A   1      44.650  29.832  28.227  1.00  0.00    -0.248 NA
ATOM     55  C   UNL A   1      42.712  30.773  29.127  1.00  0.00     0.031 C 
ATOM     56  C   UNL A   1      48.573  31.911  28.015  1.00  0.00     0.029 A 
ATOM     57  C   UNL A   1      47.339  31.285  28.095  1.00  0.00     0.049 A 
ATOM     58  H   UNL A   1      46.801  29.328  27.516  1.00  0.00     0.167 HD
ATOM     59  C   UNL A   1      44.925  31.131  28.640  1.00  0.00     0.074 A 
ATOM     60  C   UNL A   1      43.681  31.677  29.144  1.00  0.00     0.031 C 
ATOM     61  C   UNL A   1      46.096  31.813  28.602  1.00  0.00     0.031 A 
BRANCH  48  62
ATOM     62  C   UNL A   1      50.818  28.566  26.273  1.00  0.00    -0.014 A 
ATOM     63  C   UNL A   1      51.782  28.202  27.228  1.00  0.00     0.009 A 
ATOM     64  C   UNL A   1      51.239  28.853  24.965  1.00  0.00     0.009 A 
ATOM     65  C   UNL A   1      53.137  28.167  26.889  1.00  0.00     0.001 A 
ATOM     66  C   UNL A   1      52.590  28.781  24.620  1.00  0.00     0.001 A 
ATOM     67  C   UNL A   1      53.539  28.450  25.585  1.00  0.00     0.000 A 
ENDBRANCH  48  62
BRANCH  49  68
ATOM     68  C   UNL A   1      41.084  28.412  28.561  1.00  0.00    -0.014 A 
ATOM     69  C   UNL A   1      40.108  28.801  27.631  1.00  0.00     0.009 A 
ATOM     70  C   UNL A   1      40.676  28.029  29.849  1.00  0.00     0.009 A 
ATOM     71  C   UNL A   1      38.759  28.840  27.994  1.00  0.00     0.001 A 
ATOM     72  C   UNL A   1      39.325  28.033  30.198  1.00  0.00     0.001 A 
ATOM     73  C   UNL A   1      38.369  28.451  29.274  1.00  0.00     0.000 A 
ENDBRANCH  49  68
BRANCH  61  74
ATOM     74  C   UNL A   1      46.073  33.242  29.074  1.00  0.00    -0.014 A 
ATOM     75  C   UNL A   1      46.340  33.586  30.409  1.00  0.00     0.009 A 
ATOM     76  C   UNL A   1      45.789  34.267  28.157  1.00  0.00     0.009 A 
ATOM     77  C   UNL A   1      46.263  34.917  30.826  1.00  0.00     0.001 A 
ATOM     78  C   UNL A   1      45.756  35.600  28.566  1.00  0.00     0.001 A 
ATOM     79  C   UNL A   1      45.975  35.922  29.904  1.00  0.00     0.000 A 
ENDBRANCH  61  74
ENDBRANCH  35  36
ENDBRANCH  28  30
ENDBRANCH  27  28
ENDBRANCH  26  27
ENDBRANCH  25  26
ENDBRANCH  24  25
ENDBRANCH   1  24
TORSDOF 18
ENDMDL
