MODEL 1
REMARK VINA RESULT:     -12.5      0.000      0.000
REMARK SMILES Cc1ccccc1/C=C1\SC(=O)N(CC(=O)Nc2ccccc2C(=O)OCCOCCOC(=O)c2ccc(-c3c4nc(c(-c5ccccc5)c5ccc([nH]5)c(-c5ccccc5)c5nc(c(-c6ccccc6)c6ccc3[nH]6)C=C5)C=C4)cc2)C1=O
REMARK SMILES IDX 28 1 27 2 26 3 24 4 25 5 23 6 18 7 19 8 20 9 22 10 21 11
REMARK SMILES IDX 17 12 15 13 16 14 14 16 13 17 8 18 9 19 10 20 83 21 11 22
REMARK SMILES IDX 84 23 12 24 7 25 1 26 2 27 3 28 4 29 6 30 5 31 29 32 30 33
REMARK SMILES IDX 31 34 32 35 33 36 34 37 35 38 36 39 82 40 37 41 81 42 38 43
REMARK SMILES IDX 39 44 40 45 75 46 41 47 80 48 74 49 76 50 42 51 79 52 73 53
REMARK SMILES IDX 72 54 43 56 65 57 50 58 64 59 51 60 54 61 63 62 77 63 52 64
REMARK SMILES IDX 53 65 62 67 78 68 55 69 44 70 45 71 49 72 46 73 48 74 47 75
REMARK SMILES IDX 66 76 67 77 71 78 68 79 70 80 69 81 56 82 57 83 61 84 58 85
REMARK SMILES IDX 60 86 59 87
REMARK H PARENT 17 15 76 55 54 66
REMARK Flexibility Score: inf
ROOT
ATOM      1  C   UNL A   1      35.616  22.145  25.965  1.00  0.00     0.202 C 
ENDROOT
BRANCH   1   2
ATOM      2  C   UNL A   1      34.394  22.911  26.646  1.00  0.00     0.261 C 
BRANCH   2   3
ATOM      3  O   UNL A   1      33.260  24.486  25.993  1.00  0.00    -0.460 OA
BRANCH   3   4
ATOM      4  C   UNL A   1      32.248  25.557  26.254  1.00  0.00     0.340 C 
ATOM      5  O   UNL A   1      31.243  25.385  26.925  1.00  0.00    -0.246 OA
BRANCH   4   6
ATOM      6  C   UNL A   1      32.513  26.960  25.945  1.00  0.00     0.083 A 
ATOM      7  C   UNL A   1      31.543  27.723  25.247  1.00  0.00     0.055 A 
ATOM      8  C   UNL A   1      31.848  29.018  24.845  1.00  0.00     0.027 A 
ATOM      9  C   UNL A   1      33.080  29.561  25.196  1.00  0.00     0.002 A 
ATOM     10  C   UNL A   1      33.783  27.459  26.181  1.00  0.00     0.018 A 
ATOM     11  C   UNL A   1      34.046  28.782  25.844  1.00  0.00     0.001 A 
BRANCH   7  12
ATOM     12  N   UNL A   1      30.237  27.282  24.986  1.00  0.00    -0.324 N 
ATOM     13  C   UNL A   1      29.792  26.762  23.798  1.00  0.00     0.244 C 
ATOM     14  O   UNL A   1      28.633  26.345  23.720  1.00  0.00    -0.273 OA
ATOM     15  H   UNL A   1      29.584  27.351  25.719  1.00  0.00     0.170 HD
BRANCH  13  16
ATOM     16  C   UNL A   1      30.824  26.463  22.699  1.00  0.00     0.230 C 
BRANCH  16  17
ATOM     17  N   UNL A   1      31.727  25.325  22.862  1.00  0.00    -0.259 N 
ATOM     18  C   UNL A   1      32.428  20.968  23.501  1.00  0.00     0.029 C 
ATOM     19  C   UNL A   1      32.487  22.314  23.209  1.00  0.00     0.083 C 
ATOM     20  S   UNL A   1      34.401  23.302  22.561  1.00  0.00    -0.022 SA
ATOM     21  C   UNL A   1      31.016  23.704  23.198  1.00  0.00     0.268 C 
ATOM     22  C   UNL A   1      33.455  25.407  22.526  1.00  0.00     0.294 C 
ATOM     23  O   UNL A   1      29.800  23.627  23.062  1.00  0.00    -0.268 OA
ATOM     24  O   UNL A   1      34.158  26.378  22.300  1.00  0.00    -0.261 OA
BRANCH  18  25
ATOM     25  C   UNL A   1      32.897  19.539  23.651  1.00  0.00    -0.021 A 
ATOM     26  C   UNL A   1      32.092  18.759  21.397  1.00  0.00     0.045 C 
ATOM     27  C   UNL A   1      32.660  18.504  22.754  1.00  0.00    -0.044 A 
ATOM     28  C   UNL A   1      33.040  17.177  23.092  1.00  0.00     0.004 A 
ATOM     29  C   UNL A   1      33.770  16.884  24.248  1.00  0.00     0.000 A 
ATOM     30  C   UNL A   1      33.847  19.239  24.688  1.00  0.00     0.008 A 
ATOM     31  C   UNL A   1      34.252  17.931  25.009  1.00  0.00     0.001 A 
ENDBRANCH  18  25
ENDBRANCH  16  17
ENDBRANCH  13  16
ENDBRANCH   7  12
ENDBRANCH   4   6
ENDBRANCH   3   4
ENDBRANCH   2   3
ENDBRANCH   1   2
BRANCH   1  32
ATOM     32  O   UNL A   1      36.516  23.129  25.468  1.00  0.00    -0.374 OA
BRANCH  32  33
ATOM     33  C   UNL A   1      37.870  22.957  25.829  1.00  0.00     0.202 C 
BRANCH  33  34
ATOM     34  C   UNL A   1      38.321  21.546  25.477  1.00  0.00     0.261 C 
BRANCH  34  35
ATOM     35  O   UNL A   1      39.198  21.054  26.541  1.00  0.00    -0.460 OA
BRANCH  35  36
ATOM     36  C   UNL A   1      40.460  20.594  26.278  1.00  0.00     0.338 C 
ATOM     37  O   UNL A   1      40.706  19.517  25.756  1.00  0.00    -0.246 OA
BRANCH  36  38
ATOM     38  C   UNL A   1      41.544  21.554  26.725  1.00  0.00     0.060 A 
ATOM     39  C   UNL A   1      42.212  21.445  27.949  1.00  0.00     0.016 A 
ATOM     40  C   UNL A   1      41.803  22.705  26.017  1.00  0.00     0.016 A 
ATOM     41  C   UNL A   1      42.897  22.564  28.539  1.00  0.00     0.010 A 
ATOM     42  C   UNL A   1      42.307  23.837  26.690  1.00  0.00     0.010 A 
ATOM     43  C   UNL A   1      42.702  23.868  28.055  1.00  0.00    -0.014 A 
BRANCH  43  44
ATOM     44  C   UNL A   1      42.802  25.319  28.894  1.00  0.00     0.031 A 
ATOM     45  C   UNL A   1      41.646  26.131  28.471  1.00  0.00     0.074 A 
ATOM     46  C   UNL A   1      43.662  26.019  29.810  1.00  0.00     0.049 A 
ATOM     47  N   UNL A   1      41.766  27.240  27.805  1.00  0.00    -0.248 NA
ATOM     48  C   UNL A   1      40.270  25.603  28.496  1.00  0.00     0.031 C 
ATOM     49  C   UNL A   1      43.327  27.169  30.686  1.00  0.00     0.029 A 
ATOM     50  N   UNL A   1      44.993  25.809  30.345  1.00  0.00    -0.354 N 
ATOM     51  C   UNL A   1      40.466  27.678  27.726  1.00  0.00     0.074 A 
ATOM     52  C   UNL A   1      39.686  26.475  27.681  1.00  0.00     0.031 C 
ATOM     53  C   UNL A   1      44.394  27.602  31.418  1.00  0.00     0.029 A 
ATOM     54  C   UNL A   1      45.590  26.829  31.087  1.00  0.00     0.049 A 
ATOM     55  H   UNL A   1      45.468  24.962  30.189  1.00  0.00     0.167 HD
ATOM     56  C   UNL A   1      40.093  28.830  28.362  1.00  0.00     0.031 A 
ATOM     57  C   UNL A   1      46.915  27.224  31.063  1.00  0.00     0.031 A 
ATOM     58  C   UNL A   1      41.223  29.492  29.032  1.00  0.00     0.049 A 
ATOM     59  C   UNL A   1      46.850  28.511  30.251  1.00  0.00     0.074 A 
ATOM     60  C   UNL A   1      41.471  29.814  30.358  1.00  0.00     0.029 A 
ATOM     61  N   UNL A   1      42.438  29.663  28.371  1.00  0.00    -0.354 N 
ATOM     62  N   UNL A   1      45.734  28.848  29.668  1.00  0.00    -0.248 NA
ATOM     63  C   UNL A   1      47.890  29.507  30.003  1.00  0.00     0.031 C 
ATOM     64  C   UNL A   1      42.811  30.268  30.466  1.00  0.00     0.029 A 
ATOM     65  C   UNL A   1      43.397  30.185  29.215  1.00  0.00     0.049 A 
ATOM     66  H   UNL A   1      42.592  29.438  27.426  1.00  0.00     0.167 HD
ATOM     67  C   UNL A   1      45.804  30.086  29.149  1.00  0.00     0.074 A 
ATOM     68  C   UNL A   1      47.204  30.436  29.297  1.00  0.00     0.031 C 
ATOM     69  C   UNL A   1      44.669  30.673  28.684  1.00  0.00     0.031 A 
BRANCH  56  70
ATOM     70  C   UNL A   1      38.638  29.158  28.687  1.00  0.00    -0.014 A 
ATOM     71  C   UNL A   1      37.841  29.767  27.705  1.00  0.00     0.009 A 
ATOM     72  C   UNL A   1      37.981  28.890  29.905  1.00  0.00     0.009 A 
ATOM     73  C   UNL A   1      36.509  30.133  27.937  1.00  0.00     0.001 A 
ATOM     74  C   UNL A   1      36.656  29.274  30.158  1.00  0.00     0.001 A 
ATOM     75  C   UNL A   1      35.918  29.894  29.168  1.00  0.00     0.000 A 
ENDBRANCH  56  70
BRANCH  57  76
ATOM     76  C   UNL A   1      48.103  26.250  31.041  1.00  0.00    -0.014 A 
ATOM     77  C   UNL A   1      48.846  25.911  29.888  1.00  0.00     0.009 A 
ATOM     78  C   UNL A   1      48.649  25.738  32.210  1.00  0.00     0.009 A 
ATOM     79  C   UNL A   1      50.137  25.303  29.961  1.00  0.00     0.001 A 
ATOM     80  C   UNL A   1      49.968  25.239  32.314  1.00  0.00     0.001 A 
ATOM     81  C   UNL A   1      50.737  25.055  31.188  1.00  0.00     0.000 A 
ENDBRANCH  57  76
BRANCH  69  82
ATOM     82  C   UNL A   1      44.615  31.865  27.795  1.00  0.00    -0.014 A 
ATOM     83  C   UNL A   1      44.976  31.838  26.450  1.00  0.00     0.009 A 
ATOM     84  C   UNL A   1      44.037  33.054  28.295  1.00  0.00     0.009 A 
ATOM     85  C   UNL A   1      44.845  32.983  25.662  1.00  0.00     0.001 A 
ATOM     86  C   UNL A   1      43.842  34.172  27.498  1.00  0.00     0.001 A 
ATOM     87  C   UNL A   1      44.276  34.143  26.184  1.00  0.00     0.000 A 
ENDBRANCH  69  82
ENDBRANCH  43  44
ENDBRANCH  36  38
ENDBRANCH  35  36
ENDBRANCH  34  35
ENDBRANCH  33  34
ENDBRANCH  32  33
ENDBRANCH   1  32
TORSDOF 18
ENDMDL
MODEL 2
REMARK VINA RESULT:     -12.2      2.453      5.385
REMARK SMILES Cc1ccccc1/C=C1\SC(=O)N(CC(=O)Nc2ccccc2C(=O)OCCOCCOC(=O)c2ccc(-c3c4nc(c(-c5ccccc5)c5ccc([nH]5)c(-c5ccccc5)c5nc(c(-c6ccccc6)c6ccc3[nH]6)C=C5)C=C4)cc2)C1=O
REMARK SMILES IDX 28 1 27 2 26 3 24 4 25 5 23 6 18 7 19 8 20 9 22 10 21 11
REMARK SMILES IDX 17 12 15 13 16 14 14 16 13 17 8 18 9 19 10 20 83 21 11 22
REMARK SMILES IDX 84 23 12 24 7 25 1 26 2 27 3 28 4 29 6 30 5 31 29 32 30 33
REMARK SMILES IDX 31 34 32 35 33 36 34 37 35 38 36 39 82 40 37 41 81 42 38 43
REMARK SMILES IDX 39 44 40 45 75 46 41 47 80 48 74 49 76 50 42 51 79 52 73 53
REMARK SMILES IDX 72 54 43 56 65 57 50 58 64 59 51 60 54 61 63 62 77 63 52 64
REMARK SMILES IDX 53 65 62 67 78 68 55 69 44 70 45 71 49 72 46 73 48 74 47 75
REMARK SMILES IDX 66 76 67 77 71 78 68 79 70 80 69 81 56 82 57 83 61 84 58 85
REMARK SMILES IDX 60 86 59 87
REMARK H PARENT 17 15 76 55 54 66
REMARK Flexibility Score: inf
ROOT
ATOM      1  C   UNL A   1      38.620  22.060  26.136  1.00  0.00     0.202 C 
ENDROOT
BRANCH   1   2
ATOM      2  C   UNL A   1      37.692  21.500  24.966  1.00  0.00     0.261 C 
BRANCH   2   3
ATOM      3  O   UNL A   1      36.018  20.323  25.022  1.00  0.00    -0.460 OA
BRANCH   3   4
ATOM      4  C   UNL A   1      34.528  20.179  25.052  1.00  0.00     0.340 C 
ATOM      5  O   UNL A   1      33.936  19.204  24.618  1.00  0.00    -0.246 OA
BRANCH   4   6
ATOM      6  C   UNL A   1      33.683  21.075  25.839  1.00  0.00     0.083 A 
ATOM      7  C   UNL A   1      32.608  21.757  25.215  1.00  0.00     0.055 A 
ATOM      8  C   UNL A   1      31.885  22.703  25.933  1.00  0.00     0.027 A 
ATOM      9  C   UNL A   1      32.194  22.911  27.274  1.00  0.00     0.002 A 
ATOM     10  C   UNL A   1      34.067  21.377  27.135  1.00  0.00     0.018 A 
ATOM     11  C   UNL A   1      33.287  22.265  27.865  1.00  0.00     0.001 A 
BRANCH   7  12
ATOM     12  N   UNL A   1      32.162  21.493  23.911  1.00  0.00    -0.324 N 
ATOM     13  C   UNL A   1      32.596  22.124  22.774  1.00  0.00     0.244 C 
ATOM     14  O   UNL A   1      32.172  21.747  21.677  1.00  0.00    -0.273 OA
ATOM     15  H   UNL A   1      31.478  20.793  23.803  1.00  0.00     0.170 HD
BRANCH  13  16
ATOM     16  C   UNL A   1      33.793  23.081  22.882  1.00  0.00     0.230 C 
BRANCH  16  17
ATOM     17  N   UNL A   1      33.560  24.473  23.263  1.00  0.00    -0.259 N 
ATOM     18  C   UNL A   1      34.174  27.907  26.040  1.00  0.00     0.029 C 
ATOM     19  C   UNL A   1      33.905  27.052  24.993  1.00  0.00     0.083 C 
ATOM     20  S   UNL A   1      33.005  27.788  23.067  1.00  0.00    -0.022 SA
ATOM     21  C   UNL A   1      34.249  25.066  24.818  1.00  0.00     0.268 C 
ATOM     22  C   UNL A   1      32.835  25.662  22.183  1.00  0.00     0.294 C 
ATOM     23  O   UNL A   1      35.050  24.310  25.358  1.00  0.00    -0.268 OA
ATOM     24  O   UNL A   1      32.288  25.502  21.106  1.00  0.00    -0.261 OA
BRANCH  18  25
ATOM     25  C   UNL A   1      34.290  29.208  26.800  1.00  0.00    -0.021 A 
ATOM     26  C   UNL A   1      31.858  29.833  26.628  1.00  0.00     0.045 C 
ATOM     27  C   UNL A   1      33.275  30.140  26.984  1.00  0.00    -0.044 A 
ATOM     28  C   UNL A   1      33.565  31.387  27.600  1.00  0.00     0.004 A 
ATOM     29  C   UNL A   1      34.817  31.669  28.155  1.00  0.00     0.000 A 
ATOM     30  C   UNL A   1      35.472  29.434  27.589  1.00  0.00     0.008 A 
ATOM     31  C   UNL A   1      35.752  30.654  28.227  1.00  0.00     0.001 A 
ENDBRANCH  18  25
ENDBRANCH  16  17
ENDBRANCH  13  16
ENDBRANCH   7  12
ENDBRANCH   4   6
ENDBRANCH   3   4
ENDBRANCH   2   3
ENDBRANCH   1   2
BRANCH   1  32
ATOM     32  O   UNL A   1      39.965  21.725  25.812  1.00  0.00    -0.374 OA
BRANCH  32  33
ATOM     33  C   UNL A   1      40.933  22.085  26.776  1.00  0.00     0.202 C 
BRANCH  33  34
ATOM     34  C   UNL A   1      42.063  21.065  26.776  1.00  0.00     0.261 C 
BRANCH  34  35
ATOM     35  O   UNL A   1      42.578  20.935  25.412  1.00  0.00    -0.460 OA
BRANCH  35  36
ATOM     36  C   UNL A   1      43.922  20.903  25.151  1.00  0.00     0.338 C 
ATOM     37  O   UNL A   1      44.560  19.881  24.945  1.00  0.00    -0.246 OA
BRANCH  36  38
ATOM     38  C   UNL A   1      44.560  22.278  25.163  1.00  0.00     0.060 A 
ATOM     39  C   UNL A   1      45.801  22.545  25.752  1.00  0.00     0.016 A 
ATOM     40  C   UNL A   1      43.856  23.386  24.750  1.00  0.00     0.016 A 
ATOM     41  C   UNL A   1      46.183  23.877  26.137  1.00  0.00     0.010 A 
ATOM     42  C   UNL A   1      44.159  24.647  25.303  1.00  0.00     0.010 A 
ATOM     43  C   UNL A   1      45.238  24.915  26.189  1.00  0.00    -0.014 A 
BRANCH  43  44
ATOM     44  C   UNL A   1      45.231  26.273  27.175  1.00  0.00     0.031 A 
ATOM     45  C   UNL A   1      43.822  26.680  27.322  1.00  0.00     0.074 A 
ATOM     46  C   UNL A   1      46.137  27.170  27.842  1.00  0.00     0.049 A 
ATOM     47  N   UNL A   1      43.356  27.800  26.855  1.00  0.00    -0.248 NA
ATOM     48  C   UNL A   1      42.773  25.729  27.731  1.00  0.00     0.031 C 
ATOM     49  C   UNL A   1      45.848  28.099  28.962  1.00  0.00     0.029 A 
ATOM     50  N   UNL A   1      47.571  27.382  27.841  1.00  0.00    -0.354 N 
ATOM     51  C   UNL A   1      42.059  27.790  27.305  1.00  0.00     0.074 A 
ATOM     52  C   UNL A   1      41.699  26.401  27.328  1.00  0.00     0.031 C 
ATOM     53  C   UNL A   1      46.941  28.821  29.343  1.00  0.00     0.029 A 
ATOM     54  C   UNL A   1      48.088  28.503  28.493  1.00  0.00     0.049 A 
ATOM     55  H   UNL A   1      48.171  26.747  27.389  1.00  0.00     0.167 HD
ATOM     56  C   UNL A   1      41.644  28.721  28.217  1.00  0.00     0.031 A 
ATOM     57  C   UNL A   1      49.131  29.312  28.080  1.00  0.00     0.031 A 
ATOM     58  C   UNL A   1      42.704  29.683  28.557  1.00  0.00     0.049 A 
ATOM     59  C   UNL A   1      48.395  30.545  27.572  1.00  0.00     0.074 A 
ATOM     60  C   UNL A   1      43.335  30.000  29.751  1.00  0.00     0.029 A 
ATOM     61  N   UNL A   1      43.470  30.276  27.558  1.00  0.00    -0.354 N 
ATOM     62  N   UNL A   1      47.095  30.526  27.477  1.00  0.00    -0.248 NA
ATOM     63  C   UNL A   1      48.930  31.839  27.154  1.00  0.00     0.031 C 
ATOM     64  C   UNL A   1      44.425  30.864  29.465  1.00  0.00     0.029 A 
ATOM     65  C   UNL A   1      44.486  31.042  28.093  1.00  0.00     0.049 A 
ATOM     66  H   UNL A   1      43.310  30.164  26.593  1.00  0.00     0.167 HD
ATOM     67  C   UNL A   1      46.606  31.742  27.185  1.00  0.00     0.074 A 
ATOM     68  C   UNL A   1      47.793  32.526  26.897  1.00  0.00     0.031 C 
ATOM     69  C   UNL A   1      45.263  31.947  27.247  1.00  0.00     0.031 A 
BRANCH  56  70
ATOM     70  C   UNL A   1      40.395  28.535  29.075  1.00  0.00    -0.014 A 
ATOM     71  C   UNL A   1      39.627  29.660  29.413  1.00  0.00     0.009 A 
ATOM     72  C   UNL A   1      39.904  27.309  29.568  1.00  0.00     0.009 A 
ATOM     73  C   UNL A   1      38.490  29.579  30.227  1.00  0.00     0.001 A 
ATOM     74  C   UNL A   1      38.781  27.217  30.404  1.00  0.00     0.001 A 
ATOM     75  C   UNL A   1      38.071  28.357  30.730  1.00  0.00     0.000 A 
ENDBRANCH  56  70
BRANCH  57  76
ATOM     76  C   UNL A   1      50.444  28.784  27.484  1.00  0.00    -0.014 A 
ATOM     77  C   UNL A   1      50.813  28.892  26.124  1.00  0.00     0.009 A 
ATOM     78  C   UNL A   1      51.464  28.291  28.287  1.00  0.00     0.009 A 
ATOM     79  C   UNL A   1      52.161  28.724  25.681  1.00  0.00     0.001 A 
ATOM     80  C   UNL A   1      52.820  28.229  27.893  1.00  0.00     0.001 A 
ATOM     81  C   UNL A   1      53.183  28.485  26.590  1.00  0.00     0.000 A 
ENDBRANCH  57  76
BRANCH  69  82
ATOM     82  C   UNL A   1      44.535  33.099  26.648  1.00  0.00    -0.014 A 
ATOM     83  C   UNL A   1      44.135  33.146  25.315  1.00  0.00     0.009 A 
ATOM     84  C   UNL A   1      44.100  34.139  27.500  1.00  0.00     0.009 A 
ATOM     85  C   UNL A   1      43.406  34.235  24.836  1.00  0.00     0.001 A 
ATOM     86  C   UNL A   1      43.316  35.188  27.045  1.00  0.00     0.001 A 
ATOM     87  C   UNL A   1      42.994  35.249  25.700  1.00  0.00     0.000 A 
ENDBRANCH  69  82
ENDBRANCH  43  44
ENDBRANCH  36  38
ENDBRANCH  35  36
ENDBRANCH  34  35
ENDBRANCH  33  34
ENDBRANCH  32  33
ENDBRANCH   1  32
TORSDOF 18
ENDMDL
MODEL 3
REMARK VINA RESULT:     -12.1      3.722      8.725
REMARK SMILES Cc1ccccc1/C=C1\SC(=O)N(CC(=O)Nc2ccccc2C(=O)OCCOCCOC(=O)c2ccc(-c3c4nc(c(-c5ccccc5)c5ccc([nH]5)c(-c5ccccc5)c5nc(c(-c6ccccc6)c6ccc3[nH]6)C=C5)C=C4)cc2)C1=O
REMARK SMILES IDX 28 1 27 2 26 3 24 4 25 5 23 6 18 7 19 8 20 9 22 10 21 11
REMARK SMILES IDX 17 12 15 13 16 14 14 16 13 17 8 18 9 19 10 20 83 21 11 22
REMARK SMILES IDX 84 23 12 24 7 25 1 26 2 27 3 28 4 29 6 30 5 31 29 32 30 33
REMARK SMILES IDX 31 34 32 35 33 36 34 37 35 38 36 39 82 40 37 41 81 42 38 43
REMARK SMILES IDX 39 44 40 45 75 46 41 47 80 48 74 49 76 50 42 51 79 52 73 53
REMARK SMILES IDX 72 54 43 56 65 57 50 58 64 59 51 60 54 61 63 62 77 63 52 64
REMARK SMILES IDX 53 65 62 67 78 68 55 69 44 70 45 71 49 72 46 73 48 74 47 75
REMARK SMILES IDX 66 76 67 77 71 78 68 79 70 80 69 81 56 82 57 83 61 84 58 85
REMARK SMILES IDX 60 86 59 87
REMARK H PARENT 17 15 76 55 54 66
REMARK Flexibility Score: inf
ROOT
ATOM      1  C   UNL A   1      33.670  27.629  26.133  1.00  0.00     0.202 C 
ENDROOT
BRANCH   1   2
ATOM      2  C   UNL A   1      32.643  26.419  26.289  1.00  0.00     0.261 C 
BRANCH   2   3
ATOM      3  O   UNL A   1      32.952  24.432  26.678  1.00  0.00    -0.460 OA
BRANCH   3   4
ATOM      4  C   UNL A   1      33.760  23.184  26.510  1.00  0.00     0.340 C 
ATOM      5  O   UNL A   1      33.362  22.075  26.831  1.00  0.00    -0.246 OA
BRANCH   4   6
ATOM      6  C   UNL A   1      34.982  23.158  25.710  1.00  0.00     0.083 A 
ATOM      7  C   UNL A   1      35.115  22.219  24.657  1.00  0.00     0.055 A 
ATOM      8  C   UNL A   1      36.324  22.112  23.980  1.00  0.00     0.027 A 
ATOM      9  C   UNL A   1      37.361  22.979  24.311  1.00  0.00     0.002 A 
ATOM     10  C   UNL A   1      36.056  23.931  26.121  1.00  0.00     0.018 A 
ATOM     11  C   UNL A   1      37.233  23.870  25.384  1.00  0.00     0.001 A 
BRANCH   7  12
ATOM     12  N   UNL A   1      34.065  21.414  24.186  1.00  0.00    -0.324 N 
ATOM     13  C   UNL A   1      33.067  21.819  23.339  1.00  0.00     0.244 C 
ATOM     14  O   UNL A   1      32.241  20.991  22.944  1.00  0.00    -0.273 OA
ATOM     15  H   UNL A   1      34.046  20.478  24.490  1.00  0.00     0.170 HD
BRANCH  13  16
ATOM     16  C   UNL A   1      33.173  23.210  22.695  1.00  0.00     0.230 C 
BRANCH  16  17
ATOM     17  N   UNL A   1      32.257  24.265  23.125  1.00  0.00    -0.259 N 
ATOM     18  C   UNL A   1      30.656  28.412  22.784  1.00  0.00     0.029 C 
ATOM     19  C   UNL A   1      30.901  27.079  23.029  1.00  0.00     0.083 C 
ATOM     20  S   UNL A   1      29.516  25.834  24.291  1.00  0.00    -0.022 SA
ATOM     21  C   UNL A   1      32.393  25.888  22.357  1.00  0.00     0.268 C 
ATOM     22  C   UNL A   1      30.882  23.975  24.188  1.00  0.00     0.294 C 
ATOM     23  O   UNL A   1      33.118  25.941  21.369  1.00  0.00    -0.268 OA
ATOM     24  O   UNL A   1      30.593  22.982  24.833  1.00  0.00    -0.261 OA
BRANCH  18  25
ATOM     25  C   UNL A   1      29.928  29.737  22.807  1.00  0.00    -0.021 A 
ATOM     26  C   UNL A   1      30.860  30.513  25.012  1.00  0.00     0.045 C 
ATOM     27  C   UNL A   1      29.928  30.651  23.855  1.00  0.00    -0.044 A 
ATOM     28  C   UNL A   1      29.083  31.791  23.795  1.00  0.00     0.004 A 
ATOM     29  C   UNL A   1      28.339  32.107  22.654  1.00  0.00     0.000 A 
ATOM     30  C   UNL A   1      29.351  30.219  21.581  1.00  0.00     0.008 A 
ATOM     31  C   UNL A   1      28.539  31.363  21.508  1.00  0.00     0.001 A 
ENDBRANCH  18  25
ENDBRANCH  16  17
ENDBRANCH  13  16
ENDBRANCH   7  12
ENDBRANCH   4   6
ENDBRANCH   3   4
ENDBRANCH   2   3
ENDBRANCH   1   2
BRANCH   1  32
ATOM     32  O   UNL A   1      33.491  28.490  27.252  1.00  0.00    -0.374 OA
BRANCH  32  33
ATOM     33  C   UNL A   1      34.602  29.296  27.586  1.00  0.00     0.202 C 
BRANCH  33  34
ATOM     34  C   UNL A   1      34.380  30.714  27.078  1.00  0.00     0.261 C 
BRANCH  34  35
ATOM     35  O   UNL A   1      33.609  31.455  28.079  1.00  0.00    -0.460 OA
BRANCH  35  36
ATOM     36  C   UNL A   1      33.894  32.759  28.386  1.00  0.00     0.338 C 
ATOM     37  O   UNL A   1      33.277  33.719  27.949  1.00  0.00    -0.246 OA
BRANCH  36  38
ATOM     38  C   UNL A   1      35.081  32.901  29.316  1.00  0.00     0.060 A 
ATOM     39  C   UNL A   1      36.138  33.789  29.085  1.00  0.00     0.016 A 
ATOM     40  C   UNL A   1      35.272  32.020  30.356  1.00  0.00     0.016 A 
ATOM     41  C   UNL A   1      37.423  33.613  29.707  1.00  0.00     0.010 A 
ATOM     42  C   UNL A   1      36.581  31.750  30.805  1.00  0.00     0.010 A 
ATOM     43  C   UNL A   1      37.755  32.411  30.353  1.00  0.00    -0.014 A 
BRANCH  43  44
ATOM     44  C   UNL A   1      39.269  31.712  30.543  1.00  0.00     0.031 A 
ATOM     45  C   UNL A   1      39.195  30.372  29.931  1.00  0.00     0.074 A 
ATOM     46  C   UNL A   1      40.547  31.971  31.149  1.00  0.00     0.049 A 
ATOM     47  N   UNL A   1      39.304  29.274  30.617  1.00  0.00    -0.248 NA
ATOM     48  C   UNL A   1      38.689  30.167  28.562  1.00  0.00     0.031 C 
ATOM     49  C   UNL A   1      41.850  31.323  30.856  1.00  0.00     0.029 A 
ATOM     50  N   UNL A   1      41.082  32.975  32.048  1.00  0.00    -0.354 N 
ATOM     51  C   UNL A   1      39.272  28.311  29.637  1.00  0.00     0.074 A 
ATOM     52  C   UNL A   1      38.427  28.865  28.619  1.00  0.00     0.031 C 
ATOM     53  C   UNL A   1      42.863  31.800  31.636  1.00  0.00     0.029 A 
ATOM     54  C   UNL A   1      42.357  32.791  32.584  1.00  0.00     0.049 A 
ATOM     55  H   UNL A   1      40.556  33.775  32.276  1.00  0.00     0.167 HD
ATOM     56  C   UNL A   1      40.376  27.538  29.403  1.00  0.00     0.031 A 
ATOM     57  C   UNL A   1      42.780  33.077  33.869  1.00  0.00     0.031 A 
ATOM     58  C   UNL A   1      41.478  27.839  30.329  1.00  0.00     0.049 A 
ATOM     59  C   UNL A   1      42.840  31.692  34.501  1.00  0.00     0.074 A 
ATOM     60  C   UNL A   1      42.773  28.295  30.130  1.00  0.00     0.029 A 
ATOM     61  N   UNL A   1      41.242  27.963  31.696  1.00  0.00    -0.354 N 
ATOM     62  N   UNL A   1      42.375  30.666  33.846  1.00  0.00    -0.248 NA
ATOM     63  C   UNL A   1      43.375  31.285  35.798  1.00  0.00     0.031 C 
ATOM     64  C   UNL A   1      43.339  28.601  31.396  1.00  0.00     0.029 A 
ATOM     65  C   UNL A   1      42.378  28.372  32.365  1.00  0.00     0.049 A 
ATOM     66  H   UNL A   1      40.377  27.784  32.129  1.00  0.00     0.167 HD
ATOM     67  C   UNL A   1      42.668  29.512  34.469  1.00  0.00     0.074 A 
ATOM     68  C   UNL A   1      43.217  29.942  35.741  1.00  0.00     0.031 C 
ATOM     69  C   UNL A   1      42.435  28.336  33.826  1.00  0.00     0.031 A 
BRANCH  56  70
ATOM     70  C   UNL A   1      40.583  26.770  28.100  1.00  0.00    -0.014 A 
ATOM     71  C   UNL A   1      40.180  25.427  28.029  1.00  0.00     0.009 A 
ATOM     72  C   UNL A   1      41.140  27.287  26.913  1.00  0.00     0.009 A 
ATOM     73  C   UNL A   1      40.369  24.643  26.884  1.00  0.00     0.001 A 
ATOM     74  C   UNL A   1      41.357  26.508  25.768  1.00  0.00     0.001 A 
ATOM     75  C   UNL A   1      40.966  25.182  25.754  1.00  0.00     0.000 A 
ENDBRANCH  56  70
BRANCH  57  76
ATOM     76  C   UNL A   1      42.408  34.357  34.633  1.00  0.00    -0.014 A 
ATOM     77  C   UNL A   1      43.026  35.615  34.448  1.00  0.00     0.009 A 
ATOM     78  C   UNL A   1      41.301  34.413  35.469  1.00  0.00     0.009 A 
ATOM     79  C   UNL A   1      42.429  36.833  34.896  1.00  0.00     0.001 A 
ATOM     80  C   UNL A   1      40.637  35.609  35.823  1.00  0.00     0.001 A 
ATOM     81  C   UNL A   1      41.180  36.832  35.501  1.00  0.00     0.000 A 
ENDBRANCH  57  76
BRANCH  69  82
ATOM     82  C   UNL A   1      42.382  26.995  34.469  1.00  0.00    -0.014 A 
ATOM     83  C   UNL A   1      41.373  26.602  35.345  1.00  0.00     0.009 A 
ATOM     84  C   UNL A   1      43.320  26.017  34.069  1.00  0.00     0.009 A 
ATOM     85  C   UNL A   1      41.356  25.307  35.866  1.00  0.00     0.001 A 
ATOM     86  C   UNL A   1      43.268  24.710  34.530  1.00  0.00     0.001 A 
ATOM     87  C   UNL A   1      42.298  24.365  35.456  1.00  0.00     0.000 A 
ENDBRANCH  69  82
ENDBRANCH  43  44
ENDBRANCH  36  38
ENDBRANCH  35  36
ENDBRANCH  34  35
ENDBRANCH  33  34
ENDBRANCH  32  33
ENDBRANCH   1  32
TORSDOF 18
ENDMDL
