MODEL 1
REMARK VINA RESULT:      -9.4      0.000      0.000
REMARK SMILES C[C@@H]1CC[C@@H](C(=O)OCCOCCOC(=O)c2ccc(-c3c4nc(c(-c5ccccc5)c5ccc([nH]5)c(-c5ccccc5)c5nc(c(-c6ccccc6)c6ccc3[nH]6)C=C5)C=C4)cc2)[C@H](SCC[NH+](C)C)C1
REMARK SMILES IDX 10 1 9 2 8 3 6 4 7 5 5 6 1 7 2 8 3 9 72 10 4 11 65 12 66 13
REMARK SMILES IDX 67 14 68 15 69 16 70 17 71 18 11 20 12 21 13 22 14 23 15 24
REMARK SMILES IDX 16 25 17 26 18 27 64 28 19 29 63 30 20 31 21 32 22 33 57 34
REMARK SMILES IDX 23 35 62 36 56 37 58 38 24 39 61 40 55 41 54 42 25 44 47 45
REMARK SMILES IDX 32 46 46 47 33 48 36 49 45 50 59 51 34 52 35 53 44 55 60 56
REMARK SMILES IDX 37 57 26 58 27 59 31 60 28 61 30 62 29 63 48 64 49 65 53 66
REMARK SMILES IDX 50 67 52 68 51 69 38 70 39 71 43 72 40 73 42 74 41 75
REMARK H PARENT 69 19 58 43 36 54
REMARK Flexibility Score: inf
ROOT
ATOM      1  C   UNL A   1      37.218  21.944  24.585  1.00  0.00     0.202 C 
ENDROOT
BRANCH   1   2
ATOM      2  C   UNL A   1      36.675  22.863  23.469  1.00  0.00     0.261 C 
BRANCH   2   3
ATOM      3  O   UNL A   1      35.598  23.709  23.935  1.00  0.00    -0.463 OA
BRANCH   3   4
ATOM      4  C   UNL A   1      34.419  23.642  23.232  1.00  0.00     0.310 C 
ATOM      5  O   UNL A   1      34.083  24.478  22.406  1.00  0.00    -0.252 OA
BRANCH   4   6
ATOM      6  C   UNL A   1      33.607  22.361  23.594  1.00  0.00     0.112 C 
ATOM      7  C   UNL A   1      30.437  23.259  26.290  1.00  0.00     0.007 C 
ATOM      8  C   UNL A   1      31.596  23.717  25.400  1.00  0.00    -0.013 C 
ATOM      9  C   UNL A   1      31.338  23.560  23.891  1.00  0.00     0.004 C 
ATOM     10  C   UNL A   1      32.932  23.193  25.923  1.00  0.00     0.018 C 
ATOM     11  C   UNL A   1      32.211  22.595  23.065  1.00  0.00     0.017 C 
ATOM     12  C   UNL A   1      33.600  22.062  25.121  1.00  0.00     0.061 C 
BRANCH  12  13
ATOM     13  S   UNL A   1      33.353  20.429  26.090  1.00  0.00    -0.152 SA
BRANCH  13  14
ATOM     14  C   UNL A   1      33.596  18.823  25.185  1.00  0.00     0.131 C 
BRANCH  14  15
ATOM     15  C   UNL A   1      32.481  17.701  25.199  1.00  0.00     0.272 C 
BRANCH  15  16
ATOM     16  N   UNL A   1      32.690  16.482  24.381  1.00  0.00    -0.339 N 
ATOM     17  C   UNL A   1      33.827  16.572  23.464  1.00  0.00     0.332 C 
ATOM     18  C   UNL A   1      32.849  15.344  25.233  1.00  0.00     0.332 C 
ATOM     19  H   UNL A   1      31.857  16.384  23.800  1.00  0.00     0.347 HD
ENDBRANCH  15  16
ENDBRANCH  14  15
ENDBRANCH  13  14
ENDBRANCH  12  13
ENDBRANCH   4   6
ENDBRANCH   3   4
ENDBRANCH   2   3
ENDBRANCH   1   2
BRANCH   1  20
ATOM     20  O   UNL A   1      36.810  20.572  24.647  1.00  0.00    -0.374 OA
BRANCH  20  21
ATOM     21  C   UNL A   1      37.811  19.614  24.959  1.00  0.00     0.202 C 
BRANCH  21  22
ATOM     22  C   UNL A   1      39.261  20.087  25.156  1.00  0.00     0.261 C 
BRANCH  22  23
ATOM     23  O   UNL A   1      40.060  19.161  25.899  1.00  0.00    -0.460 OA
BRANCH  23  24
ATOM     24  C   UNL A   1      41.351  19.545  26.022  1.00  0.00     0.338 C 
ATOM     25  O   UNL A   1      42.348  18.966  25.605  1.00  0.00    -0.246 OA
BRANCH  24  26
ATOM     26  C   UNL A   1      41.412  20.908  26.563  1.00  0.00     0.060 A 
ATOM     27  C   UNL A   1      41.834  21.913  25.684  1.00  0.00     0.016 A 
ATOM     28  C   UNL A   1      41.128  21.191  27.900  1.00  0.00     0.016 A 
ATOM     29  C   UNL A   1      42.021  23.206  26.149  1.00  0.00     0.010 A 
ATOM     30  C   UNL A   1      41.338  22.490  28.372  1.00  0.00     0.010 A 
ATOM     31  C   UNL A   1      41.824  23.486  27.506  1.00  0.00    -0.014 A 
BRANCH  31  32
ATOM     32  C   UNL A   1      42.322  24.774  28.031  1.00  0.00     0.031 A 
ATOM     33  C   UNL A   1      41.334  25.883  28.263  1.00  0.00     0.074 A 
ATOM     34  C   UNL A   1      43.613  24.922  28.375  1.00  0.00     0.049 A 
ATOM     35  N   UNL A   1      41.535  27.088  28.728  1.00  0.00    -0.248 NA
ATOM     36  C   UNL A   1      39.929  25.591  27.931  1.00  0.00     0.031 C 
ATOM     37  C   UNL A   1      44.640  23.888  28.259  1.00  0.00     0.029 A 
ATOM     38  N   UNL A   1      44.274  26.001  28.900  1.00  0.00    -0.354 N 
ATOM     39  C   UNL A   1      40.288  27.701  28.732  1.00  0.00     0.074 A 
ATOM     40  C   UNL A   1      39.341  26.747  28.199  1.00  0.00     0.031 C 
ATOM     41  C   UNL A   1      45.809  24.388  28.699  1.00  0.00     0.029 A 
ATOM     42  C   UNL A   1      45.615  25.782  29.088  1.00  0.00     0.049 A 
ATOM     43  H   UNL A   1      43.829  26.850  29.122  1.00  0.00     0.167 HD
ATOM     44  C   UNL A   1      39.963  28.947  29.145  1.00  0.00     0.031 A 
ATOM     45  C   UNL A   1      46.580  26.624  29.505  1.00  0.00     0.031 A 
ATOM     46  C   UNL A   1      40.915  29.893  29.663  1.00  0.00     0.049 A 
ATOM     47  C   UNL A   1      46.206  28.033  29.877  1.00  0.00     0.074 A 
ATOM     48  C   UNL A   1      40.690  31.180  30.118  1.00  0.00     0.029 A 
ATOM     49  N   UNL A   1      42.275  29.654  29.784  1.00  0.00    -0.354 N 
ATOM     50  N   UNL A   1      45.023  28.600  29.890  1.00  0.00    -0.248 NA
ATOM     51  C   UNL A   1      47.301  28.917  30.302  1.00  0.00     0.031 C 
ATOM     52  C   UNL A   1      41.925  31.744  30.451  1.00  0.00     0.029 A 
ATOM     53  C   UNL A   1      42.910  30.783  30.274  1.00  0.00     0.049 A 
ATOM     54  H   UNL A   1      42.724  28.808  29.556  1.00  0.00     0.167 HD
ATOM     55  C   UNL A   1      45.226  29.896  30.349  1.00  0.00     0.074 A 
ATOM     56  C   UNL A   1      46.643  30.024  30.621  1.00  0.00     0.031 C 
ATOM     57  C   UNL A   1      44.322  30.891  30.533  1.00  0.00     0.031 A 
BRANCH  44  58
ATOM     58  C   UNL A   1      38.528  29.376  29.003  1.00  0.00    -0.014 A 
ATOM     59  C   UNL A   1      38.025  29.887  27.796  1.00  0.00     0.009 A 
ATOM     60  C   UNL A   1      37.655  29.234  30.095  1.00  0.00     0.009 A 
ATOM     61  C   UNL A   1      36.687  30.277  27.697  1.00  0.00     0.001 A 
ATOM     62  C   UNL A   1      36.312  29.596  29.982  1.00  0.00     0.001 A 
ATOM     63  C   UNL A   1      35.832  30.126  28.787  1.00  0.00     0.000 A 
ENDBRANCH  44  58
BRANCH  45  64
ATOM     64  C   UNL A   1      47.993  26.167  29.559  1.00  0.00    -0.014 A 
ATOM     65  C   UNL A   1      48.549  25.669  30.747  1.00  0.00     0.009 A 
ATOM     66  C   UNL A   1      48.802  26.237  28.411  1.00  0.00     0.009 A 
ATOM     67  C   UNL A   1      49.889  25.275  30.790  1.00  0.00     0.001 A 
ATOM     68  C   UNL A   1      50.131  25.812  28.449  1.00  0.00     0.001 A 
ATOM     69  C   UNL A   1      50.677  25.341  29.641  1.00  0.00     0.000 A 
ENDBRANCH  45  64
BRANCH  57  70
ATOM     70  C   UNL A   1      44.834  32.192  31.088  1.00  0.00    -0.014 A 
ATOM     71  C   UNL A   1      45.251  33.235  30.247  1.00  0.00     0.009 A 
ATOM     72  C   UNL A   1      44.853  32.389  32.479  1.00  0.00     0.009 A 
ATOM     73  C   UNL A   1      45.713  34.435  30.790  1.00  0.00     0.001 A 
ATOM     74  C   UNL A   1      45.283  33.603  33.017  1.00  0.00     0.001 A 
ATOM     75  C   UNL A   1      45.722  34.621  32.172  1.00  0.00     0.000 A 
ENDBRANCH  57  70
ENDBRANCH  31  32
ENDBRANCH  24  26
ENDBRANCH  23  24
ENDBRANCH  22  23
ENDBRANCH  21  22
ENDBRANCH  20  21
ENDBRANCH   1  20
TORSDOF 18
ENDMDL
MODEL 2
REMARK VINA RESULT:      -9.2      1.710      6.340
REMARK SMILES C[C@@H]1CC[C@@H](C(=O)OCCOCCOC(=O)c2ccc(-c3c4nc(c(-c5ccccc5)c5ccc([nH]5)c(-c5ccccc5)c5nc(c(-c6ccccc6)c6ccc3[nH]6)C=C5)C=C4)cc2)[C@H](SCC[NH+](C)C)C1
REMARK SMILES IDX 10 1 9 2 8 3 6 4 7 5 5 6 1 7 2 8 3 9 72 10 4 11 65 12 66 13
REMARK SMILES IDX 67 14 68 15 69 16 70 17 71 18 11 20 12 21 13 22 14 23 15 24
REMARK SMILES IDX 16 25 17 26 18 27 64 28 19 29 63 30 20 31 21 32 22 33 57 34
REMARK SMILES IDX 23 35 62 36 56 37 58 38 24 39 61 40 55 41 54 42 25 44 47 45
REMARK SMILES IDX 32 46 46 47 33 48 36 49 45 50 59 51 34 52 35 53 44 55 60 56
REMARK SMILES IDX 37 57 26 58 27 59 31 60 28 61 30 62 29 63 48 64 49 65 53 66
REMARK SMILES IDX 50 67 52 68 51 69 38 70 39 71 43 72 40 73 42 74 41 75
REMARK H PARENT 69 19 58 43 36 54
REMARK Flexibility Score: inf
ROOT
ATOM      1  C   UNL A   1      38.272  23.536  26.305  1.00  0.00     0.202 C 
ENDROOT
BRANCH   1   2
ATOM      2  C   UNL A   1      37.275  23.559  25.127  1.00  0.00     0.261 C 
BRANCH   2   3
ATOM      3  O   UNL A   1      35.924  23.839  25.561  1.00  0.00    -0.463 OA
BRANCH   3   4
ATOM      4  C   UNL A   1      35.100  22.753  25.737  1.00  0.00     0.310 C 
ATOM      5  O   UNL A   1      34.809  22.304  26.836  1.00  0.00    -0.252 OA
BRANCH   4   6
ATOM      6  C   UNL A   1      34.570  22.209  24.376  1.00  0.00     0.112 C 
ATOM      7  C   UNL A   1      30.703  23.759  23.499  1.00  0.00     0.007 C 
ATOM      8  C   UNL A   1      31.945  23.710  24.394  1.00  0.00    -0.013 C 
ATOM      9  C   UNL A   1      33.209  24.317  23.759  1.00  0.00     0.004 C 
ATOM     10  C   UNL A   1      32.099  22.337  25.046  1.00  0.00     0.018 C 
ATOM     11  C   UNL A   1      34.427  23.416  23.477  1.00  0.00     0.017 C 
ATOM     12  C   UNL A   1      33.227  21.435  24.515  1.00  0.00     0.061 C 
BRANCH  12  13
ATOM     13  S   UNL A   1      32.430  20.076  23.427  1.00  0.00    -0.152 SA
BRANCH  13  14
ATOM     14  C   UNL A   1      32.483  18.319  24.033  1.00  0.00     0.131 C 
BRANCH  14  15
ATOM     15  C   UNL A   1      32.772  17.987  25.551  1.00  0.00     0.272 C 
BRANCH  15  16
ATOM     16  N   UNL A   1      33.401  16.687  25.887  1.00  0.00    -0.339 N 
ATOM     17  C   UNL A   1      32.475  15.554  25.851  1.00  0.00     0.332 C 
ATOM     18  C   UNL A   1      34.502  16.436  25.010  1.00  0.00     0.332 C 
ATOM     19  H   UNL A   1      33.721  16.768  26.853  1.00  0.00     0.347 HD
ENDBRANCH  15  16
ENDBRANCH  14  15
ENDBRANCH  13  14
ENDBRANCH  12  13
ENDBRANCH   4   6
ENDBRANCH   3   4
ENDBRANCH   2   3
ENDBRANCH   1   2
BRANCH   1  20
ATOM     20  O   UNL A   1      39.164  22.425  26.469  1.00  0.00    -0.374 OA
BRANCH  20  21
ATOM     21  C   UNL A   1      38.972  21.312  25.608  1.00  0.00     0.202 C 
BRANCH  21  22
ATOM     22  C   UNL A   1      39.528  19.941  26.024  1.00  0.00     0.261 C 
BRANCH  22  23
ATOM     23  O   UNL A   1      40.663  19.534  25.254  1.00  0.00    -0.460 OA
BRANCH  23  24
ATOM     24  C   UNL A   1      41.754  19.262  26.006  1.00  0.00     0.338 C 
ATOM     25  O   UNL A   1      42.236  18.163  26.257  1.00  0.00    -0.246 OA
BRANCH  24  26
ATOM     26  C   UNL A   1      42.450  20.510  26.338  1.00  0.00     0.060 A 
ATOM     27  C   UNL A   1      42.367  20.941  27.667  1.00  0.00     0.016 A 
ATOM     28  C   UNL A   1      43.112  21.272  25.373  1.00  0.00     0.016 A 
ATOM     29  C   UNL A   1      42.907  22.164  28.034  1.00  0.00     0.010 A 
ATOM     30  C   UNL A   1      43.636  22.514  25.739  1.00  0.00     0.010 A 
ATOM     31  C   UNL A   1      43.496  22.978  27.060  1.00  0.00    -0.014 A 
BRANCH  31  32
ATOM     32  C   UNL A   1      43.779  24.387  27.407  1.00  0.00     0.031 A 
ATOM     33  C   UNL A   1      45.191  24.886  27.278  1.00  0.00     0.074 A 
ATOM     34  C   UNL A   1      42.783  25.223  27.745  1.00  0.00     0.049 A 
ATOM     35  N   UNL A   1      45.673  26.079  27.510  1.00  0.00    -0.248 NA
ATOM     36  C   UNL A   1      46.194  23.909  26.820  1.00  0.00     0.031 C 
ATOM     37  C   UNL A   1      41.369  24.861  27.830  1.00  0.00     0.029 A 
ATOM     38  N   UNL A   1      42.814  26.554  28.070  1.00  0.00    -0.354 N 
ATOM     39  C   UNL A   1      47.033  25.993  27.239  1.00  0.00     0.074 A 
ATOM     40  C   UNL A   1      47.306  24.627  26.851  1.00  0.00     0.031 C 
ATOM     41  C   UNL A   1      40.664  25.948  28.191  1.00  0.00     0.029 A 
ATOM     42  C   UNL A   1      41.583  27.065  28.397  1.00  0.00     0.049 A 
ATOM     43  H   UNL A   1      43.639  27.091  28.069  1.00  0.00     0.167 HD
ATOM     44  C   UNL A   1      47.969  26.967  27.307  1.00  0.00     0.031 A 
ATOM     45  C   UNL A   1      41.244  28.292  28.836  1.00  0.00     0.031 A 
ATOM     46  C   UNL A   1      47.688  28.320  27.705  1.00  0.00     0.049 A 
ATOM     47  C   UNL A   1      42.318  29.335  28.986  1.00  0.00     0.074 A 
ATOM     48  C   UNL A   1      48.562  29.389  27.799  1.00  0.00     0.029 A 
ATOM     49  N   UNL A   1      46.439  28.786  28.084  1.00  0.00    -0.354 N 
ATOM     50  N   UNL A   1      43.599  29.249  28.716  1.00  0.00    -0.248 NA
ATOM     51  C   UNL A   1      41.898  30.649  29.493  1.00  0.00     0.031 C 
ATOM     52  C   UNL A   1      47.853  30.485  28.302  1.00  0.00     0.029 A 
ATOM     53  C   UNL A   1      46.523  30.119  28.448  1.00  0.00     0.049 A 
ATOM     54  H   UNL A   1      45.614  28.249  28.094  1.00  0.00     0.167 HD
ATOM     55  C   UNL A   1      44.132  30.502  28.992  1.00  0.00     0.074 A 
ATOM     56  C   UNL A   1      43.032  31.335  29.434  1.00  0.00     0.031 C 
ATOM     57  C   UNL A   1      45.416  30.928  28.889  1.00  0.00     0.031 A 
BRANCH  44  58
ATOM     58  C   UNL A   1      49.390  26.590  26.994  1.00  0.00    -0.014 A 
ATOM     59  C   UNL A   1      49.910  26.679  25.693  1.00  0.00     0.009 A 
ATOM     60  C   UNL A   1      50.236  26.164  28.033  1.00  0.00     0.009 A 
ATOM     61  C   UNL A   1      51.235  26.320  25.434  1.00  0.00     0.001 A 
ATOM     62  C   UNL A   1      51.568  25.836  27.776  1.00  0.00     0.001 A 
ATOM     63  C   UNL A   1      52.063  25.905  26.476  1.00  0.00     0.000 A 
ENDBRANCH  44  58
BRANCH  45  64
ATOM     64  C   UNL A   1      39.833  28.588  29.198  1.00  0.00    -0.014 A 
ATOM     65  C   UNL A   1      38.953  29.164  28.270  1.00  0.00     0.009 A 
ATOM     66  C   UNL A   1      39.361  28.301  30.490  1.00  0.00     0.009 A 
ATOM     67  C   UNL A   1      37.639  29.467  28.636  1.00  0.00     0.001 A 
ATOM     68  C   UNL A   1      38.038  28.576  30.843  1.00  0.00     0.001 A 
ATOM     69  C   UNL A   1      37.181  29.169  29.919  1.00  0.00     0.000 A 
ENDBRANCH  45  64
BRANCH  57  70
ATOM     70  C   UNL A   1      45.692  32.369  29.222  1.00  0.00    -0.014 A 
ATOM     71  C   UNL A   1      46.009  32.771  30.528  1.00  0.00     0.009 A 
ATOM     72  C   UNL A   1      45.679  33.330  28.198  1.00  0.00     0.009 A 
ATOM     73  C   UNL A   1      46.269  34.114  30.808  1.00  0.00     0.001 A 
ATOM     74  C   UNL A   1      45.973  34.665  28.474  1.00  0.00     0.001 A 
ATOM     75  C   UNL A   1      46.258  35.058  29.781  1.00  0.00     0.000 A 
ENDBRANCH  57  70
ENDBRANCH  31  32
ENDBRANCH  24  26
ENDBRANCH  23  24
ENDBRANCH  22  23
ENDBRANCH  21  22
ENDBRANCH  20  21
ENDBRANCH   1  20
TORSDOF 18
ENDMDL
MODEL 3
REMARK VINA RESULT:      -9.2      2.503      7.091
REMARK SMILES C[C@@H]1CC[C@@H](C(=O)OCCOCCOC(=O)c2ccc(-c3c4nc(c(-c5ccccc5)c5ccc([nH]5)c(-c5ccccc5)c5nc(c(-c6ccccc6)c6ccc3[nH]6)C=C5)C=C4)cc2)[C@H](SCC[NH+](C)C)C1
REMARK SMILES IDX 10 1 9 2 8 3 6 4 7 5 5 6 1 7 2 8 3 9 72 10 4 11 65 12 66 13
REMARK SMILES IDX 67 14 68 15 69 16 70 17 71 18 11 20 12 21 13 22 14 23 15 24
REMARK SMILES IDX 16 25 17 26 18 27 64 28 19 29 63 30 20 31 21 32 22 33 57 34
REMARK SMILES IDX 23 35 62 36 56 37 58 38 24 39 61 40 55 41 54 42 25 44 47 45
REMARK SMILES IDX 32 46 46 47 33 48 36 49 45 50 59 51 34 52 35 53 44 55 60 56
REMARK SMILES IDX 37 57 26 58 27 59 31 60 28 61 30 62 29 63 48 64 49 65 53 66
REMARK SMILES IDX 50 67 52 68 51 69 38 70 39 71 43 72 40 73 42 74 41 75
REMARK H PARENT 69 19 58 43 36 54
REMARK Flexibility Score: inf
ROOT
ATOM      1  C   UNL A   1      36.896  21.992  24.070  1.00  0.00     0.202 C 
ENDROOT
BRANCH   1   2
ATOM      2  C   UNL A   1      36.422  23.446  23.855  1.00  0.00     0.261 C 
BRANCH   2   3
ATOM      3  O   UNL A   1      35.648  23.939  24.974  1.00  0.00    -0.463 OA
BRANCH   3   4
ATOM      4  C   UNL A   1      34.310  23.623  24.978  1.00  0.00     0.310 C 
ATOM      5  O   UNL A   1      33.851  22.658  25.573  1.00  0.00    -0.252 OA
BRANCH   4   6
ATOM      6  C   UNL A   1      33.473  24.662  24.173  1.00  0.00     0.112 C 
ATOM      7  C   UNL A   1      31.463  27.368  26.774  1.00  0.00     0.007 C 
ATOM      8  C   UNL A   1      32.433  26.203  26.558  1.00  0.00    -0.013 C 
ATOM      9  C   UNL A   1      33.751  26.595  25.865  1.00  0.00     0.004 C 
ATOM     10  C   UNL A   1      31.709  24.978  26.006  1.00  0.00     0.018 C 
ATOM     11  C   UNL A   1      34.086  26.010  24.479  1.00  0.00     0.017 C 
ATOM     12  C   UNL A   1      31.959  24.626  24.529  1.00  0.00     0.061 C 
BRANCH  12  13
ATOM     13  S   UNL A   1      30.411  25.148  23.530  1.00  0.00    -0.152 SA
BRANCH  13  14
ATOM     14  C   UNL A   1      29.997  26.958  23.429  1.00  0.00     0.131 C 
BRANCH  14  15
ATOM     15  C   UNL A   1      30.714  27.903  22.384  1.00  0.00     0.272 C 
BRANCH  15  16
ATOM     16  N   UNL A   1      30.704  29.366  22.626  1.00  0.00    -0.339 N 
ATOM     17  C   UNL A   1      29.600  30.068  21.971  1.00  0.00     0.332 C 
ATOM     18  C   UNL A   1      30.675  29.628  24.031  1.00  0.00     0.332 C 
ATOM     19  H   UNL A   1      31.564  29.727  22.210  1.00  0.00     0.347 HD
ENDBRANCH  15  16
ENDBRANCH  14  15
ENDBRANCH  13  14
ENDBRANCH  12  13
ENDBRANCH   4   6
ENDBRANCH   3   4
ENDBRANCH   2   3
ENDBRANCH   1   2
BRANCH   1  20
ATOM     20  O   UNL A   1      37.225  21.533  25.387  1.00  0.00    -0.374 OA
BRANCH  20  21
ATOM     21  C   UNL A   1      38.604  21.439  25.712  1.00  0.00     0.202 C 
BRANCH  21  22
ATOM     22  C   UNL A   1      39.313  20.081  25.581  1.00  0.00     0.261 C 
BRANCH  22  23
ATOM     23  O   UNL A   1      40.306  19.862  26.587  1.00  0.00    -0.460 OA
BRANCH  23  24
ATOM     24  C   UNL A   1      41.572  19.979  26.126  1.00  0.00     0.338 C 
ATOM     25  O   UNL A   1      42.137  19.270  25.300  1.00  0.00    -0.246 OA
BRANCH  24  26
ATOM     26  C   UNL A   1      42.157  21.239  26.599  1.00  0.00     0.060 A 
ATOM     27  C   UNL A   1      42.144  21.457  27.982  1.00  0.00     0.016 A 
ATOM     28  C   UNL A   1      42.647  22.207  25.720  1.00  0.00     0.016 A 
ATOM     29  C   UNL A   1      42.581  22.668  28.496  1.00  0.00     0.010 A 
ATOM     30  C   UNL A   1      43.065  23.436  26.238  1.00  0.00     0.010 A 
ATOM     31  C   UNL A   1      42.992  23.681  27.622  1.00  0.00    -0.014 A 
BRANCH  31  32
ATOM     32  C   UNL A   1      43.152  25.047  28.163  1.00  0.00     0.031 A 
ATOM     33  C   UNL A   1      44.532  25.513  28.534  1.00  0.00     0.074 A 
ATOM     34  C   UNL A   1      42.101  25.881  28.239  1.00  0.00     0.049 A 
ATOM     35  N   UNL A   1      44.917  26.667  29.011  1.00  0.00    -0.248 NA
ATOM     36  C   UNL A   1      45.627  24.548  28.335  1.00  0.00     0.031 C 
ATOM     37  C   UNL A   1      40.734  25.555  27.838  1.00  0.00     0.029 A 
ATOM     38  N   UNL A   1      42.029  27.179  28.673  1.00  0.00    -0.354 N 
ATOM     39  C   UNL A   1      46.292  26.564  29.181  1.00  0.00     0.074 A 
ATOM     40  C   UNL A   1      46.672  25.227  28.782  1.00  0.00     0.031 C 
ATOM     41  C   UNL A   1      39.952  26.629  28.050  1.00  0.00     0.029 A 
ATOM     42  C   UNL A   1      40.759  27.697  28.635  1.00  0.00     0.049 A 
ATOM     43  H   UNL A   1      42.812  27.689  28.982  1.00  0.00     0.167 HD
ATOM     44  C   UNL A   1      47.158  27.501  29.629  1.00  0.00     0.031 A 
ATOM     45  C   UNL A   1      40.299  28.893  29.050  1.00  0.00     0.031 A 
ATOM     46  C   UNL A   1      46.767  28.824  30.034  1.00  0.00     0.049 A 
ATOM     47  C   UNL A   1      41.271  29.888  29.625  1.00  0.00     0.074 A 
ATOM     48  C   UNL A   1      47.567  29.855  30.495  1.00  0.00     0.029 A 
ATOM     49  N   UNL A   1      45.463  29.294  30.036  1.00  0.00    -0.354 N 
ATOM     50  N   UNL A   1      42.571  29.787  29.769  1.00  0.00    -0.248 NA
ATOM     51  C   UNL A   1      40.713  31.167  30.085  1.00  0.00     0.031 C 
ATOM     52  C   UNL A   1      46.737  30.926  30.841  1.00  0.00     0.029 A 
ATOM     53  C   UNL A   1      45.429  30.589  30.524  1.00  0.00     0.049 A 
ATOM     54  H   UNL A   1      44.677  28.783  29.735  1.00  0.00     0.167 HD
ATOM     55  C   UNL A   1      42.990  30.996  30.310  1.00  0.00     0.074 A 
ATOM     56  C   UNL A   1      41.808  31.821  30.450  1.00  0.00     0.031 C 
ATOM     57  C   UNL A   1      44.240  31.391  30.659  1.00  0.00     0.031 A 
BRANCH  44  58
ATOM     58  C   UNL A   1      48.605  27.109  29.752  1.00  0.00    -0.014 A 
ATOM     59  C   UNL A   1      49.116  26.526  30.923  1.00  0.00     0.009 A 
ATOM     60  C   UNL A   1      49.467  27.301  28.660  1.00  0.00     0.009 A 
ATOM     61  C   UNL A   1      50.465  26.173  31.007  1.00  0.00     0.001 A 
ATOM     62  C   UNL A   1      50.807  26.919  28.736  1.00  0.00     0.001 A 
ATOM     63  C   UNL A   1      51.307  26.365  29.912  1.00  0.00     0.000 A 
ENDBRANCH  44  58
BRANCH  45  64
ATOM     64  C   UNL A   1      38.847  29.200  28.969  1.00  0.00    -0.014 A 
ATOM     65  C   UNL A   1      38.283  29.729  27.798  1.00  0.00     0.009 A 
ATOM     66  C   UNL A   1      38.015  28.971  30.077  1.00  0.00     0.009 A 
ATOM     67  C   UNL A   1      36.922  30.044  27.749  1.00  0.00     0.001 A 
ATOM     68  C   UNL A   1      36.650  29.256  30.014  1.00  0.00     0.001 A 
ATOM     69  C   UNL A   1      36.106  29.802  28.854  1.00  0.00     0.000 A 
ENDBRANCH  45  64
BRANCH  57  70
ATOM     70  C   UNL A   1      44.397  32.791  31.188  1.00  0.00    -0.014 A 
ATOM     71  C   UNL A   1      44.603  33.880  30.328  1.00  0.00     0.009 A 
ATOM     72  C   UNL A   1      44.289  33.024  32.569  1.00  0.00     0.009 A 
ATOM     73  C   UNL A   1      44.737  35.170  30.845  1.00  0.00     0.001 A 
ATOM     74  C   UNL A   1      44.389  34.318  33.079  1.00  0.00     0.001 A 
ATOM     75  C   UNL A   1      44.623  35.389  32.218  1.00  0.00     0.000 A 
ENDBRANCH  57  70
ENDBRANCH  31  32
ENDBRANCH  24  26
ENDBRANCH  23  24
ENDBRANCH  22  23
ENDBRANCH  21  22
ENDBRANCH  20  21
ENDBRANCH   1  20
TORSDOF 18
ENDMDL
