MODEL 1
REMARK VINA RESULT:      -9.9      0.000      0.000
REMARK SMILES C[C@H]([NH2+]Cc1ccc(F)c(F)c1)[C@H](C)C(=O)OCCOCCOC(=O)c1ccc(-c2c3nc(c(-c4ccccc4)c4ccc([nH]4)c(-c4ccccc4)c4nc(c(-c5ccccc5)c5ccc2[nH]5)C=C4)C=C3)cc1
REMARK SMILES IDX 19 1 18 2 17 3 15 4 16 5 13 6 14 7 2 8 1 9 3 10 4 13 5 14
REMARK SMILES IDX 6 15 12 16 7 17 10 18 8 19 11 20 9 21 20 22 21 23 22 24
REMARK SMILES IDX 23 25 24 26 25 27 26 28 27 29 73 30 28 31 72 32 29 33 30 34
REMARK SMILES IDX 31 35 66 36 32 37 71 38 65 39 67 40 33 41 70 42 64 43 63 44
REMARK SMILES IDX 34 46 56 47 41 48 55 49 42 50 45 51 54 52 68 53 43 54 44 55
REMARK SMILES IDX 53 57 69 58 46 59 35 60 36 61 40 62 37 63 39 64 38 65 57 66
REMARK SMILES IDX 58 67 62 68 59 69 61 70 60 71 47 72 48 73 52 74 49 75 51 76
REMARK SMILES IDX 50 77
REMARK H PARENT 3 11 3 12 67 45 45 56
REMARK Flexibility Score: inf
ROOT
ATOM      1  C   UNL A   1      37.765  22.083  25.608  1.00  0.00     0.202 C 
ENDROOT
BRANCH   1   2
ATOM      2  C   UNL A   1      37.073  23.430  25.394  1.00  0.00     0.261 C 
BRANCH   2   3
ATOM      3  O   UNL A   1      36.578  23.552  24.048  1.00  0.00    -0.463 OA
BRANCH   3   4
ATOM      4  C   UNL A   1      35.241  23.767  23.913  1.00  0.00     0.314 C 
ATOM      5  O   UNL A   1      34.612  23.639  22.870  1.00  0.00    -0.252 OA
BRANCH   4   6
ATOM      6  C   UNL A   1      34.608  24.265  25.201  1.00  0.00     0.154 C 
ATOM      7  C   UNL A   1      34.058  25.693  25.115  1.00  0.00     0.026 C 
BRANCH   6   8
ATOM      8  C   UNL A   1      33.594  23.207  25.698  1.00  0.00     0.193 C 
ATOM      9  C   UNL A   1      33.607  23.035  27.224  1.00  0.00     0.076 C 
BRANCH   8  10
ATOM     10  N   UNL A   1      33.891  21.930  25.036  1.00  0.00    -0.340 N 
ATOM     11  H   UNL A   1      34.441  21.355  25.675  1.00  0.00     0.346 HD
ATOM     12  H   UNL A   1      34.395  22.151  24.177  1.00  0.00     0.346 HD
BRANCH  10  13
ATOM     13  C   UNL A   1      32.704  21.177  24.648  1.00  0.00     0.297 C 
BRANCH  13  14
ATOM     14  C   UNL A   1      33.124  19.808  24.160  1.00  0.00     0.009 A 
ATOM     15  C   UNL A   1      32.346  19.113  23.220  1.00  0.00     0.013 A 
ATOM     16  C   UNL A   1      34.267  19.191  24.694  1.00  0.00     0.052 A 
ATOM     17  C   UNL A   1      32.710  17.826  22.816  1.00  0.00     0.043 A 
ATOM     18  C   UNL A   1      34.619  17.908  24.290  1.00  0.00     0.159 A 
ATOM     19  C   UNL A   1      33.844  17.230  23.356  1.00  0.00     0.158 A 
ATOM     20  F   UNL A   1      35.705  17.326  24.817  1.00  0.00    -0.204 F 
ATOM     21  F   UNL A   1      34.181  15.991  22.972  1.00  0.00    -0.204 F 
ENDBRANCH  13  14
ENDBRANCH  10  13
ENDBRANCH   8  10
ENDBRANCH   6   8
ENDBRANCH   4   6
ENDBRANCH   3   4
ENDBRANCH   2   3
ENDBRANCH   1   2
BRANCH   1  22
ATOM     22  O   UNL A   1      37.372  21.033  24.725  1.00  0.00    -0.374 OA
BRANCH  22  23
ATOM     23  C   UNL A   1      38.103  19.809  24.784  1.00  0.00     0.202 C 
BRANCH  23  24
ATOM     24  C   UNL A   1      39.182  19.716  25.871  1.00  0.00     0.261 C 
BRANCH  24  25
ATOM     25  O   UNL A   1      40.436  19.211  25.371  1.00  0.00    -0.460 OA
BRANCH  25  26
ATOM     26  C   UNL A   1      41.503  19.449  26.167  1.00  0.00     0.338 C 
ATOM     27  O   UNL A   1      42.440  18.693  26.401  1.00  0.00    -0.246 OA
BRANCH  26  28
ATOM     28  C   UNL A   1      41.497  20.841  26.647  1.00  0.00     0.060 A 
ATOM     29  C   UNL A   1      41.896  21.842  25.750  1.00  0.00     0.016 A 
ATOM     30  C   UNL A   1      41.246  21.149  27.986  1.00  0.00     0.016 A 
ATOM     31  C   UNL A   1      42.101  23.144  26.200  1.00  0.00     0.010 A 
ATOM     32  C   UNL A   1      41.464  22.455  28.439  1.00  0.00     0.010 A 
ATOM     33  C   UNL A   1      41.933  23.447  27.557  1.00  0.00    -0.014 A 
BRANCH  33  34
ATOM     34  C   UNL A   1      42.426  24.740  28.090  1.00  0.00     0.031 A 
ATOM     35  C   UNL A   1      41.437  25.851  28.324  1.00  0.00     0.074 A 
ATOM     36  C   UNL A   1      43.725  24.924  28.389  1.00  0.00     0.049 A 
ATOM     37  N   UNL A   1      41.649  27.085  28.703  1.00  0.00    -0.248 NA
ATOM     38  C   UNL A   1      40.018  25.521  28.105  1.00  0.00     0.031 C 
ATOM     39  C   UNL A   1      44.773  23.911  28.281  1.00  0.00     0.029 A 
ATOM     40  N   UNL A   1      44.380  26.042  28.842  1.00  0.00    -0.354 N 
ATOM     41  C   UNL A   1      40.395  27.681  28.758  1.00  0.00     0.074 A 
ATOM     42  C   UNL A   1      39.430  26.682  28.356  1.00  0.00     0.031 C 
ATOM     43  C   UNL A   1      45.945  24.459  28.649  1.00  0.00     0.029 A 
ATOM     44  C   UNL A   1      45.735  25.867  28.979  1.00  0.00     0.049 A 
ATOM     45  H   UNL A   1      43.922  26.888  29.049  1.00  0.00     0.167 HD
ATOM     46  C   UNL A   1      40.072  28.947  29.115  1.00  0.00     0.031 A 
ATOM     47  C   UNL A   1      46.697  26.750  29.306  1.00  0.00     0.031 A 
ATOM     48  C   UNL A   1      41.026  29.949  29.502  1.00  0.00     0.049 A 
ATOM     49  C   UNL A   1      46.325  28.181  29.600  1.00  0.00     0.074 A 
ATOM     50  C   UNL A   1      40.798  31.267  29.859  1.00  0.00     0.029 A 
ATOM     51  N   UNL A   1      42.393  29.742  29.584  1.00  0.00    -0.354 N 
ATOM     52  N   UNL A   1      45.139  28.736  29.632  1.00  0.00    -0.248 NA
ATOM     53  C   UNL A   1      47.429  29.104  29.905  1.00  0.00     0.031 C 
ATOM     54  C   UNL A   1      42.034  31.869  30.119  1.00  0.00     0.029 A 
ATOM     55  C   UNL A   1      43.023  30.910  29.973  1.00  0.00     0.049 A 
ATOM     56  H   UNL A   1      42.849  28.890  29.394  1.00  0.00     0.167 HD
ATOM     57  C   UNL A   1      45.350  30.061  29.995  1.00  0.00     0.074 A 
ATOM     58  C   UNL A   1      46.777  30.226  30.176  1.00  0.00     0.031 C 
ATOM     59  C   UNL A   1      44.442  31.052  30.168  1.00  0.00     0.031 A 
BRANCH  46  60
ATOM     60  C   UNL A   1      38.620  29.327  29.070  1.00  0.00    -0.014 A 
ATOM     61  C   UNL A   1      38.025  29.779  27.883  1.00  0.00     0.009 A 
ATOM     62  C   UNL A   1      37.829  29.196  30.222  1.00  0.00     0.009 A 
ATOM     63  C   UNL A   1      36.670  30.117  27.857  1.00  0.00     0.001 A 
ATOM     64  C   UNL A   1      36.471  29.513  30.188  1.00  0.00     0.001 A 
ATOM     65  C   UNL A   1      35.894  29.981  29.008  1.00  0.00     0.000 A 
ENDBRANCH  46  60
BRANCH  47  66
ATOM     66  C   UNL A   1      48.121  26.327  29.348  1.00  0.00    -0.014 A 
ATOM     67  C   UNL A   1      48.937  26.447  28.212  1.00  0.00     0.009 A 
ATOM     68  C   UNL A   1      48.661  25.764  30.515  1.00  0.00     0.009 A 
ATOM     69  C   UNL A   1      50.254  25.984  28.236  1.00  0.00     0.001 A 
ATOM     70  C   UNL A   1      49.987  25.326  30.544  1.00  0.00     0.001 A 
ATOM     71  C   UNL A   1      50.779  25.427  29.401  1.00  0.00     0.000 A 
ENDBRANCH  47  66
BRANCH  59  72
ATOM     72  C   UNL A   1      44.952  32.386  30.634  1.00  0.00    -0.014 A 
ATOM     73  C   UNL A   1      45.088  32.682  31.998  1.00  0.00     0.009 A 
ATOM     74  C   UNL A   1      45.356  33.338  29.684  1.00  0.00     0.009 A 
ATOM     75  C   UNL A   1      45.596  33.918  32.402  1.00  0.00     0.001 A 
ATOM     76  C   UNL A   1      45.886  34.563  30.090  1.00  0.00     0.001 A 
ATOM     77  C   UNL A   1      45.999  34.855  31.449  1.00  0.00     0.000 A 
ENDBRANCH  59  72
ENDBRANCH  33  34
ENDBRANCH  26  28
ENDBRANCH  25  26
ENDBRANCH  24  25
ENDBRANCH  23  24
ENDBRANCH  22  23
ENDBRANCH   1  22
TORSDOF 18
ENDMDL
MODEL 2
REMARK VINA RESULT:      -9.8      2.095      5.990
REMARK SMILES C[C@H]([NH2+]Cc1ccc(F)c(F)c1)[C@H](C)C(=O)OCCOCCOC(=O)c1ccc(-c2c3nc(c(-c4ccccc4)c4ccc([nH]4)c(-c4ccccc4)c4nc(c(-c5ccccc5)c5ccc2[nH]5)C=C4)C=C3)cc1
REMARK SMILES IDX 19 1 18 2 17 3 15 4 16 5 13 6 14 7 2 8 1 9 3 10 4 13 5 14
REMARK SMILES IDX 6 15 12 16 7 17 10 18 8 19 11 20 9 21 20 22 21 23 22 24
REMARK SMILES IDX 23 25 24 26 25 27 26 28 27 29 73 30 28 31 72 32 29 33 30 34
REMARK SMILES IDX 31 35 66 36 32 37 71 38 65 39 67 40 33 41 70 42 64 43 63 44
REMARK SMILES IDX 34 46 56 47 41 48 55 49 42 50 45 51 54 52 68 53 43 54 44 55
REMARK SMILES IDX 53 57 69 58 46 59 35 60 36 61 40 62 37 63 39 64 38 65 57 66
REMARK SMILES IDX 58 67 62 68 59 69 61 70 60 71 47 72 48 73 52 74 49 75 51 76
REMARK SMILES IDX 50 77
REMARK H PARENT 3 11 3 12 67 45 45 56
REMARK Flexibility Score: inf
ROOT
ATOM      1  C   UNL A   1      36.878  22.764  24.484  1.00  0.00     0.202 C 
ENDROOT
BRANCH   1   2
ATOM      2  C   UNL A   1      36.384  22.889  25.926  1.00  0.00     0.261 C 
BRANCH   2   3
ATOM      3  O   UNL A   1      35.335  23.869  26.032  1.00  0.00    -0.463 OA
BRANCH   3   4
ATOM      4  C   UNL A   1      34.189  23.463  26.643  1.00  0.00     0.314 C 
ATOM      5  O   UNL A   1      34.129  22.638  27.546  1.00  0.00    -0.252 OA
BRANCH   4   6
ATOM      6  C   UNL A   1      32.955  24.101  26.027  1.00  0.00     0.154 C 
ATOM      7  C   UNL A   1      33.015  25.631  25.952  1.00  0.00     0.026 C 
BRANCH   6   8
ATOM      8  C   UNL A   1      32.648  23.396  24.685  1.00  0.00     0.193 C 
ATOM      9  C   UNL A   1      31.149  23.371  24.351  1.00  0.00     0.076 C 
BRANCH   8  10
ATOM     10  N   UNL A   1      33.183  22.029  24.743  1.00  0.00    -0.340 N 
ATOM     11  H   UNL A   1      33.698  21.922  25.617  1.00  0.00     0.346 HD
ATOM     12  H   UNL A   1      33.776  21.907  23.922  1.00  0.00     0.346 HD
BRANCH  10  13
ATOM     13  C   UNL A   1      32.159  20.992  24.683  1.00  0.00     0.297 C 
BRANCH  13  14
ATOM     14  C   UNL A   1      32.771  19.724  24.132  1.00  0.00     0.009 A 
ATOM     15  C   UNL A   1      32.162  19.038  23.068  1.00  0.00     0.013 A 
ATOM     16  C   UNL A   1      33.924  19.184  24.725  1.00  0.00     0.052 A 
ATOM     17  C   UNL A   1      32.702  17.837  22.601  1.00  0.00     0.043 A 
ATOM     18  C   UNL A   1      34.452  17.986  24.256  1.00  0.00     0.159 A 
ATOM     19  C   UNL A   1      33.844  17.317  23.201  1.00  0.00     0.158 A 
ATOM     20  F   UNL A   1      35.545  17.476  24.840  1.00  0.00    -0.204 F 
ATOM     21  F   UNL A   1      34.350  16.160  22.754  1.00  0.00    -0.204 F 
ENDBRANCH  13  14
ENDBRANCH  10  13
ENDBRANCH   8  10
ENDBRANCH   6   8
ENDBRANCH   4   6
ENDBRANCH   3   4
ENDBRANCH   2   3
ENDBRANCH   1   2
BRANCH   1  22
ATOM     22  O   UNL A   1      37.456  21.510  24.129  1.00  0.00    -0.374 OA
BRANCH  22  23
ATOM     23  C   UNL A   1      37.338  20.437  25.063  1.00  0.00     0.202 C 
BRANCH  23  24
ATOM     24  C   UNL A   1      38.642  19.727  25.447  1.00  0.00     0.261 C 
BRANCH  24  25
ATOM     25  O   UNL A   1      39.768  20.625  25.515  1.00  0.00    -0.460 OA
BRANCH  25  26
ATOM     26  C   UNL A   1      40.439  20.607  26.689  1.00  0.00     0.338 C 
ATOM     27  O   UNL A   1      40.976  19.643  27.225  1.00  0.00    -0.246 OA
BRANCH  26  28
ATOM     28  C   UNL A   1      40.588  21.970  27.227  1.00  0.00     0.060 A 
ATOM     29  C   UNL A   1      39.856  22.996  26.613  1.00  0.00     0.016 A 
ATOM     30  C   UNL A   1      41.529  22.264  28.216  1.00  0.00     0.016 A 
ATOM     31  C   UNL A   1      40.104  24.326  26.945  1.00  0.00     0.010 A 
ATOM     32  C   UNL A   1      41.785  23.601  28.539  1.00  0.00     0.010 A 
ATOM     33  C   UNL A   1      41.105  24.639  27.874  1.00  0.00    -0.014 A 
BRANCH  33  34
ATOM     34  C   UNL A   1      41.571  26.040  28.013  1.00  0.00     0.031 A 
ATOM     35  C   UNL A   1      42.873  26.436  27.369  1.00  0.00     0.074 A 
ATOM     36  C   UNL A   1      40.843  26.957  28.675  1.00  0.00     0.049 A 
ATOM     37  N   UNL A   1      43.515  27.575  27.427  1.00  0.00    -0.248 NA
ATOM     38  C   UNL A   1      43.536  25.410  26.546  1.00  0.00     0.031 C 
ATOM     39  C   UNL A   1      39.533  26.726  29.280  1.00  0.00     0.029 A 
ATOM     40  N   UNL A   1      41.116  28.273  28.951  1.00  0.00    -0.354 N 
ATOM     41  C   UNL A   1      44.659  27.401  26.659  1.00  0.00     0.074 A 
ATOM     42  C   UNL A   1      44.635  26.042  26.161  1.00  0.00     0.031 C 
ATOM     43  C   UNL A   1      39.119  27.863  29.867  1.00  0.00     0.029 A 
ATOM     44  C   UNL A   1      40.151  28.886  29.712  1.00  0.00     0.049 A 
ATOM     45  H   UNL A   1      41.926  28.734  28.634  1.00  0.00     0.167 HD
ATOM     46  C   UNL A   1      45.643  28.290  26.387  1.00  0.00     0.031 A 
ATOM     47  C   UNL A   1      40.119  30.123  30.245  1.00  0.00     0.031 A 
ATOM     48  C   UNL A   1      45.681  29.636  26.889  1.00  0.00     0.049 A 
ATOM     49  C   UNL A   1      41.274  31.062  30.013  1.00  0.00     0.074 A 
ATOM     50  C   UNL A   1      46.647  30.606  26.688  1.00  0.00     0.029 A 
ATOM     51  N   UNL A   1      44.705  30.202  27.694  1.00  0.00    -0.354 N 
ATOM     52  N   UNL A   1      42.358  30.880  29.300  1.00  0.00    -0.248 NA
ATOM     53  C   UNL A   1      41.197  32.380  30.662  1.00  0.00     0.031 C 
ATOM     54  C   UNL A   1      46.275  31.749  27.404  1.00  0.00     0.029 A 
ATOM     55  C   UNL A   1      45.053  31.503  28.008  1.00  0.00     0.049 A 
ATOM     56  H   UNL A   1      43.886  29.746  27.996  1.00  0.00     0.167 HD
ATOM     57  C   UNL A   1      43.072  32.069  29.384  1.00  0.00     0.074 A 
ATOM     58  C   UNL A   1      42.298  32.967  30.214  1.00  0.00     0.031 C 
ATOM     59  C   UNL A   1      44.261  32.390  28.819  1.00  0.00     0.031 A 
BRANCH  46  60
ATOM     60  C   UNL A   1      46.780  27.820  25.527  1.00  0.00    -0.014 A 
ATOM     61  C   UNL A   1      47.887  27.162  26.085  1.00  0.00     0.009 A 
ATOM     62  C   UNL A   1      46.727  28.005  24.137  1.00  0.00     0.009 A 
ATOM     63  C   UNL A   1      48.931  26.722  25.268  1.00  0.00     0.001 A 
ATOM     64  C   UNL A   1      47.760  27.543  23.321  1.00  0.00     0.001 A 
ATOM     65  C   UNL A   1      48.865  26.909  23.888  1.00  0.00     0.000 A 
ENDBRANCH  46  60
BRANCH  47  66
ATOM     66  C   UNL A   1      38.967  30.550  31.081  1.00  0.00    -0.014 A 
ATOM     67  C   UNL A   1      37.870  31.209  30.506  1.00  0.00     0.009 A 
ATOM     68  C   UNL A   1      38.979  30.334  32.469  1.00  0.00     0.009 A 
ATOM     69  C   UNL A   1      36.823  31.669  31.306  1.00  0.00     0.001 A 
ATOM     70  C   UNL A   1      37.917  30.773  33.263  1.00  0.00     0.001 A 
ATOM     71  C   UNL A   1      36.845  31.449  32.682  1.00  0.00     0.000 A 
ENDBRANCH  47  66
BRANCH  59  72
ATOM     72  C   UNL A   1      44.771  33.788  29.025  1.00  0.00    -0.014 A 
ATOM     73  C   UNL A   1      44.378  34.842  28.187  1.00  0.00     0.009 A 
ATOM     74  C   UNL A   1      45.615  34.060  30.114  1.00  0.00     0.009 A 
ATOM     75  C   UNL A   1      44.842  36.138  28.422  1.00  0.00     0.001 A 
ATOM     76  C   UNL A   1      46.057  35.360  30.361  1.00  0.00     0.001 A 
ATOM     77  C   UNL A   1      45.677  36.397  29.511  1.00  0.00     0.000 A 
ENDBRANCH  59  72
ENDBRANCH  33  34
ENDBRANCH  26  28
ENDBRANCH  25  26
ENDBRANCH  24  25
ENDBRANCH  23  24
ENDBRANCH  22  23
ENDBRANCH   1  22
TORSDOF 18
ENDMDL
MODEL 3
REMARK VINA RESULT:      -9.7      4.024      5.954
REMARK SMILES C[C@H]([NH2+]Cc1ccc(F)c(F)c1)[C@H](C)C(=O)OCCOCCOC(=O)c1ccc(-c2c3nc(c(-c4ccccc4)c4ccc([nH]4)c(-c4ccccc4)c4nc(c(-c5ccccc5)c5ccc2[nH]5)C=C4)C=C3)cc1
REMARK SMILES IDX 19 1 18 2 17 3 15 4 16 5 13 6 14 7 2 8 1 9 3 10 4 13 5 14
REMARK SMILES IDX 6 15 12 16 7 17 10 18 8 19 11 20 9 21 20 22 21 23 22 24
REMARK SMILES IDX 23 25 24 26 25 27 26 28 27 29 73 30 28 31 72 32 29 33 30 34
REMARK SMILES IDX 31 35 66 36 32 37 71 38 65 39 67 40 33 41 70 42 64 43 63 44
REMARK SMILES IDX 34 46 56 47 41 48 55 49 42 50 45 51 54 52 68 53 43 54 44 55
REMARK SMILES IDX 53 57 69 58 46 59 35 60 36 61 40 62 37 63 39 64 38 65 57 66
REMARK SMILES IDX 58 67 62 68 59 69 61 70 60 71 47 72 48 73 52 74 49 75 51 76
REMARK SMILES IDX 50 77
REMARK H PARENT 3 11 3 12 67 45 45 56
REMARK Flexibility Score: inf
ROOT
ATOM      1  C   UNL A   1      44.201  19.295  24.828  1.00  0.00     0.202 C 
ENDROOT
BRANCH   1   2
ATOM      2  C   UNL A   1      43.023  19.157  25.793  1.00  0.00     0.261 C 
BRANCH   2   3
ATOM      3  O   UNL A   1      42.168  20.314  25.738  1.00  0.00    -0.463 OA
BRANCH   3   4
ATOM      4  C   UNL A   1      40.879  20.133  26.134  1.00  0.00     0.314 C 
ATOM      5  O   UNL A   1      40.148  19.227  25.754  1.00  0.00    -0.252 OA
BRANCH   4   6
ATOM      6  C   UNL A   1      40.406  21.236  27.065  1.00  0.00     0.154 C 
ATOM      7  C   UNL A   1      41.527  21.877  27.893  1.00  0.00     0.026 C 
BRANCH   6   8
ATOM      8  C   UNL A   1      39.544  22.235  26.256  1.00  0.00     0.193 C 
ATOM      9  C   UNL A   1      39.372  23.587  26.962  1.00  0.00     0.076 C 
BRANCH   8  10
ATOM     10  N   UNL A   1      38.235  21.619  26.001  1.00  0.00    -0.340 N 
ATOM     11  H   UNL A   1      37.984  21.048  26.808  1.00  0.00     0.346 HD
ATOM     12  H   UNL A   1      38.326  21.070  25.146  1.00  0.00     0.346 HD
BRANCH  10  13
ATOM     13  C   UNL A   1      37.165  22.584  25.771  1.00  0.00     0.297 C 
BRANCH  13  14
ATOM     14  C   UNL A   1      35.854  21.845  25.632  1.00  0.00     0.009 A 
ATOM     15  C   UNL A   1      35.800  20.595  24.993  1.00  0.00     0.013 A 
ATOM     16  C   UNL A   1      34.662  22.434  26.086  1.00  0.00     0.052 A 
ATOM     17  C   UNL A   1      34.577  19.944  24.817  1.00  0.00     0.043 A 
ATOM     18  C   UNL A   1      33.448  21.780  25.903  1.00  0.00     0.159 A 
ATOM     19  C   UNL A   1      33.407  20.543  25.272  1.00  0.00     0.158 A 
ATOM     20  F   UNL A   1      32.318  22.360  26.330  1.00  0.00    -0.204 F 
ATOM     21  F   UNL A   1      32.236  19.916  25.092  1.00  0.00    -0.204 F 
ENDBRANCH  13  14
ENDBRANCH  10  13
ENDBRANCH   8  10
ENDBRANCH   6   8
ENDBRANCH   4   6
ENDBRANCH   3   4
ENDBRANCH   2   3
ENDBRANCH   1   2
BRANCH   1  22
ATOM     22  O   UNL A   1      44.356  20.572  24.212  1.00  0.00    -0.374 OA
BRANCH  22  23
ATOM     23  C   UNL A   1      45.377  21.433  24.717  1.00  0.00     0.202 C 
BRANCH  23  24
ATOM     24  C   UNL A   1      45.404  22.857  24.148  1.00  0.00     0.261 C 
BRANCH  24  25
ATOM     25  O   UNL A   1      44.411  23.715  24.745  1.00  0.00    -0.460 OA
BRANCH  25  26
ATOM     26  C   UNL A   1      44.852  24.950  25.078  1.00  0.00     0.338 C 
ATOM     27  O   UNL A   1      45.823  25.541  24.618  1.00  0.00    -0.246 OA
BRANCH  26  28
ATOM     28  C   UNL A   1      43.915  25.609  26.002  1.00  0.00     0.060 A 
ATOM     29  C   UNL A   1      44.008  27.001  26.143  1.00  0.00     0.016 A 
ATOM     30  C   UNL A   1      43.059  24.869  26.823  1.00  0.00     0.016 A 
ATOM     31  C   UNL A   1      43.290  27.653  27.142  1.00  0.00     0.010 A 
ATOM     32  C   UNL A   1      42.348  25.525  27.834  1.00  0.00     0.010 A 
ATOM     33  C   UNL A   1      42.493  26.912  28.025  1.00  0.00    -0.014 A 
BRANCH  33  34
ATOM     34  C   UNL A   1      41.966  27.551  29.255  1.00  0.00     0.031 A 
ATOM     35  C   UNL A   1      40.664  28.303  29.178  1.00  0.00     0.074 A 
ATOM     36  C   UNL A   1      42.613  27.448  30.429  1.00  0.00     0.049 A 
ATOM     37  N   UNL A   1      40.055  29.006  30.099  1.00  0.00    -0.248 NA
ATOM     38  C   UNL A   1      39.951  28.249  27.890  1.00  0.00     0.031 C 
ATOM     39  C   UNL A   1      43.841  26.688  30.659  1.00  0.00     0.029 A 
ATOM     40  N   UNL A   1      42.320  27.994  31.653  1.00  0.00    -0.354 N 
ATOM     41  C   UNL A   1      38.897  29.486  29.501  1.00  0.00     0.074 A 
ATOM     42  C   UNL A   1      38.895  29.012  28.135  1.00  0.00     0.031 C 
ATOM     43  C   UNL A   1      44.202  26.826  31.947  1.00  0.00     0.029 A 
ATOM     44  C   UNL A   1      43.255  27.713  32.619  1.00  0.00     0.049 A 
ATOM     45  H   UNL A   1      41.516  28.536  31.823  1.00  0.00     0.167 HD
ATOM     46  C   UNL A   1      37.917  30.251  30.040  1.00  0.00     0.031 A 
ATOM     47  C   UNL A   1      43.349  28.146  33.891  1.00  0.00     0.031 A 
ATOM     48  C   UNL A   1      37.920  30.738  31.392  1.00  0.00     0.049 A 
ATOM     49  C   UNL A   1      42.300  29.080  34.438  1.00  0.00     0.074 A 
ATOM     50  C   UNL A   1      36.984  31.538  32.023  1.00  0.00     0.029 A 
ATOM     51  N   UNL A   1      38.910  30.466  32.322  1.00  0.00    -0.354 N 
ATOM     52  N   UNL A   1      41.220  29.540  33.858  1.00  0.00    -0.248 NA
ATOM     53  C   UNL A   1      42.488  29.551  35.819  1.00  0.00     0.031 C 
ATOM     54  C   UNL A   1      37.428  31.784  33.327  1.00  0.00     0.029 A 
ATOM     55  C   UNL A   1      38.614  31.094  33.519  1.00  0.00     0.049 A 
ATOM     56  H   UNL A   1      39.704  29.909  32.157  1.00  0.00     0.167 HD
ATOM     57  C   UNL A   1      40.581  30.323  34.812  1.00  0.00     0.074 A 
ATOM     58  C   UNL A   1      41.393  30.274  36.009  1.00  0.00     0.031 C 
ATOM     59  C   UNL A   1      39.422  31.018  34.707  1.00  0.00     0.031 A 
BRANCH  46  60
ATOM     60  C   UNL A   1      36.773  30.635  29.148  1.00  0.00    -0.014 A 
ATOM     61  C   UNL A   1      36.715  31.903  28.549  1.00  0.00     0.009 A 
ATOM     62  C   UNL A   1      35.759  29.705  28.873  1.00  0.00     0.009 A 
ATOM     63  C   UNL A   1      35.648  32.239  27.712  1.00  0.00     0.001 A 
ATOM     64  C   UNL A   1      34.706  30.035  28.019  1.00  0.00     0.001 A 
ATOM     65  C   UNL A   1      34.648  31.305  27.446  1.00  0.00     0.000 A 
ENDBRANCH  46  60
BRANCH  47  66
ATOM     66  C   UNL A   1      44.495  27.731  34.742  1.00  0.00    -0.014 A 
ATOM     67  C   UNL A   1      44.370  26.655  35.633  1.00  0.00     0.009 A 
ATOM     68  C   UNL A   1      45.707  28.437  34.694  1.00  0.00     0.009 A 
ATOM     69  C   UNL A   1      45.427  26.313  36.480  1.00  0.00     0.001 A 
ATOM     70  C   UNL A   1      46.771  28.076  35.524  1.00  0.00     0.001 A 
ATOM     71  C   UNL A   1      46.626  27.021  36.423  1.00  0.00     0.000 A 
ENDBRANCH  47  66
BRANCH  59  72
ATOM     72  C   UNL A   1      38.927  31.730  35.934  1.00  0.00    -0.014 A 
ATOM     73  C   UNL A   1      39.223  33.082  36.164  1.00  0.00     0.009 A 
ATOM     74  C   UNL A   1      38.102  31.046  36.842  1.00  0.00     0.009 A 
ATOM     75  C   UNL A   1      38.722  33.727  37.296  1.00  0.00     0.001 A 
ATOM     76  C   UNL A   1      37.583  31.701  37.959  1.00  0.00     0.001 A 
ATOM     77  C   UNL A   1      37.899  33.039  38.190  1.00  0.00     0.000 A 
ENDBRANCH  59  72
ENDBRANCH  33  34
ENDBRANCH  26  28
ENDBRANCH  25  26
ENDBRANCH  24  25
ENDBRANCH  23  24
ENDBRANCH  22  23
ENDBRANCH   1  22
TORSDOF 18
ENDMDL
