MODEL 1
REMARK VINA RESULT:     -11.4      0.000      0.000
REMARK SMILES CC(C)OC(=O)c1c(NC(=O)[C@H]2[C@@H](C(=O)OCCOCCOC(=O)c3ccc(-c4c5nc(c(-c6ccccc6)c6ccc([nH]6)c(-c6ccccc6)c6nc(c(-c7ccccc7)c7ccc4[nH]7)C=C6)C=C5)cc3)[C@@H]3C=C[C@H]2CC3)sc2c1CCC2
REMARK SMILES IDX 17 1 16 2 14 3 15 4 13 5 12 6 76 7 73 8 75 9 77 10 74 11
REMARK SMILES IDX 78 12 10 13 9 14 11 16 8 17 7 18 81 19 79 20 80 21 82 22
REMARK SMILES IDX 84 23 83 24 5 25 6 26 4 27 2 28 1 29 3 30 18 31 19 32 20 33
REMARK SMILES IDX 21 34 22 35 23 36 24 37 25 38 26 39 72 40 27 41 71 42 28 43
REMARK SMILES IDX 29 44 30 45 65 46 31 47 70 48 64 49 66 50 32 51 69 52 63 53
REMARK SMILES IDX 62 54 33 56 55 57 40 58 54 59 41 60 44 61 53 62 67 63 42 64
REMARK SMILES IDX 43 65 52 67 68 68 45 69 34 70 35 71 39 72 36 73 38 74 37 75
REMARK SMILES IDX 56 76 57 77 61 78 58 79 60 80 59 81 46 82 47 83 51 84 48 85
REMARK SMILES IDX 50 86 49 87
REMARK H PARENT 9 15 66 55 44 66
REMARK Flexibility Score: inf
ROOT
ATOM      1  C   UNL A   1      34.221  28.250  25.942  1.00  0.00     0.261 C 
ENDROOT
BRANCH   1   2
ATOM      2  O   UNL A   1      33.886  26.908  25.572  1.00  0.00    -0.463 OA
BRANCH   2   3
ATOM      3  C   UNL A   1      33.375  26.797  24.314  1.00  0.00     0.310 C 
ATOM      4  O   UNL A   1      33.885  27.272  23.308  1.00  0.00    -0.252 OA
BRANCH   3   5
ATOM      5  C   UNL A   1      32.048  26.050  24.337  1.00  0.00     0.119 C 
ATOM      6  C   UNL A   1      31.564  25.613  22.904  1.00  0.00     0.100 C 
ATOM      7  C   UNL A   1      30.464  26.642  22.482  1.00  0.00     0.025 C 
ATOM      8  C   UNL A   1      30.976  26.964  25.003  1.00  0.00     0.026 C 
ATOM      9  C   UNL A   1      29.298  26.301  23.408  1.00  0.00    -0.027 C 
ATOM     10  C   UNL A   1      30.854  28.110  22.778  1.00  0.00     0.009 C 
ATOM     11  C   UNL A   1      29.589  26.403  24.717  1.00  0.00    -0.027 C 
ATOM     12  C   UNL A   1      30.986  28.340  24.299  1.00  0.00     0.009 C 
BRANCH   6  13
ATOM     13  C   UNL A   1      32.688  25.224  21.923  1.00  0.00     0.229 C 
ATOM     14  N   UNL A   1      33.337  24.033  21.909  1.00  0.00    -0.317 N 
ATOM     15  H   UNL A   1      33.893  23.884  21.110  1.00  0.00     0.170 HD
ATOM     16  O   UNL A   1      33.138  26.053  21.125  1.00  0.00    -0.274 OA
BRANCH  14  17
ATOM     17  C   UNL A   1      33.358  23.000  22.810  1.00  0.00     0.110 A 
ATOM     18  C   UNL A   1      34.455  22.562  23.550  1.00  0.00     0.098 A 
ATOM     19  C   UNL A   1      34.127  21.288  24.096  1.00  0.00    -0.017 A 
ATOM     20  S   UNL A   1      31.908  22.204  23.250  1.00  0.00    -0.122 S 
ATOM     21  C   UNL A   1      32.812  20.964  23.892  1.00  0.00     0.011 A 
ATOM     22  C   UNL A   1      34.812  20.194  24.828  1.00  0.00     0.038 C 
ATOM     23  C   UNL A   1      32.420  19.606  24.311  1.00  0.00     0.047 C 
ATOM     24  C   UNL A   1      33.811  19.001  24.662  1.00  0.00     0.010 C 
BRANCH  18  25
ATOM     25  C   UNL A   1      35.702  23.324  23.591  1.00  0.00     0.341 C 
ATOM     26  O   UNL A   1      36.580  23.154  22.756  1.00  0.00    -0.246 OA
BRANCH  25  27
ATOM     27  O   UNL A   1      35.777  24.212  24.622  1.00  0.00    -0.459 OA
BRANCH  27  28
ATOM     28  C   UNL A   1      36.206  23.741  25.924  1.00  0.00     0.170 C 
ATOM     29  C   UNL A   1      35.076  23.300  26.859  1.00  0.00     0.052 C 
ATOM     30  C   UNL A   1      37.288  22.677  25.775  1.00  0.00     0.052 C 
ENDBRANCH  27  28
ENDBRANCH  25  27
ENDBRANCH  18  25
ENDBRANCH  14  17
ENDBRANCH   6  13
ENDBRANCH   3   5
ENDBRANCH   2   3
ENDBRANCH   1   2
BRANCH   1  31
ATOM     31  C   UNL A   1      33.798  28.589  27.372  1.00  0.00     0.202 C 
BRANCH  31  32
ATOM     32  O   UNL A   1      32.602  29.329  27.617  1.00  0.00    -0.374 OA
BRANCH  32  33
ATOM     33  C   UNL A   1      32.046  30.182  26.624  1.00  0.00     0.202 C 
BRANCH  33  34
ATOM     34  C   UNL A   1      32.150  31.689  26.788  1.00  0.00     0.261 C 
BRANCH  34  35
ATOM     35  O   UNL A   1      33.222  32.037  27.647  1.00  0.00    -0.460 OA
BRANCH  35  36
ATOM     36  C   UNL A   1      33.108  33.287  28.140  1.00  0.00     0.338 C 
ATOM     37  O   UNL A   1      32.276  34.128  27.851  1.00  0.00    -0.246 OA
BRANCH  36  38
ATOM     38  C   UNL A   1      34.265  33.564  28.996  1.00  0.00     0.060 A 
ATOM     39  C   UNL A   1      35.282  34.274  28.362  1.00  0.00     0.016 A 
ATOM     40  C   UNL A   1      34.491  32.736  30.104  1.00  0.00     0.016 A 
ATOM     41  C   UNL A   1      36.569  33.876  28.608  1.00  0.00     0.010 A 
ATOM     42  C   UNL A   1      35.776  32.329  30.338  1.00  0.00     0.010 A 
ATOM     43  C   UNL A   1      36.775  32.823  29.504  1.00  0.00    -0.014 A 
BRANCH  43  44
ATOM     44  C   UNL A   1      38.117  32.315  29.630  1.00  0.00     0.031 A 
ATOM     45  C   UNL A   1      38.170  30.877  29.313  1.00  0.00     0.074 A 
ATOM     46  C   UNL A   1      39.168  33.098  29.926  1.00  0.00     0.049 A 
ATOM     47  N   UNL A   1      38.303  29.902  30.146  1.00  0.00    -0.248 NA
ATOM     48  C   UNL A   1      37.782  30.471  27.951  1.00  0.00     0.031 C 
ATOM     49  C   UNL A   1      39.236  34.559  29.991  1.00  0.00     0.029 A 
ATOM     50  N   UNL A   1      40.456  32.727  30.128  1.00  0.00    -0.354 N 
ATOM     51  C   UNL A   1      38.237  28.754  29.369  1.00  0.00     0.074 A 
ATOM     52  C   UNL A   1      37.677  29.152  28.104  1.00  0.00     0.031 C 
ATOM     53  C   UNL A   1      40.537  34.942  29.954  1.00  0.00     0.029 A 
ATOM     54  C   UNL A   1      41.377  33.756  29.997  1.00  0.00     0.049 A 
ATOM     55  H   UNL A   1      40.716  31.804  30.349  1.00  0.00     0.167 HD
ATOM     56  C   UNL A   1      38.959  27.652  29.701  1.00  0.00     0.031 A 
ATOM     57  C   UNL A   1      42.718  33.606  29.845  1.00  0.00     0.031 A 
ATOM     58  C   UNL A   1      39.400  27.707  31.074  1.00  0.00     0.049 A 
ATOM     59  C   UNL A   1      43.065  32.230  30.283  1.00  0.00     0.074 A 
ATOM     60  C   UNL A   1      38.767  27.780  32.299  1.00  0.00     0.029 A 
ATOM     61  N   UNL A   1      40.699  28.105  31.288  1.00  0.00    -0.354 N 
ATOM     62  N   UNL A   1      42.984  31.834  31.520  1.00  0.00    -0.248 NA
ATOM     63  C   UNL A   1      43.027  31.169  29.287  1.00  0.00     0.031 C 
ATOM     64  C   UNL A   1      39.586  28.642  33.086  1.00  0.00     0.029 A 
ATOM     65  C   UNL A   1      40.707  28.993  32.331  1.00  0.00     0.049 A 
ATOM     66  H   UNL A   1      41.486  27.804  30.780  1.00  0.00     0.167 HD
ATOM     67  C   UNL A   1      42.437  30.560  31.450  1.00  0.00     0.074 A 
ATOM     68  C   UNL A   1      42.573  30.166  30.047  1.00  0.00     0.031 C 
ATOM     69  C   UNL A   1      41.660  30.072  32.462  1.00  0.00     0.031 A 
BRANCH  56  70
ATOM     70  C   UNL A   1      39.674  26.819  28.664  1.00  0.00    -0.014 A 
ATOM     71  C   UNL A   1      40.540  27.477  27.774  1.00  0.00     0.009 A 
ATOM     72  C   UNL A   1      39.310  25.499  28.330  1.00  0.00     0.009 A 
ATOM     73  C   UNL A   1      40.926  26.884  26.567  1.00  0.00     0.001 A 
ATOM     74  C   UNL A   1      39.729  24.888  27.147  1.00  0.00     0.001 A 
ATOM     75  C   UNL A   1      40.509  25.595  26.249  1.00  0.00     0.000 A 
ENDBRANCH  56  70
BRANCH  57  76
ATOM     76  C   UNL A   1      43.650  34.429  29.041  1.00  0.00    -0.014 A 
ATOM     77  C   UNL A   1      45.025  34.452  29.329  1.00  0.00     0.009 A 
ATOM     78  C   UNL A   1      43.234  34.978  27.813  1.00  0.00     0.009 A 
ATOM     79  C   UNL A   1      45.947  34.972  28.409  1.00  0.00     0.001 A 
ATOM     80  C   UNL A   1      44.154  35.498  26.896  1.00  0.00     0.001 A 
ATOM     81  C   UNL A   1      45.513  35.481  27.188  1.00  0.00     0.000 A 
ENDBRANCH  57  76
BRANCH  69  82
ATOM     82  C   UNL A   1      41.607  30.856  33.750  1.00  0.00    -0.014 A 
ATOM     83  C   UNL A   1      40.731  31.936  33.964  1.00  0.00     0.009 A 
ATOM     84  C   UNL A   1      42.355  30.381  34.837  1.00  0.00     0.009 A 
ATOM     85  C   UNL A   1      40.630  32.536  35.224  1.00  0.00     0.001 A 
ATOM     86  C   UNL A   1      42.239  30.967  36.098  1.00  0.00     0.001 A 
ATOM     87  C   UNL A   1      41.380  32.047  36.292  1.00  0.00     0.000 A 
ENDBRANCH  69  82
ENDBRANCH  43  44
ENDBRANCH  36  38
ENDBRANCH  35  36
ENDBRANCH  34  35
ENDBRANCH  33  34
ENDBRANCH  32  33
ENDBRANCH  31  32
ENDBRANCH   1  31
TORSDOF 19
ENDMDL
MODEL 2
REMARK VINA RESULT:     -11.3      4.188      9.085
REMARK SMILES CC(C)OC(=O)c1c(NC(=O)[C@H]2[C@@H](C(=O)OCCOCCOC(=O)c3ccc(-c4c5nc(c(-c6ccccc6)c6ccc([nH]6)c(-c6ccccc6)c6nc(c(-c7ccccc7)c7ccc4[nH]7)C=C6)C=C5)cc3)[C@@H]3C=C[C@H]2CC3)sc2c1CCC2
REMARK SMILES IDX 17 1 16 2 14 3 15 4 13 5 12 6 76 7 73 8 75 9 77 10 74 11
REMARK SMILES IDX 78 12 10 13 9 14 11 16 8 17 7 18 81 19 79 20 80 21 82 22
REMARK SMILES IDX 84 23 83 24 5 25 6 26 4 27 2 28 1 29 3 30 18 31 19 32 20 33
REMARK SMILES IDX 21 34 22 35 23 36 24 37 25 38 26 39 72 40 27 41 71 42 28 43
REMARK SMILES IDX 29 44 30 45 65 46 31 47 70 48 64 49 66 50 32 51 69 52 63 53
REMARK SMILES IDX 62 54 33 56 55 57 40 58 54 59 41 60 44 61 53 62 67 63 42 64
REMARK SMILES IDX 43 65 52 67 68 68 45 69 34 70 35 71 39 72 36 73 38 74 37 75
REMARK SMILES IDX 56 76 57 77 61 78 58 79 60 80 59 81 46 82 47 83 51 84 48 85
REMARK SMILES IDX 50 86 49 87
REMARK H PARENT 9 15 66 55 44 66
REMARK Flexibility Score: inf
ROOT
ATOM      1  C   UNL A   1      38.564  21.489  25.744  1.00  0.00     0.261 C 
ENDROOT
BRANCH   1   2
ATOM      2  O   UNL A   1      37.371  20.960  25.156  1.00  0.00    -0.463 OA
BRANCH   2   3
ATOM      3  C   UNL A   1      36.261  21.711  25.398  1.00  0.00     0.310 C 
ATOM      4  O   UNL A   1      36.235  22.715  26.099  1.00  0.00    -0.252 OA
BRANCH   3   5
ATOM      5  C   UNL A   1      35.040  21.101  24.721  1.00  0.00     0.119 C 
ATOM      6  C   UNL A   1      34.159  22.165  23.967  1.00  0.00     0.100 C 
ATOM      7  C   UNL A   1      32.937  22.459  24.899  1.00  0.00     0.025 C 
ATOM      8  C   UNL A   1      34.185  20.376  25.804  1.00  0.00     0.026 C 
ATOM      9  C   UNL A   1      32.129  21.166  24.830  1.00  0.00    -0.027 C 
ATOM     10  C   UNL A   1      33.334  22.661  26.381  1.00  0.00     0.009 C 
ATOM     11  C   UNL A   1      32.805  20.075  25.236  1.00  0.00    -0.027 C 
ATOM     12  C   UNL A   1      33.917  21.357  26.968  1.00  0.00     0.009 C 
BRANCH   6  13
ATOM     13  C   UNL A   1      34.943  23.322  23.316  1.00  0.00     0.229 C 
ATOM     14  N   UNL A   1      34.533  24.614  23.266  1.00  0.00    -0.317 N 
ATOM     15  H   UNL A   1      35.229  25.249  22.981  1.00  0.00     0.170 HD
ATOM     16  O   UNL A   1      35.988  23.100  22.696  1.00  0.00    -0.274 OA
BRANCH  14  17
ATOM     17  C   UNL A   1      33.322  25.193  23.542  1.00  0.00     0.110 A 
ATOM     18  C   UNL A   1      32.978  25.894  24.698  1.00  0.00     0.098 A 
ATOM     19  C   UNL A   1      31.560  26.032  24.713  1.00  0.00    -0.017 A 
ATOM     20  S   UNL A   1      32.092  25.244  22.352  1.00  0.00    -0.122 S 
ATOM     21  C   UNL A   1      30.988  25.610  23.541  1.00  0.00     0.011 A 
ATOM     22  C   UNL A   1      30.510  26.501  25.650  1.00  0.00     0.038 C 
ATOM     23  C   UNL A   1      29.515  25.597  23.522  1.00  0.00     0.047 C 
ATOM     24  C   UNL A   1      29.205  25.910  25.015  1.00  0.00     0.010 C 
BRANCH  18  25
ATOM     25  C   UNL A   1      33.983  26.272  25.689  1.00  0.00     0.341 C 
ATOM     26  O   UNL A   1      35.033  25.655  25.798  1.00  0.00    -0.246 OA
BRANCH  25  27
ATOM     27  O   UNL A   1      33.636  27.348  26.450  1.00  0.00    -0.459 OA
BRANCH  27  28
ATOM     28  C   UNL A   1      34.044  28.672  26.022  1.00  0.00     0.170 C 
ATOM     29  C   UNL A   1      33.139  29.321  24.971  1.00  0.00     0.052 C 
ATOM     30  C   UNL A   1      34.274  29.574  27.230  1.00  0.00     0.052 C 
ENDBRANCH  27  28
ENDBRANCH  25  27
ENDBRANCH  18  25
ENDBRANCH  14  17
ENDBRANCH   6  13
ENDBRANCH   3   5
ENDBRANCH   2   3
ENDBRANCH   1   2
BRANCH   1  31
ATOM     31  C   UNL A   1      39.631  20.418  25.977  1.00  0.00     0.202 C 
BRANCH  31  32
ATOM     32  O   UNL A   1      40.489  20.487  27.115  1.00  0.00    -0.374 OA
BRANCH  32  33
ATOM     33  C   UNL A   1      41.902  20.573  26.972  1.00  0.00     0.202 C 
BRANCH  33  34
ATOM     34  C   UNL A   1      42.649  19.465  26.249  1.00  0.00     0.261 C 
BRANCH  34  35
ATOM     35  O   UNL A   1      42.931  19.829  24.909  1.00  0.00    -0.460 OA
BRANCH  35  36
ATOM     36  C   UNL A   1      44.252  19.820  24.635  1.00  0.00     0.338 C 
ATOM     37  O   UNL A   1      44.983  18.852  24.526  1.00  0.00    -0.246 OA
BRANCH  36  38
ATOM     38  C   UNL A   1      44.744  21.201  24.639  1.00  0.00     0.060 A 
ATOM     39  C   UNL A   1      45.729  21.449  25.594  1.00  0.00     0.016 A 
ATOM     40  C   UNL A   1      43.921  22.206  24.115  1.00  0.00     0.016 A 
ATOM     41  C   UNL A   1      45.645  22.628  26.285  1.00  0.00     0.010 A 
ATOM     42  C   UNL A   1      43.829  23.378  24.816  1.00  0.00     0.010 A 
ATOM     43  C   UNL A   1      44.613  23.514  25.958  1.00  0.00    -0.014 A 
BRANCH  43  44
ATOM     44  C   UNL A   1      44.446  24.672  26.797  1.00  0.00     0.031 A 
ATOM     45  C   UNL A   1      45.594  25.588  26.669  1.00  0.00     0.074 A 
ATOM     46  C   UNL A   1      43.340  24.890  27.527  1.00  0.00     0.049 A 
ATOM     47  N   UNL A   1      46.538  25.775  27.526  1.00  0.00    -0.248 NA
ATOM     48  C   UNL A   1      45.851  26.167  25.339  1.00  0.00     0.031 C 
ATOM     49  C   UNL A   1      42.064  24.172  27.501  1.00  0.00     0.029 A 
ATOM     50  N   UNL A   1      43.096  25.906  28.391  1.00  0.00    -0.354 N 
ATOM     51  C   UNL A   1      47.399  26.680  26.921  1.00  0.00     0.074 A 
ATOM     52  C   UNL A   1      47.065  26.683  25.521  1.00  0.00     0.031 C 
ATOM     53  C   UNL A   1      41.118  24.930  28.107  1.00  0.00     0.029 A 
ATOM     54  C   UNL A   1      41.752  26.111  28.670  1.00  0.00     0.049 A 
ATOM     55  H   UNL A   1      43.811  26.452  28.788  1.00  0.00     0.167 HD
ATOM     56  C   UNL A   1      48.075  27.594  27.664  1.00  0.00     0.031 A 
ATOM     57  C   UNL A   1      41.221  27.222  29.242  1.00  0.00     0.031 A 
ATOM     58  C   UNL A   1      48.098  27.225  29.059  1.00  0.00     0.049 A 
ATOM     59  C   UNL A   1      42.330  27.955  29.905  1.00  0.00     0.074 A 
ATOM     60  C   UNL A   1      48.579  26.146  29.773  1.00  0.00     0.029 A 
ATOM     61  N   UNL A   1      47.189  27.854  29.877  1.00  0.00    -0.354 N 
ATOM     62  N   UNL A   1      42.958  27.504  30.952  1.00  0.00    -0.248 NA
ATOM     63  C   UNL A   1      43.060  28.941  29.120  1.00  0.00     0.031 C 
ATOM     64  C   UNL A   1      47.612  25.921  30.798  1.00  0.00     0.029 A 
ATOM     65  C   UNL A   1      46.633  26.912  30.701  1.00  0.00     0.049 A 
ATOM     66  H   UNL A   1      46.977  28.815  29.873  1.00  0.00     0.167 HD
ATOM     67  C   UNL A   1      44.296  27.788  30.712  1.00  0.00     0.074 A 
ATOM     68  C   UNL A   1      44.288  28.756  29.616  1.00  0.00     0.031 C 
ATOM     69  C   UNL A   1      45.284  26.990  31.216  1.00  0.00     0.031 A 
BRANCH  56  70
ATOM     70  C   UNL A   1      48.247  29.026  27.212  1.00  0.00    -0.014 A 
ATOM     71  C   UNL A   1      49.526  29.598  27.310  1.00  0.00     0.009 A 
ATOM     72  C   UNL A   1      47.174  29.913  26.991  1.00  0.00     0.009 A 
ATOM     73  C   UNL A   1      49.703  30.985  27.296  1.00  0.00     0.001 A 
ATOM     74  C   UNL A   1      47.352  31.296  26.934  1.00  0.00     0.001 A 
ATOM     75  C   UNL A   1      48.614  31.834  27.122  1.00  0.00     0.000 A 
ENDBRANCH  56  70
BRANCH  57  76
ATOM     76  C   UNL A   1      39.914  27.863  28.969  1.00  0.00    -0.014 A 
ATOM     77  C   UNL A   1      38.958  28.015  29.987  1.00  0.00     0.009 A 
ATOM     78  C   UNL A   1      39.711  28.577  27.773  1.00  0.00     0.009 A 
ATOM     79  C   UNL A   1      37.862  28.875  29.825  1.00  0.00     0.001 A 
ATOM     80  C   UNL A   1      38.616  29.434  27.611  1.00  0.00     0.001 A 
ATOM     81  C   UNL A   1      37.699  29.595  28.644  1.00  0.00     0.000 A 
ENDBRANCH  57  76
BRANCH  69  82
ATOM     82  C   UNL A   1      44.895  25.938  32.226  1.00  0.00    -0.014 A 
ATOM     83  C   UNL A   1      44.624  26.225  33.577  1.00  0.00     0.009 A 
ATOM     84  C   UNL A   1      44.639  24.642  31.757  1.00  0.00     0.009 A 
ATOM     85  C   UNL A   1      44.135  25.233  34.434  1.00  0.00     0.001 A 
ATOM     86  C   UNL A   1      44.133  23.658  32.608  1.00  0.00     0.001 A 
ATOM     87  C   UNL A   1      43.885  23.951  33.947  1.00  0.00     0.000 A 
ENDBRANCH  69  82
ENDBRANCH  43  44
ENDBRANCH  36  38
ENDBRANCH  35  36
ENDBRANCH  34  35
ENDBRANCH  33  34
ENDBRANCH  32  33
ENDBRANCH  31  32
ENDBRANCH   1  31
TORSDOF 19
ENDMDL
MODEL 3
REMARK VINA RESULT:     -11.2      3.355      8.538
REMARK SMILES CC(C)OC(=O)c1c(NC(=O)[C@H]2[C@@H](C(=O)OCCOCCOC(=O)c3ccc(-c4c5nc(c(-c6ccccc6)c6ccc([nH]6)c(-c6ccccc6)c6nc(c(-c7ccccc7)c7ccc4[nH]7)C=C6)C=C5)cc3)[C@@H]3C=C[C@H]2CC3)sc2c1CCC2
REMARK SMILES IDX 17 1 16 2 14 3 15 4 13 5 12 6 76 7 73 8 75 9 77 10 74 11
REMARK SMILES IDX 78 12 10 13 9 14 11 16 8 17 7 18 81 19 79 20 80 21 82 22
REMARK SMILES IDX 84 23 83 24 5 25 6 26 4 27 2 28 1 29 3 30 18 31 19 32 20 33
REMARK SMILES IDX 21 34 22 35 23 36 24 37 25 38 26 39 72 40 27 41 71 42 28 43
REMARK SMILES IDX 29 44 30 45 65 46 31 47 70 48 64 49 66 50 32 51 69 52 63 53
REMARK SMILES IDX 62 54 33 56 55 57 40 58 54 59 41 60 44 61 53 62 67 63 42 64
REMARK SMILES IDX 43 65 52 67 68 68 45 69 34 70 35 71 39 72 36 73 38 74 37 75
REMARK SMILES IDX 56 76 57 77 61 78 58 79 60 80 59 81 46 82 47 83 51 84 48 85
REMARK SMILES IDX 50 86 49 87
REMARK H PARENT 9 15 66 55 44 66
REMARK Flexibility Score: inf
ROOT
ATOM      1  C   UNL A   1      36.443  24.423  25.753  1.00  0.00     0.261 C 
ENDROOT
BRANCH   1   2
ATOM      2  O   UNL A   1      35.180  24.705  25.142  1.00  0.00    -0.463 OA
BRANCH   2   3
ATOM      3  C   UNL A   1      34.149  23.976  25.652  1.00  0.00     0.310 C 
ATOM      4  O   UNL A   1      34.060  23.612  26.818  1.00  0.00    -0.252 OA
BRANCH   3   5
ATOM      5  C   UNL A   1      33.147  23.625  24.560  1.00  0.00     0.119 C 
ATOM      6  C   UNL A   1      31.729  23.242  25.128  1.00  0.00     0.100 C 
ATOM      7  C   UNL A   1      31.648  21.680  25.080  1.00  0.00     0.025 C 
ATOM      8  C   UNL A   1      33.720  22.443  23.723  1.00  0.00     0.026 C 
ATOM      9  C   UNL A   1      31.562  21.383  23.585  1.00  0.00    -0.027 C 
ATOM     10  C   UNL A   1      32.930  20.985  25.601  1.00  0.00     0.009 C 
ATOM     11  C   UNL A   1      32.608  21.842  22.874  1.00  0.00    -0.027 C 
ATOM     12  C   UNL A   1      34.129  21.303  24.683  1.00  0.00     0.009 C 
BRANCH   6  13
ATOM     13  C   UNL A   1      31.301  24.009  26.395  1.00  0.00     0.229 C 
ATOM     14  N   UNL A   1      30.761  25.253  26.411  1.00  0.00    -0.317 N 
ATOM     15  H   UNL A   1      30.379  25.517  27.279  1.00  0.00     0.170 HD
ATOM     16  O   UNL A   1      31.527  23.542  27.516  1.00  0.00    -0.274 OA
BRANCH  14  17
ATOM     17  C   UNL A   1      30.652  26.207  25.434  1.00  0.00     0.110 A 
ATOM     18  C   UNL A   1      31.280  27.452  25.412  1.00  0.00     0.098 A 
ATOM     19  C   UNL A   1      30.646  28.238  24.407  1.00  0.00    -0.017 A 
ATOM     20  S   UNL A   1      29.804  25.874  23.985  1.00  0.00    -0.122 S 
ATOM     21  C   UNL A   1      29.760  27.505  23.662  1.00  0.00     0.011 A 
ATOM     22  C   UNL A   1      30.665  29.644  23.934  1.00  0.00     0.038 C 
ATOM     23  C   UNL A   1      28.965  28.271  22.686  1.00  0.00     0.047 C 
ATOM     24  C   UNL A   1      29.359  29.727  23.072  1.00  0.00     0.010 C 
BRANCH  18  25
ATOM     25  C   UNL A   1      32.324  27.798  26.375  1.00  0.00     0.341 C 
ATOM     26  O   UNL A   1      33.343  27.128  26.477  1.00  0.00    -0.246 OA
BRANCH  25  27
ATOM     27  O   UNL A   1      32.049  28.905  27.120  1.00  0.00    -0.459 OA
BRANCH  27  28
ATOM     28  C   UNL A   1      32.669  30.165  26.760  1.00  0.00     0.170 C 
ATOM     29  C   UNL A   1      31.742  31.382  26.811  1.00  0.00     0.052 C 
ATOM     30  C   UNL A   1      33.951  30.374  27.559  1.00  0.00     0.052 C 
ENDBRANCH  27  28
ENDBRANCH  25  27
ENDBRANCH  18  25
ENDBRANCH  14  17
ENDBRANCH   6  13
ENDBRANCH   3   5
ENDBRANCH   2   3
ENDBRANCH   1   2
BRANCH   1  31
ATOM     31  C   UNL A   1      37.194  23.286  25.056  1.00  0.00     0.202 C 
BRANCH  31  32
ATOM     32  O   UNL A   1      37.357  22.024  25.703  1.00  0.00    -0.374 OA
BRANCH  32  33
ATOM     33  C   UNL A   1      37.572  20.833  24.955  1.00  0.00     0.202 C 
BRANCH  33  34
ATOM     34  C   UNL A   1      38.774  19.959  25.269  1.00  0.00     0.261 C 
BRANCH  34  35
ATOM     35  O   UNL A   1      39.811  20.713  25.872  1.00  0.00    -0.460 OA
BRANCH  35  36
ATOM     36  C   UNL A   1      40.988  20.055  25.891  1.00  0.00     0.338 C 
ATOM     37  O   UNL A   1      41.182  18.871  25.685  1.00  0.00    -0.246 OA
BRANCH  36  38
ATOM     38  C   UNL A   1      42.031  20.968  26.366  1.00  0.00     0.060 A 
ATOM     39  C   UNL A   1      42.340  20.822  27.718  1.00  0.00     0.016 A 
ATOM     40  C   UNL A   1      42.252  22.158  25.659  1.00  0.00     0.016 A 
ATOM     41  C   UNL A   1      42.530  21.968  28.443  1.00  0.00     0.010 A 
ATOM     42  C   UNL A   1      42.428  23.303  26.387  1.00  0.00     0.010 A 
ATOM     43  C   UNL A   1      42.445  23.193  27.775  1.00  0.00    -0.014 A 
BRANCH  43  44
ATOM     44  C   UNL A   1      42.491  24.388  28.578  1.00  0.00     0.031 A 
ATOM     45  C   UNL A   1      41.390  25.303  28.228  1.00  0.00     0.074 A 
ATOM     46  C   UNL A   1      43.390  24.572  29.560  1.00  0.00     0.049 A 
ATOM     47  N   UNL A   1      41.476  26.401  27.558  1.00  0.00    -0.248 NA
ATOM     48  C   UNL A   1      40.015  24.814  28.428  1.00  0.00     0.031 C 
ATOM     49  C   UNL A   1      44.331  23.611  30.138  1.00  0.00     0.029 A 
ATOM     50  N   UNL A   1      43.565  25.670  30.336  1.00  0.00    -0.354 N 
ATOM     51  C   UNL A   1      40.170  26.857  27.447  1.00  0.00     0.074 A 
ATOM     52  C   UNL A   1      39.322  25.740  27.770  1.00  0.00     0.031 C 
ATOM     53  C   UNL A   1      44.777  24.090  31.325  1.00  0.00     0.029 A 
ATOM     54  C   UNL A   1      44.255  25.434  31.516  1.00  0.00     0.049 A 
ATOM     55  H   UNL A   1      43.231  26.560  30.084  1.00  0.00     0.167 HD
ATOM     56  C   UNL A   1      39.902  28.190  27.436  1.00  0.00     0.031 A 
ATOM     57  C   UNL A   1      44.300  26.264  32.589  1.00  0.00     0.031 A 
ATOM     58  C   UNL A   1      41.084  28.961  27.139  1.00  0.00     0.049 A 
ATOM     59  C   UNL A   1      43.878  27.611  32.128  1.00  0.00     0.074 A 
ATOM     60  C   UNL A   1      41.960  29.031  26.074  1.00  0.00     0.029 A 
ATOM     61  N   UNL A   1      41.735  29.529  28.210  1.00  0.00    -0.354 N 
ATOM     62  N   UNL A   1      44.586  28.340  31.314  1.00  0.00    -0.248 NA
ATOM     63  C   UNL A   1      42.459  27.935  32.178  1.00  0.00     0.031 C 
ATOM     64  C   UNL A   1      43.245  29.221  26.665  1.00  0.00     0.029 A 
ATOM     65  C   UNL A   1      43.079  29.329  28.048  1.00  0.00     0.049 A 
ATOM     66  H   UNL A   1      41.307  29.998  28.962  1.00  0.00     0.167 HD
ATOM     67  C   UNL A   1      43.662  28.887  30.434  1.00  0.00     0.074 A 
ATOM     68  C   UNL A   1      42.362  28.680  31.071  1.00  0.00     0.031 C 
ATOM     69  C   UNL A   1      44.009  29.181  29.145  1.00  0.00     0.031 A 
BRANCH  56  70
ATOM     70  C   UNL A   1      38.730  28.777  28.186  1.00  0.00    -0.014 A 
ATOM     71  C   UNL A   1      38.116  29.923  27.654  1.00  0.00     0.009 A 
ATOM     72  C   UNL A   1      38.406  28.449  29.518  1.00  0.00     0.009 A 
ATOM     73  C   UNL A   1      37.312  30.749  28.446  1.00  0.00     0.001 A 
ATOM     74  C   UNL A   1      37.569  29.248  30.300  1.00  0.00     0.001 A 
ATOM     75  C   UNL A   1      37.051  30.418  29.773  1.00  0.00     0.000 A 
ENDBRANCH  56  70
BRANCH  57  76
ATOM     76  C   UNL A   1      44.345  25.909  34.026  1.00  0.00    -0.014 A 
ATOM     77  C   UNL A   1      43.245  25.301  34.654  1.00  0.00     0.009 A 
ATOM     78  C   UNL A   1      45.570  25.910  34.720  1.00  0.00     0.009 A 
ATOM     79  C   UNL A   1      43.377  24.690  35.910  1.00  0.00     0.001 A 
ATOM     80  C   UNL A   1      45.701  25.302  35.974  1.00  0.00     0.001 A 
ATOM     81  C   UNL A   1      44.607  24.679  36.562  1.00  0.00     0.000 A 
ENDBRANCH  57  76
BRANCH  69  82
ATOM     82  C   UNL A   1      45.471  29.117  28.776  1.00  0.00    -0.014 A 
ATOM     83  C   UNL A   1      46.341  30.219  28.864  1.00  0.00     0.009 A 
ATOM     84  C   UNL A   1      46.018  27.859  28.484  1.00  0.00     0.009 A 
ATOM     85  C   UNL A   1      47.714  30.066  28.640  1.00  0.00     0.001 A 
ATOM     86  C   UNL A   1      47.390  27.704  28.281  1.00  0.00     0.001 A 
ATOM     87  C   UNL A   1      48.238  28.807  28.354  1.00  0.00     0.000 A 
ENDBRANCH  69  82
ENDBRANCH  43  44
ENDBRANCH  36  38
ENDBRANCH  35  36
ENDBRANCH  34  35
ENDBRANCH  33  34
ENDBRANCH  32  33
ENDBRANCH  31  32
ENDBRANCH   1  31
TORSDOF 19
ENDMDL
