MODEL 1
REMARK VINA RESULT:     -10.0      0.000      0.000
REMARK SMILES CCOc1cc(OCC)cc(-c2ccc([C@@H](C)C(=O)OCCOCCOC(=O)c3ccc(-c4c5nc(c(-c6ccccc6)c6ccc([nH]6)c(-c6ccccc6)c6nc(c(-c7ccccc7)c7ccc4[nH]7)C=C6)C=C5)cc3)cc2F)c1
REMARK SMILES IDX 22 1 21 2 20 3 18 4 19 5 16 6 17 7 15 8 12 9 13 10 78 11
REMARK SMILES IDX 14 12 77 13 79 14 11 15 4 16 5 17 80 18 6 19 10 20 3 21 2 22
REMARK SMILES IDX 1 23 7 24 8 25 9 26 23 27 24 28 25 29 26 30 27 31 28 32
REMARK SMILES IDX 29 33 30 34 76 35 31 36 75 37 32 38 33 39 34 40 69 41 35 42
REMARK SMILES IDX 74 43 68 44 70 45 36 46 73 47 67 48 66 49 37 51 59 52 44 53
REMARK SMILES IDX 58 54 45 55 48 56 57 57 71 58 46 59 47 60 56 62 72 63 49 64
REMARK SMILES IDX 38 65 39 66 43 67 40 68 42 69 41 70 60 71 61 72 65 73 62 74
REMARK SMILES IDX 64 75 63 76 50 77 51 78 55 79 52 80 54 81 53 82
REMARK H PARENT 70 50 48 61
REMARK Flexibility Score: inf
ROOT
ATOM      1  C   UNL A   1      43.695  18.620  25.199  1.00  0.00     0.202 C 
ENDROOT
BRANCH   1   2
ATOM      2  C   UNL A   1      42.627  18.968  26.238  1.00  0.00     0.261 C 
BRANCH   2   3
ATOM      3  O   UNL A   1      42.114  20.298  26.031  1.00  0.00    -0.463 OA
BRANCH   3   4
ATOM      4  C   UNL A   1      41.194  20.728  26.933  1.00  0.00     0.313 C 
ATOM      5  O   UNL A   1      40.876  20.114  27.946  1.00  0.00    -0.252 OA
BRANCH   4   6
ATOM      6  C   UNL A   1      40.534  22.045  26.552  1.00  0.00     0.126 C 
ATOM      7  C   UNL A   1      40.573  22.995  27.747  1.00  0.00     0.025 C 
BRANCH   6   8
ATOM      8  C   UNL A   1      39.145  21.984  25.925  1.00  0.00    -0.031 A 
ATOM      9  C   UNL A   1      36.453  21.870  24.991  1.00  0.00     0.018 A 
ATOM     10  C   UNL A   1      37.325  20.780  24.835  1.00  0.00     0.012 A 
ATOM     11  C   UNL A   1      36.975  23.030  25.574  1.00  0.00     0.131 A 
ATOM     12  C   UNL A   1      38.649  20.833  25.298  1.00  0.00     0.005 A 
ATOM     13  C   UNL A   1      38.291  23.093  26.033  1.00  0.00     0.044 A 
ATOM     14  F   UNL A   1      36.199  24.111  25.746  1.00  0.00    -0.206 F 
BRANCH   9  15
ATOM     15  C   UNL A   1      35.035  21.764  24.606  1.00  0.00    -0.008 A 
ATOM     16  C   UNL A   1      32.893  20.617  24.656  1.00  0.00     0.123 A 
ATOM     17  C   UNL A   1      32.343  21.578  23.810  1.00  0.00     0.092 A 
ATOM     18  C   UNL A   1      34.234  20.696  25.032  1.00  0.00     0.055 A 
ATOM     19  C   UNL A   1      33.126  22.634  23.346  1.00  0.00     0.123 A 
ATOM     20  C   UNL A   1      34.459  22.726  23.755  1.00  0.00     0.055 A 
BRANCH  16  21
ATOM     21  O   UNL A   1      32.126  19.532  24.982  1.00  0.00    -0.494 OA
BRANCH  21  22
ATOM     22  C   UNL A   1      32.845  18.505  25.675  1.00  0.00     0.226 C 
ATOM     23  C   UNL A   1      32.421  17.116  25.224  1.00  0.00     0.049 C 
ENDBRANCH  21  22
ENDBRANCH  16  21
BRANCH  19  24
ATOM     24  O   UNL A   1      32.491  23.520  22.518  1.00  0.00    -0.494 OA
BRANCH  24  25
ATOM     25  C   UNL A   1      32.374  24.876  22.958  1.00  0.00     0.226 C 
ATOM     26  C   UNL A   1      33.371  25.770  22.238  1.00  0.00     0.049 C 
ENDBRANCH  24  25
ENDBRANCH  19  24
ENDBRANCH   9  15
ENDBRANCH   6   8
ENDBRANCH   4   6
ENDBRANCH   3   4
ENDBRANCH   2   3
ENDBRANCH   1   2
BRANCH   1  27
ATOM     27  O   UNL A   1      44.935  18.141  25.717  1.00  0.00    -0.374 OA
BRANCH  27  28
ATOM     28  C   UNL A   1      46.074  18.990  25.567  1.00  0.00     0.202 C 
BRANCH  28  29
ATOM     29  C   UNL A   1      45.922  20.158  24.586  1.00  0.00     0.261 C 
BRANCH  29  30
ATOM     30  O   UNL A   1      45.656  21.402  25.261  1.00  0.00    -0.460 OA
BRANCH  30  31
ATOM     31  C   UNL A   1      44.760  22.207  24.646  1.00  0.00     0.338 C 
ATOM     32  O   UNL A   1      44.144  21.986  23.611  1.00  0.00    -0.246 OA
BRANCH  31  33
ATOM     33  C   UNL A   1      44.463  23.370  25.500  1.00  0.00     0.060 A 
ATOM     34  C   UNL A   1      44.413  24.629  24.887  1.00  0.00     0.016 A 
ATOM     35  C   UNL A   1      44.297  23.246  26.881  1.00  0.00     0.016 A 
ATOM     36  C   UNL A   1      44.221  25.775  25.658  1.00  0.00     0.010 A 
ATOM     37  C   UNL A   1      44.117  24.400  27.654  1.00  0.00     0.010 A 
ATOM     38  C   UNL A   1      44.100  25.670  27.050  1.00  0.00    -0.014 A 
BRANCH  38  39
ATOM     39  C   UNL A   1      44.041  26.900  27.877  1.00  0.00     0.031 A 
ATOM     40  C   UNL A   1      42.710  27.541  28.160  1.00  0.00     0.074 A 
ATOM     41  C   UNL A   1      45.164  27.431  28.390  1.00  0.00     0.049 A 
ATOM     42  N   UNL A   1      42.446  28.632  28.835  1.00  0.00    -0.248 NA
ATOM     43  C   UNL A   1      41.523  26.866  27.613  1.00  0.00     0.031 C 
ATOM     44  C   UNL A   1      46.510  26.882  28.228  1.00  0.00     0.029 A 
ATOM     45  N   UNL A   1      45.350  28.559  29.150  1.00  0.00    -0.354 N 
ATOM     46  C   UNL A   1      41.064  28.776  28.791  1.00  0.00     0.074 A 
ATOM     47  C   UNL A   1      40.549  27.675  28.004  1.00  0.00     0.031 C 
ATOM     48  C   UNL A   1      47.386  27.681  28.860  1.00  0.00     0.029 A 
ATOM     49  C   UNL A   1      46.667  28.814  29.442  1.00  0.00     0.049 A 
ATOM     50  H   UNL A   1      44.609  29.131  29.457  1.00  0.00     0.167 HD
ATOM     51  C   UNL A   1      40.295  29.737  29.355  1.00  0.00     0.031 A 
ATOM     52  C   UNL A   1      47.233  29.855  30.082  1.00  0.00     0.031 A 
ATOM     53  C   UNL A   1      40.804  30.840  30.126  1.00  0.00     0.049 A 
ATOM     54  C   UNL A   1      46.363  30.956  30.623  1.00  0.00     0.074 A 
ATOM     55  C   UNL A   1      40.096  31.847  30.760  1.00  0.00     0.029 A 
ATOM     56  N   UNL A   1      42.146  31.090  30.354  1.00  0.00    -0.354 N 
ATOM     57  N   UNL A   1      45.056  31.061  30.604  1.00  0.00    -0.248 NA
ATOM     58  C   UNL A   1      47.047  32.081  31.275  1.00  0.00     0.031 C 
ATOM     59  C   UNL A   1      41.015  32.739  31.322  1.00  0.00     0.029 A 
ATOM     60  C   UNL A   1      42.292  32.256  31.086  1.00  0.00     0.049 A 
ATOM     61  H   UNL A   1      42.888  30.522  30.042  1.00  0.00     0.167 HD
ATOM     62  C   UNL A   1      44.762  32.252  31.255  1.00  0.00     0.074 A 
ATOM     63  C   UNL A   1      46.024  32.825  31.675  1.00  0.00     0.031 C 
ATOM     64  C   UNL A   1      43.554  32.822  31.487  1.00  0.00     0.031 A 
BRANCH  51  65
ATOM     65  C   UNL A   1      38.811  29.657  29.130  1.00  0.00    -0.014 A 
ATOM     66  C   UNL A   1      37.933  29.316  30.170  1.00  0.00     0.009 A 
ATOM     67  C   UNL A   1      38.282  29.979  27.870  1.00  0.00     0.009 A 
ATOM     68  C   UNL A   1      36.554  29.272  29.943  1.00  0.00     0.001 A 
ATOM     69  C   UNL A   1      36.904  29.957  27.654  1.00  0.00     0.001 A 
ATOM     70  C   UNL A   1      36.042  29.597  28.688  1.00  0.00     0.000 A 
ENDBRANCH  51  65
BRANCH  52  71
ATOM     71  C   UNL A   1      48.712  29.930  30.215  1.00  0.00    -0.014 A 
ATOM     72  C   UNL A   1      49.365  29.344  31.308  1.00  0.00     0.009 A 
ATOM     73  C   UNL A   1      49.473  30.613  29.254  1.00  0.00     0.009 A 
ATOM     74  C   UNL A   1      50.751  29.462  31.450  1.00  0.00     0.001 A 
ATOM     75  C   UNL A   1      50.860  30.705  29.382  1.00  0.00     0.001 A 
ATOM     76  C   UNL A   1      51.497  30.137  30.484  1.00  0.00     0.000 A 
ENDBRANCH  52  71
BRANCH  64  77
ATOM     77  C   UNL A   1      43.538  34.123  32.237  1.00  0.00    -0.014 A 
ATOM     78  C   UNL A   1      43.616  35.351  31.564  1.00  0.00     0.009 A 
ATOM     79  C   UNL A   1      43.405  34.122  33.635  1.00  0.00     0.009 A 
ATOM     80  C   UNL A   1      43.592  36.552  32.278  1.00  0.00     0.001 A 
ATOM     81  C   UNL A   1      43.352  35.322  34.344  1.00  0.00     0.001 A 
ATOM     82  C   UNL A   1      43.456  36.536  33.666  1.00  0.00     0.000 A 
ENDBRANCH  64  77
ENDBRANCH  38  39
ENDBRANCH  31  33
ENDBRANCH  30  31
ENDBRANCH  29  30
ENDBRANCH  28  29
ENDBRANCH  27  28
ENDBRANCH   1  27
TORSDOF 20
ENDMDL
MODEL 2
REMARK VINA RESULT:      -9.7      0.988      2.495
REMARK SMILES CCOc1cc(OCC)cc(-c2ccc([C@@H](C)C(=O)OCCOCCOC(=O)c3ccc(-c4c5nc(c(-c6ccccc6)c6ccc([nH]6)c(-c6ccccc6)c6nc(c(-c7ccccc7)c7ccc4[nH]7)C=C6)C=C5)cc3)cc2F)c1
REMARK SMILES IDX 22 1 21 2 20 3 18 4 19 5 16 6 17 7 15 8 12 9 13 10 78 11
REMARK SMILES IDX 14 12 77 13 79 14 11 15 4 16 5 17 80 18 6 19 10 20 3 21 2 22
REMARK SMILES IDX 1 23 7 24 8 25 9 26 23 27 24 28 25 29 26 30 27 31 28 32
REMARK SMILES IDX 29 33 30 34 76 35 31 36 75 37 32 38 33 39 34 40 69 41 35 42
REMARK SMILES IDX 74 43 68 44 70 45 36 46 73 47 67 48 66 49 37 51 59 52 44 53
REMARK SMILES IDX 58 54 45 55 48 56 57 57 71 58 46 59 47 60 56 62 72 63 49 64
REMARK SMILES IDX 38 65 39 66 43 67 40 68 42 69 41 70 60 71 61 72 65 73 62 74
REMARK SMILES IDX 64 75 63 76 50 77 51 78 55 79 52 80 54 81 53 82
REMARK H PARENT 70 50 48 61
REMARK Flexibility Score: inf
ROOT
ATOM      1  C   UNL A   1      43.085  18.837  25.311  1.00  0.00     0.202 C 
ENDROOT
BRANCH   1   2
ATOM      2  C   UNL A   1      42.116  19.413  26.346  1.00  0.00     0.261 C 
BRANCH   2   3
ATOM      3  O   UNL A   1      41.857  20.807  26.097  1.00  0.00    -0.463 OA
BRANCH   3   4
ATOM      4  C   UNL A   1      41.077  21.440  27.011  1.00  0.00     0.313 C 
ATOM      5  O   UNL A   1      40.937  21.077  28.175  1.00  0.00    -0.252 OA
BRANCH   4   6
ATOM      6  C   UNL A   1      40.329  22.641  26.451  1.00  0.00     0.126 C 
ATOM      7  C   UNL A   1      40.526  23.838  27.378  1.00  0.00     0.025 C 
BRANCH   6   8
ATOM      8  C   UNL A   1      38.862  22.450  26.081  1.00  0.00    -0.031 A 
ATOM      9  C   UNL A   1      36.196  22.071  25.143  1.00  0.00     0.018 A 
ATOM     10  C   UNL A   1      36.621  23.310  25.649  1.00  0.00     0.012 A 
ATOM     11  C   UNL A   1      37.118  21.019  25.167  1.00  0.00     0.131 A 
ATOM     12  C   UNL A   1      37.933  23.499  26.108  1.00  0.00     0.005 A 
ATOM     13  C   UNL A   1      38.424  21.196  25.625  1.00  0.00     0.044 A 
ATOM     14  F   UNL A   1      36.775  19.806  24.706  1.00  0.00    -0.206 F 
BRANCH   9  15
ATOM     15  C   UNL A   1      34.853  21.913  24.559  1.00  0.00    -0.008 A 
ATOM     16  C   UNL A   1      33.002  22.737  23.216  1.00  0.00     0.123 A 
ATOM     17  C   UNL A   1      32.265  21.590  23.502  1.00  0.00     0.092 A 
ATOM     18  C   UNL A   1      34.276  22.908  23.759  1.00  0.00     0.055 A 
ATOM     19  C   UNL A   1      32.803  20.598  24.321  1.00  0.00     0.123 A 
ATOM     20  C   UNL A   1      34.093  20.761  24.833  1.00  0.00     0.055 A 
BRANCH  16  21
ATOM     21  O   UNL A   1      32.388  23.739  22.516  1.00  0.00    -0.494 OA
BRANCH  21  22
ATOM     22  C   UNL A   1      33.251  24.838  22.201  1.00  0.00     0.226 C 
ATOM     23  C   UNL A   1      32.704  25.678  21.059  1.00  0.00     0.049 C 
ENDBRANCH  21  22
ENDBRANCH  16  21
BRANCH  19  24
ATOM     24  O   UNL A   1      31.996  19.514  24.542  1.00  0.00    -0.494 OA
BRANCH  24  25
ATOM     25  C   UNL A   1      32.491  18.227  24.162  1.00  0.00     0.226 C 
ATOM     26  C   UNL A   1      32.512  17.280  25.351  1.00  0.00     0.049 C 
ENDBRANCH  24  25
ENDBRANCH  19  24
ENDBRANCH   9  15
ENDBRANCH   6   8
ENDBRANCH   4   6
ENDBRANCH   3   4
ENDBRANCH   2   3
ENDBRANCH   1   2
BRANCH   1  27
ATOM     27  O   UNL A   1      44.240  18.185  25.835  1.00  0.00    -0.374 OA
BRANCH  27  28
ATOM     28  C   UNL A   1      45.497  18.839  25.650  1.00  0.00     0.202 C 
BRANCH  28  29
ATOM     29  C   UNL A   1      45.492  20.065  24.730  1.00  0.00     0.261 C 
BRANCH  29  30
ATOM     30  O   UNL A   1      45.148  21.271  25.437  1.00  0.00    -0.460 OA
BRANCH  30  31
ATOM     31  C   UNL A   1      44.599  22.245  24.675  1.00  0.00     0.338 C 
ATOM     32  O   UNL A   1      44.168  22.146  23.533  1.00  0.00    -0.246 OA
BRANCH  31  33
ATOM     33  C   UNL A   1      44.410  23.464  25.481  1.00  0.00     0.060 A 
ATOM     34  C   UNL A   1      44.015  24.629  24.811  1.00  0.00     0.016 A 
ATOM     35  C   UNL A   1      44.671  23.487  26.853  1.00  0.00     0.016 A 
ATOM     36  C   UNL A   1      43.904  25.832  25.507  1.00  0.00     0.010 A 
ATOM     37  C   UNL A   1      44.570  24.699  27.547  1.00  0.00     0.010 A 
ATOM     38  C   UNL A   1      44.208  25.880  26.874  1.00  0.00    -0.014 A 
BRANCH  38  39
ATOM     39  C   UNL A   1      44.226  27.187  27.577  1.00  0.00     0.031 A 
ATOM     40  C   UNL A   1      42.933  27.801  28.037  1.00  0.00     0.074 A 
ATOM     41  C   UNL A   1      45.391  27.812  27.820  1.00  0.00     0.049 A 
ATOM     42  N   UNL A   1      42.731  28.945  28.642  1.00  0.00    -0.248 NA
ATOM     43  C   UNL A   1      41.708  27.026  27.785  1.00  0.00     0.031 C 
ATOM     44  C   UNL A   1      46.715  27.303  27.466  1.00  0.00     0.029 A 
ATOM     45  N   UNL A   1      45.644  29.020  28.422  1.00  0.00    -0.354 N 
ATOM     46  C   UNL A   1      41.358  29.029  28.839  1.00  0.00     0.074 A 
ATOM     47  C   UNL A   1      40.775  27.833  28.269  1.00  0.00     0.031 C 
ATOM     48  C   UNL A   1      47.642  28.198  27.848  1.00  0.00     0.029 A 
ATOM     49  C   UNL A   1      46.975  29.356  28.441  1.00  0.00     0.049 A 
ATOM     50  H   UNL A   1      44.938  29.591  28.804  1.00  0.00     0.167 HD
ATOM     51  C   UNL A   1      40.648  30.012  29.441  1.00  0.00     0.031 A 
ATOM     52  C   UNL A   1      47.585  30.479  28.863  1.00  0.00     0.031 A 
ATOM     53  C   UNL A   1      41.222  31.209  29.996  1.00  0.00     0.049 A 
ATOM     54  C   UNL A   1      46.764  31.596  29.447  1.00  0.00     0.074 A 
ATOM     55  C   UNL A   1      40.582  32.248  30.651  1.00  0.00     0.029 A 
ATOM     56  N   UNL A   1      42.567  31.535  29.948  1.00  0.00    -0.354 N 
ATOM     57  N   UNL A   1      45.471  31.646  29.660  1.00  0.00    -0.248 NA
ATOM     58  C   UNL A   1      47.488  32.810  29.852  1.00  0.00     0.031 C 
ATOM     59  C   UNL A   1      41.534  33.230  30.946  1.00  0.00     0.029 A 
ATOM     60  C   UNL A   1      42.774  32.776  30.526  1.00  0.00     0.049 A 
ATOM     61  H   UNL A   1      43.272  30.967  29.561  1.00  0.00     0.167 HD
ATOM     62  C   UNL A   1      45.230  32.887  30.237  1.00  0.00     0.074 A 
ATOM     63  C   UNL A   1      46.512  33.549  30.360  1.00  0.00     0.031 C 
ATOM     64  C   UNL A   1      44.053  33.430  30.631  1.00  0.00     0.031 A 
BRANCH  51  65
ATOM     65  C   UNL A   1      39.155  29.851  29.502  1.00  0.00    -0.014 A 
ATOM     66  C   UNL A   1      38.339  30.191  28.413  1.00  0.00     0.009 A 
ATOM     67  C   UNL A   1      38.563  29.303  30.652  1.00  0.00     0.009 A 
ATOM     68  C   UNL A   1      36.955  30.009  28.483  1.00  0.00     0.001 A 
ATOM     69  C   UNL A   1      37.184  29.101  30.710  1.00  0.00     0.001 A 
ATOM     70  C   UNL A   1      36.380  29.460  29.629  1.00  0.00     0.000 A 
ENDBRANCH  51  65
BRANCH  52  71
ATOM     71  C   UNL A   1      49.057  30.627  28.714  1.00  0.00    -0.014 A 
ATOM     72  C   UNL A   1      49.613  31.132  27.530  1.00  0.00     0.009 A 
ATOM     73  C   UNL A   1      49.915  30.238  29.755  1.00  0.00     0.009 A 
ATOM     74  C   UNL A   1      50.999  31.223  27.382  1.00  0.00     0.001 A 
ATOM     75  C   UNL A   1      51.299  30.355  29.615  1.00  0.00     0.001 A 
ATOM     76  C   UNL A   1      51.840  30.839  28.427  1.00  0.00     0.000 A 
ENDBRANCH  52  71
BRANCH  64  77
ATOM     77  C   UNL A   1      44.096  34.801  31.244  1.00  0.00    -0.014 A 
ATOM     78  C   UNL A   1      43.966  35.953  30.456  1.00  0.00     0.009 A 
ATOM     79  C   UNL A   1      44.231  34.940  32.635  1.00  0.00     0.009 A 
ATOM     80  C   UNL A   1      44.001  37.220  31.044  1.00  0.00     0.001 A 
ATOM     81  C   UNL A   1      44.237  36.205  33.224  1.00  0.00     0.001 A 
ATOM     82  C   UNL A   1      44.132  37.344  32.427  1.00  0.00     0.000 A 
ENDBRANCH  64  77
ENDBRANCH  38  39
ENDBRANCH  31  33
ENDBRANCH  30  31
ENDBRANCH  29  30
ENDBRANCH  28  29
ENDBRANCH  27  28
ENDBRANCH   1  27
TORSDOF 20
ENDMDL
MODEL 3
REMARK VINA RESULT:      -9.5      3.054      7.532
REMARK SMILES CCOc1cc(OCC)cc(-c2ccc([C@@H](C)C(=O)OCCOCCOC(=O)c3ccc(-c4c5nc(c(-c6ccccc6)c6ccc([nH]6)c(-c6ccccc6)c6nc(c(-c7ccccc7)c7ccc4[nH]7)C=C6)C=C5)cc3)cc2F)c1
REMARK SMILES IDX 22 1 21 2 20 3 18 4 19 5 16 6 17 7 15 8 12 9 13 10 78 11
REMARK SMILES IDX 14 12 77 13 79 14 11 15 4 16 5 17 80 18 6 19 10 20 3 21 2 22
REMARK SMILES IDX 1 23 7 24 8 25 9 26 23 27 24 28 25 29 26 30 27 31 28 32
REMARK SMILES IDX 29 33 30 34 76 35 31 36 75 37 32 38 33 39 34 40 69 41 35 42
REMARK SMILES IDX 74 43 68 44 70 45 36 46 73 47 67 48 66 49 37 51 59 52 44 53
REMARK SMILES IDX 58 54 45 55 48 56 57 57 71 58 46 59 47 60 56 62 72 63 49 64
REMARK SMILES IDX 38 65 39 66 43 67 40 68 42 69 41 70 60 71 61 72 65 73 62 74
REMARK SMILES IDX 64 75 63 76 50 77 51 78 55 79 52 80 54 81 53 82
REMARK H PARENT 70 50 48 61
REMARK Flexibility Score: inf
ROOT
ATOM      1  C   UNL A   1      39.931  21.771  26.101  1.00  0.00     0.202 C 
ENDROOT
BRANCH   1   2
ATOM      2  C   UNL A   1      38.457  22.170  26.205  1.00  0.00     0.261 C 
BRANCH   2   3
ATOM      3  O   UNL A   1      37.702  21.663  25.089  1.00  0.00    -0.463 OA
BRANCH   3   4
ATOM      4  C   UNL A   1      36.352  21.792  25.176  1.00  0.00     0.313 C 
ATOM      5  O   UNL A   1      35.663  21.290  26.058  1.00  0.00    -0.252 OA
BRANCH   4   6
ATOM      6  C   UNL A   1      35.738  22.587  24.034  1.00  0.00     0.126 C 
ATOM      7  C   UNL A   1      36.807  22.871  22.982  1.00  0.00     0.025 C 
BRANCH   6   8
ATOM      8  C   UNL A   1      34.949  23.842  24.390  1.00  0.00    -0.031 A 
ATOM      9  C   UNL A   1      33.639  26.321  24.908  1.00  0.00     0.018 A 
ATOM     10  C   UNL A   1      34.353  25.651  25.914  1.00  0.00     0.012 A 
ATOM     11  C   UNL A   1      33.553  25.698  23.658  1.00  0.00     0.131 A 
ATOM     12  C   UNL A   1      35.002  24.432  25.660  1.00  0.00     0.005 A 
ATOM     13  C   UNL A   1      34.191  24.484  23.398  1.00  0.00     0.044 A 
ATOM     14  F   UNL A   1      32.879  26.280  22.654  1.00  0.00    -0.206 F 
BRANCH   9  15
ATOM     15  C   UNL A   1      33.059  27.653  25.153  1.00  0.00    -0.008 A 
ATOM     16  C   UNL A   1      33.035  29.787  26.315  1.00  0.00     0.123 A 
ATOM     17  C   UNL A   1      31.890  30.170  25.620  1.00  0.00     0.092 A 
ATOM     18  C   UNL A   1      33.601  28.530  26.101  1.00  0.00     0.055 A 
ATOM     19  C   UNL A   1      31.312  29.304  24.693  1.00  0.00     0.123 A 
ATOM     20  C   UNL A   1      31.904  28.061  24.458  1.00  0.00     0.055 A 
BRANCH  16  21
ATOM     21  O   UNL A   1      33.493  30.613  27.305  1.00  0.00    -0.494 OA
BRANCH  21  22
ATOM     22  C   UNL A   1      34.904  30.515  27.533  1.00  0.00     0.226 C 
ATOM     23  C   UNL A   1      35.515  31.861  27.889  1.00  0.00     0.049 C 
ENDBRANCH  21  22
ENDBRANCH  16  21
BRANCH  19  24
ATOM     24  O   UNL A   1      30.189  29.776  24.067  1.00  0.00    -0.494 OA
BRANCH  24  25
ATOM     25  C   UNL A   1      29.850  29.215  22.796  1.00  0.00     0.226 C 
ATOM     26  C   UNL A   1      28.351  29.279  22.554  1.00  0.00     0.049 C 
ENDBRANCH  24  25
ENDBRANCH  19  24
ENDBRANCH   9  15
ENDBRANCH   6   8
ENDBRANCH   4   6
ENDBRANCH   3   4
ENDBRANCH   2   3
ENDBRANCH   1   2
BRANCH   1  27
ATOM     27  O   UNL A   1      40.201  20.371  26.148  1.00  0.00    -0.374 OA
BRANCH  27  28
ATOM     28  C   UNL A   1      41.342  19.953  26.900  1.00  0.00     0.202 C 
BRANCH  28  29
ATOM     29  C   UNL A   1      42.322  19.020  26.179  1.00  0.00     0.261 C 
BRANCH  29  30
ATOM     30  O   UNL A   1      42.754  19.560  24.916  1.00  0.00    -0.460 OA
BRANCH  30  31
ATOM     31  C   UNL A   1      44.089  19.745  24.797  1.00  0.00     0.338 C 
ATOM     32  O   UNL A   1      44.919  18.946  24.382  1.00  0.00    -0.246 OA
BRANCH  31  33
ATOM     33  C   UNL A   1      44.426  21.151  25.078  1.00  0.00     0.060 A 
ATOM     34  C   UNL A   1      44.974  21.449  26.332  1.00  0.00     0.016 A 
ATOM     35  C   UNL A   1      44.158  22.169  24.160  1.00  0.00     0.016 A 
ATOM     36  C   UNL A   1      45.234  22.773  26.685  1.00  0.00     0.010 A 
ATOM     37  C   UNL A   1      44.408  23.498  24.522  1.00  0.00     0.010 A 
ATOM     38  C   UNL A   1      44.926  23.808  25.793  1.00  0.00    -0.014 A 
BRANCH  38  39
ATOM     39  C   UNL A   1      45.069  25.219  26.228  1.00  0.00     0.031 A 
ATOM     40  C   UNL A   1      46.419  25.880  26.171  1.00  0.00     0.074 A 
ATOM     41  C   UNL A   1      43.999  25.913  26.652  1.00  0.00     0.049 A 
ATOM     42  N   UNL A   1      46.761  27.092  26.530  1.00  0.00    -0.248 NA
ATOM     43  C   UNL A   1      47.527  25.072  25.638  1.00  0.00     0.031 C 
ATOM     44  C   UNL A   1      42.630  25.403  26.714  1.00  0.00     0.029 A 
ATOM     45  N   UNL A   1      43.901  27.201  27.119  1.00  0.00    -0.354 N 
ATOM     46  C   UNL A   1      48.123  27.191  26.271  1.00  0.00     0.074 A 
ATOM     47  C   UNL A   1      48.548  25.910  25.747  1.00  0.00     0.031 C 
ATOM     48  C   UNL A   1      41.829  26.365  27.202  1.00  0.00     0.029 A 
ATOM     49  C   UNL A   1      42.633  27.544  27.518  1.00  0.00     0.049 A 
ATOM     50  H   UNL A   1      44.667  27.818  27.163  1.00  0.00     0.167 HD
ATOM     51  C   UNL A   1      48.944  28.253  26.452  1.00  0.00     0.031 A 
ATOM     52  C   UNL A   1      42.176  28.671  28.097  1.00  0.00     0.031 A 
ATOM     53  C   UNL A   1      48.528  29.522  26.985  1.00  0.00     0.049 A 
ATOM     54  C   UNL A   1      43.128  29.804  28.369  1.00  0.00     0.074 A 
ATOM     55  C   UNL A   1      49.286  30.666  27.178  1.00  0.00     0.029 A 
ATOM     56  N   UNL A   1      47.248  29.812  27.425  1.00  0.00    -0.354 N 
ATOM     57  N   UNL A   1      44.405  29.897  28.087  1.00  0.00    -0.248 NA
ATOM     58  C   UNL A   1      42.572  30.989  29.039  1.00  0.00     0.031 C 
ATOM     59  C   UNL A   1      48.476  31.628  27.791  1.00  0.00     0.029 A 
ATOM     60  C   UNL A   1      47.201  31.103  27.926  1.00  0.00     0.049 A 
ATOM     61  H   UNL A   1      46.483  29.193  27.387  1.00  0.00     0.167 HD
ATOM     62  C   UNL A   1      44.800  31.153  28.528  1.00  0.00     0.074 A 
ATOM     63  C   UNL A   1      43.624  31.795  29.079  1.00  0.00     0.031 C 
ATOM     64  C   UNL A   1      46.028  31.726  28.482  1.00  0.00     0.031 A 
BRANCH  51  65
ATOM     65  C   UNL A   1      50.394  28.075  26.099  1.00  0.00    -0.014 A 
ATOM     66  C   UNL A   1      51.364  27.852  27.088  1.00  0.00     0.009 A 
ATOM     67  C   UNL A   1      50.786  28.082  24.751  1.00  0.00     0.009 A 
ATOM     68  C   UNL A   1      52.702  27.665  26.735  1.00  0.00     0.001 A 
ATOM     69  C   UNL A   1      52.120  27.871  24.400  1.00  0.00     0.001 A 
ATOM     70  C   UNL A   1      53.078  27.670  25.392  1.00  0.00     0.000 A 
ENDBRANCH  51  65
BRANCH  52  71
ATOM     71  C   UNL A   1      40.748  28.774  28.498  1.00  0.00    -0.014 A 
ATOM     72  C   UNL A   1      40.331  28.380  29.778  1.00  0.00     0.009 A 
ATOM     73  C   UNL A   1      39.792  29.249  27.588  1.00  0.00     0.009 A 
ATOM     74  C   UNL A   1      38.980  28.437  30.129  1.00  0.00     0.001 A 
ATOM     75  C   UNL A   1      38.446  29.331  27.950  1.00  0.00     0.001 A 
ATOM     76  C   UNL A   1      38.040  28.917  29.217  1.00  0.00     0.000 A 
ENDBRANCH  52  71
BRANCH  64  77
ATOM     77  C   UNL A   1      46.159  33.119  29.028  1.00  0.00    -0.014 A 
ATOM     78  C   UNL A   1      45.932  34.241  28.217  1.00  0.00     0.009 A 
ATOM     79  C   UNL A   1      46.477  33.312  30.382  1.00  0.00     0.009 A 
ATOM     80  C   UNL A   1      46.052  35.529  28.744  1.00  0.00     0.001 A 
ATOM     81  C   UNL A   1      46.568  34.599  30.912  1.00  0.00     0.001 A 
ATOM     82  C   UNL A   1      46.365  35.707  30.091  1.00  0.00     0.000 A 
ENDBRANCH  64  77
ENDBRANCH  38  39
ENDBRANCH  31  33
ENDBRANCH  30  31
ENDBRANCH  29  30
ENDBRANCH  28  29
ENDBRANCH  27  28
ENDBRANCH   1  27
TORSDOF 20
ENDMDL
