MODEL 1
REMARK VINA RESULT:      -9.8      0.000      0.000
REMARK SMILES Nc1ccc(C(=O)NC[C@@H]2CC[C@@H](C(=O)OCCOCCOC(=O)c3ccc(-c4c5nc(c(-c6ccccc6)c6ccc([nH]6)c(-c6ccccc6)c6nc(c(-c7ccccc7)c7ccc4[nH]7)C=C6)C=C5)cc3)O2)cc1Cl
REMARK SMILES IDX 18 1 17 2 16 3 14 4 15 5 13 6 10 7 11 8 73 9 12 10 9 11 8 12
REMARK SMILES IDX 6 13 7 14 5 16 2 17 3 18 75 19 4 20 74 21 76 22 1 23 19 26
REMARK SMILES IDX 20 27 21 28 22 29 23 30 24 31 25 32 26 33 72 34 27 35 71 36
REMARK SMILES IDX 28 37 29 38 30 39 65 40 31 41 70 42 64 43 66 44 32 45 69 46
REMARK SMILES IDX 63 47 62 48 33 50 55 51 40 52 54 53 41 54 44 55 53 56 67 57
REMARK SMILES IDX 42 58 43 59 52 61 68 62 45 63 34 64 35 65 39 66 36 67 38 68
REMARK SMILES IDX 37 69 56 70 57 71 61 72 58 73 60 74 59 75 46 76 47 77 51 78
REMARK SMILES IDX 48 79 50 80 49 81
REMARK H PARENT 8 15 1 24 1 25 66 49 44 60
REMARK Flexibility Score: inf
ROOT
ATOM      1  C   UNL A   1      32.788  35.919  30.538  1.00  0.00     0.202 C 
ENDROOT
BRANCH   1   2
ATOM      2  C   UNL A   1      32.974  36.105  29.031  1.00  0.00     0.261 C 
BRANCH   2   3
ATOM      3  O   UNL A   1      32.725  34.856  28.370  1.00  0.00    -0.461 OA
BRANCH   3   4
ATOM      4  C   UNL A   1      33.830  34.137  28.028  1.00  0.00     0.335 C 
ATOM      5  O   UNL A   1      34.761  34.553  27.351  1.00  0.00    -0.249 OA
BRANCH   4   6
ATOM      6  C   UNL A   1      33.776  32.760  28.694  1.00  0.00     0.228 C 
ATOM      7  C   UNL A   1      35.158  31.084  27.888  1.00  0.00     0.138 C 
ATOM      8  C   UNL A   1      35.482  31.234  29.365  1.00  0.00     0.037 C 
ATOM      9  O   UNL A   1      33.869  31.700  27.735  1.00  0.00    -0.361 OA
ATOM     10  C   UNL A   1      34.931  32.601  29.683  1.00  0.00     0.047 C 
BRANCH   7  11
ATOM     11  C   UNL A   1      35.142  29.654  27.317  1.00  0.00     0.148 C 
BRANCH  11  12
ATOM     12  N   UNL A   1      34.000  28.853  27.728  1.00  0.00    -0.349 N 
ATOM     13  C   UNL A   1      32.806  28.491  27.172  1.00  0.00     0.251 C 
ATOM     14  O   UNL A   1      32.068  27.816  27.896  1.00  0.00    -0.269 OA
ATOM     15  H   UNL A   1      34.116  28.478  28.631  1.00  0.00     0.163 HD
BRANCH  13  16
ATOM     16  C   UNL A   1      32.333  28.826  25.796  1.00  0.00     0.041 A 
ATOM     17  C   UNL A   1      31.676  29.394  23.083  1.00  0.00     0.050 A 
ATOM     18  C   UNL A   1      30.790  29.690  24.120  1.00  0.00     0.028 A 
ATOM     19  C   UNL A   1      32.875  28.748  23.414  1.00  0.00     0.064 A 
ATOM     20  C   UNL A   1      31.113  29.414  25.460  1.00  0.00     0.016 A 
ATOM     21  C   UNL A   1      33.204  28.481  24.746  1.00  0.00     0.036 A 
ATOM     22  Cl  UNL A   1      33.996  28.281  22.181  1.00  0.00    -0.082 Cl
BRANCH  17  23
ATOM     23  N   UNL A   1      31.294  29.617  21.764  1.00  0.00    -0.398 N 
ATOM     24  H   UNL A   1      31.906  30.080  21.146  1.00  0.00     0.156 HD
ATOM     25  H   UNL A   1      30.414  29.312  21.447  1.00  0.00     0.156 HD
ENDBRANCH  17  23
ENDBRANCH  13  16
ENDBRANCH  11  12
ENDBRANCH   7  11
ENDBRANCH   4   6
ENDBRANCH   3   4
ENDBRANCH   2   3
ENDBRANCH   1   2
BRANCH   1  26
ATOM     26  O   UNL A   1      32.577  37.116  31.290  1.00  0.00    -0.374 OA
BRANCH  26  27
ATOM     27  C   UNL A   1      33.635  37.573  32.132  1.00  0.00     0.202 C 
BRANCH  27  28
ATOM     28  C   UNL A   1      33.889  36.780  33.420  1.00  0.00     0.261 C 
BRANCH  28  29
ATOM     29  O   UNL A   1      35.000  35.873  33.306  1.00  0.00    -0.460 OA
BRANCH  29  30
ATOM     30  C   UNL A   1      34.649  34.569  33.189  1.00  0.00     0.338 C 
ATOM     31  O   UNL A   1      33.521  34.098  33.217  1.00  0.00    -0.246 OA
BRANCH  30  32
ATOM     32  C   UNL A   1      35.824  33.752  32.841  1.00  0.00     0.060 A 
ATOM     33  C   UNL A   1      35.844  32.431  33.306  1.00  0.00     0.016 A 
ATOM     34  C   UNL A   1      36.921  34.282  32.159  1.00  0.00     0.016 A 
ATOM     35  C   UNL A   1      36.980  31.647  33.127  1.00  0.00     0.010 A 
ATOM     36  C   UNL A   1      38.066  33.495  31.988  1.00  0.00     0.010 A 
ATOM     37  C   UNL A   1      38.112  32.185  32.499  1.00  0.00    -0.014 A 
BRANCH  37  38
ATOM     38  C   UNL A   1      39.372  31.402  32.496  1.00  0.00     0.031 A 
ATOM     39  C   UNL A   1      40.387  31.635  33.582  1.00  0.00     0.074 A 
ATOM     40  C   UNL A   1      39.580  30.446  31.573  1.00  0.00     0.049 A 
ATOM     41  N   UNL A   1      41.529  31.028  33.790  1.00  0.00    -0.248 NA
ATOM     42  C   UNL A   1      40.073  32.683  34.565  1.00  0.00     0.031 C 
ATOM     43  C   UNL A   1      38.659  30.097  30.492  1.00  0.00     0.029 A 
ATOM     44  N   UNL A   1      40.637  29.586  31.407  1.00  0.00    -0.354 N 
ATOM     45  C   UNL A   1      42.062  31.610  34.932  1.00  0.00     0.074 A 
ATOM     46  C   UNL A   1      41.140  32.644  35.352  1.00  0.00     0.031 C 
ATOM     47  C   UNL A   1      39.193  29.096  29.772  1.00  0.00     0.029 A 
ATOM     48  C   UNL A   1      40.498  28.749  30.328  1.00  0.00     0.049 A 
ATOM     49  H   UNL A   1      41.419  29.571  32.005  1.00  0.00     0.167 HD
ATOM     50  C   UNL A   1      43.210  31.306  35.584  1.00  0.00     0.031 A 
ATOM     51  C   UNL A   1      41.336  27.815  29.837  1.00  0.00     0.031 A 
ATOM     52  C   UNL A   1      44.143  30.295  35.161  1.00  0.00     0.049 A 
ATOM     53  C   UNL A   1      42.642  27.548  30.538  1.00  0.00     0.074 A 
ATOM     54  C   UNL A   1      45.338  29.923  35.753  1.00  0.00     0.029 A 
ATOM     55  N   UNL A   1      43.987  29.499  34.039  1.00  0.00    -0.354 N 
ATOM     56  N   UNL A   1      43.121  28.093  31.629  1.00  0.00    -0.248 NA
ATOM     57  C   UNL A   1      43.514  26.525  29.942  1.00  0.00     0.031 C 
ATOM     58  C   UNL A   1      45.926  28.929  34.963  1.00  0.00     0.029 A 
ATOM     59  C   UNL A   1      45.072  28.649  33.909  1.00  0.00     0.049 A 
ATOM     60  H   UNL A   1      43.218  29.532  33.425  1.00  0.00     0.167 HD
ATOM     61  C   UNL A   1      44.339  27.465  31.862  1.00  0.00     0.074 A 
ATOM     62  C   UNL A   1      44.514  26.484  30.812  1.00  0.00     0.031 C 
ATOM     63  C   UNL A   1      45.234  27.682  32.856  1.00  0.00     0.031 A 
BRANCH  50  64
ATOM     64  C   UNL A   1      43.531  32.093  36.822  1.00  0.00    -0.014 A 
ATOM     65  C   UNL A   1      44.255  33.293  36.747  1.00  0.00     0.009 A 
ATOM     66  C   UNL A   1      43.063  31.656  38.071  1.00  0.00     0.009 A 
ATOM     67  C   UNL A   1      44.525  34.027  37.904  1.00  0.00     0.001 A 
ATOM     68  C   UNL A   1      43.315  32.405  39.222  1.00  0.00     0.001 A 
ATOM     69  C   UNL A   1      44.050  33.586  39.139  1.00  0.00     0.000 A 
ENDBRANCH  50  64
BRANCH  51  70
ATOM     70  C   UNL A   1      40.985  27.074  28.599  1.00  0.00    -0.014 A 
ATOM     71  C   UNL A   1      40.228  25.893  28.655  1.00  0.00     0.009 A 
ATOM     72  C   UNL A   1      41.442  27.527  27.352  1.00  0.00     0.009 A 
ATOM     73  C   UNL A   1      39.965  25.166  27.492  1.00  0.00     0.001 A 
ATOM     74  C   UNL A   1      41.154  26.814  26.187  1.00  0.00     0.001 A 
ATOM     75  C   UNL A   1      40.425  25.629  26.259  1.00  0.00     0.000 A 
ENDBRANCH  51  70
BRANCH  63  76
ATOM     76  C   UNL A   1      46.469  26.825  32.866  1.00  0.00    -0.014 A 
ATOM     77  C   UNL A   1      46.525  25.639  33.616  1.00  0.00     0.009 A 
ATOM     78  C   UNL A   1      47.579  27.195  32.093  1.00  0.00     0.009 A 
ATOM     79  C   UNL A   1      47.686  24.863  33.621  1.00  0.00     0.001 A 
ATOM     80  C   UNL A   1      48.729  26.402  32.079  1.00  0.00     0.001 A 
ATOM     81  C   UNL A   1      48.784  25.243  32.850  1.00  0.00     0.000 A 
ENDBRANCH  63  76
ENDBRANCH  37  38
ENDBRANCH  30  32
ENDBRANCH  29  30
ENDBRANCH  28  29
ENDBRANCH  27  28
ENDBRANCH  26  27
ENDBRANCH   1  26
TORSDOF 18
ENDMDL
MODEL 2
REMARK VINA RESULT:      -9.8      2.253      3.706
REMARK SMILES Nc1ccc(C(=O)NC[C@@H]2CC[C@@H](C(=O)OCCOCCOC(=O)c3ccc(-c4c5nc(c(-c6ccccc6)c6ccc([nH]6)c(-c6ccccc6)c6nc(c(-c7ccccc7)c7ccc4[nH]7)C=C6)C=C5)cc3)O2)cc1Cl
REMARK SMILES IDX 18 1 17 2 16 3 14 4 15 5 13 6 10 7 11 8 73 9 12 10 9 11 8 12
REMARK SMILES IDX 6 13 7 14 5 16 2 17 3 18 75 19 4 20 74 21 76 22 1 23 19 26
REMARK SMILES IDX 20 27 21 28 22 29 23 30 24 31 25 32 26 33 72 34 27 35 71 36
REMARK SMILES IDX 28 37 29 38 30 39 65 40 31 41 70 42 64 43 66 44 32 45 69 46
REMARK SMILES IDX 63 47 62 48 33 50 55 51 40 52 54 53 41 54 44 55 53 56 67 57
REMARK SMILES IDX 42 58 43 59 52 61 68 62 45 63 34 64 35 65 39 66 36 67 38 68
REMARK SMILES IDX 37 69 56 70 57 71 61 72 58 73 60 74 59 75 46 76 47 77 51 78
REMARK SMILES IDX 48 79 50 80 49 81
REMARK H PARENT 8 15 1 24 1 25 66 49 44 60
REMARK Flexibility Score: inf
ROOT
ATOM      1  C   UNL A   1      34.703  32.613  28.970  1.00  0.00     0.202 C 
ENDROOT
BRANCH   1   2
ATOM      2  C   UNL A   1      34.812  31.174  28.462  1.00  0.00     0.261 C 
BRANCH   2   3
ATOM      3  O   UNL A   1      34.193  31.084  27.172  1.00  0.00    -0.461 OA
BRANCH   3   4
ATOM      4  C   UNL A   1      33.024  30.387  27.123  1.00  0.00     0.335 C 
ATOM      5  O   UNL A   1      31.930  30.861  26.845  1.00  0.00    -0.249 OA
BRANCH   4   6
ATOM      6  C   UNL A   1      33.297  28.902  27.379  1.00  0.00     0.228 C 
ATOM      7  C   UNL A   1      32.038  27.331  26.233  1.00  0.00     0.138 C 
ATOM      8  C   UNL A   1      33.493  27.031  25.914  1.00  0.00     0.037 C 
ATOM      9  O   UNL A   1      32.086  28.138  27.421  1.00  0.00    -0.361 OA
ATOM     10  C   UNL A   1      34.179  28.325  26.272  1.00  0.00     0.047 C 
BRANCH   7  11
ATOM     11  C   UNL A   1      31.105  26.123  26.441  1.00  0.00     0.148 C 
BRANCH  11  12
ATOM     12  N   UNL A   1      30.840  25.350  25.239  1.00  0.00    -0.349 N 
ATOM     13  C   UNL A   1      30.518  25.635  23.942  1.00  0.00     0.251 C 
ATOM     14  O   UNL A   1      30.323  24.653  23.218  1.00  0.00    -0.269 OA
ATOM     15  H   UNL A   1      30.911  24.381  25.398  1.00  0.00     0.163 HD
BRANCH  13  16
ATOM     16  C   UNL A   1      30.394  26.995  23.339  1.00  0.00     0.041 A 
ATOM     17  C   UNL A   1      29.891  29.570  22.230  1.00  0.00     0.050 A 
ATOM     18  C   UNL A   1      31.166  29.003  22.197  1.00  0.00     0.028 A 
ATOM     19  C   UNL A   1      28.878  28.858  22.887  1.00  0.00     0.064 A 
ATOM     20  C   UNL A   1      31.416  27.731  22.740  1.00  0.00     0.016 A 
ATOM     21  C   UNL A   1      29.121  27.588  23.419  1.00  0.00     0.036 A 
ATOM     22  Cl  UNL A   1      27.287  29.522  23.037  1.00  0.00    -0.082 Cl
BRANCH  17  23
ATOM     23  N   UNL A   1      29.696  30.860  21.746  1.00  0.00    -0.398 N 
ATOM     24  H   UNL A   1      29.004  31.436  22.146  1.00  0.00     0.156 HD
ATOM     25  H   UNL A   1      30.249  31.197  21.005  1.00  0.00     0.156 HD
ENDBRANCH  17  23
ENDBRANCH  13  16
ENDBRANCH  11  12
ENDBRANCH   7  11
ENDBRANCH   4   6
ENDBRANCH   3   4
ENDBRANCH   2   3
ENDBRANCH   1   2
BRANCH   1  26
ATOM     26  O   UNL A   1      33.458  33.269  28.715  1.00  0.00    -0.374 OA
BRANCH  26  27
ATOM     27  C   UNL A   1      33.488  34.656  28.382  1.00  0.00     0.202 C 
BRANCH  27  28
ATOM     28  C   UNL A   1      33.230  35.649  29.522  1.00  0.00     0.261 C 
BRANCH  28  29
ATOM     29  O   UNL A   1      32.507  35.063  30.619  1.00  0.00    -0.460 OA
BRANCH  29  30
ATOM     30  C   UNL A   1      32.808  35.586  31.832  1.00  0.00     0.338 C 
ATOM     31  O   UNL A   1      32.166  36.411  32.466  1.00  0.00    -0.246 OA
BRANCH  30  32
ATOM     32  C   UNL A   1      33.974  34.897  32.411  1.00  0.00     0.060 A 
ATOM     33  C   UNL A   1      35.205  35.561  32.349  1.00  0.00     0.016 A 
ATOM     34  C   UNL A   1      33.891  33.599  32.919  1.00  0.00     0.016 A 
ATOM     35  C   UNL A   1      36.367  34.913  32.758  1.00  0.00     0.010 A 
ATOM     36  C   UNL A   1      35.063  32.946  33.320  1.00  0.00     0.010 A 
ATOM     37  C   UNL A   1      36.310  33.589  33.212  1.00  0.00    -0.014 A 
BRANCH  37  38
ATOM     38  C   UNL A   1      37.577  32.856  33.451  1.00  0.00     0.031 A 
ATOM     39  C   UNL A   1      38.339  33.095  34.726  1.00  0.00     0.074 A 
ATOM     40  C   UNL A   1      38.009  31.935  32.571  1.00  0.00     0.049 A 
ATOM     41  N   UNL A   1      39.439  32.527  35.151  1.00  0.00    -0.248 NA
ATOM     42  C   UNL A   1      37.785  34.101  35.646  1.00  0.00     0.031 C 
ATOM     43  C   UNL A   1      37.344  31.583  31.317  1.00  0.00     0.029 A 
ATOM     44  N   UNL A   1      39.114  31.121  32.607  1.00  0.00    -0.354 N 
ATOM     45  C   UNL A   1      39.703  33.096  36.390  1.00  0.00     0.074 A 
ATOM     46  C   UNL A   1      38.671  34.081  36.633  1.00  0.00     0.031 C 
ATOM     47  C   UNL A   1      38.056  30.625  30.700  1.00  0.00     0.029 A 
ATOM     48  C   UNL A   1      39.235  30.312  31.505  1.00  0.00     0.049 A 
ATOM     49  H   UNL A   1      39.759  31.119  33.352  1.00  0.00     0.167 HD
ATOM     50  C   UNL A   1      40.707  32.817  37.256  1.00  0.00     0.031 A 
ATOM     51  C   UNL A   1      40.195  29.426  31.177  1.00  0.00     0.031 A 
ATOM     52  C   UNL A   1      41.749  31.855  37.012  1.00  0.00     0.049 A 
ATOM     53  C   UNL A   1      41.341  29.189  32.124  1.00  0.00     0.074 A 
ATOM     54  C   UNL A   1      42.814  31.512  37.828  1.00  0.00     0.029 A 
ATOM     55  N   UNL A   1      41.859  31.087  35.866  1.00  0.00    -0.354 N 
ATOM     56  N   UNL A   1      41.564  29.720  33.301  1.00  0.00    -0.248 NA
ATOM     57  C   UNL A   1      42.360  28.218  31.698  1.00  0.00     0.031 C 
ATOM     58  C   UNL A   1      43.593  30.565  37.155  1.00  0.00     0.029 A 
ATOM     59  C   UNL A   1      42.985  30.284  35.943  1.00  0.00     0.049 A 
ATOM     60  H   UNL A   1      41.231  31.108  35.108  1.00  0.00     0.167 HD
ATOM     61  C   UNL A   1      42.735  29.132  33.766  1.00  0.00     0.074 A 
ATOM     62  C   UNL A   1      43.163  28.190  32.753  1.00  0.00     0.031 C 
ATOM     63  C   UNL A   1      43.399  29.354  34.926  1.00  0.00     0.031 A 
BRANCH  50  64
ATOM     64  C   UNL A   1      40.734  33.579  38.550  1.00  0.00    -0.014 A 
ATOM     65  C   UNL A   1      40.171  33.040  39.717  1.00  0.00     0.009 A 
ATOM     66  C   UNL A   1      41.372  34.827  38.615  1.00  0.00     0.009 A 
ATOM     67  C   UNL A   1      40.225  33.749  40.919  1.00  0.00     0.001 A 
ATOM     68  C   UNL A   1      41.444  35.523  39.823  1.00  0.00     0.001 A 
ATOM     69  C   UNL A   1      40.867  34.986  40.973  1.00  0.00     0.000 A 
ENDBRANCH  50  64
BRANCH  51  70
ATOM     70  C   UNL A   1      40.136  28.708  29.877  1.00  0.00    -0.014 A 
ATOM     71  C   UNL A   1      40.666  29.281  28.711  1.00  0.00     0.009 A 
ATOM     72  C   UNL A   1      39.508  27.455  29.792  1.00  0.00     0.009 A 
ATOM     73  C   UNL A   1      40.540  28.629  27.483  1.00  0.00     0.001 A 
ATOM     74  C   UNL A   1      39.409  26.792  28.568  1.00  0.00     0.001 A 
ATOM     75  C   UNL A   1      39.915  27.384  27.413  1.00  0.00     0.000 A 
ENDBRANCH  51  70
BRANCH  63  76
ATOM     76  C   UNL A   1      44.642  28.545  35.170  1.00  0.00    -0.014 A 
ATOM     77  C   UNL A   1      44.581  27.292  35.800  1.00  0.00     0.009 A 
ATOM     78  C   UNL A   1      45.885  29.032  34.740  1.00  0.00     0.009 A 
ATOM     79  C   UNL A   1      45.749  26.561  36.028  1.00  0.00     0.001 A 
ATOM     80  C   UNL A   1      47.048  28.286  34.946  1.00  0.00     0.001 A 
ATOM     81  C   UNL A   1      46.979  27.057  35.598  1.00  0.00     0.000 A 
ENDBRANCH  63  76
ENDBRANCH  37  38
ENDBRANCH  30  32
ENDBRANCH  29  30
ENDBRANCH  28  29
ENDBRANCH  27  28
ENDBRANCH  26  27
ENDBRANCH   1  26
TORSDOF 18
ENDMDL
MODEL 3
REMARK VINA RESULT:      -9.8      6.912     11.424
REMARK SMILES Nc1ccc(C(=O)NC[C@@H]2CC[C@@H](C(=O)OCCOCCOC(=O)c3ccc(-c4c5nc(c(-c6ccccc6)c6ccc([nH]6)c(-c6ccccc6)c6nc(c(-c7ccccc7)c7ccc4[nH]7)C=C6)C=C5)cc3)O2)cc1Cl
REMARK SMILES IDX 18 1 17 2 16 3 14 4 15 5 13 6 10 7 11 8 73 9 12 10 9 11 8 12
REMARK SMILES IDX 6 13 7 14 5 16 2 17 3 18 75 19 4 20 74 21 76 22 1 23 19 26
REMARK SMILES IDX 20 27 21 28 22 29 23 30 24 31 25 32 26 33 72 34 27 35 71 36
REMARK SMILES IDX 28 37 29 38 30 39 65 40 31 41 70 42 64 43 66 44 32 45 69 46
REMARK SMILES IDX 63 47 62 48 33 50 55 51 40 52 54 53 41 54 44 55 53 56 67 57
REMARK SMILES IDX 42 58 43 59 52 61 68 62 45 63 34 64 35 65 39 66 36 67 38 68
REMARK SMILES IDX 37 69 56 70 57 71 61 72 58 73 60 74 59 75 46 76 47 77 51 78
REMARK SMILES IDX 48 79 50 80 49 81
REMARK H PARENT 8 15 1 24 1 25 66 49 44 60
REMARK Flexibility Score: inf
ROOT
ATOM      1  C   UNL A   1      41.114  21.819  26.088  1.00  0.00     0.202 C 
ENDROOT
BRANCH   1   2
ATOM      2  C   UNL A   1      39.673  21.504  26.497  1.00  0.00     0.261 C 
BRANCH   2   3
ATOM      3  O   UNL A   1      38.784  21.951  25.464  1.00  0.00    -0.461 OA
BRANCH   3   4
ATOM      4  C   UNL A   1      37.891  21.028  25.012  1.00  0.00     0.335 C 
ATOM      5  O   UNL A   1      38.071  19.818  25.000  1.00  0.00    -0.249 OA
BRANCH   4   6
ATOM      6  C   UNL A   1      36.589  21.725  24.608  1.00  0.00     0.228 C 
ATOM      7  C   UNL A   1      35.442  22.947  26.208  1.00  0.00     0.138 C 
ATOM      8  C   UNL A   1      35.726  23.902  25.061  1.00  0.00     0.037 C 
ATOM      9  O   UNL A   1      35.595  21.637  25.636  1.00  0.00    -0.361 OA
ATOM     10  C   UNL A   1      36.843  23.206  24.325  1.00  0.00     0.047 C 
BRANCH   7  11
ATOM     11  C   UNL A   1      34.072  23.073  26.901  1.00  0.00     0.148 C 
BRANCH  11  12
ATOM     12  N   UNL A   1      33.050  22.175  26.387  1.00  0.00    -0.349 N 
ATOM     13  C   UNL A   1      32.201  22.167  25.316  1.00  0.00     0.251 C 
ATOM     14  O   UNL A   1      31.426  21.207  25.264  1.00  0.00    -0.269 OA
ATOM     15  H   UNL A   1      32.944  21.374  26.949  1.00  0.00     0.163 HD
BRANCH  13  16
ATOM     16  C   UNL A   1      32.138  23.189  24.230  1.00  0.00     0.041 A 
ATOM     17  C   UNL A   1      31.791  25.228  22.271  1.00  0.00     0.050 A 
ATOM     18  C   UNL A   1      32.806  24.276  22.154  1.00  0.00     0.028 A 
ATOM     19  C   UNL A   1      30.988  25.187  23.419  1.00  0.00     0.064 A 
ATOM     20  C   UNL A   1      32.977  23.267  23.118  1.00  0.00     0.016 A 
ATOM     21  C   UNL A   1      31.149  24.178  24.374  1.00  0.00     0.036 A 
ATOM     22  Cl  UNL A   1      29.755  26.374  23.676  1.00  0.00    -0.082 Cl
BRANCH  17  23
ATOM     23  N   UNL A   1      31.695  26.253  21.335  1.00  0.00    -0.398 N 
ATOM     24  H   UNL A   1      32.228  26.216  20.508  1.00  0.00     0.156 HD
ATOM     25  H   UNL A   1      31.095  27.016  21.500  1.00  0.00     0.156 HD
ENDBRANCH  17  23
ENDBRANCH  13  16
ENDBRANCH  11  12
ENDBRANCH   7  11
ENDBRANCH   4   6
ENDBRANCH   3   4
ENDBRANCH   2   3
ENDBRANCH   1   2
BRANCH   1  26
ATOM     26  O   UNL A   1      42.122  20.995  26.678  1.00  0.00    -0.374 OA
BRANCH  26  27
ATOM     27  C   UNL A   1      41.963  19.579  26.593  1.00  0.00     0.202 C 
BRANCH  27  28
ATOM     28  C   UNL A   1      43.004  18.812  25.767  1.00  0.00     0.261 C 
BRANCH  28  29
ATOM     29  O   UNL A   1      43.299  19.451  24.512  1.00  0.00    -0.460 OA
BRANCH  29  30
ATOM     30  C   UNL A   1      44.618  19.667  24.290  1.00  0.00     0.338 C 
ATOM     31  O   UNL A   1      45.419  18.904  23.768  1.00  0.00    -0.246 OA
BRANCH  30  32
ATOM     32  C   UNL A   1      44.971  21.059  24.617  1.00  0.00     0.060 A 
ATOM     33  C   UNL A   1      45.638  21.282  25.828  1.00  0.00     0.016 A 
ATOM     34  C   UNL A   1      44.582  22.131  23.811  1.00  0.00     0.016 A 
ATOM     35  C   UNL A   1      45.882  22.583  26.258  1.00  0.00     0.010 A 
ATOM     36  C   UNL A   1      44.820  23.439  24.251  1.00  0.00     0.010 A 
ATOM     37  C   UNL A   1      45.444  23.671  25.491  1.00  0.00    -0.014 A 
BRANCH  37  38
ATOM     38  C   UNL A   1      45.536  25.037  26.061  1.00  0.00     0.031 A 
ATOM     39  C   UNL A   1      46.857  25.757  26.041  1.00  0.00     0.074 A 
ATOM     40  C   UNL A   1      44.439  25.655  26.533  1.00  0.00     0.049 A 
ATOM     41  N   UNL A   1      47.144  26.970  26.444  1.00  0.00    -0.248 NA
ATOM     42  C   UNL A   1      48.002  25.019  25.487  1.00  0.00     0.031 C 
ATOM     43  C   UNL A   1      43.095  25.081  26.575  1.00  0.00     0.029 A 
ATOM     44  N   UNL A   1      44.285  26.914  27.061  1.00  0.00    -0.354 N 
ATOM     45  C   UNL A   1      48.496  27.143  26.183  1.00  0.00     0.074 A 
ATOM     46  C   UNL A   1      48.983  25.902  25.622  1.00  0.00     0.031 C 
ATOM     47  C   UNL A   1      42.251  25.985  27.103  1.00  0.00     0.029 A 
ATOM     48  C   UNL A   1      43.000  27.190  27.454  1.00  0.00     0.049 A 
ATOM     49  H   UNL A   1      45.027  27.556  27.149  1.00  0.00     0.167 HD
ATOM     50  C   UNL A   1      49.265  28.241  26.379  1.00  0.00     0.031 A 
ATOM     51  C   UNL A   1      42.486  28.288  28.042  1.00  0.00     0.031 A 
ATOM     52  C   UNL A   1      48.794  29.472  26.956  1.00  0.00     0.049 A 
ATOM     53  C   UNL A   1      43.379  29.468  28.318  1.00  0.00     0.074 A 
ATOM     54  C   UNL A   1      49.503  30.636  27.203  1.00  0.00     0.029 A 
ATOM     55  N   UNL A   1      47.496  29.697  27.381  1.00  0.00    -0.354 N 
ATOM     56  N   UNL A   1      44.652  29.624  28.045  1.00  0.00    -0.248 NA
ATOM     57  C   UNL A   1      42.757  30.629  28.972  1.00  0.00     0.031 C 
ATOM     58  C   UNL A   1      48.641  31.551  27.817  1.00  0.00     0.029 A 
ATOM     59  C   UNL A   1      47.386  30.974  27.906  1.00  0.00     0.049 A 
ATOM     60  H   UNL A   1      46.760  29.047  27.319  1.00  0.00     0.167 HD
ATOM     61  C   UNL A   1      44.976  30.906  28.473  1.00  0.00     0.074 A 
ATOM     62  C   UNL A   1      43.764  31.491  29.004  1.00  0.00     0.031 C 
ATOM     63  C   UNL A   1      46.173  31.541  28.434  1.00  0.00     0.031 A 
BRANCH  50  64
ATOM     64  C   UNL A   1      50.710  28.154  25.978  1.00  0.00    -0.014 A 
ATOM     65  C   UNL A   1      51.689  27.735  26.892  1.00  0.00     0.009 A 
ATOM     66  C   UNL A   1      51.090  28.446  24.659  1.00  0.00     0.009 A 
ATOM     67  C   UNL A   1      53.025  27.635  26.499  1.00  0.00     0.001 A 
ATOM     68  C   UNL A   1      52.423  28.322  24.263  1.00  0.00     0.001 A 
ATOM     69  C   UNL A   1      53.390  27.922  25.184  1.00  0.00     0.000 A 
ENDBRANCH  50  64
BRANCH  51  70
ATOM     70  C   UNL A   1      41.055  28.322  28.437  1.00  0.00    -0.014 A 
ATOM     71  C   UNL A   1      40.624  27.737  29.638  1.00  0.00     0.009 A 
ATOM     72  C   UNL A   1      40.103  28.910  27.590  1.00  0.00     0.009 A 
ATOM     73  C   UNL A   1      39.266  27.712  29.965  1.00  0.00     0.001 A 
ATOM     74  C   UNL A   1      38.750  28.909  27.932  1.00  0.00     0.001 A 
ATOM     75  C   UNL A   1      38.331  28.301  29.113  1.00  0.00     0.000 A 
ENDBRANCH  51  70
BRANCH  63  76
ATOM     76  C   UNL A   1      46.219  32.949  28.956  1.00  0.00    -0.014 A 
ATOM     77  C   UNL A   1      45.957  34.044  28.117  1.00  0.00     0.009 A 
ATOM     78  C   UNL A   1      46.502  33.180  30.310  1.00  0.00     0.009 A 
ATOM     79  C   UNL A   1      46.016  35.346  28.620  1.00  0.00     0.001 A 
ATOM     80  C   UNL A   1      46.533  34.482  30.815  1.00  0.00     0.001 A 
ATOM     81  C   UNL A   1      46.300  35.563  29.967  1.00  0.00     0.000 A 
ENDBRANCH  63  76
ENDBRANCH  37  38
ENDBRANCH  30  32
ENDBRANCH  29  30
ENDBRANCH  28  29
ENDBRANCH  27  28
ENDBRANCH  26  27
ENDBRANCH   1  26
TORSDOF 18
ENDMDL
