MODEL 1
REMARK VINA RESULT:     -11.6      0.000      0.000
REMARK SMILES Cc1ccc2c(c1)c(-c1ccnc3c(C)cccc13)c(C)n2CC(=O)OCCOCCOC(=O)c1ccc(-c2c3nc(c(-c4ccccc4)c4ccc([nH]4)c(-c4ccccc4)c4nc(c(-c5ccccc5)c5ccc2[nH]5)C=C4)C=C3)cc1
REMARK SMILES IDX 29 1 28 2 27 3 26 4 24 5 25 6 23 7 22 8 1 9 2 10 3 11 7 12
REMARK SMILES IDX 4 13 6 14 5 15 8 16 20 17 21 18 9 19 10 20 19 21 11 22 13 23
REMARK SMILES IDX 18 24 12 25 14 26 17 27 15 28 16 29 30 30 31 31 32 32 33 33
REMARK SMILES IDX 34 34 35 35 36 36 82 37 37 38 81 39 38 40 39 41 40 42 75 43
REMARK SMILES IDX 41 44 80 45 74 46 76 47 42 48 79 49 73 50 72 51 43 53 65 54
REMARK SMILES IDX 50 55 64 56 51 57 54 58 63 59 77 60 52 61 53 62 62 64 78 65
REMARK SMILES IDX 55 66 44 67 45 68 49 69 46 70 48 71 47 72 66 73 67 74 71 75
REMARK SMILES IDX 68 76 70 77 69 78 56 79 57 80 61 81 58 82 60 83 59 84
REMARK H PARENT 76 52 54 63
REMARK Flexibility Score: inf
ROOT
ATOM      1  O   UNL A   1      36.324  33.420  32.767  1.00  0.00    -0.374 OA
ENDROOT
BRANCH   1   2
ATOM      2  C   UNL A   1      35.391  33.116  31.746  1.00  0.00     0.202 C 
BRANCH   2   3
ATOM      3  C   UNL A   1      34.820  34.235  30.858  1.00  0.00     0.261 C 
BRANCH   3   4
ATOM      4  O   UNL A   1      33.565  33.906  30.229  1.00  0.00    -0.462 OA
BRANCH   4   5
ATOM      5  C   UNL A   1      33.388  34.448  28.996  1.00  0.00     0.326 C 
ATOM      6  O   UNL A   1      32.569  35.333  28.750  1.00  0.00    -0.250 OA
BRANCH   5   7
ATOM      7  C   UNL A   1      34.304  33.953  27.907  1.00  0.00     0.244 C 
BRANCH   7   8
ATOM      8  N   UNL A   1      34.332  32.524  27.584  1.00  0.00    -0.333 N 
ATOM      9  C   UNL A   1      37.893  28.447  29.220  1.00  0.00     0.044 C 
ATOM     10  C   UNL A   1      37.044  29.586  28.737  1.00  0.00    -0.050 A 
ATOM     11  C   UNL A   1      37.440  30.909  28.935  1.00  0.00     0.005 A 
ATOM     12  C   UNL A   1      35.843  29.320  28.065  1.00  0.00     0.014 A 
ATOM     13  C   UNL A   1      36.634  31.981  28.531  1.00  0.00     0.027 A 
ATOM     14  C   UNL A   1      34.992  30.381  27.691  1.00  0.00     0.008 A 
ATOM     15  C   UNL A   1      35.388  31.695  27.948  1.00  0.00     0.049 A 
ATOM     16  C   UNL A   1      33.692  30.430  27.114  1.00  0.00     0.011 A 
ATOM     17  C   UNL A   1      33.234  31.737  27.244  1.00  0.00     0.024 A 
ATOM     18  C   UNL A   1      31.829  32.237  27.140  1.00  0.00     0.065 C 
BRANCH  16  19
ATOM     19  C   UNL A   1      32.860  29.300  26.697  1.00  0.00    -0.005 A 
ATOM     20  C   UNL A   1      32.089  28.654  27.658  1.00  0.00     0.029 A 
ATOM     21  C   UNL A   1      32.848  28.832  25.357  1.00  0.00     0.008 A 
ATOM     22  C   UNL A   1      31.294  27.606  27.246  1.00  0.00     0.112 A 
ATOM     23  C   UNL A   1      31.956  27.782  25.025  1.00  0.00     0.074 A 
ATOM     24  C   UNL A   1      33.694  29.348  24.352  1.00  0.00     0.011 A 
ATOM     25  N   UNL A   1      31.197  27.189  25.967  1.00  0.00    -0.256 NA
ATOM     26  C   UNL A   1      31.881  27.353  23.689  1.00  0.00    -0.025 A 
ATOM     27  C   UNL A   1      33.630  28.883  23.043  1.00  0.00     0.001 A 
ATOM     28  C   UNL A   1      30.937  26.267  23.245  1.00  0.00     0.047 C 
ATOM     29  C   UNL A   1      32.699  27.920  22.702  1.00  0.00     0.005 A 
ENDBRANCH  16  19
ENDBRANCH   7   8
ENDBRANCH   5   7
ENDBRANCH   4   5
ENDBRANCH   3   4
ENDBRANCH   2   3
ENDBRANCH   1   2
BRANCH   1  30
ATOM     30  C   UNL A   1      37.060  34.624  32.627  1.00  0.00     0.202 C 
BRANCH  30  31
ATOM     31  C   UNL A   1      38.554  34.550  32.269  1.00  0.00     0.261 C 
BRANCH  31  32
ATOM     32  O   UNL A   1      38.932  33.303  31.680  1.00  0.00    -0.460 OA
BRANCH  32  33
ATOM     33  C   UNL A   1      39.844  33.406  30.667  1.00  0.00     0.338 C 
ATOM     34  O   UNL A   1      40.128  34.378  30.014  1.00  0.00    -0.246 OA
BRANCH  33  35
ATOM     35  C   UNL A   1      40.729  32.238  30.820  1.00  0.00     0.060 A 
ATOM     36  C   UNL A   1      41.918  32.118  30.093  1.00  0.00     0.016 A 
ATOM     37  C   UNL A   1      40.072  31.125  31.358  1.00  0.00     0.016 A 
ATOM     38  C   UNL A   1      42.357  30.844  29.762  1.00  0.00     0.010 A 
ATOM     39  C   UNL A   1      40.474  29.864  30.966  1.00  0.00     0.010 A 
ATOM     40  C   UNL A   1      41.575  29.732  30.118  1.00  0.00    -0.014 A 
BRANCH  40  41
ATOM     41  C   UNL A   1      42.056  28.393  29.796  1.00  0.00     0.031 A 
ATOM     42  C   UNL A   1      42.831  27.828  30.925  1.00  0.00     0.074 A 
ATOM     43  C   UNL A   1      41.703  27.670  28.714  1.00  0.00     0.049 A 
ATOM     44  N   UNL A   1      44.087  27.532  30.944  1.00  0.00    -0.248 NA
ATOM     45  C   UNL A   1      42.176  27.788  32.246  1.00  0.00     0.031 C 
ATOM     46  C   UNL A   1      40.741  28.015  27.676  1.00  0.00     0.029 A 
ATOM     47  N   UNL A   1      42.049  26.398  28.363  1.00  0.00    -0.354 N 
ATOM     48  C   UNL A   1      44.330  27.088  32.237  1.00  0.00     0.074 A 
ATOM     49  C   UNL A   1      43.208  27.501  33.034  1.00  0.00     0.031 C 
ATOM     50  C   UNL A   1      40.380  26.915  26.980  1.00  0.00     0.029 A 
ATOM     51  C   UNL A   1      41.192  25.809  27.436  1.00  0.00     0.049 A 
ATOM     52  H   UNL A   1      42.835  25.937  28.735  1.00  0.00     0.167 HD
ATOM     53  C   UNL A   1      45.275  26.147  32.498  1.00  0.00     0.031 A 
ATOM     54  C   UNL A   1      41.108  24.495  27.104  1.00  0.00     0.031 A 
ATOM     55  C   UNL A   1      46.208  26.020  31.410  1.00  0.00     0.049 A 
ATOM     56  C   UNL A   1      42.362  23.852  27.549  1.00  0.00     0.074 A 
ATOM     57  C   UNL A   1      47.108  26.875  30.808  1.00  0.00     0.029 A 
ATOM     58  N   UNL A   1      45.998  24.991  30.525  1.00  0.00    -0.354 N 
ATOM     59  N   UNL A   1      43.525  24.110  27.025  1.00  0.00    -0.248 NA
ATOM     60  C   UNL A   1      42.386  23.287  28.888  1.00  0.00     0.031 C 
ATOM     61  C   UNL A   1      47.051  26.553  29.423  1.00  0.00     0.029 A 
ATOM     62  C   UNL A   1      46.185  25.470  29.256  1.00  0.00     0.049 A 
ATOM     63  H   UNL A   1      45.755  24.067  30.763  1.00  0.00     0.167 HD
ATOM     64  C   UNL A   1      44.389  24.172  28.110  1.00  0.00     0.074 A 
ATOM     65  C   UNL A   1      43.649  23.565  29.218  1.00  0.00     0.031 C 
ATOM     66  C   UNL A   1      45.496  24.969  28.083  1.00  0.00     0.031 A 
BRANCH  53  67
ATOM     67  C   UNL A   1      45.079  25.074  33.539  1.00  0.00    -0.014 A 
ATOM     68  C   UNL A   1      45.431  25.223  34.897  1.00  0.00     0.009 A 
ATOM     69  C   UNL A   1      44.288  23.959  33.219  1.00  0.00     0.009 A 
ATOM     70  C   UNL A   1      45.029  24.320  35.881  1.00  0.00     0.001 A 
ATOM     71  C   UNL A   1      43.844  23.074  34.210  1.00  0.00     0.001 A 
ATOM     72  C   UNL A   1      44.214  23.255  35.539  1.00  0.00     0.000 A 
ENDBRANCH  53  67
BRANCH  54  73
ATOM     73  C   UNL A   1      39.880  23.713  26.817  1.00  0.00    -0.014 A 
ATOM     74  C   UNL A   1      39.974  22.346  26.488  1.00  0.00     0.009 A 
ATOM     75  C   UNL A   1      38.655  24.354  26.575  1.00  0.00     0.009 A 
ATOM     76  C   UNL A   1      38.906  21.660  25.900  1.00  0.00     0.001 A 
ATOM     77  C   UNL A   1      37.583  23.666  25.985  1.00  0.00     0.001 A 
ATOM     78  C   UNL A   1      37.715  22.325  25.632  1.00  0.00     0.000 A 
ENDBRANCH  54  73
BRANCH  66  79
ATOM     79  C   UNL A   1      45.913  25.587  26.764  1.00  0.00    -0.014 A 
ATOM     80  C   UNL A   1      47.011  25.020  26.099  1.00  0.00     0.009 A 
ATOM     81  C   UNL A   1      45.400  26.804  26.279  1.00  0.00     0.009 A 
ATOM     82  C   UNL A   1      47.604  25.658  25.009  1.00  0.00     0.001 A 
ATOM     83  C   UNL A   1      45.978  27.432  25.167  1.00  0.00     0.001 A 
ATOM     84  C   UNL A   1      47.089  26.865  24.543  1.00  0.00     0.000 A 
ENDBRANCH  66  79
ENDBRANCH  40  41
ENDBRANCH  33  35
ENDBRANCH  32  33
ENDBRANCH  31  32
ENDBRANCH  30  31
ENDBRANCH   1  30
TORSDOF 16
ENDMDL
MODEL 2
REMARK VINA RESULT:     -11.4      3.259      5.964
REMARK SMILES Cc1ccc2c(c1)c(-c1ccnc3c(C)cccc13)c(C)n2CC(=O)OCCOCCOC(=O)c1ccc(-c2c3nc(c(-c4ccccc4)c4ccc([nH]4)c(-c4ccccc4)c4nc(c(-c5ccccc5)c5ccc2[nH]5)C=C4)C=C3)cc1
REMARK SMILES IDX 29 1 28 2 27 3 26 4 24 5 25 6 23 7 22 8 1 9 2 10 3 11 7 12
REMARK SMILES IDX 4 13 6 14 5 15 8 16 20 17 21 18 9 19 10 20 19 21 11 22 13 23
REMARK SMILES IDX 18 24 12 25 14 26 17 27 15 28 16 29 30 30 31 31 32 32 33 33
REMARK SMILES IDX 34 34 35 35 36 36 82 37 37 38 81 39 38 40 39 41 40 42 75 43
REMARK SMILES IDX 41 44 80 45 74 46 76 47 42 48 79 49 73 50 72 51 43 53 65 54
REMARK SMILES IDX 50 55 64 56 51 57 54 58 63 59 77 60 52 61 53 62 62 64 78 65
REMARK SMILES IDX 55 66 44 67 45 68 49 69 46 70 48 71 47 72 66 73 67 74 71 75
REMARK SMILES IDX 68 76 70 77 69 78 56 79 57 80 61 81 58 82 60 83 59 84
REMARK H PARENT 76 52 54 63
REMARK Flexibility Score: inf
ROOT
ATOM      1  O   UNL A   1      31.594  29.736  26.707  1.00  0.00    -0.374 OA
ENDROOT
BRANCH   1   2
ATOM      2  C   UNL A   1      31.459  30.141  25.357  1.00  0.00     0.202 C 
BRANCH   2   3
ATOM      3  C   UNL A   1      31.001  29.136  24.286  1.00  0.00     0.261 C 
BRANCH   3   4
ATOM      4  O   UNL A   1      31.978  28.886  23.255  1.00  0.00    -0.462 OA
BRANCH   4   5
ATOM      5  C   UNL A   1      32.779  27.812  23.480  1.00  0.00     0.326 C 
ATOM      6  O   UNL A   1      33.891  27.888  24.004  1.00  0.00    -0.250 OA
BRANCH   5   7
ATOM      7  C   UNL A   1      32.217  26.466  23.107  1.00  0.00     0.244 C 
BRANCH   7   8
ATOM      8  N   UNL A   1      32.489  25.310  23.966  1.00  0.00    -0.333 N 
ATOM      9  C   UNL A   1      29.154  22.578  27.626  1.00  0.00     0.044 C 
ATOM     10  C   UNL A   1      30.021  23.404  26.722  1.00  0.00    -0.050 A 
ATOM     11  C   UNL A   1      29.606  24.660  26.281  1.00  0.00     0.005 A 
ATOM     12  C   UNL A   1      31.273  22.914  26.325  1.00  0.00     0.014 A 
ATOM     13  C   UNL A   1      30.385  25.420  25.399  1.00  0.00     0.027 A 
ATOM     14  C   UNL A   1      32.055  23.638  25.400  1.00  0.00     0.008 A 
ATOM     15  C   UNL A   1      31.592  24.870  24.934  1.00  0.00     0.049 A 
ATOM     16  C   UNL A   1      33.281  23.362  24.735  1.00  0.00     0.011 A 
ATOM     17  C   UNL A   1      33.420  24.304  23.721  1.00  0.00     0.024 A 
ATOM     18  C   UNL A   1      34.317  24.249  22.526  1.00  0.00     0.065 C 
BRANCH  16  19
ATOM     19  C   UNL A   1      34.126  22.176  24.882  1.00  0.00    -0.005 A 
ATOM     20  C   UNL A   1      35.375  22.320  25.478  1.00  0.00     0.029 A 
ATOM     21  C   UNL A   1      33.720  20.902  24.404  1.00  0.00     0.008 A 
ATOM     22  C   UNL A   1      36.150  21.190  25.627  1.00  0.00     0.112 A 
ATOM     23  C   UNL A   1      34.567  19.794  24.655  1.00  0.00     0.074 A 
ATOM     24  C   UNL A   1      32.529  20.695  23.676  1.00  0.00     0.011 A 
ATOM     25  N   UNL A   1      35.761  19.953  25.260  1.00  0.00    -0.256 NA
ATOM     26  C   UNL A   1      34.149  18.515  24.251  1.00  0.00    -0.025 A 
ATOM     27  C   UNL A   1      32.151  19.425  23.253  1.00  0.00     0.001 A 
ATOM     28  C   UNL A   1      34.972  17.281  24.508  1.00  0.00     0.047 C 
ATOM     29  C   UNL A   1      32.935  18.333  23.574  1.00  0.00     0.005 A 
ENDBRANCH  16  19
ENDBRANCH   7   8
ENDBRANCH   5   7
ENDBRANCH   4   5
ENDBRANCH   3   4
ENDBRANCH   2   3
ENDBRANCH   1   2
BRANCH   1  30
ATOM     30  C   UNL A   1      32.914  29.596  27.206  1.00  0.00     0.202 C 
BRANCH  30  31
ATOM     31  C   UNL A   1      33.831  30.830  27.251  1.00  0.00     0.261 C 
BRANCH  31  32
ATOM     32  O   UNL A   1      34.743  30.814  28.352  1.00  0.00    -0.460 OA
BRANCH  32  33
ATOM     33  C   UNL A   1      35.871  31.564  28.167  1.00  0.00     0.338 C 
ATOM     34  O   UNL A   1      35.955  32.703  27.782  1.00  0.00    -0.246 OA
BRANCH  33  35
ATOM     35  C   UNL A   1      36.923  30.884  28.943  1.00  0.00     0.060 A 
ATOM     36  C   UNL A   1      38.183  31.458  29.131  1.00  0.00     0.016 A 
ATOM     37  C   UNL A   1      36.711  29.504  29.052  1.00  0.00     0.016 A 
ATOM     38  C   UNL A   1      39.275  30.612  29.264  1.00  0.00     0.010 A 
ATOM     39  C   UNL A   1      37.808  28.668  29.112  1.00  0.00     0.010 A 
ATOM     40  C   UNL A   1      39.088  29.224  29.152  1.00  0.00    -0.014 A 
BRANCH  40  41
ATOM     41  C   UNL A   1      40.233  28.336  29.323  1.00  0.00     0.031 A 
ATOM     42  C   UNL A   1      40.624  28.253  30.750  1.00  0.00     0.074 A 
ATOM     43  C   UNL A   1      40.763  27.543  28.370  1.00  0.00     0.049 A 
ATOM     44  N   UNL A   1      41.725  28.658  31.287  1.00  0.00    -0.248 NA
ATOM     45  C   UNL A   1      39.580  27.867  31.719  1.00  0.00     0.031 C 
ATOM     46  C   UNL A   1      40.294  27.341  27.006  1.00  0.00     0.029 A 
ATOM     47  N   UNL A   1      41.783  26.643  28.452  1.00  0.00    -0.354 N 
ATOM     48  C   UNL A   1      41.579  28.397  32.643  1.00  0.00     0.074 A 
ATOM     49  C   UNL A   1      40.180  28.157  32.869  1.00  0.00     0.031 C 
ATOM     50  C   UNL A   1      40.834  26.220  26.481  1.00  0.00     0.029 A 
ATOM     51  C   UNL A   1      41.795  25.699  27.427  1.00  0.00     0.049 A 
ATOM     52  H   UNL A   1      42.452  26.659  29.174  1.00  0.00     0.167 HD
ATOM     53  C   UNL A   1      42.646  28.087  33.425  1.00  0.00     0.031 A 
ATOM     54  C   UNL A   1      42.496  24.538  27.378  1.00  0.00     0.031 A 
ATOM     55  C   UNL A   1      43.885  28.476  32.805  1.00  0.00     0.049 A 
ATOM     56  C   UNL A   1      43.583  24.643  28.376  1.00  0.00     0.074 A 
ATOM     57  C   UNL A   1      44.425  29.679  32.402  1.00  0.00     0.029 A 
ATOM     58  N   UNL A   1      44.587  27.494  32.148  1.00  0.00    -0.354 N 
ATOM     59  N   UNL A   1      44.577  25.475  28.268  1.00  0.00    -0.248 NA
ATOM     60  C   UNL A   1      43.305  24.164  29.720  1.00  0.00     0.031 C 
ATOM     61  C   UNL A   1      45.120  29.384  31.195  1.00  0.00     0.029 A 
ATOM     62  C   UNL A   1      45.039  28.010  30.962  1.00  0.00     0.049 A 
ATOM     63  H   UNL A   1      44.740  26.579  32.475  1.00  0.00     0.167 HD
ATOM     64  C   UNL A   1      44.756  25.972  29.551  1.00  0.00     0.074 A 
ATOM     65  C   UNL A   1      44.008  25.060  30.417  1.00  0.00     0.031 C 
ATOM     66  C   UNL A   1      45.242  27.231  29.756  1.00  0.00     0.031 A 
BRANCH  53  67
ATOM     67  C   UNL A   1      42.567  27.063  34.529  1.00  0.00    -0.014 A 
ATOM     68  C   UNL A   1      41.903  27.279  35.755  1.00  0.00     0.009 A 
ATOM     69  C   UNL A   1      42.953  25.742  34.253  1.00  0.00     0.009 A 
ATOM     70  C   UNL A   1      41.639  26.249  36.658  1.00  0.00     0.001 A 
ATOM     71  C   UNL A   1      42.651  24.697  35.135  1.00  0.00     0.001 A 
ATOM     72  C   UNL A   1      41.995  24.951  36.336  1.00  0.00     0.000 A 
ENDBRANCH  53  67
BRANCH  54  73
ATOM     73  C   UNL A   1      42.044  23.230  26.841  1.00  0.00    -0.014 A 
ATOM     74  C   UNL A   1      40.739  22.770  27.110  1.00  0.00     0.009 A 
ATOM     75  C   UNL A   1      42.964  22.305  26.323  1.00  0.00     0.009 A 
ATOM     76  C   UNL A   1      40.381  21.432  26.913  1.00  0.00     0.001 A 
ATOM     77  C   UNL A   1      42.604  20.963  26.126  1.00  0.00     0.001 A 
ATOM     78  C   UNL A   1      41.319  20.523  26.438  1.00  0.00     0.000 A 
ENDBRANCH  54  73
BRANCH  66  79
ATOM     79  C   UNL A   1      45.824  27.984  28.579  1.00  0.00    -0.014 A 
ATOM     80  C   UNL A   1      47.222  28.013  28.454  1.00  0.00     0.009 A 
ATOM     81  C   UNL A   1      45.066  28.816  27.736  1.00  0.00     0.009 A 
ATOM     82  C   UNL A   1      47.849  28.866  27.545  1.00  0.00     0.001 A 
ATOM     83  C   UNL A   1      45.694  29.653  26.802  1.00  0.00     0.001 A 
ATOM     84  C   UNL A   1      47.085  29.687  26.719  1.00  0.00     0.000 A 
ENDBRANCH  66  79
ENDBRANCH  40  41
ENDBRANCH  33  35
ENDBRANCH  32  33
ENDBRANCH  31  32
ENDBRANCH  30  31
ENDBRANCH   1  30
TORSDOF 16
ENDMDL
MODEL 3
REMARK VINA RESULT:     -11.4      2.730      5.552
REMARK SMILES Cc1ccc2c(c1)c(-c1ccnc3c(C)cccc13)c(C)n2CC(=O)OCCOCCOC(=O)c1ccc(-c2c3nc(c(-c4ccccc4)c4ccc([nH]4)c(-c4ccccc4)c4nc(c(-c5ccccc5)c5ccc2[nH]5)C=C4)C=C3)cc1
REMARK SMILES IDX 29 1 28 2 27 3 26 4 24 5 25 6 23 7 22 8 1 9 2 10 3 11 7 12
REMARK SMILES IDX 4 13 6 14 5 15 8 16 20 17 21 18 9 19 10 20 19 21 11 22 13 23
REMARK SMILES IDX 18 24 12 25 14 26 17 27 15 28 16 29 30 30 31 31 32 32 33 33
REMARK SMILES IDX 34 34 35 35 36 36 82 37 37 38 81 39 38 40 39 41 40 42 75 43
REMARK SMILES IDX 41 44 80 45 74 46 76 47 42 48 79 49 73 50 72 51 43 53 65 54
REMARK SMILES IDX 50 55 64 56 51 57 54 58 63 59 77 60 52 61 53 62 62 64 78 65
REMARK SMILES IDX 55 66 44 67 45 68 49 69 46 70 48 71 47 72 66 73 67 74 71 75
REMARK SMILES IDX 68 76 70 77 69 78 56 79 57 80 61 81 58 82 60 83 59 84
REMARK H PARENT 76 52 54 63
REMARK Flexibility Score: inf
ROOT
ATOM      1  O   UNL A   1      35.002  30.250  27.243  1.00  0.00    -0.374 OA
ENDROOT
BRANCH   1   2
ATOM      2  C   UNL A   1      34.391  28.973  27.239  1.00  0.00     0.202 C 
BRANCH   2   3
ATOM      3  C   UNL A   1      33.187  28.691  26.323  1.00  0.00     0.261 C 
BRANCH   3   4
ATOM      4  O   UNL A   1      32.732  27.323  26.351  1.00  0.00    -0.462 OA
BRANCH   4   5
ATOM      5  C   UNL A   1      31.488  27.148  26.867  1.00  0.00     0.326 C 
ATOM      6  O   UNL A   1      31.028  27.827  27.785  1.00  0.00    -0.250 OA
BRANCH   5   7
ATOM      7  C   UNL A   1      30.632  26.095  26.214  1.00  0.00     0.244 C 
BRANCH   7   8
ATOM      8  N   UNL A   1      31.264  25.072  25.376  1.00  0.00    -0.333 N 
ATOM      9  C   UNL A   1      32.903  25.240  19.966  1.00  0.00     0.044 C 
ATOM     10  C   UNL A   1      32.355  25.219  21.363  1.00  0.00    -0.050 A 
ATOM     11  C   UNL A   1      31.493  26.221  21.809  1.00  0.00     0.005 A 
ATOM     12  C   UNL A   1      32.700  24.172  22.228  1.00  0.00     0.014 A 
ATOM     13  C   UNL A   1      31.013  26.239  23.125  1.00  0.00     0.027 A 
ATOM     14  C   UNL A   1      32.268  24.193  23.571  1.00  0.00     0.008 A 
ATOM     15  C   UNL A   1      31.448  25.235  24.007  1.00  0.00     0.049 A 
ATOM     16  C   UNL A   1      32.536  23.360  24.693  1.00  0.00     0.011 A 
ATOM     17  C   UNL A   1      32.074  24.030  25.822  1.00  0.00     0.024 A 
ATOM     18  C   UNL A   1      32.423  23.778  27.253  1.00  0.00     0.065 C 
BRANCH  16  19
ATOM     19  C   UNL A   1      33.367  22.156  24.731  1.00  0.00    -0.005 A 
ATOM     20  C   UNL A   1      32.747  20.917  24.602  1.00  0.00     0.029 A 
ATOM     21  C   UNL A   1      34.772  22.220  24.927  1.00  0.00     0.008 A 
ATOM     22  C   UNL A   1      33.545  19.793  24.619  1.00  0.00     0.112 A 
ATOM     23  C   UNL A   1      35.508  21.010  24.874  1.00  0.00     0.074 A 
ATOM     24  C   UNL A   1      35.460  23.423  25.192  1.00  0.00     0.011 A 
ATOM     25  N   UNL A   1      34.889  19.823  24.721  1.00  0.00    -0.256 NA
ATOM     26  C   UNL A   1      36.907  21.062  24.997  1.00  0.00    -0.025 A 
ATOM     27  C   UNL A   1      36.841  23.447  25.348  1.00  0.00     0.001 A 
ATOM     28  C   UNL A   1      37.768  19.829  24.918  1.00  0.00     0.047 C 
ATOM     29  C   UNL A   1      37.568  22.280  25.209  1.00  0.00     0.005 A 
ENDBRANCH  16  19
ENDBRANCH   7   8
ENDBRANCH   5   7
ENDBRANCH   4   5
ENDBRANCH   3   4
ENDBRANCH   2   3
ENDBRANCH   1   2
BRANCH   1  30
ATOM     30  C   UNL A   1      34.203  31.343  27.662  1.00  0.00     0.202 C 
BRANCH  30  31
ATOM     31  C   UNL A   1      34.848  32.468  28.489  1.00  0.00     0.261 C 
BRANCH  31  32
ATOM     32  O   UNL A   1      36.008  32.045  29.208  1.00  0.00    -0.460 OA
BRANCH  32  33
ATOM     33  C   UNL A   1      35.839  31.960  30.562  1.00  0.00     0.338 C 
ATOM     34  O   UNL A   1      34.835  32.147  31.202  1.00  0.00    -0.246 OA
BRANCH  33  35
ATOM     35  C   UNL A   1      36.981  31.167  31.049  1.00  0.00     0.060 A 
ATOM     36  C   UNL A   1      38.249  31.733  31.218  1.00  0.00     0.016 A 
ATOM     37  C   UNL A   1      36.800  29.789  30.874  1.00  0.00     0.016 A 
ATOM     38  C   UNL A   1      39.359  30.919  31.041  1.00  0.00     0.010 A 
ATOM     39  C   UNL A   1      37.906  29.001  30.628  1.00  0.00     0.010 A 
ATOM     40  C   UNL A   1      39.176  29.582  30.649  1.00  0.00    -0.014 A 
BRANCH  40  41
ATOM     41  C   UNL A   1      40.344  28.721  30.493  1.00  0.00     0.031 A 
ATOM     42  C   UNL A   1      41.006  28.495  31.799  1.00  0.00     0.074 A 
ATOM     43  C   UNL A   1      40.687  28.057  29.371  1.00  0.00     0.049 A 
ATOM     44  N   UNL A   1      42.185  28.876  32.157  1.00  0.00    -0.248 NA
ATOM     45  C   UNL A   1      40.176  27.969  32.899  1.00  0.00     0.031 C 
ATOM     46  C   UNL A   1      39.964  27.991  28.108  1.00  0.00     0.029 A 
ATOM     47  N   UNL A   1      41.715  27.189  29.151  1.00  0.00    -0.354 N 
ATOM     48  C   UNL A   1      42.310  28.463  33.477  1.00  0.00     0.074 A 
ATOM     49  C   UNL A   1      40.985  28.151  33.939  1.00  0.00     0.031 C 
ATOM     50  C   UNL A   1      40.405  26.954  27.364  1.00  0.00     0.029 A 
ATOM     51  C   UNL A   1      41.539  26.365  28.042  1.00  0.00     0.049 A 
ATOM     52  H   UNL A   1      42.512  27.149  29.728  1.00  0.00     0.167 HD
ATOM     53  C   UNL A   1      43.513  28.106  33.998  1.00  0.00     0.031 A 
ATOM     54  C   UNL A   1      42.232  25.242  27.726  1.00  0.00     0.031 A 
ATOM     55  C   UNL A   1      44.603  28.603  33.200  1.00  0.00     0.049 A 
ATOM     56  C   UNL A   1      43.491  25.274  28.501  1.00  0.00     0.074 A 
ATOM     57  C   UNL A   1      45.038  29.862  32.841  1.00  0.00     0.029 A 
ATOM     58  N   UNL A   1      45.176  27.725  32.312  1.00  0.00    -0.354 N 
ATOM     59  N   UNL A   1      44.435  26.146  28.300  1.00  0.00    -0.248 NA
ATOM     60  C   UNL A   1      43.486  24.641  29.809  1.00  0.00     0.031 C 
ATOM     61  C   UNL A   1      45.488  29.726  31.498  1.00  0.00     0.029 A 
ATOM     62  C   UNL A   1      45.381  28.384  31.128  1.00  0.00     0.049 A 
ATOM     63  H   UNL A   1      45.400  26.785  32.496  1.00  0.00     0.167 HD
ATOM     64  C   UNL A   1      44.853  26.505  29.574  1.00  0.00     0.074 A 
ATOM     65  C   UNL A   1      44.301  25.477  30.457  1.00  0.00     0.031 C 
ATOM     66  C   UNL A   1      45.354  27.750  29.825  1.00  0.00     0.031 A 
BRANCH  53  67
ATOM     67  C   UNL A   1      43.664  26.964  34.972  1.00  0.00    -0.014 A 
ATOM     68  C   UNL A   1      43.886  27.135  36.355  1.00  0.00     0.009 A 
ATOM     69  C   UNL A   1      43.328  25.669  34.549  1.00  0.00     0.009 A 
ATOM     70  C   UNL A   1      43.787  26.084  37.266  1.00  0.00     0.001 A 
ATOM     71  C   UNL A   1      43.183  24.620  35.466  1.00  0.00     0.001 A 
ATOM     72  C   UNL A   1      43.412  24.828  36.823  1.00  0.00     0.000 A 
ENDBRANCH  53  67
BRANCH  54  73
ATOM     73  C   UNL A   1      41.700  23.986  27.139  1.00  0.00    -0.014 A 
ATOM     74  C   UNL A   1      40.696  23.262  27.812  1.00  0.00     0.009 A 
ATOM     75  C   UNL A   1      42.367  23.342  26.086  1.00  0.00     0.009 A 
ATOM     76  C   UNL A   1      40.402  21.936  27.479  1.00  0.00     0.001 A 
ATOM     77  C   UNL A   1      42.073  22.011  25.751  1.00  0.00     0.001 A 
ATOM     78  C   UNL A   1      41.103  21.304  26.459  1.00  0.00     0.000 A 
ENDBRANCH  54  73
BRANCH  66  79
ATOM     79  C   UNL A   1      45.686  28.648  28.652  1.00  0.00    -0.014 A 
ATOM     80  C   UNL A   1      44.639  29.395  28.089  1.00  0.00     0.009 A 
ATOM     81  C   UNL A   1      46.920  28.621  27.977  1.00  0.00     0.009 A 
ATOM     82  C   UNL A   1      44.801  30.065  26.876  1.00  0.00     0.001 A 
ATOM     83  C   UNL A   1      47.091  29.316  26.771  1.00  0.00     0.001 A 
ATOM     84  C   UNL A   1      46.026  30.024  26.215  1.00  0.00     0.000 A 
ENDBRANCH  66  79
ENDBRANCH  40  41
ENDBRANCH  33  35
ENDBRANCH  32  33
ENDBRANCH  31  32
ENDBRANCH  30  31
ENDBRANCH   1  30
TORSDOF 16
ENDMDL
