MODEL 1
REMARK VINA RESULT:     -10.0      0.000      0.000
REMARK SMILES O=C(OCCOCCOC(=O)[C@@H](CCO)NC(=O)c1c(F)ccc([N+](=O)[O-])c1F)c1ccc(-c2c3nc(c(-c4ccccc4)c4ccc([nH]4)c(-c4ccccc4)c4nc(c(-c5ccccc5)c5ccc2[nH]5)C=C4)C=C3)cc1
REMARK SMILES IDX 7 1 6 2 5 3 4 4 3 5 2 6 1 7 30 8 31 9 77 10 32 11 76 12
REMARK SMILES IDX 33 13 34 14 35 15 70 16 36 17 75 18 69 19 71 20 37 21 74 22
REMARK SMILES IDX 68 23 67 24 38 26 60 27 45 28 59 29 46 30 49 31 58 32 72 33
REMARK SMILES IDX 47 34 48 35 57 37 73 38 50 39 39 40 40 41 44 42 41 43 43 44
REMARK SMILES IDX 42 45 61 46 62 47 66 48 63 49 65 50 64 51 51 52 52 53 56 54
REMARK SMILES IDX 53 55 55 56 54 57 8 58 9 59 10 60 11 61 12 62 13 63 14 64
REMARK SMILES IDX 15 65 16 67 17 68 18 70 19 71 20 72 28 73 21 74 22 75 24 76
REMARK SMILES IDX 29 77 23 78 25 79 26 80 27 81
REMARK H PARENT 71 25 49 36 15 66 16 69
REMARK Flexibility Score: inf
ROOT
ATOM      1  C   UNL A   1      36.707  23.084  24.586  1.00  0.00     0.202 C 
ENDROOT
BRANCH   1   2
ATOM      2  O   UNL A   1      37.125  21.729  24.367  1.00  0.00    -0.374 OA
BRANCH   2   3
ATOM      3  C   UNL A   1      38.038  21.185  25.323  1.00  0.00     0.202 C 
BRANCH   3   4
ATOM      4  C   UNL A   1      38.652  19.815  24.999  1.00  0.00     0.261 C 
BRANCH   4   5
ATOM      5  O   UNL A   1      39.609  19.427  25.999  1.00  0.00    -0.460 OA
BRANCH   5   6
ATOM      6  C   UNL A   1      40.932  19.711  26.059  1.00  0.00     0.338 C 
ATOM      7  O   UNL A   1      41.729  18.906  25.583  1.00  0.00    -0.246 OA
BRANCH   6   8
ATOM      8  C   UNL A   1      41.477  20.964  26.664  1.00  0.00     0.060 A 
ATOM      9  C   UNL A   1      41.677  21.165  28.028  1.00  0.00     0.016 A 
ATOM     10  C   UNL A   1      41.858  21.995  25.788  1.00  0.00     0.016 A 
ATOM     11  C   UNL A   1      42.132  22.365  28.529  1.00  0.00     0.010 A 
ATOM     12  C   UNL A   1      42.362  23.205  26.279  1.00  0.00     0.010 A 
ATOM     13  C   UNL A   1      42.460  23.397  27.659  1.00  0.00    -0.014 A 
BRANCH  13  14
ATOM     14  C   UNL A   1      42.728  24.696  28.290  1.00  0.00     0.031 A 
ATOM     15  C   UNL A   1      44.159  25.109  28.453  1.00  0.00     0.074 A 
ATOM     16  C   UNL A   1      41.713  25.564  28.442  1.00  0.00     0.049 A 
ATOM     17  N   UNL A   1      44.647  26.250  28.852  1.00  0.00    -0.248 NA
ATOM     18  C   UNL A   1      45.179  24.111  28.080  1.00  0.00     0.031 C 
ATOM     19  C   UNL A   1      40.309  25.280  28.126  1.00  0.00     0.029 A 
ATOM     20  N   UNL A   1      41.714  26.879  28.815  1.00  0.00    -0.354 N 
ATOM     21  C   UNL A   1      46.026  26.097  28.809  1.00  0.00     0.074 A 
ATOM     22  C   UNL A   1      46.302  24.762  28.335  1.00  0.00     0.031 C 
ATOM     23  C   UNL A   1      39.594  26.408  28.264  1.00  0.00     0.029 A 
ATOM     24  C   UNL A   1      40.475  27.468  28.740  1.00  0.00     0.049 A 
ATOM     25  H   UNL A   1      42.522  27.357  29.109  1.00  0.00     0.167 HD
ATOM     26  C   UNL A   1      46.975  26.996  29.154  1.00  0.00     0.031 A 
ATOM     27  C   UNL A   1      40.104  28.725  29.042  1.00  0.00     0.031 A 
ATOM     28  C   UNL A   1      46.670  28.312  29.637  1.00  0.00     0.049 A 
ATOM     29  C   UNL A   1      41.168  29.670  29.524  1.00  0.00     0.074 A 
ATOM     30  C   UNL A   1      47.526  29.280  30.124  1.00  0.00     0.029 A 
ATOM     31  N   UNL A   1      45.387  28.842  29.685  1.00  0.00    -0.354 N 
ATOM     32  N   UNL A   1      42.467  29.486  29.588  1.00  0.00    -0.248 NA
ATOM     33  C   UNL A   1      40.718  30.984  29.994  1.00  0.00     0.031 C 
ATOM     34  C   UNL A   1      46.753  30.384  30.506  1.00  0.00     0.029 A 
ATOM     35  C   UNL A   1      45.423  30.119  30.207  1.00  0.00     0.049 A 
ATOM     36  H   UNL A   1      44.571  28.376  29.390  1.00  0.00     0.167 HD
ATOM     37  C   UNL A   1      42.992  30.663  30.099  1.00  0.00     0.074 A 
ATOM     38  C   UNL A   1      41.870  31.563  30.301  1.00  0.00     0.031 C 
ATOM     39  C   UNL A   1      44.279  30.976  30.388  1.00  0.00     0.031 A 
BRANCH  26  40
ATOM     40  C   UNL A   1      48.397  26.519  29.119  1.00  0.00    -0.014 A 
ATOM     41  C   UNL A   1      48.986  25.863  30.210  1.00  0.00     0.009 A 
ATOM     42  C   UNL A   1      49.181  26.797  27.988  1.00  0.00     0.009 A 
ATOM     43  C   UNL A   1      50.343  25.527  30.182  1.00  0.00     0.001 A 
ATOM     44  C   UNL A   1      50.529  26.441  27.954  1.00  0.00     0.001 A 
ATOM     45  C   UNL A   1      51.113  25.817  29.056  1.00  0.00     0.000 A 
ENDBRANCH  26  40
BRANCH  27  46
ATOM     46  C   UNL A   1      38.677  29.133  28.954  1.00  0.00    -0.014 A 
ATOM     47  C   UNL A   1      37.830  29.062  30.070  1.00  0.00     0.009 A 
ATOM     48  C   UNL A   1      38.148  29.594  27.735  1.00  0.00     0.009 A 
ATOM     49  C   UNL A   1      36.484  29.425  29.961  1.00  0.00     0.001 A 
ATOM     50  C   UNL A   1      36.812  29.986  27.637  1.00  0.00     0.001 A 
ATOM     51  C   UNL A   1      35.977  29.892  28.749  1.00  0.00     0.000 A 
ENDBRANCH  27  46
BRANCH  39  52
ATOM     52  C   UNL A   1      44.528  32.353  30.923  1.00  0.00    -0.014 A 
ATOM     53  C   UNL A   1      44.527  32.603  32.304  1.00  0.00     0.009 A 
ATOM     54  C   UNL A   1      44.806  33.400  30.034  1.00  0.00     0.009 A 
ATOM     55  C   UNL A   1      44.768  33.891  32.782  1.00  0.00     0.001 A 
ATOM     56  C   UNL A   1      45.072  34.681  30.516  1.00  0.00     0.001 A 
ATOM     57  C   UNL A   1      45.043  34.926  31.889  1.00  0.00     0.000 A 
ENDBRANCH  39  52
ENDBRANCH  13  14
ENDBRANCH   6   8
ENDBRANCH   5   6
ENDBRANCH   4   5
ENDBRANCH   3   4
ENDBRANCH   2   3
ENDBRANCH   1   2
BRANCH   1  58
ATOM     58  C   UNL A   1      35.192  23.175  24.752  1.00  0.00     0.261 C 
BRANCH  58  59
ATOM     59  O   UNL A   1      34.899  23.043  26.152  1.00  0.00    -0.462 OA
BRANCH  59  60
ATOM     60  C   UNL A   1      34.214  21.930  26.502  1.00  0.00     0.328 C 
ATOM     61  O   UNL A   1      34.267  21.392  27.606  1.00  0.00    -0.250 OA
BRANCH  60  62
ATOM     62  C   UNL A   1      33.359  21.364  25.361  1.00  0.00     0.194 C 
BRANCH  62  63
ATOM     63  C   UNL A   1      33.657  20.006  24.697  1.00  0.00     0.065 C 
BRANCH  63  64
ATOM     64  C   UNL A   1      32.907  18.764  25.155  1.00  0.00     0.159 C 
BRANCH  64  65
ATOM     65  O   UNL A   1      32.909  18.667  26.566  1.00  0.00    -0.396 OA
ATOM     66  H   UNL A   1      33.795  18.874  26.903  1.00  0.00     0.210 HD
ENDBRANCH  64  65
ENDBRANCH  63  64
ENDBRANCH  62  63
BRANCH  62  67
ATOM     67  N   UNL A   1      31.949  21.490  25.727  1.00  0.00    -0.338 N 
ATOM     68  C   UNL A   1      31.159  22.607  25.733  1.00  0.00     0.258 C 
ATOM     69  H   UNL A   1      31.508  20.656  26.010  1.00  0.00     0.164 HD
ATOM     70  O   UNL A   1      30.022  22.551  26.215  1.00  0.00    -0.269 OA
BRANCH  68  71
ATOM     71  C   UNL A   1      31.616  23.876  25.154  1.00  0.00     0.118 A 
ATOM     72  C   UNL A   1      32.108  24.898  25.969  1.00  0.00     0.139 A 
ATOM     73  C   UNL A   1      31.659  24.023  23.764  1.00  0.00     0.216 A 
ATOM     74  F   UNL A   1      32.118  24.771  27.304  1.00  0.00    -0.206 F 
ATOM     75  C   UNL A   1      32.592  26.083  25.422  1.00  0.00     0.047 A 
ATOM     76  C   UNL A   1      32.167  25.199  23.208  1.00  0.00     0.305 A 
ATOM     77  F   UNL A   1      31.209  23.026  22.988  1.00  0.00    -0.198 F 
ATOM     78  C   UNL A   1      32.627  26.239  24.037  1.00  0.00     0.092 A 
BRANCH  76  79
ATOM     79  N   UNL A   1      32.257  25.363  21.756  1.00  0.00     0.065 N 
ATOM     80  O   UNL A   1      31.431  26.081  21.184  1.00  0.00    -0.258 OA
ATOM     81  O   UNL A   1      33.180  24.769  21.180  1.00  0.00    -0.258 OA
ENDBRANCH  76  79
ENDBRANCH  68  71
ENDBRANCH  62  67
ENDBRANCH  60  62
ENDBRANCH  59  60
ENDBRANCH  58  59
ENDBRANCH   1  58
TORSDOF 20
ENDMDL
MODEL 2
REMARK VINA RESULT:      -9.8      1.399      2.361
REMARK SMILES O=C(OCCOCCOC(=O)[C@@H](CCO)NC(=O)c1c(F)ccc([N+](=O)[O-])c1F)c1ccc(-c2c3nc(c(-c4ccccc4)c4ccc([nH]4)c(-c4ccccc4)c4nc(c(-c5ccccc5)c5ccc2[nH]5)C=C4)C=C3)cc1
REMARK SMILES IDX 7 1 6 2 5 3 4 4 3 5 2 6 1 7 30 8 31 9 77 10 32 11 76 12
REMARK SMILES IDX 33 13 34 14 35 15 70 16 36 17 75 18 69 19 71 20 37 21 74 22
REMARK SMILES IDX 68 23 67 24 38 26 60 27 45 28 59 29 46 30 49 31 58 32 72 33
REMARK SMILES IDX 47 34 48 35 57 37 73 38 50 39 39 40 40 41 44 42 41 43 43 44
REMARK SMILES IDX 42 45 61 46 62 47 66 48 63 49 65 50 64 51 51 52 52 53 56 54
REMARK SMILES IDX 53 55 55 56 54 57 8 58 9 59 10 60 11 61 12 62 13 63 14 64
REMARK SMILES IDX 15 65 16 67 17 68 18 70 19 71 20 72 28 73 21 74 22 75 24 76
REMARK SMILES IDX 29 77 23 78 25 79 26 80 27 81
REMARK H PARENT 71 25 49 36 15 66 16 69
REMARK Flexibility Score: inf
ROOT
ATOM      1  C   UNL A   1      35.694  18.513  24.656  1.00  0.00     0.202 C 
ENDROOT
BRANCH   1   2
ATOM      2  O   UNL A   1      36.117  19.839  25.000  1.00  0.00    -0.374 OA
BRANCH   2   3
ATOM      3  C   UNL A   1      37.414  20.229  24.542  1.00  0.00     0.202 C 
BRANCH   3   4
ATOM      4  C   UNL A   1      38.448  20.603  25.614  1.00  0.00     0.261 C 
BRANCH   4   5
ATOM      5  O   UNL A   1      39.481  19.606  25.708  1.00  0.00    -0.460 OA
BRANCH   5   6
ATOM      6  C   UNL A   1      40.796  19.776  25.985  1.00  0.00     0.338 C 
ATOM      7  O   UNL A   1      41.582  18.881  25.680  1.00  0.00    -0.246 OA
BRANCH   6   8
ATOM      8  C   UNL A   1      41.348  21.004  26.633  1.00  0.00     0.060 A 
ATOM      9  C   UNL A   1      41.312  21.264  28.001  1.00  0.00     0.016 A 
ATOM     10  C   UNL A   1      41.992  21.940  25.806  1.00  0.00     0.016 A 
ATOM     11  C   UNL A   1      41.789  22.442  28.532  1.00  0.00     0.010 A 
ATOM     12  C   UNL A   1      42.520  23.122  26.336  1.00  0.00     0.010 A 
ATOM     13  C   UNL A   1      42.380  23.385  27.701  1.00  0.00    -0.014 A 
BRANCH  13  14
ATOM     14  C   UNL A   1      42.662  24.687  28.320  1.00  0.00     0.031 A 
ATOM     15  C   UNL A   1      44.097  25.086  28.478  1.00  0.00     0.074 A 
ATOM     16  C   UNL A   1      41.656  25.566  28.464  1.00  0.00     0.049 A 
ATOM     17  N   UNL A   1      44.597  26.226  28.866  1.00  0.00    -0.248 NA
ATOM     18  C   UNL A   1      45.107  24.075  28.113  1.00  0.00     0.031 C 
ATOM     19  C   UNL A   1      40.248  25.294  28.152  1.00  0.00     0.029 A 
ATOM     20  N   UNL A   1      41.670  26.884  28.826  1.00  0.00    -0.354 N 
ATOM     21  C   UNL A   1      45.974  26.060  28.823  1.00  0.00     0.074 A 
ATOM     22  C   UNL A   1      46.236  24.717  28.362  1.00  0.00     0.031 C 
ATOM     23  C   UNL A   1      39.546  26.430  28.281  1.00  0.00     0.029 A 
ATOM     24  C   UNL A   1      40.437  27.485  28.746  1.00  0.00     0.049 A 
ATOM     25  H   UNL A   1      42.484  27.357  29.114  1.00  0.00     0.167 HD
ATOM     26  C   UNL A   1      46.933  26.951  29.160  1.00  0.00     0.031 A 
ATOM     27  C   UNL A   1      40.079  28.749  29.036  1.00  0.00     0.031 A 
ATOM     28  C   UNL A   1      46.641  28.275  29.630  1.00  0.00     0.049 A 
ATOM     29  C   UNL A   1      41.153  29.687  29.509  1.00  0.00     0.074 A 
ATOM     30  C   UNL A   1      47.507  29.239  30.108  1.00  0.00     0.029 A 
ATOM     31  N   UNL A   1      45.363  28.818  29.675  1.00  0.00    -0.354 N 
ATOM     32  N   UNL A   1      42.450  29.491  29.574  1.00  0.00    -0.248 NA
ATOM     33  C   UNL A   1      40.717  31.010  29.968  1.00  0.00     0.031 C 
ATOM     34  C   UNL A   1      46.745  30.354  30.480  1.00  0.00     0.029 A 
ATOM     35  C   UNL A   1      45.413  30.100  30.185  1.00  0.00     0.049 A 
ATOM     36  H   UNL A   1      44.543  28.357  29.385  1.00  0.00     0.167 HD
ATOM     37  C   UNL A   1      42.987  30.667  30.074  1.00  0.00     0.074 A 
ATOM     38  C   UNL A   1      41.875  31.580  30.268  1.00  0.00     0.031 C 
ATOM     39  C   UNL A   1      44.278  30.969  30.359  1.00  0.00     0.031 A 
BRANCH  26  40
ATOM     40  C   UNL A   1      48.349  26.460  29.127  1.00  0.00    -0.014 A 
ATOM     41  C   UNL A   1      48.955  25.870  30.247  1.00  0.00     0.009 A 
ATOM     42  C   UNL A   1      49.113  26.657  27.965  1.00  0.00     0.009 A 
ATOM     43  C   UNL A   1      50.308  25.520  30.214  1.00  0.00     0.001 A 
ATOM     44  C   UNL A   1      50.457  26.287  27.929  1.00  0.00     0.001 A 
ATOM     45  C   UNL A   1      51.058  25.730  29.057  1.00  0.00     0.000 A 
ENDBRANCH  26  40
BRANCH  27  46
ATOM     46  C   UNL A   1      38.656  29.171  28.946  1.00  0.00    -0.014 A 
ATOM     47  C   UNL A   1      38.132  29.713  27.763  1.00  0.00     0.009 A 
ATOM     48  C   UNL A   1      37.808  29.038  30.060  1.00  0.00     0.009 A 
ATOM     49  C   UNL A   1      36.798  30.130  27.705  1.00  0.00     0.001 A 
ATOM     50  C   UNL A   1      36.469  29.425  29.989  1.00  0.00     0.001 A 
ATOM     51  C   UNL A   1      35.967  29.980  28.814  1.00  0.00     0.000 A 
ENDBRANCH  27  46
BRANCH  39  52
ATOM     52  C   UNL A   1      44.541  32.349  30.882  1.00  0.00    -0.014 A 
ATOM     53  C   UNL A   1      44.398  32.645  32.245  1.00  0.00     0.009 A 
ATOM     54  C   UNL A   1      44.976  33.350  30.002  1.00  0.00     0.009 A 
ATOM     55  C   UNL A   1      44.655  33.934  32.712  1.00  0.00     0.001 A 
ATOM     56  C   UNL A   1      45.256  34.630  30.476  1.00  0.00     0.001 A 
ATOM     57  C   UNL A   1      45.086  34.923  31.829  1.00  0.00     0.000 A 
ENDBRANCH  39  52
ENDBRANCH  13  14
ENDBRANCH   6   8
ENDBRANCH   5   6
ENDBRANCH   4   5
ENDBRANCH   3   4
ENDBRANCH   2   3
ENDBRANCH   1   2
BRANCH   1  58
ATOM     58  C   UNL A   1      34.177  18.442  24.490  1.00  0.00     0.261 C 
BRANCH  58  59
ATOM     59  O   UNL A   1      33.611  19.565  25.185  1.00  0.00    -0.462 OA
BRANCH  59  60
ATOM     60  C   UNL A   1      32.954  20.459  24.410  1.00  0.00     0.328 C 
ATOM     61  O   UNL A   1      32.168  20.164  23.512  1.00  0.00    -0.250 OA
BRANCH  60  62
ATOM     62  C   UNL A   1      33.301  21.916  24.742  1.00  0.00     0.194 C 
BRANCH  62  63
ATOM     63  C   UNL A   1      33.141  22.504  26.157  1.00  0.00     0.065 C 
BRANCH  63  64
ATOM     64  C   UNL A   1      34.362  22.651  27.052  1.00  0.00     0.159 C 
BRANCH  64  65
ATOM     65  O   UNL A   1      35.081  21.436  27.127  1.00  0.00    -0.396 OA
ATOM     66  H   UNL A   1      34.531  20.761  27.556  1.00  0.00     0.210 HD
ENDBRANCH  64  65
ENDBRANCH  63  64
ENDBRANCH  62  63
BRANCH  62  67
ATOM     67  N   UNL A   1      34.611  22.226  24.171  1.00  0.00    -0.338 N 
ATOM     68  C   UNL A   1      34.977  23.283  23.384  1.00  0.00     0.258 C 
ATOM     69  H   UNL A   1      35.327  21.585  24.382  1.00  0.00     0.164 HD
ATOM     70  O   UNL A   1      36.102  23.304  22.871  1.00  0.00    -0.269 OA
BRANCH  68  71
ATOM     71  C   UNL A   1      34.075  24.418  23.150  1.00  0.00     0.118 A 
ATOM     72  C   UNL A   1      33.186  24.413  22.073  1.00  0.00     0.139 A 
ATOM     73  C   UNL A   1      34.031  25.465  24.075  1.00  0.00     0.216 A 
ATOM     74  F   UNL A   1      33.175  23.403  21.191  1.00  0.00    -0.206 F 
ATOM     75  C   UNL A   1      32.292  25.462  21.876  1.00  0.00     0.047 A 
ATOM     76  C   UNL A   1      33.119  26.507  23.898  1.00  0.00     0.305 A 
ATOM     77  F   UNL A   1      34.871  25.448  25.121  1.00  0.00    -0.198 F 
ATOM     78  C   UNL A   1      32.251  26.515  22.790  1.00  0.00     0.092 A 
BRANCH  76  79
ATOM     79  N   UNL A   1      33.028  27.596  24.871  1.00  0.00     0.065 N 
ATOM     80  O   UNL A   1      33.316  28.743  24.514  1.00  0.00    -0.258 OA
ATOM     81  O   UNL A   1      32.649  27.298  26.014  1.00  0.00    -0.258 OA
ENDBRANCH  76  79
ENDBRANCH  68  71
ENDBRANCH  62  67
ENDBRANCH  60  62
ENDBRANCH  59  60
ENDBRANCH  58  59
ENDBRANCH   1  58
TORSDOF 20
ENDMDL
MODEL 3
REMARK VINA RESULT:      -9.6      1.451      2.392
REMARK SMILES O=C(OCCOCCOC(=O)[C@@H](CCO)NC(=O)c1c(F)ccc([N+](=O)[O-])c1F)c1ccc(-c2c3nc(c(-c4ccccc4)c4ccc([nH]4)c(-c4ccccc4)c4nc(c(-c5ccccc5)c5ccc2[nH]5)C=C4)C=C3)cc1
REMARK SMILES IDX 7 1 6 2 5 3 4 4 3 5 2 6 1 7 30 8 31 9 77 10 32 11 76 12
REMARK SMILES IDX 33 13 34 14 35 15 70 16 36 17 75 18 69 19 71 20 37 21 74 22
REMARK SMILES IDX 68 23 67 24 38 26 60 27 45 28 59 29 46 30 49 31 58 32 72 33
REMARK SMILES IDX 47 34 48 35 57 37 73 38 50 39 39 40 40 41 44 42 41 43 43 44
REMARK SMILES IDX 42 45 61 46 62 47 66 48 63 49 65 50 64 51 51 52 52 53 56 54
REMARK SMILES IDX 53 55 55 56 54 57 8 58 9 59 10 60 11 61 12 62 13 63 14 64
REMARK SMILES IDX 15 65 16 67 17 68 18 70 19 71 20 72 28 73 21 74 22 75 24 76
REMARK SMILES IDX 29 77 23 78 25 79 26 80 27 81
REMARK H PARENT 71 25 49 36 15 66 16 69
REMARK Flexibility Score: inf
ROOT
ATOM      1  C   UNL A   1      35.203  20.748  24.995  1.00  0.00     0.202 C 
ENDROOT
BRANCH   1   2
ATOM      2  O   UNL A   1      36.528  21.002  24.509  1.00  0.00    -0.374 OA
BRANCH   2   3
ATOM      3  C   UNL A   1      37.529  20.045  24.867  1.00  0.00     0.202 C 
BRANCH   3   4
ATOM      4  C   UNL A   1      38.755  20.572  25.628  1.00  0.00     0.261 C 
BRANCH   4   5
ATOM      5  O   UNL A   1      39.812  19.598  25.644  1.00  0.00    -0.460 OA
BRANCH   5   6
ATOM      6  C   UNL A   1      41.115  19.771  25.970  1.00  0.00     0.338 C 
ATOM      7  O   UNL A   1      41.910  18.869  25.715  1.00  0.00    -0.246 OA
BRANCH   6   8
ATOM      8  C   UNL A   1      41.645  21.012  26.613  1.00  0.00     0.060 A 
ATOM      9  C   UNL A   1      41.712  21.225  27.988  1.00  0.00     0.016 A 
ATOM     10  C   UNL A   1      42.153  22.013  25.769  1.00  0.00     0.016 A 
ATOM     11  C   UNL A   1      42.160  22.415  28.519  1.00  0.00     0.010 A 
ATOM     12  C   UNL A   1      42.651  23.211  26.295  1.00  0.00     0.010 A 
ATOM     13  C   UNL A   1      42.615  23.420  27.676  1.00  0.00    -0.014 A 
BRANCH  13  14
ATOM     14  C   UNL A   1      42.869  24.718  28.316  1.00  0.00     0.031 A 
ATOM     15  C   UNL A   1      44.295  25.140  28.493  1.00  0.00     0.074 A 
ATOM     16  C   UNL A   1      41.846  25.577  28.464  1.00  0.00     0.049 A 
ATOM     17  N   UNL A   1      44.771  26.283  28.902  1.00  0.00    -0.248 NA
ATOM     18  C   UNL A   1      45.326  24.152  28.123  1.00  0.00     0.031 C 
ATOM     19  C   UNL A   1      40.446  25.285  28.135  1.00  0.00     0.029 A 
ATOM     20  N   UNL A   1      41.833  26.890  28.845  1.00  0.00    -0.354 N 
ATOM     21  C   UNL A   1      46.151  26.141  28.870  1.00  0.00     0.074 A 
ATOM     22  C   UNL A   1      46.441  24.810  28.392  1.00  0.00     0.031 C 
ATOM     23  C   UNL A   1      39.722  26.406  28.273  1.00  0.00     0.029 A 
ATOM     24  C   UNL A   1      40.591  27.470  28.763  1.00  0.00     0.049 A 
ATOM     25  H   UNL A   1      42.636  27.373  29.147  1.00  0.00     0.167 HD
ATOM     26  C   UNL A   1      47.091  27.045  29.228  1.00  0.00     0.031 A 
ATOM     27  C   UNL A   1      40.208  28.723  29.068  1.00  0.00     0.031 A 
ATOM     28  C   UNL A   1      46.771  28.357  29.716  1.00  0.00     0.049 A 
ATOM     29  C   UNL A   1      41.260  29.673  29.564  1.00  0.00     0.074 A 
ATOM     30  C   UNL A   1      47.615  29.328  30.215  1.00  0.00     0.029 A 
ATOM     31  N   UNL A   1      45.484  28.876  29.756  1.00  0.00    -0.354 N 
ATOM     32  N   UNL A   1      42.560  29.499  29.637  1.00  0.00    -0.248 NA
ATOM     33  C   UNL A   1      40.796  30.981  30.038  1.00  0.00     0.031 C 
ATOM     34  C   UNL A   1      46.831  30.424  30.596  1.00  0.00     0.029 A 
ATOM     35  C   UNL A   1      45.506  30.151  30.285  1.00  0.00     0.049 A 
ATOM     36  H   UNL A   1      44.674  28.405  29.452  1.00  0.00     0.167 HD
ATOM     37  C   UNL A   1      43.071  30.677  30.160  1.00  0.00     0.074 A 
ATOM     38  C   UNL A   1      41.942  31.567  30.357  1.00  0.00     0.031 C 
ATOM     39  C   UNL A   1      44.354  30.997  30.461  1.00  0.00     0.031 A 
BRANCH  26  40
ATOM     40  C   UNL A   1      48.516  26.579  29.202  1.00  0.00    -0.014 A 
ATOM     41  C   UNL A   1      49.122  25.985  30.319  1.00  0.00     0.009 A 
ATOM     42  C   UNL A   1      49.286  26.805  28.050  1.00  0.00     0.009 A 
ATOM     43  C   UNL A   1      50.482  25.660  30.294  1.00  0.00     0.001 A 
ATOM     44  C   UNL A   1      50.637  26.460  28.020  1.00  0.00     0.001 A 
ATOM     45  C   UNL A   1      51.237  25.898  29.146  1.00  0.00     0.000 A 
ENDBRANCH  26  40
BRANCH  27  46
ATOM     46  C   UNL A   1      38.778  29.121  28.970  1.00  0.00    -0.014 A 
ATOM     47  C   UNL A   1      38.252  29.657  27.785  1.00  0.00     0.009 A 
ATOM     48  C   UNL A   1      37.926  28.971  30.079  1.00  0.00     0.009 A 
ATOM     49  C   UNL A   1      36.912  30.051  27.720  1.00  0.00     0.001 A 
ATOM     50  C   UNL A   1      36.581  29.336  30.001  1.00  0.00     0.001 A 
ATOM     51  C   UNL A   1      36.076  29.885  28.825  1.00  0.00     0.000 A 
ENDBRANCH  27  46
BRANCH  39  52
ATOM     52  C   UNL A   1      44.588  32.373  31.006  1.00  0.00    -0.014 A 
ATOM     53  C   UNL A   1      44.555  32.619  32.387  1.00  0.00     0.009 A 
ATOM     54  C   UNL A   1      44.883  33.424  30.126  1.00  0.00     0.009 A 
ATOM     55  C   UNL A   1      44.783  33.906  32.874  1.00  0.00     0.001 A 
ATOM     56  C   UNL A   1      45.136  34.704  30.618  1.00  0.00     0.001 A 
ATOM     57  C   UNL A   1      45.076  34.945  31.990  1.00  0.00     0.000 A 
ENDBRANCH  39  52
ENDBRANCH  13  14
ENDBRANCH   6   8
ENDBRANCH   5   6
ENDBRANCH   4   5
ENDBRANCH   3   4
ENDBRANCH   2   3
ENDBRANCH   1   2
BRANCH   1  58
ATOM     58  C   UNL A   1      34.689  21.916  25.834  1.00  0.00     0.261 C 
BRANCH  58  59
ATOM     59  O   UNL A   1      33.680  22.592  25.066  1.00  0.00    -0.462 OA
BRANCH  59  60
ATOM     60  C   UNL A   1      34.010  23.832  24.636  1.00  0.00     0.328 C 
ATOM     61  O   UNL A   1      35.145  24.303  24.657  1.00  0.00    -0.250 OA
BRANCH  60  62
ATOM     62  C   UNL A   1      32.805  24.635  24.127  1.00  0.00     0.194 C 
BRANCH  62  63
ATOM     63  C   UNL A   1      32.391  24.656  22.644  1.00  0.00     0.065 C 
BRANCH  63  64
ATOM     64  C   UNL A   1      32.744  25.859  21.782  1.00  0.00     0.159 C 
BRANCH  64  65
ATOM     65  O   UNL A   1      31.582  26.430  21.213  1.00  0.00    -0.396 OA
ATOM     66  H   UNL A   1      31.189  27.057  21.842  1.00  0.00     0.210 HD
ENDBRANCH  64  65
ENDBRANCH  63  64
ENDBRANCH  62  63
BRANCH  62  67
ATOM     67  N   UNL A   1      31.665  24.372  25.004  1.00  0.00    -0.338 N 
ATOM     68  C   UNL A   1      30.814  25.263  25.598  1.00  0.00     0.258 C 
ATOM     69  H   UNL A   1      31.486  23.423  25.194  1.00  0.00     0.164 HD
ATOM     70  O   UNL A   1      29.990  24.863  26.429  1.00  0.00    -0.269 OA
BRANCH  68  71
ATOM     71  C   UNL A   1      30.831  26.691  25.254  1.00  0.00     0.118 A 
ATOM     72  C   UNL A   1      31.671  27.578  25.931  1.00  0.00     0.139 A 
ATOM     73  C   UNL A   1      30.079  27.146  24.168  1.00  0.00     0.216 A 
ATOM     74  F   UNL A   1      32.436  27.163  26.951  1.00  0.00    -0.206 F 
ATOM     75  C   UNL A   1      31.730  28.923  25.575  1.00  0.00     0.047 A 
ATOM     76  C   UNL A   1      30.153  28.489  23.789  1.00  0.00     0.305 A 
ATOM     77  F   UNL A   1      29.295  26.281  23.508  1.00  0.00    -0.198 F 
ATOM     78  C   UNL A   1      30.973  29.385  24.499  1.00  0.00     0.092 A 
BRANCH  76  79
ATOM     79  N   UNL A   1      29.404  28.983  22.633  1.00  0.00     0.065 N 
ATOM     80  O   UNL A   1      28.219  29.299  22.780  1.00  0.00    -0.258 OA
ATOM     81  O   UNL A   1      30.018  29.067  21.559  1.00  0.00    -0.258 OA
ENDBRANCH  76  79
ENDBRANCH  68  71
ENDBRANCH  62  67
ENDBRANCH  60  62
ENDBRANCH  59  60
ENDBRANCH  58  59
ENDBRANCH   1  58
TORSDOF 20
ENDMDL
