MODEL 1
REMARK VINA RESULT:     -12.1      0.000      0.000
REMARK SMILES Cc1ccc(-c2nn(-c3ccccc3)cc2[C@@H]2[NH2+][C@H](C(=O)OCCOCCOC(=O)c3ccc(-c4c5nc(c(-c6ccccc6)c6ccc([nH]6)c(-c6ccccc6)c6nc(c(-c7ccccc7)c7ccc4[nH]7)C=C6)C=C5)cc3)CS2)cc1
REMARK SMILES IDX 25 1 24 2 23 3 22 4 20 5 21 6 19 7 17 8 18 9 80 10 79 13
REMARK SMILES IDX 16 14 6 15 7 16 8 17 15 18 5 19 1 20 2 21 3 22 82 23 4 24
REMARK SMILES IDX 81 25 9 26 10 27 14 28 11 29 13 30 12 31 26 32 27 33 28 34
REMARK SMILES IDX 29 35 30 36 31 37 32 38 78 39 33 40 77 41 34 42 35 43 36 44
REMARK SMILES IDX 71 45 37 46 76 47 70 48 72 49 38 50 75 51 69 52 68 53 39 55
REMARK SMILES IDX 61 56 46 57 60 58 47 59 50 60 59 61 73 62 48 63 49 64 58 66
REMARK SMILES IDX 74 67 51 68 40 69 41 70 45 71 42 72 44 73 43 74 62 75 63 76
REMARK SMILES IDX 67 77 64 78 66 79 65 80 52 81 53 82 57 83 54 84 56 85 55 86
REMARK H PARENT 18 11 18 12 72 54 50 65
REMARK Flexibility Score: inf
ROOT
ATOM      1  O   UNL A   1      30.779  30.138  24.644  1.00  0.00    -0.374 OA
ENDROOT
BRANCH   1   2
ATOM      2  C   UNL A   1      30.387  29.282  23.599  1.00  0.00     0.202 C 
BRANCH   2   3
ATOM      3  C   UNL A   1      30.021  28.074  24.353  1.00  0.00     0.261 C 
BRANCH   3   4
ATOM      4  O   UNL A   1      30.468  26.922  23.713  1.00  0.00    -0.459 OA
BRANCH   4   5
ATOM      5  C   UNL A   1      31.192  26.132  24.531  1.00  0.00     0.365 C 
ATOM      6  O   UNL A   1      30.771  25.301  25.316  1.00  0.00    -0.245 OA
BRANCH   5   7
ATOM      7  C   UNL A   1      32.622  26.492  24.247  1.00  0.00     0.304 C 
ATOM      8  C   UNL A   1      34.205  24.636  24.439  1.00  0.00     0.278 C 
ATOM      9  N   UNL A   1      33.502  25.688  25.175  1.00  0.00    -0.319 N 
ATOM     10  S   UNL A   1      34.183  25.014  22.675  1.00  0.00    -0.087 SA
ATOM     11  H   UNL A   1      34.186  26.309  25.607  1.00  0.00     0.348 HD
ATOM     12  H   UNL A   1      32.916  25.255  25.887  1.00  0.00     0.348 HD
ATOM     13  C   UNL A   1      32.833  26.197  22.772  1.00  0.00     0.153 C 
BRANCH   8  14
ATOM     14  C   UNL A   1      33.956  23.136  24.749  1.00  0.00     0.067 A 
ATOM     15  C   UNL A   1      35.487  21.980  24.651  1.00  0.00     0.103 A 
ATOM     16  N   UNL A   1      35.096  20.325  24.540  1.00  0.00    -0.167 NA
ATOM     17  N   UNL A   1      33.222  20.122  24.654  1.00  0.00    -0.240 N 
ATOM     18  C   UNL A   1      32.533  22.033  24.832  1.00  0.00     0.126 A 
BRANCH  15  19
ATOM     19  C   UNL A   1      36.764  22.437  25.269  1.00  0.00     0.003 A 
ATOM     20  C   UNL A   1      40.289  23.720  27.428  1.00  0.00     0.044 C 
ATOM     21  C   UNL A   1      39.070  23.282  26.670  1.00  0.00    -0.051 A 
ATOM     22  C   UNL A   1      37.964  24.125  26.590  1.00  0.00     0.004 A 
ATOM     23  C   UNL A   1      39.005  22.017  26.062  1.00  0.00     0.004 A 
ATOM     24  C   UNL A   1      36.823  23.704  25.902  1.00  0.00     0.011 A 
ATOM     25  C   UNL A   1      37.858  21.594  25.376  1.00  0.00     0.011 A 
ENDBRANCH  15  19
BRANCH  17  26
ATOM     26  C   UNL A   1      32.788  18.628  24.574  1.00  0.00     0.065 A 
ATOM     27  C   UNL A   1      33.003  17.891  23.389  1.00  0.00     0.028 A 
ATOM     28  C   UNL A   1      32.704  17.912  25.781  1.00  0.00     0.028 A 
ATOM     29  C   UNL A   1      33.556  16.602  23.468  1.00  0.00     0.002 A 
ATOM     30  C   UNL A   1      33.252  16.621  25.853  1.00  0.00     0.002 A 
ATOM     31  C   UNL A   1      33.757  16.004  24.709  1.00  0.00     0.000 A 
ENDBRANCH  17  26
ENDBRANCH   8  14
ENDBRANCH   5   7
ENDBRANCH   4   5
ENDBRANCH   3   4
ENDBRANCH   2   3
ENDBRANCH   1   2
BRANCH   1  32
ATOM     32  C   UNL A   1      31.957  29.704  25.263  1.00  0.00     0.202 C 
BRANCH  32  33
ATOM     33  C   UNL A   1      32.216  30.498  26.552  1.00  0.00     0.261 C 
BRANCH  33  34
ATOM     34  O   UNL A   1      32.983  29.664  27.478  1.00  0.00    -0.460 OA
BRANCH  34  35
ATOM     35  C   UNL A   1      34.311  29.422  27.224  1.00  0.00     0.338 C 
ATOM     36  O   UNL A   1      34.731  28.533  26.500  1.00  0.00    -0.246 OA
BRANCH  35  37
ATOM     37  C   UNL A   1      35.188  30.190  28.202  1.00  0.00     0.060 A 
ATOM     38  C   UNL A   1      36.079  31.198  27.783  1.00  0.00     0.016 A 
ATOM     39  C   UNL A   1      35.429  29.615  29.432  1.00  0.00     0.016 A 
ATOM     40  C   UNL A   1      37.347  31.382  28.424  1.00  0.00     0.010 A 
ATOM     41  C   UNL A   1      36.716  29.706  29.958  1.00  0.00     0.010 A 
ATOM     42  C   UNL A   1      37.758  30.479  29.389  1.00  0.00    -0.014 A 
BRANCH  42  43
ATOM     43  C   UNL A   1      39.164  30.201  29.912  1.00  0.00     0.031 A 
ATOM     44  C   UNL A   1      39.728  29.009  29.255  1.00  0.00     0.074 A 
ATOM     45  C   UNL A   1      39.988  30.940  30.756  1.00  0.00     0.049 A 
ATOM     46  N   UNL A   1      40.447  28.130  29.861  1.00  0.00    -0.248 NA
ATOM     47  C   UNL A   1      39.375  28.584  27.886  1.00  0.00     0.031 C 
ATOM     48  C   UNL A   1      41.456  31.006  30.913  1.00  0.00     0.029 A 
ATOM     49  N   UNL A   1      39.667  31.957  31.649  1.00  0.00    -0.354 N 
ATOM     50  C   UNL A   1      41.045  27.448  28.831  1.00  0.00     0.074 A 
ATOM     51  C   UNL A   1      40.104  27.480  27.758  1.00  0.00     0.031 C 
ATOM     52  C   UNL A   1      41.815  31.754  31.997  1.00  0.00     0.029 A 
ATOM     53  C   UNL A   1      40.605  32.226  32.651  1.00  0.00     0.049 A 
ATOM     54  H   UNL A   1      38.825  32.462  31.579  1.00  0.00     0.167 HD
ATOM     55  C   UNL A   1      42.400  27.341  28.822  1.00  0.00     0.031 A 
ATOM     56  C   UNL A   1      40.222  32.317  33.966  1.00  0.00     0.031 A 
ATOM     57  C   UNL A   1      42.990  27.849  30.077  1.00  0.00     0.049 A 
ATOM     58  C   UNL A   1      40.705  30.963  34.504  1.00  0.00     0.074 A 
ATOM     59  C   UNL A   1      43.920  28.830  30.374  1.00  0.00     0.029 A 
ATOM     60  N   UNL A   1      42.376  27.539  31.294  1.00  0.00    -0.354 N 
ATOM     61  N   UNL A   1      41.084  30.002  33.700  1.00  0.00    -0.248 NA
ATOM     62  C   UNL A   1      40.883  30.581  35.900  1.00  0.00     0.031 C 
ATOM     63  C   UNL A   1      43.840  29.107  31.778  1.00  0.00     0.029 A 
ATOM     64  C   UNL A   1      42.856  28.304  32.339  1.00  0.00     0.049 A 
ATOM     65  H   UNL A   1      41.679  26.852  31.396  1.00  0.00     0.167 HD
ATOM     66  C   UNL A   1      41.718  29.018  34.377  1.00  0.00     0.074 A 
ATOM     67  C   UNL A   1      41.485  29.378  35.770  1.00  0.00     0.031 C 
ATOM     68  C   UNL A   1      42.401  28.034  33.714  1.00  0.00     0.031 A 
BRANCH  55  69
ATOM     69  C   UNL A   1      43.197  27.019  27.570  1.00  0.00    -0.014 A 
ATOM     70  C   UNL A   1      44.071  27.995  27.069  1.00  0.00     0.009 A 
ATOM     71  C   UNL A   1      43.142  25.820  26.824  1.00  0.00     0.009 A 
ATOM     72  C   UNL A   1      44.853  27.778  25.926  1.00  0.00     0.001 A 
ATOM     73  C   UNL A   1      43.940  25.583  25.697  1.00  0.00     0.001 A 
ATOM     74  C   UNL A   1      44.802  26.566  25.249  1.00  0.00     0.000 A 
ENDBRANCH  55  69
BRANCH  56  75
ATOM     75  C   UNL A   1      38.779  32.882  34.096  1.00  0.00    -0.014 A 
ATOM     76  C   UNL A   1      38.229  34.523  33.604  1.00  0.00     0.009 A 
ATOM     77  C   UNL A   1      37.660  31.616  33.805  1.00  0.00     0.009 A 
ATOM     78  C   UNL A   1      36.390  34.650  32.593  1.00  0.00     0.001 A 
ATOM     79  C   UNL A   1      36.150  31.762  32.984  1.00  0.00     0.001 A 
ATOM     80  C   UNL A   1      35.487  33.179  32.351  1.00  0.00     0.000 A 
ENDBRANCH  56  75
BRANCH  68  81
ATOM     81  C   UNL A   1      42.797  26.710  34.309  1.00  0.00    -0.014 A 
ATOM     82  C   UNL A   1      44.095  26.201  34.308  1.00  0.00     0.009 A 
ATOM     83  C   UNL A   1      41.830  25.962  35.023  1.00  0.00     0.009 A 
ATOM     84  C   UNL A   1      44.392  24.972  34.902  1.00  0.00     0.001 A 
ATOM     85  C   UNL A   1      42.135  24.779  35.685  1.00  0.00     0.001 A 
ATOM     86  C   UNL A   1      43.415  24.265  35.596  1.00  0.00     0.000 A 
ENDBRANCH  68  81
ENDBRANCH  42  43
ENDBRANCH  35  37
ENDBRANCH  34  35
ENDBRANCH  33  34
ENDBRANCH  32  33
ENDBRANCH   1  32
TORSDOF 17
ENDMDL
MODEL 2
REMARK VINA RESULT:     -12.0      1.844      4.221
REMARK SMILES Cc1ccc(-c2nn(-c3ccccc3)cc2[C@@H]2[NH2+][C@H](C(=O)OCCOCCOC(=O)c3ccc(-c4c5nc(c(-c6ccccc6)c6ccc([nH]6)c(-c6ccccc6)c6nc(c(-c7ccccc7)c7ccc4[nH]7)C=C6)C=C5)cc3)CS2)cc1
REMARK SMILES IDX 25 1 24 2 23 3 22 4 20 5 21 6 19 7 17 8 18 9 80 10 79 13
REMARK SMILES IDX 16 14 6 15 7 16 8 17 15 18 5 19 1 20 2 21 3 22 82 23 4 24
REMARK SMILES IDX 81 25 9 26 10 27 14 28 11 29 13 30 12 31 26 32 27 33 28 34
REMARK SMILES IDX 29 35 30 36 31 37 32 38 78 39 33 40 77 41 34 42 35 43 36 44
REMARK SMILES IDX 71 45 37 46 76 47 70 48 72 49 38 50 75 51 69 52 68 53 39 55
REMARK SMILES IDX 61 56 46 57 60 58 47 59 50 60 59 61 73 62 48 63 49 64 58 66
REMARK SMILES IDX 74 67 51 68 40 69 41 70 45 71 42 72 44 73 43 74 62 75 63 76
REMARK SMILES IDX 67 77 64 78 66 79 65 80 52 81 53 82 57 83 54 84 56 85 55 86
REMARK H PARENT 18 11 18 12 72 54 50 65
REMARK Flexibility Score: inf
ROOT
ATOM      1  O   UNL A   1      33.886  28.852  25.398  1.00  0.00    -0.374 OA
ENDROOT
BRANCH   1   2
ATOM      2  C   UNL A   1      33.643  27.468  25.318  1.00  0.00     0.202 C 
BRANCH   2   3
ATOM      3  C   UNL A   1      33.605  27.278  23.861  1.00  0.00     0.261 C 
BRANCH   3   4
ATOM      4  O   UNL A   1      33.535  25.928  23.527  1.00  0.00    -0.459 OA
BRANCH   4   5
ATOM      5  C   UNL A   1      33.213  25.739  22.232  1.00  0.00     0.365 C 
ATOM      6  O   UNL A   1      33.493  26.459  21.290  1.00  0.00    -0.245 OA
BRANCH   5   7
ATOM      7  C   UNL A   1      32.452  24.444  22.209  1.00  0.00     0.304 C 
ATOM      8  C   UNL A   1      33.631  22.543  23.199  1.00  0.00     0.278 C 
ATOM      9  N   UNL A   1      33.438  23.325  21.976  1.00  0.00    -0.319 N 
ATOM     10  S   UNL A   1      32.267  22.856  24.338  1.00  0.00    -0.087 SA
ATOM     11  H   UNL A   1      33.082  22.713  21.241  1.00  0.00     0.348 HD
ATOM     12  H   UNL A   1      34.332  23.728  21.700  1.00  0.00     0.348 HD
ATOM     13  C   UNL A   1      31.725  24.373  23.540  1.00  0.00     0.153 C 
BRANCH   8  14
ATOM     14  C   UNL A   1      35.014  22.477  23.899  1.00  0.00     0.067 A 
ATOM     15  C   UNL A   1      35.178  21.222  25.344  1.00  0.00     0.103 A 
ATOM     16  N   UNL A   1      36.520  21.508  26.357  1.00  0.00    -0.167 NA
ATOM     17  N   UNL A   1      37.521  22.952  25.666  1.00  0.00    -0.240 N 
ATOM     18  C   UNL A   1      36.480  23.520  24.007  1.00  0.00     0.126 A 
BRANCH  15  19
ATOM     19  C   UNL A   1      34.617  19.854  25.166  1.00  0.00     0.003 A 
ATOM     20  C   UNL A   1      32.770  16.029  24.332  1.00  0.00     0.044 C 
ATOM     21  C   UNL A   1      33.412  17.352  24.633  1.00  0.00    -0.051 A 
ATOM     22  C   UNL A   1      32.657  18.373  25.208  1.00  0.00     0.004 A 
ATOM     23  C   UNL A   1      34.757  17.599  24.315  1.00  0.00     0.004 A 
ATOM     24  C   UNL A   1      33.253  19.611  25.466  1.00  0.00     0.011 A 
ATOM     25  C   UNL A   1      35.353  18.843  24.570  1.00  0.00     0.011 A 
ENDBRANCH  15  19
BRANCH  17  26
ATOM     26  C   UNL A   1      38.777  23.263  26.534  1.00  0.00     0.065 A 
ATOM     27  C   UNL A   1      39.842  22.338  26.595  1.00  0.00     0.028 A 
ATOM     28  C   UNL A   1      39.072  24.615  26.786  1.00  0.00     0.028 A 
ATOM     29  C   UNL A   1      41.163  22.795  26.454  1.00  0.00     0.002 A 
ATOM     30  C   UNL A   1      40.394  25.065  26.651  1.00  0.00     0.002 A 
ATOM     31  C   UNL A   1      41.426  24.161  26.398  1.00  0.00     0.000 A 
ENDBRANCH  17  26
ENDBRANCH   8  14
ENDBRANCH   5   7
ENDBRANCH   4   5
ENDBRANCH   3   4
ENDBRANCH   2   3
ENDBRANCH   1   2
BRANCH   1  32
ATOM     32  C   UNL A   1      33.794  29.324  26.713  1.00  0.00     0.202 C 
BRANCH  32  33
ATOM     33  C   UNL A   1      35.175  29.759  27.229  1.00  0.00     0.261 C 
BRANCH  33  34
ATOM     34  O   UNL A   1      34.998  30.553  28.445  1.00  0.00    -0.460 OA
BRANCH  34  35
ATOM     35  C   UNL A   1      35.193  31.912  28.395  1.00  0.00     0.338 C 
ATOM     36  O   UNL A   1      34.725  32.652  27.544  1.00  0.00    -0.246 OA
BRANCH  35  37
ATOM     37  C   UNL A   1      36.315  32.323  29.336  1.00  0.00     0.060 A 
ATOM     38  C   UNL A   1      37.427  33.073  28.900  1.00  0.00     0.016 A 
ATOM     39  C   UNL A   1      36.466  31.608  30.505  1.00  0.00     0.016 A 
ATOM     40  C   UNL A   1      38.734  32.844  29.437  1.00  0.00     0.010 A 
ATOM     41  C   UNL A   1      37.757  31.294  30.921  1.00  0.00     0.010 A 
ATOM     42  C   UNL A   1      38.935  31.789  30.309  1.00  0.00    -0.014 A 
BRANCH  42  43
ATOM     43  C   UNL A   1      40.236  31.088  30.691  1.00  0.00     0.031 A 
ATOM     44  C   UNL A   1      40.414  29.865  29.889  1.00  0.00     0.074 A 
ATOM     45  C   UNL A   1      41.275  31.483  31.528  1.00  0.00     0.049 A 
ATOM     46  N   UNL A   1      40.893  28.765  30.355  1.00  0.00    -0.248 NA
ATOM     47  C   UNL A   1      39.885  29.700  28.520  1.00  0.00     0.031 C 
ATOM     48  C   UNL A   1      42.711  31.134  31.572  1.00  0.00     0.029 A 
ATOM     49  N   UNL A   1      41.295  32.448  32.530  1.00  0.00    -0.354 N 
ATOM     50  C   UNL A   1      41.224  28.062  29.224  1.00  0.00     0.074 A 
ATOM     51  C   UNL A   1      40.273  28.461  28.237  1.00  0.00     0.031 C 
ATOM     52  C   UNL A   1      43.319  31.638  32.685  1.00  0.00     0.029 A 
ATOM     53  C   UNL A   1      42.323  32.347  33.474  1.00  0.00     0.049 A 
ATOM     54  H   UNL A   1      40.622  33.165  32.573  1.00  0.00     0.167 HD
ATOM     55  C   UNL A   1      42.495  27.596  29.097  1.00  0.00     0.031 A 
ATOM     56  C   UNL A   1      42.050  32.396  34.817  1.00  0.00     0.031 A 
ATOM     57  C   UNL A   1      43.268  27.789  30.340  1.00  0.00     0.049 A 
ATOM     58  C   UNL A   1      42.169  30.913  35.194  1.00  0.00     0.074 A 
ATOM     59  C   UNL A   1      44.448  28.447  30.647  1.00  0.00     0.029 A 
ATOM     60  N   UNL A   1      42.658  27.528  31.571  1.00  0.00    -0.354 N 
ATOM     61  N   UNL A   1      42.225  29.976  34.281  1.00  0.00    -0.248 NA
ATOM     62  C   UNL A   1      42.309  30.350  36.532  1.00  0.00     0.031 C 
ATOM     63  C   UNL A   1      44.521  28.583  32.072  1.00  0.00     0.029 A 
ATOM     64  C   UNL A   1      43.385  28.020  32.637  1.00  0.00     0.049 A 
ATOM     65  H   UNL A   1      41.805  27.048  31.668  1.00  0.00     0.167 HD
ATOM     66  C   UNL A   1      42.599  28.791  34.815  1.00  0.00     0.074 A 
ATOM     67  C   UNL A   1      42.549  29.050  36.248  1.00  0.00     0.031 C 
ATOM     68  C   UNL A   1      42.947  27.737  34.015  1.00  0.00     0.031 A 
BRANCH  55  69
ATOM     69  C   UNL A   1      43.105  27.207  27.762  1.00  0.00    -0.014 A 
ATOM     70  C   UNL A   1      44.078  26.198  27.744  1.00  0.00     0.009 A 
ATOM     71  C   UNL A   1      42.805  27.776  26.503  1.00  0.00     0.009 A 
ATOM     72  C   UNL A   1      44.685  25.768  26.556  1.00  0.00     0.001 A 
ATOM     73  C   UNL A   1      43.384  27.334  25.306  1.00  0.00     0.001 A 
ATOM     74  C   UNL A   1      44.326  26.323  25.333  1.00  0.00     0.000 A 
ENDBRANCH  55  69
BRANCH  56  75
ATOM     75  C   UNL A   1      40.828  33.311  35.113  1.00  0.00    -0.014 A 
ATOM     76  C   UNL A   1      39.360  32.857  36.049  1.00  0.00     0.009 A 
ATOM     77  C   UNL A   1      41.382  34.916  35.352  1.00  0.00     0.009 A 
ATOM     78  C   UNL A   1      38.628  34.272  37.422  1.00  0.00     0.001 A 
ATOM     79  C   UNL A   1      40.745  36.055  36.479  1.00  0.00     0.001 A 
ATOM     80  C   UNL A   1      39.444  35.808  37.525  1.00  0.00     0.000 A 
ENDBRANCH  56  75
BRANCH  68  81
ATOM     81  C   UNL A   1      42.994  26.299  34.457  1.00  0.00    -0.014 A 
ATOM     82  C   UNL A   1      41.969  25.651  35.145  1.00  0.00     0.009 A 
ATOM     83  C   UNL A   1      44.090  25.496  34.062  1.00  0.00     0.009 A 
ATOM     84  C   UNL A   1      42.073  24.305  35.502  1.00  0.00     0.001 A 
ATOM     85  C   UNL A   1      44.165  24.137  34.343  1.00  0.00     0.001 A 
ATOM     86  C   UNL A   1      43.166  23.547  35.095  1.00  0.00     0.000 A 
ENDBRANCH  68  81
ENDBRANCH  42  43
ENDBRANCH  35  37
ENDBRANCH  34  35
ENDBRANCH  33  34
ENDBRANCH  32  33
ENDBRANCH   1  32
TORSDOF 17
ENDMDL
MODEL 3
REMARK VINA RESULT:     -11.5      5.687     12.429
REMARK SMILES Cc1ccc(-c2nn(-c3ccccc3)cc2[C@@H]2[NH2+][C@H](C(=O)OCCOCCOC(=O)c3ccc(-c4c5nc(c(-c6ccccc6)c6ccc([nH]6)c(-c6ccccc6)c6nc(c(-c7ccccc7)c7ccc4[nH]7)C=C6)C=C5)cc3)CS2)cc1
REMARK SMILES IDX 25 1 24 2 23 3 22 4 20 5 21 6 19 7 17 8 18 9 80 10 79 13
REMARK SMILES IDX 16 14 6 15 7 16 8 17 15 18 5 19 1 20 2 21 3 22 82 23 4 24
REMARK SMILES IDX 81 25 9 26 10 27 14 28 11 29 13 30 12 31 26 32 27 33 28 34
REMARK SMILES IDX 29 35 30 36 31 37 32 38 78 39 33 40 77 41 34 42 35 43 36 44
REMARK SMILES IDX 71 45 37 46 76 47 70 48 72 49 38 50 75 51 69 52 68 53 39 55
REMARK SMILES IDX 61 56 46 57 60 58 47 59 50 60 59 61 73 62 48 63 49 64 58 66
REMARK SMILES IDX 74 67 51 68 40 69 41 70 45 71 42 72 44 73 43 74 62 75 63 76
REMARK SMILES IDX 67 77 64 78 66 79 65 80 52 81 53 82 57 83 54 84 56 85 55 86
REMARK H PARENT 18 11 18 12 72 54 50 65
REMARK Flexibility Score: inf
ROOT
ATOM      1  O   UNL A   1      43.458  29.075  36.061  1.00  0.00    -0.374 OA
ENDROOT
BRANCH   1   2
ATOM      2  C   UNL A   1      42.419  28.144  36.238  1.00  0.00     0.202 C 
BRANCH   2   3
ATOM      3  C   UNL A   1      41.465  28.595  35.215  1.00  0.00     0.261 C 
BRANCH   3   4
ATOM      4  O   UNL A   1      41.470  29.981  35.092  1.00  0.00    -0.459 OA
BRANCH   4   5
ATOM      5  C   UNL A   1      40.388  30.548  35.660  1.00  0.00     0.365 C 
ATOM      6  O   UNL A   1      39.359  29.993  36.002  1.00  0.00    -0.245 OA
BRANCH   5   7
ATOM      7  C   UNL A   1      40.738  32.003  35.793  1.00  0.00     0.304 C 
ATOM      8  C   UNL A   1      39.538  33.491  34.266  1.00  0.00     0.278 C 
ATOM      9  N   UNL A   1      40.707  32.621  34.415  1.00  0.00    -0.319 N 
ATOM     10  S   UNL A   1      38.889  33.916  35.894  1.00  0.00    -0.087 SA
ATOM     11  H   UNL A   1      41.554  33.171  34.276  1.00  0.00     0.348 HD
ATOM     12  H   UNL A   1      40.651  31.875  33.723  1.00  0.00     0.348 HD
ATOM     13  C   UNL A   1      39.724  32.581  36.763  1.00  0.00     0.153 C 
BRANCH   8  14
ATOM     14  C   UNL A   1      38.431  33.176  33.225  1.00  0.00     0.067 A 
ATOM     15  C   UNL A   1      38.864  33.530  31.388  1.00  0.00     0.103 A 
ATOM     16  N   UNL A   1      37.505  33.614  30.362  1.00  0.00    -0.167 NA
ATOM     17  N   UNL A   1      35.951  33.219  31.360  1.00  0.00    -0.240 N 
ATOM     18  C   UNL A   1      36.651  32.899  33.248  1.00  0.00     0.126 A 
BRANCH  15  19
ATOM     19  C   UNL A   1      40.197  33.106  30.876  1.00  0.00     0.003 A 
ATOM     20  C   UNL A   1      43.887  31.794  29.032  1.00  0.00     0.044 C 
ATOM     21  C   UNL A   1      42.612  32.246  29.682  1.00  0.00    -0.051 A 
ATOM     22  C   UNL A   1      41.632  31.310  30.009  1.00  0.00     0.004 A 
ATOM     23  C   UNL A   1      42.367  33.604  29.942  1.00  0.00     0.004 A 
ATOM     24  C   UNL A   1      40.437  31.737  30.594  1.00  0.00     0.011 A 
ATOM     25  C   UNL A   1      41.165  34.032  30.524  1.00  0.00     0.011 A 
ENDBRANCH  15  19
BRANCH  17  26
ATOM     26  C   UNL A   1      34.664  33.262  30.484  1.00  0.00     0.065 A 
ATOM     27  C   UNL A   1      33.916  34.455  30.382  1.00  0.00     0.028 A 
ATOM     28  C   UNL A   1      34.570  32.341  29.425  1.00  0.00     0.028 A 
ATOM     29  C   UNL A   1      33.486  34.896  29.120  1.00  0.00     0.002 A 
ATOM     30  C   UNL A   1      34.133  32.785  28.166  1.00  0.00     0.002 A 
ATOM     31  C   UNL A   1      33.673  34.091  27.999  1.00  0.00     0.000 A 
ENDBRANCH  17  26
ENDBRANCH   8  14
ENDBRANCH   5   7
ENDBRANCH   4   5
ENDBRANCH   3   4
ENDBRANCH   2   3
ENDBRANCH   1   2
BRANCH   1  32
ATOM     32  C   UNL A   1      44.660  28.457  35.697  1.00  0.00     0.202 C 
BRANCH  32  33
ATOM     33  C   UNL A   1      45.041  28.820  34.254  1.00  0.00     0.261 C 
BRANCH  33  34
ATOM     34  O   UNL A   1      46.215  29.692  34.278  1.00  0.00    -0.460 OA
BRANCH  34  35
ATOM     35  C   UNL A   1      47.450  29.166  33.987  1.00  0.00     0.338 C 
ATOM     36  O   UNL A   1      48.376  29.085  34.779  1.00  0.00    -0.246 OA
BRANCH  35  37
ATOM     37  C   UNL A   1      47.617  28.999  32.484  1.00  0.00     0.060 A 
ATOM     38  C   UNL A   1      47.339  30.039  31.575  1.00  0.00     0.016 A 
ATOM     39  C   UNL A   1      47.624  27.715  31.980  1.00  0.00     0.016 A 
ATOM     40  C   UNL A   1      46.765  29.771  30.291  1.00  0.00     0.010 A 
ATOM     41  C   UNL A   1      46.939  27.473  30.792  1.00  0.00     0.010 A 
ATOM     42  C   UNL A   1      46.362  28.483  29.983  1.00  0.00    -0.014 A 
BRANCH  42  43
ATOM     43  C   UNL A   1      45.387  28.009  28.909  1.00  0.00     0.031 A 
ATOM     44  C   UNL A   1      44.056  27.773  29.493  1.00  0.00     0.074 A 
ATOM     45  C   UNL A   1      45.526  27.911  27.527  1.00  0.00     0.049 A 
ATOM     46  N   UNL A   1      43.289  26.795  29.157  1.00  0.00    -0.248 NA
ATOM     47  C   UNL A   1      43.533  28.507  30.663  1.00  0.00     0.031 C 
ATOM     48  C   UNL A   1      44.549  27.942  26.420  1.00  0.00     0.029 A 
ATOM     49  N   UNL A   1      46.678  27.873  26.747  1.00  0.00    -0.354 N 
ATOM     50  C   UNL A   1      42.063  27.176  29.644  1.00  0.00     0.074 A 
ATOM     51  C   UNL A   1      42.342  27.940  30.818  1.00  0.00     0.031 C 
ATOM     52  C   UNL A   1      45.130  27.635  25.224  1.00  0.00     0.029 A 
ATOM     53  C   UNL A   1      46.540  27.359  25.455  1.00  0.00     0.049 A 
ATOM     54  H   UNL A   1      47.545  28.193  27.088  1.00  0.00     0.167 HD
ATOM     55  C   UNL A   1      41.007  27.212  28.789  1.00  0.00     0.031 A 
ATOM     56  C   UNL A   1      47.396  26.395  24.986  1.00  0.00     0.031 A 
ATOM     57  C   UNL A   1      41.355  26.636  27.475  1.00  0.00     0.049 A 
ATOM     58  C   UNL A   1      46.515  25.143  25.093  1.00  0.00     0.074 A 
ATOM     59  C   UNL A   1      41.331  27.117  26.177  1.00  0.00     0.029 A 
ATOM     60  N   UNL A   1      42.124  25.469  27.424  1.00  0.00    -0.354 N 
ATOM     61  N   UNL A   1      45.387  25.155  25.758  1.00  0.00    -0.248 NA
ATOM     62  C   UNL A   1      46.734  23.852  24.452  1.00  0.00     0.031 C 
ATOM     63  C   UNL A   1      42.104  26.228  25.360  1.00  0.00     0.029 A 
ATOM     64  C   UNL A   1      42.610  25.211  26.157  1.00  0.00     0.049 A 
ATOM     65  H   UNL A   1      42.299  24.895  28.203  1.00  0.00     0.167 HD
ATOM     66  C   UNL A   1      44.653  24.049  25.497  1.00  0.00     0.074 A 
ATOM     67  C   UNL A   1      45.579  23.213  24.745  1.00  0.00     0.031 C 
ATOM     68  C   UNL A   1      43.347  23.961  25.896  1.00  0.00     0.031 A 
BRANCH  55  69
ATOM     69  C   UNL A   1      39.744  28.008  29.067  1.00  0.00    -0.014 A 
ATOM     70  C   UNL A   1      39.344  28.970  28.128  1.00  0.00     0.009 A 
ATOM     71  C   UNL A   1      38.914  27.897  30.206  1.00  0.00     0.009 A 
ATOM     72  C   UNL A   1      38.186  29.741  28.298  1.00  0.00     0.001 A 
ATOM     73  C   UNL A   1      37.740  28.643  30.372  1.00  0.00     0.001 A 
ATOM     74  C   UNL A   1      37.373  29.567  29.412  1.00  0.00     0.000 A 
ENDBRANCH  55  69
BRANCH  56  75
ATOM     75  C   UNL A   1      48.818  26.558  25.597  1.00  0.00    -0.014 A 
ATOM     76  C   UNL A   1      49.611  25.439  26.761  1.00  0.00     0.009 A 
ATOM     77  C   UNL A   1      49.855  27.239  24.413  1.00  0.00     0.009 A 
ATOM     78  C   UNL A   1      51.635  24.983  26.420  1.00  0.00     0.001 A 
ATOM     79  C   UNL A   1      51.518  26.851  24.173  1.00  0.00     0.001 A 
ATOM     80  C   UNL A   1      52.432  25.759  25.078  1.00  0.00     0.000 A 
ENDBRANCH  56  75
BRANCH  68  81
ATOM     81  C   UNL A   1      42.567  22.680  26.017  1.00  0.00    -0.014 A 
ATOM     82  C   UNL A   1      43.131  21.406  25.973  1.00  0.00     0.009 A 
ATOM     83  C   UNL A   1      41.184  22.744  26.311  1.00  0.00     0.009 A 
ATOM     84  C   UNL A   1      42.346  20.259  26.117  1.00  0.00     0.001 A 
ATOM     85  C   UNL A   1      40.411  21.611  26.536  1.00  0.00     0.001 A 
ATOM     86  C   UNL A   1      40.989  20.362  26.405  1.00  0.00     0.000 A 
ENDBRANCH  68  81
ENDBRANCH  42  43
ENDBRANCH  35  37
ENDBRANCH  34  35
ENDBRANCH  33  34
ENDBRANCH  32  33
ENDBRANCH   1  32
TORSDOF 17
ENDMDL
