MODEL 1
REMARK VINA RESULT:     -11.0      0.000      0.000
REMARK SMILES Cc1nc2nc(CNC(=O)OC(C)(C)C)nn2c(C)c1CCC(=O)OCCOCCOC(=O)c1ccc(-c2c3nc(c(-c4ccccc4)c4ccc([nH]4)c(-c4ccccc4)c4nc(c(-c5ccccc5)c5ccc2[nH]5)C=C4)C=C3)cc1
REMARK SMILES IDX 26 1 25 2 23 3 24 4 22 5 21 6 20 7 1 8 2 9 3 10 4 11 18 12
REMARK SMILES IDX 5 13 17 14 19 15 6 16 16 17 7 18 8 19 9 20 10 22 11 23 12 24
REMARK SMILES IDX 13 25 14 26 15 27 27 28 28 29 29 30 30 31 31 32 32 33 33 34
REMARK SMILES IDX 34 35 35 36 81 37 36 38 80 39 37 40 38 41 39 42 74 43 40 44
REMARK SMILES IDX 79 45 73 46 75 47 41 48 78 49 72 50 71 51 42 53 64 54 49 55
REMARK SMILES IDX 63 56 50 57 53 58 62 59 76 60 51 61 52 62 61 64 77 65 54 66
REMARK SMILES IDX 43 67 44 68 48 69 45 70 47 71 46 72 65 73 66 74 70 75 67 76
REMARK SMILES IDX 69 77 68 78 55 79 56 80 60 81 57 82 59 83 58 84
REMARK H PARENT 8 21 75 52 53 63
REMARK Flexibility Score: inf
ROOT
ATOM      1  C   UNL A   1      39.941  21.161  25.899  1.00  0.00     0.261 C 
ENDROOT
BRANCH   1   2
ATOM      2  O   UNL A   1      38.542  21.566  25.890  1.00  0.00    -0.463 OA
BRANCH   2   3
ATOM      3  C   UNL A   1      37.663  20.983  25.042  1.00  0.00     0.306 C 
ATOM      4  O   UNL A   1      37.711  19.810  24.700  1.00  0.00    -0.252 OA
BRANCH   3   5
ATOM      5  C   UNL A   1      36.608  21.964  24.527  1.00  0.00     0.127 C 
BRANCH   5   6
ATOM      6  C   UNL A   1      35.373  22.273  25.411  1.00  0.00     0.051 C 
BRANCH   6   7
ATOM      7  C   UNL A   1      34.150  22.845  24.709  1.00  0.00    -0.005 A 
ATOM      8  C   UNL A   1      32.963  20.529  24.535  1.00  0.00     0.067 C 
ATOM      9  C   UNL A   1      32.962  22.009  24.220  1.00  0.00     0.046 A 
ATOM     10  N   UNL A   1      31.893  22.471  23.620  1.00  0.00    -0.216 NA
ATOM     11  C   UNL A   1      31.820  23.819  23.417  1.00  0.00     0.252 A 
ATOM     12  C   UNL A   1      33.926  24.163  24.564  1.00  0.00     0.048 A 
ATOM     13  N   UNL A   1      30.853  24.595  22.950  1.00  0.00    -0.192 NA
ATOM     14  N   UNL A   1      32.842  24.634  23.856  1.00  0.00    -0.201 N 
ATOM     15  C   UNL A   1      34.703  25.262  25.161  1.00  0.00     0.067 C 
ATOM     16  C   UNL A   1      31.371  25.865  23.074  1.00  0.00     0.172 A 
ATOM     17  N   UNL A   1      32.605  25.916  23.551  1.00  0.00    -0.148 NA
BRANCH  16  18
ATOM     18  C   UNL A   1      30.689  27.139  22.753  1.00  0.00     0.199 C 
BRANCH  18  19
ATOM     19  N   UNL A   1      30.822  28.056  23.860  1.00  0.00    -0.314 N 
ATOM     20  C   UNL A   1      30.410  29.346  23.805  1.00  0.00     0.408 C 
ATOM     21  H   UNL A   1      31.233  27.731  24.693  1.00  0.00     0.167 HD
ATOM     22  O   UNL A   1      30.623  30.140  24.705  1.00  0.00    -0.225 OA
BRANCH  20  23
ATOM     23  O   UNL A   1      29.794  29.601  22.631  1.00  0.00    -0.444 OA
BRANCH  23  24
ATOM     24  C   UNL A   1      28.470  30.168  22.579  1.00  0.00     0.106 C 
ATOM     25  C   UNL A   1      28.293  31.302  23.590  1.00  0.00     0.056 C 
ATOM     26  C   UNL A   1      28.156  30.600  21.144  1.00  0.00     0.056 C 
ATOM     27  C   UNL A   1      27.550  29.000  22.964  1.00  0.00     0.056 C 
ENDBRANCH  23  24
ENDBRANCH  20  23
ENDBRANCH  18  19
ENDBRANCH  16  18
ENDBRANCH   6   7
ENDBRANCH   5   6
ENDBRANCH   3   5
ENDBRANCH   2   3
ENDBRANCH   1   2
BRANCH   1  28
ATOM     28  C   UNL A   1      40.680  21.341  27.249  1.00  0.00     0.202 C 
BRANCH  28  29
ATOM     29  O   UNL A   1      41.896  20.604  27.366  1.00  0.00    -0.374 OA
BRANCH  29  30
ATOM     30  C   UNL A   1      41.832  19.212  27.081  1.00  0.00     0.202 C 
BRANCH  30  31
ATOM     31  C   UNL A   1      42.989  18.690  26.238  1.00  0.00     0.261 C 
BRANCH  31  32
ATOM     32  O   UNL A   1      43.052  19.357  24.976  1.00  0.00    -0.460 OA
BRANCH  32  33
ATOM     33  C   UNL A   1      44.278  19.711  24.517  1.00  0.00     0.338 C 
ATOM     34  O   UNL A   1      45.098  19.005  23.988  1.00  0.00    -0.246 OA
BRANCH  33  35
ATOM     35  C   UNL A   1      44.482  21.138  24.868  1.00  0.00     0.060 A 
ATOM     36  C   UNL A   1      45.618  21.489  25.602  1.00  0.00     0.016 A 
ATOM     37  C   UNL A   1      43.501  22.098  24.548  1.00  0.00     0.016 A 
ATOM     38  C   UNL A   1      45.690  22.759  26.151  1.00  0.00     0.010 A 
ATOM     39  C   UNL A   1      43.592  23.369  25.057  1.00  0.00     0.010 A 
ATOM     40  C   UNL A   1      44.633  23.649  25.933  1.00  0.00    -0.014 A 
BRANCH  40  41
ATOM     41  C   UNL A   1      44.537  24.846  26.737  1.00  0.00     0.031 A 
ATOM     42  C   UNL A   1      45.624  25.833  26.582  1.00  0.00     0.074 A 
ATOM     43  C   UNL A   1      43.430  25.081  27.467  1.00  0.00     0.049 A 
ATOM     44  N   UNL A   1      46.483  26.191  27.476  1.00  0.00    -0.248 NA
ATOM     45  C   UNL A   1      45.843  26.432  25.259  1.00  0.00     0.031 C 
ATOM     46  C   UNL A   1      42.160  24.341  27.465  1.00  0.00     0.029 A 
ATOM     47  N   UNL A   1      43.172  26.125  28.294  1.00  0.00    -0.354 N 
ATOM     48  C   UNL A   1      47.264  27.180  26.887  1.00  0.00     0.074 A 
ATOM     49  C   UNL A   1      46.918  27.188  25.487  1.00  0.00     0.031 C 
ATOM     50  C   UNL A   1      41.208  25.091  28.066  1.00  0.00     0.029 A 
ATOM     51  C   UNL A   1      41.833  26.281  28.618  1.00  0.00     0.049 A 
ATOM     52  H   UNL A   1      43.876  26.721  28.636  1.00  0.00     0.167 HD
ATOM     53  C   UNL A   1      47.989  28.056  27.635  1.00  0.00     0.031 A 
ATOM     54  C   UNL A   1      41.281  27.350  29.242  1.00  0.00     0.031 A 
ATOM     55  C   UNL A   1      48.100  27.628  29.004  1.00  0.00     0.049 A 
ATOM     56  C   UNL A   1      42.375  28.070  29.938  1.00  0.00     0.074 A 
ATOM     57  C   UNL A   1      48.652  26.529  29.633  1.00  0.00     0.029 A 
ATOM     58  N   UNL A   1      47.240  28.193  29.918  1.00  0.00    -0.354 N 
ATOM     59  N   UNL A   1      43.022  27.571  30.953  1.00  0.00    -0.248 NA
ATOM     60  C   UNL A   1      43.071  29.125  29.215  1.00  0.00     0.031 C 
ATOM     61  C   UNL A   1      47.740  26.213  30.681  1.00  0.00     0.029 A 
ATOM     62  C   UNL A   1      46.725  27.171  30.674  1.00  0.00     0.049 A 
ATOM     63  H   UNL A   1      47.033  29.151  30.011  1.00  0.00     0.167 HD
ATOM     64  C   UNL A   1      44.348  27.923  30.739  1.00  0.00     0.074 A 
ATOM     65  C   UNL A   1      44.303  28.963  29.712  1.00  0.00     0.031 C 
ATOM     66  C   UNL A   1      45.373  27.142  31.193  1.00  0.00     0.031 A 
BRANCH  53  67
ATOM     67  C   UNL A   1      48.301  29.466  27.217  1.00  0.00    -0.014 A 
ATOM     68  C   UNL A   1      49.642  29.891  27.210  1.00  0.00     0.009 A 
ATOM     69  C   UNL A   1      47.318  30.465  27.085  1.00  0.00     0.009 A 
ATOM     70  C   UNL A   1      49.975  31.249  27.135  1.00  0.00     0.001 A 
ATOM     71  C   UNL A   1      47.648  31.817  26.969  1.00  0.00     0.001 A 
ATOM     72  C   UNL A   1      48.977  32.211  27.020  1.00  0.00     0.000 A 
ENDBRANCH  53  67
BRANCH  54  73
ATOM     73  C   UNL A   1      39.938  27.930  29.028  1.00  0.00    -0.014 A 
ATOM     74  C   UNL A   1      38.965  27.904  30.038  1.00  0.00     0.009 A 
ATOM     75  C   UNL A   1      39.692  28.743  27.905  1.00  0.00     0.009 A 
ATOM     76  C   UNL A   1      37.805  28.684  29.939  1.00  0.00     0.001 A 
ATOM     77  C   UNL A   1      38.533  29.520  27.805  1.00  0.00     0.001 A 
ATOM     78  C   UNL A   1      37.596  29.501  28.829  1.00  0.00     0.000 A 
ENDBRANCH  54  73
BRANCH  66  79
ATOM     79  C   UNL A   1      45.033  25.970  32.088  1.00  0.00    -0.014 A 
ATOM     80  C   UNL A   1      44.539  24.752  31.586  1.00  0.00     0.009 A 
ATOM     81  C   UNL A   1      45.407  26.028  33.438  1.00  0.00     0.009 A 
ATOM     82  C   UNL A   1      44.408  23.632  32.416  1.00  0.00     0.001 A 
ATOM     83  C   UNL A   1      45.295  24.903  34.261  1.00  0.00     0.001 A 
ATOM     84  C   UNL A   1      44.795  23.708  33.751  1.00  0.00     0.000 A 
ENDBRANCH  66  79
ENDBRANCH  40  41
ENDBRANCH  33  35
ENDBRANCH  32  33
ENDBRANCH  31  32
ENDBRANCH  30  31
ENDBRANCH  29  30
ENDBRANCH  28  29
ENDBRANCH   1  28
TORSDOF 20
ENDMDL
MODEL 2
REMARK VINA RESULT:     -10.5      4.802     10.752
REMARK SMILES Cc1nc2nc(CNC(=O)OC(C)(C)C)nn2c(C)c1CCC(=O)OCCOCCOC(=O)c1ccc(-c2c3nc(c(-c4ccccc4)c4ccc([nH]4)c(-c4ccccc4)c4nc(c(-c5ccccc5)c5ccc2[nH]5)C=C4)C=C3)cc1
REMARK SMILES IDX 26 1 25 2 23 3 24 4 22 5 21 6 20 7 1 8 2 9 3 10 4 11 18 12
REMARK SMILES IDX 5 13 17 14 19 15 6 16 16 17 7 18 8 19 9 20 10 22 11 23 12 24
REMARK SMILES IDX 13 25 14 26 15 27 27 28 28 29 29 30 30 31 31 32 32 33 33 34
REMARK SMILES IDX 34 35 35 36 81 37 36 38 80 39 37 40 38 41 39 42 74 43 40 44
REMARK SMILES IDX 79 45 73 46 75 47 41 48 78 49 72 50 71 51 42 53 64 54 49 55
REMARK SMILES IDX 63 56 50 57 53 58 62 59 76 60 51 61 52 62 61 64 77 65 54 66
REMARK SMILES IDX 43 67 44 68 48 69 45 70 47 71 46 72 65 73 66 74 70 75 67 76
REMARK SMILES IDX 69 77 68 78 55 79 56 80 60 81 57 82 59 83 58 84
REMARK H PARENT 8 21 75 52 53 63
REMARK Flexibility Score: inf
ROOT
ATOM      1  C   UNL A   1      33.058  31.423  27.430  1.00  0.00     0.261 C 
ENDROOT
BRANCH   1   2
ATOM      2  O   UNL A   1      33.164  30.507  26.302  1.00  0.00    -0.463 OA
BRANCH   2   3
ATOM      3  C   UNL A   1      32.224  29.555  26.098  1.00  0.00     0.306 C 
ATOM      4  O   UNL A   1      32.185  28.488  26.694  1.00  0.00    -0.252 OA
BRANCH   3   5
ATOM      5  C   UNL A   1      31.221  29.945  25.010  1.00  0.00     0.127 C 
BRANCH   5   6
ATOM      6  C   UNL A   1      31.314  29.262  23.623  1.00  0.00     0.051 C 
BRANCH   6   7
ATOM      7  C   UNL A   1      31.062  27.762  23.576  1.00  0.00    -0.005 A 
ATOM      8  C   UNL A   1      28.468  28.034  23.505  1.00  0.00     0.067 C 
ATOM      9  C   UNL A   1      29.672  27.118  23.563  1.00  0.00     0.046 A 
ATOM     10  N   UNL A   1      29.422  25.833  23.517  1.00  0.00    -0.216 NA
ATOM     11  C   UNL A   1      30.492  24.985  23.463  1.00  0.00     0.252 A 
ATOM     12  C   UNL A   1      32.036  26.851  23.404  1.00  0.00     0.048 A 
ATOM     13  N   UNL A   1      30.578  23.674  23.302  1.00  0.00    -0.192 NA
ATOM     14  N   UNL A   1      31.771  25.500  23.443  1.00  0.00    -0.201 N 
ATOM     15  C   UNL A   1      33.450  27.118  23.090  1.00  0.00     0.067 C 
ATOM     16  C   UNL A   1      31.935  23.443  23.253  1.00  0.00     0.172 A 
ATOM     17  N   UNL A   1      32.686  24.522  23.411  1.00  0.00    -0.148 NA
BRANCH  16  18
ATOM     18  C   UNL A   1      32.609  22.145  23.027  1.00  0.00     0.199 C 
BRANCH  18  19
ATOM     19  N   UNL A   1      32.613  21.380  24.252  1.00  0.00    -0.314 N 
ATOM     20  C   UNL A   1      33.751  20.980  24.869  1.00  0.00     0.408 C 
ATOM     21  H   UNL A   1      31.749  21.136  24.656  1.00  0.00     0.167 HD
ATOM     22  O   UNL A   1      33.744  20.245  25.842  1.00  0.00    -0.225 OA
BRANCH  20  23
ATOM     23  O   UNL A   1      34.837  21.470  24.234  1.00  0.00    -0.444 OA
BRANCH  23  24
ATOM     24  C   UNL A   1      35.783  22.325  24.906  1.00  0.00     0.106 C 
ATOM     25  C   UNL A   1      35.099  23.274  25.890  1.00  0.00     0.056 C 
ATOM     26  C   UNL A   1      36.865  21.466  25.568  1.00  0.00     0.056 C 
ATOM     27  C   UNL A   1      36.417  23.143  23.772  1.00  0.00     0.056 C 
ENDBRANCH  23  24
ENDBRANCH  20  23
ENDBRANCH  18  19
ENDBRANCH  16  18
ENDBRANCH   6   7
ENDBRANCH   5   6
ENDBRANCH   3   5
ENDBRANCH   2   3
ENDBRANCH   1   2
BRANCH   1  28
ATOM     28  C   UNL A   1      34.403  31.916  28.019  1.00  0.00     0.202 C 
BRANCH  28  29
ATOM     29  O   UNL A   1      34.473  33.322  28.248  1.00  0.00    -0.374 OA
BRANCH  29  30
ATOM     30  C   UNL A   1      33.248  34.043  28.194  1.00  0.00     0.202 C 
BRANCH  30  31
ATOM     31  C   UNL A   1      33.189  35.252  29.119  1.00  0.00     0.261 C 
BRANCH  31  32
ATOM     32  O   UNL A   1      32.545  34.929  30.352  1.00  0.00    -0.460 OA
BRANCH  32  33
ATOM     33  C   UNL A   1      33.006  35.533  31.475  1.00  0.00     0.338 C 
ATOM     34  O   UNL A   1      32.590  36.537  31.996  1.00  0.00    -0.246 OA
BRANCH  33  35
ATOM     35  C   UNL A   1      34.203  34.778  31.919  1.00  0.00     0.060 A 
ATOM     36  C   UNL A   1      35.286  35.490  32.444  1.00  0.00     0.016 A 
ATOM     37  C   UNL A   1      34.280  33.384  31.724  1.00  0.00     0.016 A 
ATOM     38  C   UNL A   1      36.493  34.833  32.619  1.00  0.00     0.010 A 
ATOM     39  C   UNL A   1      35.464  32.724  31.937  1.00  0.00     0.010 A 
ATOM     40  C   UNL A   1      36.578  33.478  32.285  1.00  0.00    -0.014 A 
BRANCH  40  41
ATOM     41  C   UNL A   1      37.878  32.858  32.164  1.00  0.00     0.031 A 
ATOM     42  C   UNL A   1      38.687  32.775  33.396  1.00  0.00     0.074 A 
ATOM     43  C   UNL A   1      38.239  32.270  31.006  1.00  0.00     0.049 A 
ATOM     44  N   UNL A   1      39.809  33.366  33.631  1.00  0.00    -0.248 NA
ATOM     45  C   UNL A   1      38.150  32.019  34.536  1.00  0.00     0.031 C 
ATOM     46  C   UNL A   1      37.416  32.011  29.818  1.00  0.00     0.029 A 
ATOM     47  N   UNL A   1      39.415  31.667  30.699  1.00  0.00    -0.354 N 
ATOM     48  C   UNL A   1      40.213  32.940  34.892  1.00  0.00     0.074 A 
ATOM     49  C   UNL A   1      39.093  32.227  35.456  1.00  0.00     0.031 C 
ATOM     50  C   UNL A   1      38.045  31.109  29.030  1.00  0.00     0.029 A 
ATOM     51  C   UNL A   1      39.363  30.849  29.581  1.00  0.00     0.049 A 
ATOM     52  H   UNL A   1      40.236  31.800  31.226  1.00  0.00     0.167 HD
ATOM     53  C   UNL A   1      41.510  33.032  35.295  1.00  0.00     0.031 A 
ATOM     54  C   UNL A   1      40.321  29.975  29.185  1.00  0.00     0.031 A 
ATOM     55  C   UNL A   1      42.281  33.885  34.430  1.00  0.00     0.049 A 
ATOM     56  C   UNL A   1      41.590  30.386  29.834  1.00  0.00     0.074 A 
ATOM     57  C   UNL A   1      42.222  35.221  34.087  1.00  0.00     0.029 A 
ATOM     58  N   UNL A   1      43.051  33.280  33.463  1.00  0.00    -0.354 N 
ATOM     59  N   UNL A   1      42.212  31.493  29.545  1.00  0.00    -0.248 NA
ATOM     60  C   UNL A   1      41.912  29.813  31.134  1.00  0.00     0.031 C 
ATOM     61  C   UNL A   1      42.532  35.255  32.697  1.00  0.00     0.029 A 
ATOM     62  C   UNL A   1      42.826  33.952  32.289  1.00  0.00     0.049 A 
ATOM     63  H   UNL A   1      43.651  32.511  33.590  1.00  0.00     0.167 HD
ATOM     64  C   UNL A   1      42.654  31.984  30.767  1.00  0.00     0.074 A 
ATOM     65  C   UNL A   1      42.530  30.860  31.693  1.00  0.00     0.031 C 
ATOM     66  C   UNL A   1      42.800  33.325  30.983  1.00  0.00     0.031 A 
BRANCH  53  67
ATOM     67  C   UNL A   1      42.164  32.081  36.259  1.00  0.00    -0.014 A 
ATOM     68  C   UNL A   1      42.809  32.602  37.395  1.00  0.00     0.009 A 
ATOM     69  C   UNL A   1      42.399  30.725  35.962  1.00  0.00     0.009 A 
ATOM     70  C   UNL A   1      43.688  31.822  38.155  1.00  0.00     0.001 A 
ATOM     71  C   UNL A   1      43.244  29.932  36.742  1.00  0.00     0.001 A 
ATOM     72  C   UNL A   1      43.909  30.489  37.825  1.00  0.00     0.000 A 
ENDBRANCH  53  67
BRANCH  54  73
ATOM     73  C   UNL A   1      40.136  28.666  28.525  1.00  0.00    -0.014 A 
ATOM     74  C   UNL A   1      40.713  28.393  27.276  1.00  0.00     0.009 A 
ATOM     75  C   UNL A   1      39.596  27.583  29.245  1.00  0.00     0.009 A 
ATOM     76  C   UNL A   1      40.771  27.082  26.782  1.00  0.00     0.001 A 
ATOM     77  C   UNL A   1      39.652  26.276  28.752  1.00  0.00     0.001 A 
ATOM     78  C   UNL A   1      40.252  26.024  27.525  1.00  0.00     0.000 A 
ENDBRANCH  54  73
BRANCH  66  79
ATOM     79  C   UNL A   1      42.633  34.259  29.805  1.00  0.00    -0.014 A 
ATOM     80  C   UNL A   1      43.650  34.470  28.854  1.00  0.00     0.009 A 
ATOM     81  C   UNL A   1      41.359  34.781  29.538  1.00  0.00     0.009 A 
ATOM     82  C   UNL A   1      43.401  35.194  27.683  1.00  0.00     0.001 A 
ATOM     83  C   UNL A   1      41.106  35.487  28.358  1.00  0.00     0.001 A 
ATOM     84  C   UNL A   1      42.126  35.694  27.433  1.00  0.00     0.000 A 
ENDBRANCH  66  79
ENDBRANCH  40  41
ENDBRANCH  33  35
ENDBRANCH  32  33
ENDBRANCH  31  32
ENDBRANCH  30  31
ENDBRANCH  29  30
ENDBRANCH  28  29
ENDBRANCH   1  28
TORSDOF 20
ENDMDL
MODEL 3
REMARK VINA RESULT:     -10.5      3.017      9.084
REMARK SMILES Cc1nc2nc(CNC(=O)OC(C)(C)C)nn2c(C)c1CCC(=O)OCCOCCOC(=O)c1ccc(-c2c3nc(c(-c4ccccc4)c4ccc([nH]4)c(-c4ccccc4)c4nc(c(-c5ccccc5)c5ccc2[nH]5)C=C4)C=C3)cc1
REMARK SMILES IDX 26 1 25 2 23 3 24 4 22 5 21 6 20 7 1 8 2 9 3 10 4 11 18 12
REMARK SMILES IDX 5 13 17 14 19 15 6 16 16 17 7 18 8 19 9 20 10 22 11 23 12 24
REMARK SMILES IDX 13 25 14 26 15 27 27 28 28 29 29 30 30 31 31 32 32 33 33 34
REMARK SMILES IDX 34 35 35 36 81 37 36 38 80 39 37 40 38 41 39 42 74 43 40 44
REMARK SMILES IDX 79 45 73 46 75 47 41 48 78 49 72 50 71 51 42 53 64 54 49 55
REMARK SMILES IDX 63 56 50 57 53 58 62 59 76 60 51 61 52 62 61 64 77 65 54 66
REMARK SMILES IDX 43 67 44 68 48 69 45 70 47 71 46 72 65 73 66 74 70 75 67 76
REMARK SMILES IDX 69 77 68 78 55 79 56 80 60 81 57 82 59 83 58 84
REMARK H PARENT 8 21 75 52 53 63
REMARK Flexibility Score: inf
ROOT
ATOM      1  C   UNL A   1      34.267  30.385  27.277  1.00  0.00     0.261 C 
ENDROOT
BRANCH   1   2
ATOM      2  O   UNL A   1      32.849  30.252  27.581  1.00  0.00    -0.463 OA
BRANCH   2   3
ATOM      3  C   UNL A   1      32.076  29.382  26.890  1.00  0.00     0.306 C 
ATOM      4  O   UNL A   1      31.478  28.442  27.393  1.00  0.00    -0.252 OA
BRANCH   3   5
ATOM      5  C   UNL A   1      32.053  29.683  25.389  1.00  0.00     0.127 C 
BRANCH   5   6
ATOM      6  C   UNL A   1      31.159  28.821  24.463  1.00  0.00     0.051 C 
BRANCH   6   7
ATOM      7  C   UNL A   1      31.799  27.588  23.841  1.00  0.00    -0.005 A 
ATOM      8  C   UNL A   1      33.708  28.953  22.700  1.00  0.00     0.067 C 
ATOM      9  C   UNL A   1      33.030  27.619  22.929  1.00  0.00     0.046 A 
ATOM     10  N   UNL A   1      33.608  26.578  22.383  1.00  0.00    -0.216 NA
ATOM     11  C   UNL A   1      33.079  25.349  22.658  1.00  0.00     0.252 A 
ATOM     12  C   UNL A   1      31.430  26.330  24.138  1.00  0.00     0.048 A 
ATOM     13  N   UNL A   1      33.481  24.123  22.362  1.00  0.00    -0.192 NA
ATOM     14  N   UNL A   1      31.987  25.247  23.495  1.00  0.00    -0.201 N 
ATOM     15  C   UNL A   1      30.484  25.911  25.187  1.00  0.00     0.067 C 
ATOM     16  C   UNL A   1      32.559  23.319  22.996  1.00  0.00     0.172 A 
ATOM     17  N   UNL A   1      31.597  23.972  23.629  1.00  0.00    -0.148 NA
BRANCH  16  18
ATOM     18  C   UNL A   1      32.556  21.840  23.049  1.00  0.00     0.199 C 
BRANCH  18  19
ATOM     19  N   UNL A   1      32.556  21.401  24.424  1.00  0.00    -0.314 N 
ATOM     20  C   UNL A   1      33.664  20.940  25.053  1.00  0.00     0.408 C 
ATOM     21  H   UNL A   1      31.711  21.438  24.929  1.00  0.00     0.167 HD
ATOM     22  O   UNL A   1      33.631  20.474  26.179  1.00  0.00    -0.225 OA
BRANCH  20  23
ATOM     23  O   UNL A   1      34.745  21.039  24.251  1.00  0.00    -0.444 OA
BRANCH  23  24
ATOM     24  C   UNL A   1      35.911  21.791  24.643  1.00  0.00     0.106 C 
ATOM     25  C   UNL A   1      36.479  22.612  23.484  1.00  0.00     0.056 C 
ATOM     26  C   UNL A   1      35.577  22.647  25.867  1.00  0.00     0.056 C 
ATOM     27  C   UNL A   1      36.930  20.714  25.045  1.00  0.00     0.056 C 
ENDBRANCH  23  24
ENDBRANCH  20  23
ENDBRANCH  18  19
ENDBRANCH  16  18
ENDBRANCH   6   7
ENDBRANCH   5   6
ENDBRANCH   3   5
ENDBRANCH   2   3
ENDBRANCH   1   2
BRANCH   1  28
ATOM     28  C   UNL A   1      34.943  31.679  27.795  1.00  0.00     0.202 C 
BRANCH  28  29
ATOM     29  O   UNL A   1      34.062  32.588  28.452  1.00  0.00    -0.374 OA
BRANCH  29  30
ATOM     30  C   UNL A   1      34.662  33.678  29.142  1.00  0.00     0.202 C 
BRANCH  30  31
ATOM     31  C   UNL A   1      34.451  33.660  30.651  1.00  0.00     0.261 C 
BRANCH  31  32
ATOM     32  O   UNL A   1      34.569  32.335  31.173  1.00  0.00    -0.460 OA
BRANCH  32  33
ATOM     33  C   UNL A   1      35.530  32.112  32.103  1.00  0.00     0.338 C 
ATOM     34  O   UNL A   1      35.561  32.511  33.240  1.00  0.00    -0.246 OA
BRANCH  33  35
ATOM     35  C   UNL A   1      36.613  31.347  31.439  1.00  0.00     0.060 A 
ATOM     36  C   UNL A   1      36.356  30.032  31.041  1.00  0.00     0.016 A 
ATOM     37  C   UNL A   1      37.899  31.907  31.301  1.00  0.00     0.016 A 
ATOM     38  C   UNL A   1      37.420  29.231  30.659  1.00  0.00     0.010 A 
ATOM     39  C   UNL A   1      38.947  31.126  30.882  1.00  0.00     0.010 A 
ATOM     40  C   UNL A   1      38.709  29.774  30.665  1.00  0.00    -0.014 A 
BRANCH  40  41
ATOM     41  C   UNL A   1      39.850  28.892  30.576  1.00  0.00     0.031 A 
ATOM     42  C   UNL A   1      40.583  28.632  31.831  1.00  0.00     0.074 A 
ATOM     43  C   UNL A   1      40.116  28.248  29.423  1.00  0.00     0.049 A 
ATOM     44  N   UNL A   1      41.797  28.970  32.108  1.00  0.00    -0.248 NA
ATOM     45  C   UNL A   1      39.861  28.002  32.944  1.00  0.00     0.031 C 
ATOM     46  C   UNL A   1      39.295  28.177  28.206  1.00  0.00     0.029 A 
ATOM     47  N   UNL A   1      41.146  27.410  29.144  1.00  0.00    -0.354 N 
ATOM     48  C   UNL A   1      42.060  28.460  33.375  1.00  0.00     0.074 A 
ATOM     49  C   UNL A   1      40.796  27.999  33.896  1.00  0.00     0.031 C 
ATOM     50  C   UNL A   1      39.743  27.166  27.427  1.00  0.00     0.029 A 
ATOM     51  C   UNL A   1      40.958  26.628  28.015  1.00  0.00     0.049 A 
ATOM     52  H   UNL A   1      41.958  27.362  29.697  1.00  0.00     0.167 HD
ATOM     53  C   UNL A   1      43.333  28.272  33.818  1.00  0.00     0.031 A 
ATOM     54  C   UNL A   1      41.720  25.573  27.637  1.00  0.00     0.031 A 
ATOM     55  C   UNL A   1      44.295  28.946  32.988  1.00  0.00     0.049 A 
ATOM     56  C   UNL A   1      43.025  25.700  28.330  1.00  0.00     0.074 A 
ATOM     57  C   UNL A   1      44.533  30.267  32.660  1.00  0.00     0.029 A 
ATOM     58  N   UNL A   1      44.950  28.197  32.038  1.00  0.00    -0.354 N 
ATOM     59  N   UNL A   1      43.877  26.652  28.074  1.00  0.00    -0.248 NA
ATOM     60  C   UNL A   1      43.176  25.065  29.632  1.00  0.00     0.031 C 
ATOM     61  C   UNL A   1      44.888  30.241  31.280  1.00  0.00     0.029 A 
ATOM     62  C   UNL A   1      44.911  28.908  30.865  1.00  0.00     0.049 A 
ATOM     63  H   UNL A   1      45.368  27.316  32.173  1.00  0.00     0.167 HD
ATOM     64  C   UNL A   1      44.374  27.031  29.315  1.00  0.00     0.074 A 
ATOM     65  C   UNL A   1      43.984  25.953  30.223  1.00  0.00     0.031 C 
ATOM     66  C   UNL A   1      44.794  28.308  29.552  1.00  0.00     0.031 A 
BRANCH  53  67
ATOM     67  C   UNL A   1      43.738  27.198  34.790  1.00  0.00    -0.014 A 
ATOM     68  C   UNL A   1      43.961  25.896  34.308  1.00  0.00     0.009 A 
ATOM     69  C   UNL A   1      43.654  27.352  36.186  1.00  0.00     0.009 A 
ATOM     70  C   UNL A   1      44.034  24.801  35.177  1.00  0.00     0.001 A 
ATOM     71  C   UNL A   1      43.767  26.267  37.059  1.00  0.00     0.001 A 
ATOM     72  C   UNL A   1      43.932  24.987  36.552  1.00  0.00     0.000 A 
ENDBRANCH  53  67
BRANCH  54  73
ATOM     73  C   UNL A   1      41.282  24.337  26.956  1.00  0.00    -0.014 A 
ATOM     74  C   UNL A   1      42.182  23.558  26.213  1.00  0.00     0.009 A 
ATOM     75  C   UNL A   1      40.022  23.780  27.246  1.00  0.00     0.009 A 
ATOM     76  C   UNL A   1      41.842  22.262  25.802  1.00  0.00     0.001 A 
ATOM     77  C   UNL A   1      39.681  22.487  26.835  1.00  0.00     0.001 A 
ATOM     78  C   UNL A   1      40.598  21.722  26.124  1.00  0.00     0.000 A 
ENDBRANCH  54  73
BRANCH  66  79
ATOM     79  C   UNL A   1      44.869  29.263  28.380  1.00  0.00    -0.014 A 
ATOM     80  C   UNL A   1      43.763  30.014  27.943  1.00  0.00     0.009 A 
ATOM     81  C   UNL A   1      46.127  29.558  27.836  1.00  0.00     0.009 A 
ATOM     82  C   UNL A   1      43.910  31.018  26.978  1.00  0.00     0.001 A 
ATOM     83  C   UNL A   1      46.277  30.575  26.888  1.00  0.00     0.001 A 
ATOM     84  C   UNL A   1      45.170  31.303  26.459  1.00  0.00     0.000 A 
ENDBRANCH  66  79
ENDBRANCH  40  41
ENDBRANCH  33  35
ENDBRANCH  32  33
ENDBRANCH  31  32
ENDBRANCH  30  31
ENDBRANCH  29  30
ENDBRANCH  28  29
ENDBRANCH   1  28
TORSDOF 20
ENDMDL
