MODEL 1
REMARK VINA RESULT:     -11.6      0.000      0.000
REMARK SMILES CCn1c(CC2CC[NH+](Cc3cn[nH]c3C(=O)OCCOCCOC(=O)c3ccc(-c4c5nc(c(-c6ccccc6)c6ccc([nH]6)c(-c6ccccc6)c6nc(c(-c7ccccc7)c7ccc4[nH]7)C=C6)C=C5)cc3)CC2)nn(C)c1=O
REMARK SMILES IDX 19 1 18 2 16 3 17 4 15 5 11 6 12 7 13 8 14 9 10 11 9 12 6 13
REMARK SMILES IDX 7 14 76 15 8 16 75 17 5 19 4 20 3 21 80 22 77 23 78 24 81 25
REMARK SMILES IDX 79 26 2 27 1 28 20 29 21 30 22 31 23 32 24 33 25 34 26 35
REMARK SMILES IDX 27 36 28 37 74 38 29 39 73 40 30 41 31 42 32 43 67 44 33 45
REMARK SMILES IDX 72 46 66 47 68 48 34 49 71 50 65 51 64 52 35 54 57 55 42 56
REMARK SMILES IDX 56 57 43 58 46 59 55 60 69 61 44 62 45 63 54 65 70 66 47 67
REMARK SMILES IDX 36 68 37 69 41 70 38 71 40 72 39 73 58 74 59 75 63 76 60 77
REMARK SMILES IDX 62 78 61 79 48 80 49 81 53 82 50 83 52 84 51 85
REMARK H PARENT 14 10 9 18 68 53 46 64
REMARK Flexibility Score: inf
ROOT
ATOM      1  C   UNL A   1      38.970  21.703  26.107  1.00  0.00     0.261 C 
ENDROOT
BRANCH   1   2
ATOM      2  O   UNL A   1      38.147  20.711  25.464  1.00  0.00    -0.459 OA
BRANCH   2   3
ATOM      3  C   UNL A   1      37.169  21.224  24.670  1.00  0.00     0.356 C 
ATOM      4  O   UNL A   1      37.291  22.191  23.930  1.00  0.00    -0.244 OA
BRANCH   3   5
ATOM      5  C   UNL A   1      35.948  20.459  24.764  1.00  0.00     0.152 A 
ATOM      6  C   UNL A   1      34.232  20.842  24.405  1.00  0.00     0.059 A 
ATOM      7  C   UNL A   1      33.295  19.106  24.305  1.00  0.00     0.145 A 
ATOM      8  N   UNL A   1      34.382  17.827  24.761  1.00  0.00    -0.183 NA
ATOM      9  N   UNL A   1      36.067  18.603  24.973  1.00  0.00    -0.271 N 
ATOM     10  H   UNL A   1      36.895  18.109  25.167  1.00  0.00     0.190 HD
BRANCH   6  11
ATOM     11  C   UNL A   1      33.623  22.204  24.170  1.00  0.00     0.303 C 
BRANCH  11  12
ATOM     12  N   UNL A   1      33.171  22.882  25.402  1.00  0.00    -0.331 N 
ATOM     13  C   UNL A   1      31.321  24.966  26.498  1.00  0.00     0.008 C 
ATOM     14  C   UNL A   1      32.847  25.160  26.488  1.00  0.00     0.065 C 
ATOM     15  C   UNL A   1      31.089  23.481  26.723  1.00  0.00     0.065 C 
ATOM     16  C   UNL A   1      33.622  24.263  25.519  1.00  0.00     0.262 C 
ATOM     17  C   UNL A   1      31.766  22.609  25.658  1.00  0.00     0.262 C 
ATOM     18  H   UNL A   1      33.654  22.466  26.199  1.00  0.00     0.348 HD
BRANCH  13  19
ATOM     19  C   UNL A   1      30.450  25.566  25.341  1.00  0.00     0.081 C 
BRANCH  19  20
ATOM     20  C   UNL A   1      31.190  26.191  24.167  1.00  0.00     0.133 A 
ATOM     21  N   UNL A   1      31.553  27.470  24.030  1.00  0.00    -0.279 N 
ATOM     22  C   UNL A   1      32.068  27.674  22.747  1.00  0.00     0.345 A 
ATOM     23  N   UNL A   1      31.466  25.442  23.165  1.00  0.00    -0.155 NA
ATOM     24  N   UNL A   1      32.036  26.335  21.963  1.00  0.00    -0.216 N 
ATOM     25  O   UNL A   1      32.444  28.760  22.308  1.00  0.00    -0.246 OA
ATOM     26  C   UNL A   1      32.526  25.575  19.989  1.00  0.00     0.179 C 
BRANCH  21  27
ATOM     27  C   UNL A   1      31.407  28.524  25.045  1.00  0.00     0.125 C 
ATOM     28  C   UNL A   1      32.687  29.099  25.651  1.00  0.00     0.028 C 
ENDBRANCH  21  27
ENDBRANCH  19  20
ENDBRANCH  13  19
ENDBRANCH  11  12
ENDBRANCH   6  11
ENDBRANCH   3   5
ENDBRANCH   2   3
ENDBRANCH   1   2
BRANCH   1  29
ATOM     29  C   UNL A   1      40.476  21.462  25.962  1.00  0.00     0.202 C 
BRANCH  29  30
ATOM     30  O   UNL A   1      41.109  20.445  26.739  1.00  0.00    -0.374 OA
BRANCH  30  31
ATOM     31  C   UNL A   1      41.691  19.321  26.096  1.00  0.00     0.202 C 
BRANCH  31  32
ATOM     32  C   UNL A   1      43.172  19.351  25.806  1.00  0.00     0.261 C 
BRANCH  32  33
ATOM     33  O   UNL A   1      43.470  20.388  24.910  1.00  0.00    -0.460 OA
BRANCH  33  34
ATOM     34  C   UNL A   1      44.692  20.314  24.334  1.00  0.00     0.338 C 
ATOM     35  O   UNL A   1      45.391  19.337  24.170  1.00  0.00    -0.246 OA
BRANCH  34  36
ATOM     36  C   UNL A   1      45.099  21.703  24.101  1.00  0.00     0.060 A 
ATOM     37  C   UNL A   1      46.275  22.141  24.681  1.00  0.00     0.016 A 
ATOM     38  C   UNL A   1      44.028  22.574  24.005  1.00  0.00     0.016 A 
ATOM     39  C   UNL A   1      46.118  23.126  25.655  1.00  0.00     0.010 A 
ATOM     40  C   UNL A   1      44.140  23.769  24.611  1.00  0.00     0.010 A 
ATOM     41  C   UNL A   1      44.858  23.727  25.790  1.00  0.00    -0.014 A 
BRANCH  41  42
ATOM     42  C   UNL A   1      44.521  24.845  26.681  1.00  0.00     0.031 A 
ATOM     43  C   UNL A   1      45.603  25.880  26.412  1.00  0.00     0.074 A 
ATOM     44  C   UNL A   1      43.382  24.961  27.442  1.00  0.00     0.049 A 
ATOM     45  N   UNL A   1      46.767  25.856  26.993  1.00  0.00    -0.248 NA
ATOM     46  C   UNL A   1      45.666  26.646  25.124  1.00  0.00     0.031 C 
ATOM     47  C   UNL A   1      42.207  24.081  27.671  1.00  0.00     0.029 A 
ATOM     48  N   UNL A   1      43.026  26.019  28.254  1.00  0.00    -0.354 N 
ATOM     49  C   UNL A   1      47.495  26.878  26.392  1.00  0.00     0.074 A 
ATOM     50  C   UNL A   1      46.956  27.002  25.078  1.00  0.00     0.031 C 
ATOM     51  C   UNL A   1      41.193  24.766  28.287  1.00  0.00     0.029 A 
ATOM     52  C   UNL A   1      41.664  26.085  28.657  1.00  0.00     0.049 A 
ATOM     53  H   UNL A   1      43.683  26.693  28.541  1.00  0.00     0.167 HD
ATOM     54  C   UNL A   1      48.046  27.849  27.174  1.00  0.00     0.031 A 
ATOM     55  C   UNL A   1      41.062  27.132  29.326  1.00  0.00     0.031 A 
ATOM     56  C   UNL A   1      48.061  27.394  28.545  1.00  0.00     0.049 A 
ATOM     57  C   UNL A   1      42.179  27.923  29.919  1.00  0.00     0.074 A 
ATOM     58  C   UNL A   1      48.635  26.339  29.219  1.00  0.00     0.029 A 
ATOM     59  N   UNL A   1      46.951  27.772  29.259  1.00  0.00    -0.354 N 
ATOM     60  N   UNL A   1      42.936  27.425  30.859  1.00  0.00    -0.248 NA
ATOM     61  C   UNL A   1      42.802  28.887  29.016  1.00  0.00     0.031 C 
ATOM     62  C   UNL A   1      47.617  25.866  30.102  1.00  0.00     0.029 A 
ATOM     63  C   UNL A   1      46.540  26.751  30.066  1.00  0.00     0.049 A 
ATOM     64  H   UNL A   1      46.515  28.653  29.198  1.00  0.00     0.167 HD
ATOM     65  C   UNL A   1      44.224  27.609  30.380  1.00  0.00     0.074 A 
ATOM     66  C   UNL A   1      44.072  28.508  29.219  1.00  0.00     0.031 C 
ATOM     67  C   UNL A   1      45.235  26.737  30.684  1.00  0.00     0.031 A 
BRANCH  54  68
ATOM     68  C   UNL A   1      47.966  29.335  26.853  1.00  0.00    -0.014 A 
ATOM     69  C   UNL A   1      49.094  30.117  27.163  1.00  0.00     0.009 A 
ATOM     70  C   UNL A   1      46.781  30.042  26.561  1.00  0.00     0.009 A 
ATOM     71  C   UNL A   1      49.018  31.511  27.270  1.00  0.00     0.001 A 
ATOM     72  C   UNL A   1      46.708  31.439  26.638  1.00  0.00     0.001 A 
ATOM     73  C   UNL A   1      47.821  32.171  27.018  1.00  0.00     0.000 A 
ENDBRANCH  54  68
BRANCH  55  74
ATOM     74  C   UNL A   1      39.714  27.782  29.133  1.00  0.00    -0.014 A 
ATOM     75  C   UNL A   1      38.776  28.004  30.176  1.00  0.00     0.009 A 
ATOM     76  C   UNL A   1      39.497  28.497  27.947  1.00  0.00     0.009 A 
ATOM     77  C   UNL A   1      37.703  28.917  30.030  1.00  0.00     0.001 A 
ATOM     78  C   UNL A   1      38.446  29.419  27.808  1.00  0.00     0.001 A 
ATOM     79  C   UNL A   1      37.553  29.640  28.850  1.00  0.00     0.000 A 
ENDBRANCH  55  74
BRANCH  67  80
ATOM     80  C   UNL A   1      44.989  25.649  31.704  1.00  0.00    -0.014 A 
ATOM     81  C   UNL A   1      45.094  25.778  33.105  1.00  0.00     0.009 A 
ATOM     82  C   UNL A   1      44.459  24.457  31.194  1.00  0.00     0.009 A 
ATOM     83  C   UNL A   1      44.738  24.710  33.948  1.00  0.00     0.001 A 
ATOM     84  C   UNL A   1      44.082  23.410  32.030  1.00  0.00     0.001 A 
ATOM     85  C   UNL A   1      44.242  23.525  33.407  1.00  0.00     0.000 A 
ENDBRANCH  67  80
ENDBRANCH  41  42
ENDBRANCH  34  36
ENDBRANCH  33  34
ENDBRANCH  32  33
ENDBRANCH  31  32
ENDBRANCH  30  31
ENDBRANCH  29  30
ENDBRANCH   1  29
TORSDOF 19
ENDMDL
MODEL 2
REMARK VINA RESULT:     -10.8      2.010      5.411
REMARK SMILES CCn1c(CC2CC[NH+](Cc3cn[nH]c3C(=O)OCCOCCOC(=O)c3ccc(-c4c5nc(c(-c6ccccc6)c6ccc([nH]6)c(-c6ccccc6)c6nc(c(-c7ccccc7)c7ccc4[nH]7)C=C6)C=C5)cc3)CC2)nn(C)c1=O
REMARK SMILES IDX 19 1 18 2 16 3 17 4 15 5 11 6 12 7 13 8 14 9 10 11 9 12 6 13
REMARK SMILES IDX 7 14 76 15 8 16 75 17 5 19 4 20 3 21 80 22 77 23 78 24 81 25
REMARK SMILES IDX 79 26 2 27 1 28 20 29 21 30 22 31 23 32 24 33 25 34 26 35
REMARK SMILES IDX 27 36 28 37 74 38 29 39 73 40 30 41 31 42 32 43 67 44 33 45
REMARK SMILES IDX 72 46 66 47 68 48 34 49 71 50 65 51 64 52 35 54 57 55 42 56
REMARK SMILES IDX 56 57 43 58 46 59 55 60 69 61 44 62 45 63 54 65 70 66 47 67
REMARK SMILES IDX 36 68 37 69 41 70 38 71 40 72 39 73 58 74 59 75 63 76 60 77
REMARK SMILES IDX 62 78 61 79 48 80 49 81 53 82 50 83 52 84 51 85
REMARK H PARENT 14 10 9 18 68 53 46 64
REMARK Flexibility Score: inf
ROOT
ATOM      1  C   UNL A   1      39.035  22.335  26.362  1.00  0.00     0.261 C 
ENDROOT
BRANCH   1   2
ATOM      2  O   UNL A   1      38.100  21.512  25.638  1.00  0.00    -0.459 OA
BRANCH   2   3
ATOM      3  C   UNL A   1      37.176  22.210  24.925  1.00  0.00     0.356 C 
ATOM      4  O   UNL A   1      37.410  23.185  24.225  1.00  0.00    -0.244 OA
BRANCH   3   5
ATOM      5  C   UNL A   1      35.857  21.636  25.053  1.00  0.00     0.152 A 
ATOM      6  C   UNL A   1      34.205  22.332  24.977  1.00  0.00     0.059 A 
ATOM      7  C   UNL A   1      32.979  20.804  24.728  1.00  0.00     0.145 A 
ATOM      8  N   UNL A   1      33.871  19.314  24.840  1.00  0.00    -0.183 NA
ATOM      9  N   UNL A   1      35.676  19.776  24.955  1.00  0.00    -0.271 N 
ATOM     10  H   UNL A   1      36.423  19.135  24.964  1.00  0.00     0.190 HD
BRANCH   6  11
ATOM     11  C   UNL A   1      33.818  23.791  25.034  1.00  0.00     0.303 C 
BRANCH  11  12
ATOM     12  N   UNL A   1      33.939  24.497  23.742  1.00  0.00    -0.331 N 
ATOM     13  C   UNL A   1      32.542  26.321  21.822  1.00  0.00     0.008 C 
ATOM     14  C   UNL A   1      32.821  24.846  21.483  1.00  0.00     0.065 C 
ATOM     15  C   UNL A   1      33.715  26.785  22.669  1.00  0.00     0.065 C 
ATOM     16  C   UNL A   1      33.114  23.936  22.679  1.00  0.00     0.262 C 
ATOM     17  C   UNL A   1      33.902  25.937  23.933  1.00  0.00     0.262 C 
ATOM     18  H   UNL A   1      34.869  24.321  23.361  1.00  0.00     0.348 HD
BRANCH  13  19
ATOM     19  C   UNL A   1      31.147  26.738  22.403  1.00  0.00     0.081 C 
BRANCH  19  20
ATOM     20  C   UNL A   1      30.887  26.435  23.872  1.00  0.00     0.133 A 
ATOM     21  N   UNL A   1      30.983  27.284  24.900  1.00  0.00    -0.279 N 
ATOM     22  C   UNL A   1      30.820  26.583  26.099  1.00  0.00     0.345 A 
ATOM     23  N   UNL A   1      30.590  25.231  24.192  1.00  0.00    -0.155 NA
ATOM     24  N   UNL A   1      30.579  25.083  25.787  1.00  0.00    -0.216 N 
ATOM     25  O   UNL A   1      30.900  27.086  27.219  1.00  0.00    -0.246 OA
ATOM     26  C   UNL A   1      30.269  23.214  26.849  1.00  0.00     0.179 C 
BRANCH  21  27
ATOM     27  C   UNL A   1      31.253  28.726  24.809  1.00  0.00     0.125 C 
ATOM     28  C   UNL A   1      32.682  29.192  25.085  1.00  0.00     0.028 C 
ENDBRANCH  21  27
ENDBRANCH  19  20
ENDBRANCH  13  19
ENDBRANCH  11  12
ENDBRANCH   6  11
ENDBRANCH   3   5
ENDBRANCH   2   3
ENDBRANCH   1   2
BRANCH   1  29
ATOM     29  C   UNL A   1      40.496  21.891  26.233  1.00  0.00     0.202 C 
BRANCH  29  30
ATOM     30  O   UNL A   1      40.958  20.753  26.960  1.00  0.00    -0.374 OA
BRANCH  30  31
ATOM     31  C   UNL A   1      42.329  20.387  26.909  1.00  0.00     0.202 C 
BRANCH  31  32
ATOM     32  C   UNL A   1      42.981  20.244  25.554  1.00  0.00     0.261 C 
BRANCH  32  33
ATOM     33  O   UNL A   1      44.150  21.017  25.495  1.00  0.00    -0.460 OA
BRANCH  33  34
ATOM     34  C   UNL A   1      43.986  22.267  25.004  1.00  0.00     0.338 C 
ATOM     35  O   UNL A   1      43.340  22.620  24.039  1.00  0.00    -0.246 OA
BRANCH  34  36
ATOM     36  C   UNL A   1      44.905  23.112  25.771  1.00  0.00     0.060 A 
ATOM     37  C   UNL A   1      45.353  22.643  26.992  1.00  0.00     0.016 A 
ATOM     38  C   UNL A   1      44.655  24.464  25.617  1.00  0.00     0.016 A 
ATOM     39  C   UNL A   1      44.927  23.379  28.096  1.00  0.00     0.010 A 
ATOM     40  C   UNL A   1      44.729  25.240  26.713  1.00  0.00     0.010 A 
ATOM     41  C   UNL A   1      44.299  24.613  27.866  1.00  0.00    -0.014 A 
BRANCH  41  42
ATOM     42  C   UNL A   1      43.873  25.574  28.891  1.00  0.00     0.031 A 
ATOM     43  C   UNL A   1      42.569  26.145  28.353  1.00  0.00     0.074 A 
ATOM     44  C   UNL A   1      44.457  25.761  30.121  1.00  0.00     0.049 A 
ATOM     45  N   UNL A   1      42.522  27.130  27.506  1.00  0.00    -0.248 NA
ATOM     46  C   UNL A   1      41.312  25.328  28.291  1.00  0.00     0.031 C 
ATOM     47  C   UNL A   1      45.640  25.166  30.797  1.00  0.00     0.029 A 
ATOM     48  N   UNL A   1      44.050  26.629  31.114  1.00  0.00    -0.354 N 
ATOM     49  C   UNL A   1      41.177  27.262  27.174  1.00  0.00     0.074 A 
ATOM     50  C   UNL A   1      40.620  25.960  27.335  1.00  0.00     0.031 C 
ATOM     51  C   UNL A   1      45.644  25.466  32.133  1.00  0.00     0.029 A 
ATOM     52  C   UNL A   1      44.574  26.401  32.416  1.00  0.00     0.049 A 
ATOM     53  H   UNL A   1      43.429  27.369  30.930  1.00  0.00     0.167 HD
ATOM     54  C   UNL A   1      40.567  28.469  27.346  1.00  0.00     0.031 A 
ATOM     55  C   UNL A   1      44.182  27.038  33.576  1.00  0.00     0.031 A 
ATOM     56  C   UNL A   1      41.579  29.487  27.502  1.00  0.00     0.049 A 
ATOM     57  C   UNL A   1      43.471  28.273  33.133  1.00  0.00     0.074 A 
ATOM     58  C   UNL A   1      42.610  29.969  26.725  1.00  0.00     0.029 A 
ATOM     59  N   UNL A   1      41.914  29.731  28.811  1.00  0.00    -0.354 N 
ATOM     60  N   UNL A   1      44.106  29.236  32.519  1.00  0.00    -0.248 NA
ATOM     61  C   UNL A   1      42.065  28.087  32.784  1.00  0.00     0.031 C 
ATOM     62  C   UNL A   1      43.709  30.124  27.624  1.00  0.00     0.029 A 
ATOM     63  C   UNL A   1      43.263  29.910  28.927  1.00  0.00     0.049 A 
ATOM     64  H   UNL A   1      41.273  29.771  29.558  1.00  0.00     0.167 HD
ATOM     65  C   UNL A   1      43.358  29.446  31.371  1.00  0.00     0.074 A 
ATOM     66  C   UNL A   1      42.110  28.687  31.587  1.00  0.00     0.031 C 
ATOM     67  C   UNL A   1      43.937  29.862  30.203  1.00  0.00     0.031 A 
BRANCH  54  68
ATOM     68  C   UNL A   1      39.197  28.636  27.988  1.00  0.00    -0.014 A 
ATOM     69  C   UNL A   1      38.303  29.525  27.363  1.00  0.00     0.009 A 
ATOM     70  C   UNL A   1      38.852  28.224  29.292  1.00  0.00     0.009 A 
ATOM     71  C   UNL A   1      37.190  30.045  28.034  1.00  0.00     0.001 A 
ATOM     72  C   UNL A   1      37.723  28.718  29.957  1.00  0.00     0.001 A 
ATOM     73  C   UNL A   1      36.906  29.650  29.336  1.00  0.00     0.000 A 
ENDBRANCH  54  68
BRANCH  55  74
ATOM     74  C   UNL A   1      43.937  26.500  34.964  1.00  0.00    -0.014 A 
ATOM     75  C   UNL A   1      44.409  27.113  36.155  1.00  0.00     0.009 A 
ATOM     76  C   UNL A   1      42.929  25.538  35.124  1.00  0.00     0.009 A 
ATOM     77  C   UNL A   1      43.869  26.788  37.423  1.00  0.00     0.001 A 
ATOM     78  C   UNL A   1      42.378  25.231  36.379  1.00  0.00     0.001 A 
ATOM     79  C   UNL A   1      42.837  25.860  37.530  1.00  0.00     0.000 A 
ENDBRANCH  55  74
BRANCH  67  80
ATOM     80  C   UNL A   1      45.392  30.271  30.206  1.00  0.00    -0.014 A 
ATOM     81  C   UNL A   1      45.899  31.555  30.496  1.00  0.00     0.009 A 
ATOM     82  C   UNL A   1      46.310  29.223  30.056  1.00  0.00     0.009 A 
ATOM     83  C   UNL A   1      47.286  31.776  30.562  1.00  0.00     0.001 A 
ATOM     84  C   UNL A   1      47.682  29.437  30.147  1.00  0.00     0.001 A 
ATOM     85  C   UNL A   1      48.175  30.717  30.378  1.00  0.00     0.000 A 
ENDBRANCH  67  80
ENDBRANCH  41  42
ENDBRANCH  34  36
ENDBRANCH  33  34
ENDBRANCH  32  33
ENDBRANCH  31  32
ENDBRANCH  30  31
ENDBRANCH  29  30
ENDBRANCH   1  29
TORSDOF 19
ENDMDL
MODEL 3
REMARK VINA RESULT:     -10.6      1.952      5.303
REMARK SMILES CCn1c(CC2CC[NH+](Cc3cn[nH]c3C(=O)OCCOCCOC(=O)c3ccc(-c4c5nc(c(-c6ccccc6)c6ccc([nH]6)c(-c6ccccc6)c6nc(c(-c7ccccc7)c7ccc4[nH]7)C=C6)C=C5)cc3)CC2)nn(C)c1=O
REMARK SMILES IDX 19 1 18 2 16 3 17 4 15 5 11 6 12 7 13 8 14 9 10 11 9 12 6 13
REMARK SMILES IDX 7 14 76 15 8 16 75 17 5 19 4 20 3 21 80 22 77 23 78 24 81 25
REMARK SMILES IDX 79 26 2 27 1 28 20 29 21 30 22 31 23 32 24 33 25 34 26 35
REMARK SMILES IDX 27 36 28 37 74 38 29 39 73 40 30 41 31 42 32 43 67 44 33 45
REMARK SMILES IDX 72 46 66 47 68 48 34 49 71 50 65 51 64 52 35 54 57 55 42 56
REMARK SMILES IDX 56 57 43 58 46 59 55 60 69 61 44 62 45 63 54 65 70 66 47 67
REMARK SMILES IDX 36 68 37 69 41 70 38 71 40 72 39 73 58 74 59 75 63 76 60 77
REMARK SMILES IDX 62 78 61 79 48 80 49 81 53 82 50 83 52 84 51 85
REMARK H PARENT 14 10 9 18 68 53 46 64
REMARK Flexibility Score: inf
ROOT
ATOM      1  C   UNL A   1      38.777  21.648  25.968  1.00  0.00     0.261 C 
ENDROOT
BRANCH   1   2
ATOM      2  O   UNL A   1      38.025  20.749  25.131  1.00  0.00    -0.459 OA
BRANCH   2   3
ATOM      3  C   UNL A   1      36.895  21.291  24.601  1.00  0.00     0.356 C 
ATOM      4  O   UNL A   1      36.858  22.244  23.835  1.00  0.00    -0.244 OA
BRANCH   3   5
ATOM      5  C   UNL A   1      35.712  20.576  25.019  1.00  0.00     0.152 A 
ATOM      6  C   UNL A   1      34.089  21.108  25.570  1.00  0.00     0.059 A 
ATOM      7  C   UNL A   1      32.921  19.521  25.440  1.00  0.00     0.145 A 
ATOM      8  N   UNL A   1      33.871  18.128  25.012  1.00  0.00    -0.183 NA
ATOM      9  N   UNL A   1      35.597  18.744  24.655  1.00  0.00    -0.271 N 
ATOM     10  H   UNL A   1      36.337  18.187  24.324  1.00  0.00     0.190 HD
BRANCH   6  11
ATOM     11  C   UNL A   1      33.673  22.495  25.998  1.00  0.00     0.303 C 
BRANCH  11  12
ATOM     12  N   UNL A   1      32.257  22.811  25.720  1.00  0.00    -0.331 N 
ATOM     13  C   UNL A   1      30.204  24.990  25.704  1.00  0.00     0.008 C 
ATOM     14  C   UNL A   1      30.149  23.832  26.715  1.00  0.00     0.065 C 
ATOM     15  C   UNL A   1      30.766  24.401  24.421  1.00  0.00     0.065 C 
ATOM     16  C   UNL A   1      31.459  23.064  26.913  1.00  0.00     0.262 C 
ATOM     17  C   UNL A   1      32.143  23.756  24.622  1.00  0.00     0.262 C 
ATOM     18  H   UNL A   1      31.798  21.968  25.371  1.00  0.00     0.348 HD
BRANCH  13  19
ATOM     19  C   UNL A   1      30.868  26.351  26.111  1.00  0.00     0.081 C 
BRANCH  19  20
ATOM     20  C   UNL A   1      31.277  27.289  24.984  1.00  0.00     0.133 A 
ATOM     21  N   UNL A   1      32.501  27.768  24.737  1.00  0.00    -0.279 N 
ATOM     22  C   UNL A   1      32.431  28.717  23.713  1.00  0.00     0.345 A 
ATOM     23  N   UNL A   1      30.360  27.721  24.201  1.00  0.00    -0.155 NA
ATOM     24  N   UNL A   1      30.959  28.854  23.241  1.00  0.00    -0.216 N 
ATOM     25  O   UNL A   1      33.389  29.366  23.294  1.00  0.00    -0.246 OA
ATOM     26  C   UNL A   1      29.792  30.009  21.821  1.00  0.00     0.179 C 
BRANCH  21  27
ATOM     27  C   UNL A   1      33.735  27.394  25.443  1.00  0.00     0.125 C 
ATOM     28  C   UNL A   1      34.262  28.365  26.500  1.00  0.00     0.028 C 
ENDBRANCH  21  27
ENDBRANCH  19  20
ENDBRANCH  13  19
ENDBRANCH  11  12
ENDBRANCH   6  11
ENDBRANCH   3   5
ENDBRANCH   2   3
ENDBRANCH   1   2
BRANCH   1  29
ATOM     29  C   UNL A   1      40.292  21.427  25.928  1.00  0.00     0.202 C 
BRANCH  29  30
ATOM     30  O   UNL A   1      41.014  21.242  27.145  1.00  0.00    -0.374 OA
BRANCH  30  31
ATOM     31  C   UNL A   1      42.419  21.036  27.111  1.00  0.00     0.202 C 
BRANCH  31  32
ATOM     32  C   UNL A   1      43.019  20.398  25.881  1.00  0.00     0.261 C 
BRANCH  32  33
ATOM     33  O   UNL A   1      44.204  21.058  25.522  1.00  0.00    -0.460 OA
BRANCH  33  34
ATOM     34  C   UNL A   1      44.033  22.281  24.970  1.00  0.00     0.338 C 
ATOM     35  O   UNL A   1      43.381  22.584  23.992  1.00  0.00    -0.246 OA
BRANCH  34  36
ATOM     36  C   UNL A   1      44.953  23.166  25.689  1.00  0.00     0.060 A 
ATOM     37  C   UNL A   1      45.472  22.725  26.892  1.00  0.00     0.016 A 
ATOM     38  C   UNL A   1      44.645  24.507  25.539  1.00  0.00     0.016 A 
ATOM     39  C   UNL A   1      45.068  23.452  28.010  1.00  0.00     0.010 A 
ATOM     40  C   UNL A   1      44.737  25.294  26.626  1.00  0.00     0.010 A 
ATOM     41  C   UNL A   1      44.385  24.660  27.800  1.00  0.00    -0.014 A 
BRANCH  41  42
ATOM     42  C   UNL A   1      43.969  25.612  28.838  1.00  0.00     0.031 A 
ATOM     43  C   UNL A   1      42.638  26.157  28.337  1.00  0.00     0.074 A 
ATOM     44  C   UNL A   1      44.583  25.811  30.051  1.00  0.00     0.049 A 
ATOM     45  N   UNL A   1      42.548  27.141  27.492  1.00  0.00    -0.248 NA
ATOM     46  C   UNL A   1      41.397  25.315  28.310  1.00  0.00     0.031 C 
ATOM     47  C   UNL A   1      45.796  25.240  30.693  1.00  0.00     0.029 A 
ATOM     48  N   UNL A   1      44.187  26.670  31.056  1.00  0.00    -0.354 N 
ATOM     49  C   UNL A   1      41.192  27.247  27.199  1.00  0.00     0.074 A 
ATOM     50  C   UNL A   1      40.666  25.934  27.375  1.00  0.00     0.031 C 
ATOM     51  C   UNL A   1      45.832  25.540  32.028  1.00  0.00     0.029 A 
ATOM     52  C   UNL A   1      44.752  26.453  32.342  1.00  0.00     0.049 A 
ATOM     53  H   UNL A   1      43.546  27.398  30.890  1.00  0.00     0.167 HD
ATOM     54  C   UNL A   1      40.563  28.441  27.388  1.00  0.00     0.031 A 
ATOM     55  C   UNL A   1      44.380  27.082  33.513  1.00  0.00     0.031 A 
ATOM     56  C   UNL A   1      41.559  29.479  27.516  1.00  0.00     0.049 A 
ATOM     57  C   UNL A   1      43.633  28.303  33.091  1.00  0.00     0.074 A 
ATOM     58  C   UNL A   1      42.558  29.982  26.711  1.00  0.00     0.029 A 
ATOM     59  N   UNL A   1      41.925  29.729  28.815  1.00  0.00    -0.354 N 
ATOM     60  N   UNL A   1      44.230  29.278  32.460  1.00  0.00    -0.248 NA
ATOM     61  C   UNL A   1      42.222  28.089  32.782  1.00  0.00     0.031 C 
ATOM     62  C   UNL A   1      43.678  30.158  27.578  1.00  0.00     0.029 A 
ATOM     63  C   UNL A   1      43.273  29.935  28.893  1.00  0.00     0.049 A 
ATOM     64  H   UNL A   1      41.306  29.757  29.581  1.00  0.00     0.167 HD
ATOM     65  C   UNL A   1      43.446  29.473  31.334  1.00  0.00     0.074 A 
ATOM     66  C   UNL A   1      42.221  28.689  31.584  1.00  0.00     0.031 C 
ATOM     67  C   UNL A   1      43.984  29.901  30.150  1.00  0.00     0.031 A 
BRANCH  54  68
ATOM     68  C   UNL A   1      39.209  28.581  28.069  1.00  0.00    -0.014 A 
ATOM     69  C   UNL A   1      38.276  29.443  27.463  1.00  0.00     0.009 A 
ATOM     70  C   UNL A   1      38.912  28.172  29.385  1.00  0.00     0.009 A 
ATOM     71  C   UNL A   1      37.171  29.942  28.162  1.00  0.00     0.001 A 
ATOM     72  C   UNL A   1      37.791  28.645  30.079  1.00  0.00     0.001 A 
ATOM     73  C   UNL A   1      36.934  29.551  29.475  1.00  0.00     0.000 A 
ENDBRANCH  54  68
BRANCH  55  74
ATOM     74  C   UNL A   1      44.185  26.539  34.907  1.00  0.00    -0.014 A 
ATOM     75  C   UNL A   1      44.586  27.212  36.092  1.00  0.00     0.009 A 
ATOM     76  C   UNL A   1      43.280  25.481  35.076  1.00  0.00     0.009 A 
ATOM     77  C   UNL A   1      44.076  26.849  37.362  1.00  0.00     0.001 A 
ATOM     78  C   UNL A   1      42.758  25.134  36.333  1.00  0.00     0.001 A 
ATOM     79  C   UNL A   1      43.145  25.822  37.477  1.00  0.00     0.000 A 
ENDBRANCH  55  74
BRANCH  67  80
ATOM     80  C   UNL A   1      45.431  30.338  30.112  1.00  0.00    -0.014 A 
ATOM     81  C   UNL A   1      46.544  29.518  29.833  1.00  0.00     0.009 A 
ATOM     82  C   UNL A   1      45.643  31.719  30.214  1.00  0.00     0.009 A 
ATOM     83  C   UNL A   1      47.832  30.074  29.730  1.00  0.00     0.001 A 
ATOM     84  C   UNL A   1      46.914  32.272  30.086  1.00  0.00     0.001 A 
ATOM     85  C   UNL A   1      48.014  31.449  29.866  1.00  0.00     0.000 A 
ENDBRANCH  67  80
ENDBRANCH  41  42
ENDBRANCH  34  36
ENDBRANCH  33  34
ENDBRANCH  32  33
ENDBRANCH  31  32
ENDBRANCH  30  31
ENDBRANCH  29  30
ENDBRANCH   1  29
TORSDOF 19
ENDMDL
