MODEL 1
REMARK VINA RESULT:     -12.0      0.000      0.000
REMARK SMILES O=C(Cn1c(-c2nc(-c3ccc(C(F)(F)F)cc3)no2)cc2ccccc21)OCCOCCOC(=O)c1ccc(-c2c3nc(c(-c4ccccc4)c4ccc([nH]4)c(-c4ccccc4)c4nc(c(-c5ccccc5)c5ccc2[nH]5)C=C4)C=C3)cc1
REMARK SMILES IDX 30 1 29 2 28 3 2 4 1 5 3 6 4 7 5 8 27 9 21 10 22 11 26 12
REMARK SMILES IDX 23 13 25 14 24 15 6 16 7 17 20 18 8 19 19 20 9 21 10 22
REMARK SMILES IDX 18 23 11 24 17 25 12 26 13 27 14 28 15 29 16 30 31 31 32 32
REMARK SMILES IDX 33 33 34 34 35 35 36 36 37 37 38 38 84 39 39 40 83 41 40 42
REMARK SMILES IDX 41 43 42 44 77 45 43 46 82 47 76 48 78 49 44 50 81 51 75 52
REMARK SMILES IDX 74 53 45 55 67 56 52 57 66 58 53 59 56 60 65 61 79 62 54 63
REMARK SMILES IDX 55 64 64 66 80 67 57 68 46 69 47 70 51 71 48 72 50 73 49 74
REMARK SMILES IDX 68 75 69 76 73 77 70 78 72 79 71 80 58 81 59 82 63 83 60 84
REMARK SMILES IDX 62 85 61 86
REMARK H PARENT 78 54 56 65
REMARK Flexibility Score: inf
ROOT
ATOM      1  C   UNL A   1      33.579  28.219  25.913  1.00  0.00     0.202 C 
ENDROOT
BRANCH   1   2
ATOM      2  C   UNL A   1      33.553  26.704  26.130  1.00  0.00     0.261 C 
BRANCH   2   3
ATOM      3  O   UNL A   1      34.155  25.901  25.111  1.00  0.00    -0.462 OA
BRANCH   3   4
ATOM      4  C   UNL A   1      34.719  24.686  25.299  1.00  0.00     0.326 C 
ATOM      5  O   UNL A   1      35.623  24.327  24.543  1.00  0.00    -0.250 OA
BRANCH   4   6
ATOM      6  C   UNL A   1      34.162  23.737  26.324  1.00  0.00     0.245 C 
BRANCH   6   7
ATOM      7  N   UNL A   1      33.284  22.672  25.852  1.00  0.00    -0.325 N 
ATOM      8  C   UNL A   1      31.925  22.770  25.627  1.00  0.00     0.109 A 
ATOM      9  C   UNL A   1      33.736  21.419  25.446  1.00  0.00     0.049 A 
ATOM     10  C   UNL A   1      31.478  21.520  25.248  1.00  0.00     0.042 A 
ATOM     11  C   UNL A   1      32.607  20.674  25.093  1.00  0.00     0.000 A 
ATOM     12  C   UNL A   1      35.032  20.886  25.309  1.00  0.00     0.027 A 
ATOM     13  C   UNL A   1      32.769  19.356  24.621  1.00  0.00     0.010 A 
ATOM     14  C   UNL A   1      35.170  19.587  24.809  1.00  0.00     0.002 A 
ATOM     15  C   UNL A   1      34.055  18.826  24.479  1.00  0.00     0.001 A 
BRANCH   8  16
ATOM     16  C   UNL A   1      31.195  23.997  25.538  1.00  0.00     0.274 A 
ATOM     17  N   UNL A   1      31.044  24.758  24.474  1.00  0.00    -0.185 NA
ATOM     18  O   UNL A   1      30.444  24.419  26.600  1.00  0.00    -0.332 OA
ATOM     19  C   UNL A   1      30.168  25.735  24.927  1.00  0.00     0.202 A 
ATOM     20  N   UNL A   1      29.760  25.543  26.192  1.00  0.00    -0.057 NA
BRANCH  19  21
ATOM     21  C   UNL A   1      29.750  26.912  24.166  1.00  0.00     0.023 A 
ATOM     22  C   UNL A   1      28.390  27.068  23.845  1.00  0.00     0.013 A 
ATOM     23  C   UNL A   1      30.649  27.900  23.748  1.00  0.00     0.013 A 
ATOM     24  C   UNL A   1      27.933  28.178  23.134  1.00  0.00     0.014 A 
ATOM     25  C   UNL A   1      30.191  29.016  23.027  1.00  0.00     0.014 A 
ATOM     26  C   UNL A   1      28.829  29.167  22.716  1.00  0.00     0.056 A 
BRANCH  26  27
ATOM     27  C   UNL A   1      28.302  30.353  21.942  1.00  0.00     0.416 C 
ATOM     28  F   UNL A   1      27.799  29.996  20.726  1.00  0.00    -0.166 F 
ATOM     29  F   UNL A   1      27.284  30.985  22.591  1.00  0.00    -0.166 F 
ATOM     30  F   UNL A   1      29.238  31.310  21.695  1.00  0.00    -0.166 F 
ENDBRANCH  26  27
ENDBRANCH  19  21
ENDBRANCH   8  16
ENDBRANCH   6   7
ENDBRANCH   4   6
ENDBRANCH   3   4
ENDBRANCH   2   3
ENDBRANCH   1   2
BRANCH   1  31
ATOM     31  O   UNL A   1      32.756  29.055  26.711  1.00  0.00    -0.374 OA
BRANCH  31  32
ATOM     32  C   UNL A   1      32.723  30.461  26.441  1.00  0.00     0.202 C 
BRANCH  32  33
ATOM     33  C   UNL A   1      33.444  31.459  27.364  1.00  0.00     0.261 C 
BRANCH  33  34
ATOM     34  O   UNL A   1      34.781  31.050  27.670  1.00  0.00    -0.460 OA
BRANCH  34  35
ATOM     35  C   UNL A   1      35.455  31.863  28.527  1.00  0.00     0.338 C 
ATOM     36  O   UNL A   1      35.055  32.888  29.056  1.00  0.00    -0.246 OA
BRANCH  35  37
ATOM     37  C   UNL A   1      36.590  31.062  29.022  1.00  0.00     0.060 A 
ATOM     38  C   UNL A   1      37.796  31.671  29.376  1.00  0.00     0.016 A 
ATOM     39  C   UNL A   1      36.510  29.677  28.798  1.00  0.00     0.016 A 
ATOM     40  C   UNL A   1      38.949  30.894  29.418  1.00  0.00     0.010 A 
ATOM     41  C   UNL A   1      37.671  28.916  28.794  1.00  0.00     0.010 A 
ATOM     42  C   UNL A   1      38.893  29.532  29.070  1.00  0.00    -0.014 A 
BRANCH  42  43
ATOM     43  C   UNL A   1      40.104  28.730  29.240  1.00  0.00     0.031 A 
ATOM     44  C   UNL A   1      40.459  28.520  30.674  1.00  0.00     0.074 A 
ATOM     45  C   UNL A   1      40.760  28.060  28.270  1.00  0.00     0.049 A 
ATOM     46  N   UNL A   1      41.561  28.813  31.283  1.00  0.00    -0.248 NA
ATOM     47  C   UNL A   1      39.396  28.013  31.559  1.00  0.00     0.031 C 
ATOM     48  C   UNL A   1      40.392  27.867  26.866  1.00  0.00     0.029 A 
ATOM     49  N   UNL A   1      41.880  27.288  28.399  1.00  0.00    -0.354 N 
ATOM     50  C   UNL A   1      41.380  28.425  32.608  1.00  0.00     0.074 A 
ATOM     51  C   UNL A   1      39.996  28.051  32.746  1.00  0.00     0.031 C 
ATOM     52  C   UNL A   1      41.122  26.847  26.352  1.00  0.00     0.029 A 
ATOM     53  C   UNL A   1      42.099  26.417  27.339  1.00  0.00     0.049 A 
ATOM     54  H   UNL A   1      42.480  27.345  29.176  1.00  0.00     0.167 HD
ATOM     55  C   UNL A   1      42.410  28.279  33.484  1.00  0.00     0.031 A 
ATOM     56  C   UNL A   1      42.965  25.372  27.324  1.00  0.00     0.031 A 
ATOM     57  C   UNL A   1      43.601  28.947  33.043  1.00  0.00     0.049 A 
ATOM     58  C   UNL A   1      43.962  25.592  28.397  1.00  0.00     0.074 A 
ATOM     59  C   UNL A   1      43.934  30.266  32.802  1.00  0.00     0.029 A 
ATOM     60  N   UNL A   1      44.571  28.199  32.423  1.00  0.00    -0.354 N 
ATOM     61  N   UNL A   1      44.835  26.557  28.386  1.00  0.00    -0.248 NA
ATOM     62  C   UNL A   1      43.705  24.992  29.697  1.00  0.00     0.031 C 
ATOM     63  C   UNL A   1      44.762  30.225  31.644  1.00  0.00     0.029 A 
ATOM     64  C   UNL A   1      44.931  28.884  31.290  1.00  0.00     0.049 A 
ATOM     65  H   UNL A   1      44.937  27.339  32.731  1.00  0.00     0.167 HD
ATOM     66  C   UNL A   1      44.916  26.973  29.706  1.00  0.00     0.074 A 
ATOM     67  C   UNL A   1      44.263  25.918  30.478  1.00  0.00     0.031 C 
ATOM     68  C   UNL A   1      45.252  28.257  30.027  1.00  0.00     0.031 A 
BRANCH  55  69
ATOM     69  C   UNL A   1      42.408  27.272  34.601  1.00  0.00    -0.014 A 
ATOM     70  C   UNL A   1      41.861  27.542  35.870  1.00  0.00     0.009 A 
ATOM     71  C   UNL A   1      42.731  25.933  34.323  1.00  0.00     0.009 A 
ATOM     72  C   UNL A   1      41.651  26.537  36.818  1.00  0.00     0.001 A 
ATOM     73  C   UNL A   1      42.481  24.917  35.253  1.00  0.00     0.001 A 
ATOM     74  C   UNL A   1      41.941  25.220  36.500  1.00  0.00     0.000 A 
ENDBRANCH  55  69
BRANCH  56  75
ATOM     75  C   UNL A   1      42.751  24.019  26.751  1.00  0.00    -0.014 A 
ATOM     76  C   UNL A   1      41.534  23.351  26.978  1.00  0.00     0.009 A 
ATOM     77  C   UNL A   1      43.830  23.262  26.266  1.00  0.00     0.009 A 
ATOM     78  C   UNL A   1      41.410  21.973  26.770  1.00  0.00     0.001 A 
ATOM     79  C   UNL A   1      43.705  21.880  26.055  1.00  0.00     0.001 A 
ATOM     80  C   UNL A   1      42.500  21.234  26.324  1.00  0.00     0.000 A 
ENDBRANCH  56  75
BRANCH  68  81
ATOM     81  C   UNL A   1      45.712  29.184  28.924  1.00  0.00    -0.014 A 
ATOM     82  C   UNL A   1      44.740  29.771  28.099  1.00  0.00     0.009 A 
ATOM     83  C   UNL A   1      47.062  29.316  28.553  1.00  0.00     0.009 A 
ATOM     84  C   UNL A   1      45.102  30.448  26.931  1.00  0.00     0.001 A 
ATOM     85  C   UNL A   1      47.426  30.013  27.395  1.00  0.00     0.001 A 
ATOM     86  C   UNL A   1      46.443  30.568  26.579  1.00  0.00     0.000 A 
ENDBRANCH  68  81
ENDBRANCH  42  43
ENDBRANCH  35  37
ENDBRANCH  34  35
ENDBRANCH  33  34
ENDBRANCH  32  33
ENDBRANCH  31  32
ENDBRANCH   1  31
TORSDOF 18
ENDMDL
MODEL 2
REMARK VINA RESULT:     -11.9      3.972      8.580
REMARK SMILES O=C(Cn1c(-c2nc(-c3ccc(C(F)(F)F)cc3)no2)cc2ccccc21)OCCOCCOC(=O)c1ccc(-c2c3nc(c(-c4ccccc4)c4ccc([nH]4)c(-c4ccccc4)c4nc(c(-c5ccccc5)c5ccc2[nH]5)C=C4)C=C3)cc1
REMARK SMILES IDX 30 1 29 2 28 3 2 4 1 5 3 6 4 7 5 8 27 9 21 10 22 11 26 12
REMARK SMILES IDX 23 13 25 14 24 15 6 16 7 17 20 18 8 19 19 20 9 21 10 22
REMARK SMILES IDX 18 23 11 24 17 25 12 26 13 27 14 28 15 29 16 30 31 31 32 32
REMARK SMILES IDX 33 33 34 34 35 35 36 36 37 37 38 38 84 39 39 40 83 41 40 42
REMARK SMILES IDX 41 43 42 44 77 45 43 46 82 47 76 48 78 49 44 50 81 51 75 52
REMARK SMILES IDX 74 53 45 55 67 56 52 57 66 58 53 59 56 60 65 61 79 62 54 63
REMARK SMILES IDX 55 64 64 66 80 67 57 68 46 69 47 70 51 71 48 72 50 73 49 74
REMARK SMILES IDX 68 75 69 76 73 77 70 78 72 79 71 80 58 81 59 82 63 83 60 84
REMARK SMILES IDX 62 85 61 86
REMARK H PARENT 78 54 56 65
REMARK Flexibility Score: inf
ROOT
ATOM      1  C   UNL A   1      36.256  23.167  23.520  1.00  0.00     0.202 C 
ENDROOT
BRANCH   1   2
ATOM      2  C   UNL A   1      34.898  23.862  23.642  1.00  0.00     0.261 C 
BRANCH   2   3
ATOM      3  O   UNL A   1      34.358  24.429  22.445  1.00  0.00    -0.462 OA
BRANCH   3   4
ATOM      4  C   UNL A   1      33.660  25.585  22.368  1.00  0.00     0.326 C 
ATOM      5  O   UNL A   1      33.691  26.230  21.319  1.00  0.00    -0.250 OA
BRANCH   4   6
ATOM      6  C   UNL A   1      32.971  26.141  23.583  1.00  0.00     0.245 C 
BRANCH   6   7
ATOM      7  N   UNL A   1      31.513  26.183  23.574  1.00  0.00    -0.325 N 
ATOM      8  C   UNL A   1      30.661  25.116  23.786  1.00  0.00     0.109 A 
ATOM      9  C   UNL A   1      30.772  27.357  23.461  1.00  0.00     0.049 A 
ATOM     10  C   UNL A   1      29.371  25.582  23.628  1.00  0.00     0.042 A 
ATOM     11  C   UNL A   1      29.424  26.989  23.463  1.00  0.00     0.000 A 
ATOM     12  C   UNL A   1      31.159  28.710  23.406  1.00  0.00     0.027 A 
ATOM     13  C   UNL A   1      28.435  27.990  23.378  1.00  0.00     0.010 A 
ATOM     14  C   UNL A   1      30.159  29.687  23.354  1.00  0.00     0.002 A 
ATOM     15  C   UNL A   1      28.815  29.335  23.329  1.00  0.00     0.001 A 
BRANCH   8  16
ATOM     16  C   UNL A   1      31.049  23.855  24.337  1.00  0.00     0.274 A 
ATOM     17  N   UNL A   1      31.531  22.816  23.687  1.00  0.00    -0.185 NA
ATOM     18  O   UNL A   1      31.067  23.683  25.694  1.00  0.00    -0.332 OA
ATOM     19  C   UNL A   1      31.831  21.933  24.715  1.00  0.00     0.202 A 
ATOM     20  N   UNL A   1      31.596  22.434  25.938  1.00  0.00    -0.057 NA
BRANCH  19  21
ATOM     21  C   UNL A   1      32.298  20.558  24.535  1.00  0.00     0.023 A 
ATOM     22  C   UNL A   1      32.748  19.839  25.658  1.00  0.00     0.013 A 
ATOM     23  C   UNL A   1      32.307  19.919  23.290  1.00  0.00     0.013 A 
ATOM     24  C   UNL A   1      33.190  18.521  25.548  1.00  0.00     0.014 A 
ATOM     25  C   UNL A   1      32.757  18.592  23.176  1.00  0.00     0.014 A 
ATOM     26  C   UNL A   1      33.199  17.880  24.304  1.00  0.00     0.056 A 
BRANCH  26  27
ATOM     27  C   UNL A   1      33.690  16.454  24.219  1.00  0.00     0.416 C 
ATOM     28  F   UNL A   1      34.774  16.230  25.015  1.00  0.00    -0.166 F 
ATOM     29  F   UNL A   1      32.747  15.556  24.621  1.00  0.00    -0.166 F 
ATOM     30  F   UNL A   1      34.060  16.072  22.966  1.00  0.00    -0.166 F 
ENDBRANCH  26  27
ENDBRANCH  19  21
ENDBRANCH   8  16
ENDBRANCH   6   7
ENDBRANCH   4   6
ENDBRANCH   3   4
ENDBRANCH   2   3
ENDBRANCH   1   2
BRANCH   1  31
ATOM     31  O   UNL A   1      36.447  21.893  24.116  1.00  0.00    -0.374 OA
BRANCH  31  32
ATOM     32  C   UNL A   1      36.995  21.820  25.437  1.00  0.00     0.202 C 
BRANCH  32  33
ATOM     33  C   UNL A   1      38.504  21.612  25.655  1.00  0.00     0.261 C 
BRANCH  33  34
ATOM     34  O   UNL A   1      39.054  22.551  26.585  1.00  0.00    -0.460 OA
BRANCH  34  35
ATOM     35  C   UNL A   1      40.406  22.692  26.535  1.00  0.00     0.338 C 
ATOM     36  O   UNL A   1      41.207  22.015  25.909  1.00  0.00    -0.246 OA
BRANCH  35  37
ATOM     37  C   UNL A   1      40.680  24.054  27.030  1.00  0.00     0.060 A 
ATOM     38  C   UNL A   1      41.744  24.299  27.901  1.00  0.00     0.016 A 
ATOM     39  C   UNL A   1      39.646  24.990  26.861  1.00  0.00     0.016 A 
ATOM     40  C   UNL A   1      41.723  25.455  28.673  1.00  0.00     0.010 A 
ATOM     41  C   UNL A   1      39.605  26.118  27.669  1.00  0.00     0.010 A 
ATOM     42  C   UNL A   1      40.625  26.331  28.598  1.00  0.00    -0.014 A 
BRANCH  42  43
ATOM     43  C   UNL A   1      40.698  27.590  29.340  1.00  0.00     0.031 A 
ATOM     44  C   UNL A   1      41.627  28.575  28.712  1.00  0.00     0.074 A 
ATOM     45  C   UNL A   1      39.902  27.960  30.363  1.00  0.00     0.049 A 
ATOM     46  N   UNL A   1      42.653  29.162  29.235  1.00  0.00    -0.248 NA
ATOM     47  C   UNL A   1      41.438  28.852  27.277  1.00  0.00     0.031 C 
ATOM     48  C   UNL A   1      38.725  27.284  30.912  1.00  0.00     0.029 A 
ATOM     49  N   UNL A   1      39.932  29.133  31.063  1.00  0.00    -0.354 N 
ATOM     50  C   UNL A   1      43.180  29.975  28.234  1.00  0.00     0.074 A 
ATOM     51  C   UNL A   1      42.468  29.655  27.023  1.00  0.00     0.031 C 
ATOM     52  C   UNL A   1      38.023  28.162  31.672  1.00  0.00     0.029 A 
ATOM     53  C   UNL A   1      38.771  29.404  31.776  1.00  0.00     0.049 A 
ATOM     54  H   UNL A   1      40.711  29.734  31.063  1.00  0.00     0.167 HD
ATOM     55  C   UNL A   1      44.062  30.978  28.483  1.00  0.00     0.031 A 
ATOM     56  C   UNL A   1      38.428  30.594  32.332  1.00  0.00     0.031 A 
ATOM     57  C   UNL A   1      44.692  30.846  29.765  1.00  0.00     0.049 A 
ATOM     58  C   UNL A   1      39.663  31.399  32.480  1.00  0.00     0.074 A 
ATOM     59  C   UNL A   1      45.530  29.908  30.336  1.00  0.00     0.029 A 
ATOM     60  N   UNL A   1      44.196  31.587  30.810  1.00  0.00    -0.354 N 
ATOM     61  N   UNL A   1      40.635  31.090  33.287  1.00  0.00    -0.248 NA
ATOM     62  C   UNL A   1      40.004  32.321  31.408  1.00  0.00     0.031 C 
ATOM     63  C   UNL A   1      45.092  29.804  31.687  1.00  0.00     0.029 A 
ATOM     64  C   UNL A   1      44.058  30.726  31.869  1.00  0.00     0.049 A 
ATOM     65  H   UNL A   1      43.981  32.546  30.801  1.00  0.00     0.167 HD
ATOM     66  C   UNL A   1      41.788  31.422  32.593  1.00  0.00     0.074 A 
ATOM     67  C   UNL A   1      41.335  32.254  31.480  1.00  0.00     0.031 C 
ATOM     68  C   UNL A   1      42.967  30.769  32.816  1.00  0.00     0.031 A 
BRANCH  55  69
ATOM     69  C   UNL A   1      44.124  32.244  27.672  1.00  0.00    -0.014 A 
ATOM     70  C   UNL A   1      44.476  32.260  26.309  1.00  0.00     0.009 A 
ATOM     71  C   UNL A   1      43.580  33.427  28.199  1.00  0.00     0.009 A 
ATOM     72  C   UNL A   1      44.306  33.393  25.510  1.00  0.00     0.001 A 
ATOM     73  C   UNL A   1      43.366  34.551  27.391  1.00  0.00     0.001 A 
ATOM     74  C   UNL A   1      43.728  34.533  26.047  1.00  0.00     0.000 A 
ENDBRANCH  55  69
BRANCH  56  75
ATOM     75  C   UNL A   1      37.092  31.241  32.349  1.00  0.00    -0.014 A 
ATOM     76  C   UNL A   1      36.347  31.332  31.159  1.00  0.00     0.009 A 
ATOM     77  C   UNL A   1      36.691  32.041  33.432  1.00  0.00     0.009 A 
ATOM     78  C   UNL A   1      35.270  32.216  31.041  1.00  0.00     0.001 A 
ATOM     79  C   UNL A   1      35.610  32.927  33.314  1.00  0.00     0.001 A 
ATOM     80  C   UNL A   1      34.911  33.026  32.112  1.00  0.00     0.000 A 
ENDBRANCH  56  75
BRANCH  68  81
ATOM     81  C   UNL A   1      43.045  29.790  33.966  1.00  0.00    -0.014 A 
ATOM     82  C   UNL A   1      43.735  30.177  35.125  1.00  0.00     0.009 A 
ATOM     83  C   UNL A   1      42.647  28.445  33.850  1.00  0.00     0.009 A 
ATOM     84  C   UNL A   1      44.039  29.249  36.125  1.00  0.00     0.001 A 
ATOM     85  C   UNL A   1      42.932  27.521  34.862  1.00  0.00     0.001 A 
ATOM     86  C   UNL A   1      43.639  27.922  35.993  1.00  0.00     0.000 A 
ENDBRANCH  68  81
ENDBRANCH  42  43
ENDBRANCH  35  37
ENDBRANCH  34  35
ENDBRANCH  33  34
ENDBRANCH  32  33
ENDBRANCH  31  32
ENDBRANCH   1  31
TORSDOF 18
ENDMDL
MODEL 3
REMARK VINA RESULT:     -11.6      3.222      7.462
REMARK SMILES O=C(Cn1c(-c2nc(-c3ccc(C(F)(F)F)cc3)no2)cc2ccccc21)OCCOCCOC(=O)c1ccc(-c2c3nc(c(-c4ccccc4)c4ccc([nH]4)c(-c4ccccc4)c4nc(c(-c5ccccc5)c5ccc2[nH]5)C=C4)C=C3)cc1
REMARK SMILES IDX 30 1 29 2 28 3 2 4 1 5 3 6 4 7 5 8 27 9 21 10 22 11 26 12
REMARK SMILES IDX 23 13 25 14 24 15 6 16 7 17 20 18 8 19 19 20 9 21 10 22
REMARK SMILES IDX 18 23 11 24 17 25 12 26 13 27 14 28 15 29 16 30 31 31 32 32
REMARK SMILES IDX 33 33 34 34 35 35 36 36 37 37 38 38 84 39 39 40 83 41 40 42
REMARK SMILES IDX 41 43 42 44 77 45 43 46 82 47 76 48 78 49 44 50 81 51 75 52
REMARK SMILES IDX 74 53 45 55 67 56 52 57 66 58 53 59 56 60 65 61 79 62 54 63
REMARK SMILES IDX 55 64 64 66 80 67 57 68 46 69 47 70 51 71 48 72 50 73 49 74
REMARK SMILES IDX 68 75 69 76 73 77 70 78 72 79 71 80 58 81 59 82 63 83 60 84
REMARK SMILES IDX 62 85 61 86
REMARK H PARENT 78 54 56 65
REMARK Flexibility Score: inf
ROOT
ATOM      1  C   UNL A   1      35.979  23.427  24.637  1.00  0.00     0.202 C 
ENDROOT
BRANCH   1   2
ATOM      2  C   UNL A   1      35.780  22.598  23.366  1.00  0.00     0.261 C 
BRANCH   2   3
ATOM      3  O   UNL A   1      34.897  23.138  22.380  1.00  0.00    -0.462 OA
BRANCH   3   4
ATOM      4  C   UNL A   1      33.649  23.603  22.613  1.00  0.00     0.326 C 
ATOM      5  O   UNL A   1      33.477  24.818  22.721  1.00  0.00    -0.250 OA
BRANCH   4   6
ATOM      6  C   UNL A   1      32.516  22.649  22.872  1.00  0.00     0.245 C 
BRANCH   6   7
ATOM      7  N   UNL A   1      32.621  21.774  24.035  1.00  0.00    -0.325 N 
ATOM      8  C   UNL A   1      32.631  22.168  25.359  1.00  0.00     0.109 A 
ATOM      9  C   UNL A   1      32.608  20.383  23.961  1.00  0.00     0.049 A 
ATOM     10  C   UNL A   1      32.807  21.033  26.125  1.00  0.00     0.042 A 
ATOM     11  C   UNL A   1      32.755  19.905  25.267  1.00  0.00     0.000 A 
ATOM     12  C   UNL A   1      32.432  19.501  22.877  1.00  0.00     0.027 A 
ATOM     13  C   UNL A   1      32.758  18.515  25.496  1.00  0.00     0.010 A 
ATOM     14  C   UNL A   1      32.407  18.126  23.134  1.00  0.00     0.002 A 
ATOM     15  C   UNL A   1      32.579  17.636  24.424  1.00  0.00     0.001 A 
BRANCH   8  16
ATOM     16  C   UNL A   1      32.250  23.463  25.831  1.00  0.00     0.274 A 
ATOM     17  N   UNL A   1      32.996  24.546  25.876  1.00  0.00    -0.185 NA
ATOM     18  O   UNL A   1      30.947  23.706  26.169  1.00  0.00    -0.332 OA
ATOM     19  C   UNL A   1      32.097  25.512  26.307  1.00  0.00     0.202 A 
ATOM     20  N   UNL A   1      30.846  25.048  26.461  1.00  0.00    -0.057 NA
BRANCH  19  21
ATOM     21  C   UNL A   1      32.440  26.895  26.637  1.00  0.00     0.023 A 
ATOM     22  C   UNL A   1      33.740  27.359  26.366  1.00  0.00     0.013 A 
ATOM     23  C   UNL A   1      31.522  27.786  27.205  1.00  0.00     0.013 A 
ATOM     24  C   UNL A   1      34.117  28.673  26.645  1.00  0.00     0.014 A 
ATOM     25  C   UNL A   1      31.901  29.109  27.493  1.00  0.00     0.014 A 
ATOM     26  C   UNL A   1      33.200  29.565  27.212  1.00  0.00     0.056 A 
BRANCH  26  27
ATOM     27  C   UNL A   1      33.643  30.978  27.508  1.00  0.00     0.416 C 
ATOM     28  F   UNL A   1      34.829  31.286  26.911  1.00  0.00    -0.166 F 
ATOM     29  F   UNL A   1      32.752  31.906  27.059  1.00  0.00    -0.166 F 
ATOM     30  F   UNL A   1      33.814  31.236  28.834  1.00  0.00    -0.166 F 
ENDBRANCH  26  27
ENDBRANCH  19  21
ENDBRANCH   8  16
ENDBRANCH   6   7
ENDBRANCH   4   6
ENDBRANCH   3   4
ENDBRANCH   2   3
ENDBRANCH   1   2
BRANCH   1  31
ATOM     31  O   UNL A   1      36.840  22.947  25.659  1.00  0.00    -0.374 OA
BRANCH  31  32
ATOM     32  C   UNL A   1      38.146  22.481  25.305  1.00  0.00     0.202 C 
BRANCH  32  33
ATOM     33  C   UNL A   1      39.056  21.813  26.351  1.00  0.00     0.261 C 
BRANCH  33  34
ATOM     34  O   UNL A   1      39.750  22.769  27.159  1.00  0.00    -0.460 OA
BRANCH  34  35
ATOM     35  C   UNL A   1      41.016  23.059  26.755  1.00  0.00     0.338 C 
ATOM     36  O   UNL A   1      41.716  22.430  25.977  1.00  0.00    -0.246 OA
BRANCH  35  37
ATOM     37  C   UNL A   1      41.224  24.479  27.095  1.00  0.00     0.060 A 
ATOM     38  C   UNL A   1      42.082  24.849  28.133  1.00  0.00     0.016 A 
ATOM     39  C   UNL A   1      40.285  25.382  26.568  1.00  0.00     0.016 A 
ATOM     40  C   UNL A   1      41.934  26.107  28.705  1.00  0.00     0.010 A 
ATOM     41  C   UNL A   1      40.109  26.618  27.175  1.00  0.00     0.010 A 
ATOM     42  C   UNL A   1      40.910  26.965  28.264  1.00  0.00    -0.014 A 
BRANCH  42  43
ATOM     43  C   UNL A   1      40.865  28.320  28.813  1.00  0.00     0.031 A 
ATOM     44  C   UNL A   1      41.982  29.179  28.320  1.00  0.00     0.074 A 
ATOM     45  C   UNL A   1      39.856  28.859  29.527  1.00  0.00     0.049 A 
ATOM     46  N   UNL A   1      42.872  29.817  29.006  1.00  0.00    -0.248 NA
ATOM     47  C   UNL A   1      42.187  29.237  26.862  1.00  0.00     0.031 C 
ATOM     48  C   UNL A   1      38.538  28.299  29.835  1.00  0.00     0.029 A 
ATOM     49  N   UNL A   1      39.774  30.124  30.036  1.00  0.00    -0.354 N 
ATOM     50  C   UNL A   1      43.687  30.456  28.075  1.00  0.00     0.074 A 
ATOM     51  C   UNL A   1      43.294  29.971  26.778  1.00  0.00     0.031 C 
ATOM     52  C   UNL A   1      37.718  29.296  30.250  1.00  0.00     0.029 A 
ATOM     53  C   UNL A   1      38.488  30.525  30.371  1.00  0.00     0.049 A 
ATOM     54  H   UNL A   1      40.562  30.702  30.156  1.00  0.00     0.167 HD
ATOM     55  C   UNL A   1      44.534  31.468  28.404  1.00  0.00     0.031 A 
ATOM     56  C   UNL A   1      38.085  31.792  30.643  1.00  0.00     0.031 A 
ATOM     57  C   UNL A   1      44.803  31.519  29.812  1.00  0.00     0.049 A 
ATOM     58  C   UNL A   1      39.286  32.584  30.996  1.00  0.00     0.074 A 
ATOM     59  C   UNL A   1      45.407  30.662  30.711  1.00  0.00     0.029 A 
ATOM     60  N   UNL A   1      44.099  32.421  30.573  1.00  0.00    -0.354 N 
ATOM     61  N   UNL A   1      39.997  32.381  32.067  1.00  0.00    -0.248 NA
ATOM     62  C   UNL A   1      39.947  33.325  29.933  1.00  0.00     0.031 C 
ATOM     63  C   UNL A   1      44.630  30.775  31.898  1.00  0.00     0.029 A 
ATOM     64  C   UNL A   1      43.642  31.735  31.669  1.00  0.00     0.049 A 
ATOM     65  H   UNL A   1      43.952  33.372  30.371  1.00  0.00     0.167 HD
ATOM     66  C   UNL A   1      41.307  32.580  31.661  1.00  0.00     0.074 A 
ATOM     67  C   UNL A   1      41.208  33.241  30.362  1.00  0.00     0.031 C 
ATOM     68  C   UNL A   1      42.347  31.945  32.278  1.00  0.00     0.031 A 
BRANCH  55  69
ATOM     69  C   UNL A   1      44.878  32.593  27.467  1.00  0.00    -0.014 A 
ATOM     70  C   UNL A   1      43.931  33.540  27.032  1.00  0.00     0.009 A 
ATOM     71  C   UNL A   1      46.228  32.879  27.199  1.00  0.00     0.009 A 
ATOM     72  C   UNL A   1      44.302  34.707  26.358  1.00  0.00     0.001 A 
ATOM     73  C   UNL A   1      46.607  34.068  26.564  1.00  0.00     0.001 A 
ATOM     74  C   UNL A   1      45.643  34.981  26.144  1.00  0.00     0.000 A 
ENDBRANCH  55  69
BRANCH  56  75
ATOM     75  C   UNL A   1      36.832  32.462  30.214  1.00  0.00    -0.014 A 
ATOM     76  C   UNL A   1      36.718  32.955  28.902  1.00  0.00     0.009 A 
ATOM     77  C   UNL A   1      35.887  32.899  31.159  1.00  0.00     0.009 A 
ATOM     78  C   UNL A   1      35.729  33.881  28.555  1.00  0.00     0.001 A 
ATOM     79  C   UNL A   1      34.894  33.826  30.810  1.00  0.00     0.001 A 
ATOM     80  C   UNL A   1      34.826  34.330  29.513  1.00  0.00     0.000 A 
ENDBRANCH  56  75
BRANCH  68  81
ATOM     81  C   UNL A   1      42.067  31.150  33.535  1.00  0.00    -0.014 A 
ATOM     82  C   UNL A   1      41.453  29.895  33.406  1.00  0.00     0.009 A 
ATOM     83  C   UNL A   1      42.198  31.695  34.825  1.00  0.00     0.009 A 
ATOM     84  C   UNL A   1      40.963  29.216  34.525  1.00  0.00     0.001 A 
ATOM     85  C   UNL A   1      41.727  31.004  35.949  1.00  0.00     0.001 A 
ATOM     86  C   UNL A   1      41.099  29.770  35.795  1.00  0.00     0.000 A 
ENDBRANCH  68  81
ENDBRANCH  42  43
ENDBRANCH  35  37
ENDBRANCH  34  35
ENDBRANCH  33  34
ENDBRANCH  32  33
ENDBRANCH  31  32
ENDBRANCH   1  31
TORSDOF 18
ENDMDL
