MODEL 1
REMARK VINA RESULT:     -10.4      0.000      0.000
REMARK SMILES Cc1onc2c(=O)n(C)nc(C(=O)OCCOCCOC(=O)c3ccc(-c4c5nc(c(-c6ccccc6)c6ccc([nH]6)c(-c6ccccc6)c6nc(c(-c7ccccc7)c7ccc4[nH]7)C=C6)C=C5)cc3)c12
REMARK SMILES IDX 18 1 17 2 16 3 15 4 14 5 12 6 13 7 11 8 1 9 2 10 3 11 71 12
REMARK SMILES IDX 4 13 5 14 6 15 10 16 7 17 8 18 9 19 19 20 20 21 21 22 22 23
REMARK SMILES IDX 23 24 24 25 70 26 25 27 69 28 26 29 27 30 28 31 63 32 29 33
REMARK SMILES IDX 68 34 62 35 64 36 30 37 67 38 61 39 60 40 31 42 53 43 38 44
REMARK SMILES IDX 52 45 39 46 42 47 51 48 65 49 40 50 41 51 50 53 66 54 43 55
REMARK SMILES IDX 32 56 33 57 37 58 34 59 36 60 35 61 54 62 55 63 59 64 56 65
REMARK SMILES IDX 58 66 57 67 44 68 45 69 49 70 46 71 48 72 47 73
REMARK H PARENT 64 41 42 52
REMARK Flexibility Score: inf
ROOT
ATOM      1  C   UNL A   1      37.527  20.905  24.839  1.00  0.00     0.202 C 
ENDROOT
BRANCH   1   2
ATOM      2  O   UNL A   1      36.246  21.479  24.597  1.00  0.00    -0.374 OA
BRANCH   2   3
ATOM      3  C   UNL A   1      35.352  21.582  25.706  1.00  0.00     0.202 C 
BRANCH   3   4
ATOM      4  C   UNL A   1      35.403  22.905  26.476  1.00  0.00     0.261 C 
BRANCH   4   5
ATOM      5  O   UNL A   1      35.062  24.004  25.621  1.00  0.00    -0.458 OA
BRANCH   5   6
ATOM      6  C   UNL A   1      33.795  24.449  25.718  1.00  0.00     0.359 C 
ATOM      7  O   UNL A   1      32.904  24.041  26.447  1.00  0.00    -0.244 OA
BRANCH   6   8
ATOM      8  C   UNL A   1      33.610  25.672  24.839  1.00  0.00     0.182 A 
ATOM      9  C   UNL A   1      33.408  23.097  22.532  1.00  0.00     0.091 C 
ATOM     10  C   UNL A   1      33.511  24.569  22.494  1.00  0.00     0.144 A 
ATOM     11  O   UNL A   1      33.501  25.112  21.238  1.00  0.00    -0.360 OA
ATOM     12  C   UNL A   1      33.570  25.594  23.407  1.00  0.00     0.085 A 
ATOM     13  N   UNL A   1      33.509  26.495  21.324  1.00  0.00    -0.074 NA
ATOM     14  C   UNL A   1      33.522  26.765  22.633  1.00  0.00     0.183 A 
ATOM     15  C   UNL A   1      33.439  28.075  23.243  1.00  0.00     0.296 A 
ATOM     16  N   UNL A   1      33.491  26.839  25.419  1.00  0.00    -0.162 NA
ATOM     17  O   UNL A   1      33.414  29.128  22.608  1.00  0.00    -0.265 OA
ATOM     18  N   UNL A   1      33.354  28.008  24.652  1.00  0.00    -0.230 N 
ATOM     19  C   UNL A   1      33.175  29.241  25.393  1.00  0.00     0.178 C 
ENDBRANCH   6   8
ENDBRANCH   5   6
ENDBRANCH   4   5
ENDBRANCH   3   4
ENDBRANCH   2   3
ENDBRANCH   1   2
BRANCH   1  20
ATOM     20  C   UNL A   1      38.522  21.635  25.755  1.00  0.00     0.261 C 
BRANCH  20  21
ATOM     21  O   UNL A   1      39.850  21.106  25.800  1.00  0.00    -0.460 OA
BRANCH  21  22
ATOM     22  C   UNL A   1      40.499  21.398  26.952  1.00  0.00     0.338 C 
ATOM     23  O   UNL A   1      40.753  20.634  27.873  1.00  0.00    -0.246 OA
BRANCH  22  24
ATOM     24  C   UNL A   1      40.916  22.805  26.973  1.00  0.00     0.060 A 
ATOM     25  C   UNL A   1      41.969  23.204  26.143  1.00  0.00     0.016 A 
ATOM     26  C   UNL A   1      40.389  23.675  27.925  1.00  0.00     0.016 A 
ATOM     27  C   UNL A   1      42.516  24.481  26.277  1.00  0.00     0.010 A 
ATOM     28  C   UNL A   1      40.956  24.942  28.070  1.00  0.00     0.010 A 
ATOM     29  C   UNL A   1      42.027  25.357  27.252  1.00  0.00    -0.014 A 
BRANCH  29  30
ATOM     30  C   UNL A   1      42.627  26.710  27.378  1.00  0.00     0.031 A 
ATOM     31  C   UNL A   1      41.643  27.823  27.400  1.00  0.00     0.074 A 
ATOM     32  C   UNL A   1      43.763  26.940  28.082  1.00  0.00     0.049 A 
ATOM     33  N   UNL A   1      41.017  28.090  28.504  1.00  0.00    -0.248 NA
ATOM     34  C   UNL A   1      41.089  28.502  26.234  1.00  0.00     0.031 C 
ATOM     35  C   UNL A   1      44.312  26.002  29.071  1.00  0.00     0.029 A 
ATOM     36  N   UNL A   1      44.507  28.091  28.262  1.00  0.00    -0.354 N 
ATOM     37  C   UNL A   1      39.925  28.868  28.193  1.00  0.00     0.074 A 
ATOM     38  C   UNL A   1      40.040  29.149  26.778  1.00  0.00     0.031 C 
ATOM     39  C   UNL A   1      45.183  26.662  29.860  1.00  0.00     0.029 A 
ATOM     40  C   UNL A   1      45.381  28.012  29.342  1.00  0.00     0.049 A 
ATOM     41  H   UNL A   1      44.428  28.885  27.685  1.00  0.00     0.167 HD
ATOM     42  C   UNL A   1      39.005  29.192  29.141  1.00  0.00     0.031 A 
ATOM     43  C   UNL A   1      45.855  29.046  30.084  1.00  0.00     0.031 A 
ATOM     44  C   UNL A   1      39.222  28.707  30.491  1.00  0.00     0.049 A 
ATOM     45  C   UNL A   1      44.680  29.446  30.929  1.00  0.00     0.074 A 
ATOM     46  C   UNL A   1      38.475  28.316  31.586  1.00  0.00     0.029 A 
ATOM     47  N   UNL A   1      40.521  28.562  30.891  1.00  0.00    -0.354 N 
ATOM     48  N   UNL A   1      44.284  28.866  32.029  1.00  0.00    -0.248 NA
ATOM     49  C   UNL A   1      43.742  30.447  30.392  1.00  0.00     0.031 C 
ATOM     50  C   UNL A   1      39.385  28.107  32.680  1.00  0.00     0.029 A 
ATOM     51  C   UNL A   1      40.659  28.425  32.240  1.00  0.00     0.049 A 
ATOM     52  H   UNL A   1      41.282  28.557  30.266  1.00  0.00     0.167 HD
ATOM     53  C   UNL A   1      42.948  29.216  32.149  1.00  0.00     0.074 A 
ATOM     54  C   UNL A   1      42.716  30.307  31.224  1.00  0.00     0.031 C 
ATOM     55  C   UNL A   1      42.007  28.432  32.749  1.00  0.00     0.031 A 
BRANCH  42  56
ATOM     56  C   UNL A   1      37.944  30.193  28.902  1.00  0.00    -0.014 A 
ATOM     57  C   UNL A   1      36.791  29.747  28.230  1.00  0.00     0.009 A 
ATOM     58  C   UNL A   1      38.090  31.556  29.171  1.00  0.00     0.009 A 
ATOM     59  C   UNL A   1      35.810  30.644  27.816  1.00  0.00     0.001 A 
ATOM     60  C   UNL A   1      37.099  32.456  28.755  1.00  0.00     0.001 A 
ATOM     61  C   UNL A   1      35.967  32.002  28.075  1.00  0.00     0.000 A 
ENDBRANCH  42  56
BRANCH  43  62
ATOM     62  C   UNL A   1      46.759  30.044  29.438  1.00  0.00    -0.014 A 
ATOM     63  C   UNL A   1      47.123  31.194  30.168  1.00  0.00     0.009 A 
ATOM     64  C   UNL A   1      47.202  29.971  28.108  1.00  0.00     0.009 A 
ATOM     65  C   UNL A   1      47.959  32.177  29.623  1.00  0.00     0.001 A 
ATOM     66  C   UNL A   1      48.066  30.933  27.572  1.00  0.00     0.001 A 
ATOM     67  C   UNL A   1      48.451  32.033  28.332  1.00  0.00     0.000 A 
ENDBRANCH  43  62
BRANCH  55  68
ATOM     68  C   UNL A   1      42.466  27.460  33.771  1.00  0.00    -0.014 A 
ATOM     69  C   UNL A   1      43.293  26.395  33.386  1.00  0.00     0.009 A 
ATOM     70  C   UNL A   1      42.139  27.613  35.124  1.00  0.00     0.009 A 
ATOM     71  C   UNL A   1      43.789  25.502  34.333  1.00  0.00     0.001 A 
ATOM     72  C   UNL A   1      42.637  26.718  36.073  1.00  0.00     0.001 A 
ATOM     73  C   UNL A   1      43.464  25.666  35.677  1.00  0.00     0.000 A 
ENDBRANCH  55  68
ENDBRANCH  29  30
ENDBRANCH  22  24
ENDBRANCH  21  22
ENDBRANCH  20  21
ENDBRANCH   1  20
TORSDOF 14
ENDMDL
MODEL 2
REMARK VINA RESULT:     -10.4      1.473      2.293
REMARK SMILES Cc1onc2c(=O)n(C)nc(C(=O)OCCOCCOC(=O)c3ccc(-c4c5nc(c(-c6ccccc6)c6ccc([nH]6)c(-c6ccccc6)c6nc(c(-c7ccccc7)c7ccc4[nH]7)C=C6)C=C5)cc3)c12
REMARK SMILES IDX 18 1 17 2 16 3 15 4 14 5 12 6 13 7 11 8 1 9 2 10 3 11 71 12
REMARK SMILES IDX 4 13 5 14 6 15 10 16 7 17 8 18 9 19 19 20 20 21 21 22 22 23
REMARK SMILES IDX 23 24 24 25 70 26 25 27 69 28 26 29 27 30 28 31 63 32 29 33
REMARK SMILES IDX 68 34 62 35 64 36 30 37 67 38 61 39 60 40 31 42 53 43 38 44
REMARK SMILES IDX 52 45 39 46 42 47 51 48 65 49 40 50 41 51 50 53 66 54 43 55
REMARK SMILES IDX 32 56 33 57 37 58 34 59 36 60 35 61 54 62 55 63 59 64 56 65
REMARK SMILES IDX 58 66 57 67 44 68 45 69 49 70 46 71 48 72 47 73
REMARK H PARENT 64 41 42 52
REMARK Flexibility Score: inf
ROOT
ATOM      1  C   UNL A   1      38.216  21.715  25.694  1.00  0.00     0.202 C 
ENDROOT
BRANCH   1   2
ATOM      2  O   UNL A   1      37.320  20.883  24.963  1.00  0.00    -0.374 OA
BRANCH   2   3
ATOM      3  C   UNL A   1      36.073  21.454  24.561  1.00  0.00     0.202 C 
BRANCH   3   4
ATOM      4  C   UNL A   1      36.169  22.622  23.575  1.00  0.00     0.261 C 
BRANCH   4   5
ATOM      5  O   UNL A   1      35.053  23.508  23.726  1.00  0.00    -0.458 OA
BRANCH   5   6
ATOM      6  C   UNL A   1      35.025  24.225  24.866  1.00  0.00     0.359 C 
ATOM      7  O   UNL A   1      35.965  24.563  25.568  1.00  0.00    -0.244 OA
BRANCH   6   8
ATOM      8  C   UNL A   1      33.610  24.696  25.144  1.00  0.00     0.182 A 
ATOM      9  C   UNL A   1      34.062  22.294  27.599  1.00  0.00     0.091 C 
ATOM     10  C   UNL A   1      32.937  23.084  27.062  1.00  0.00     0.144 A 
ATOM     11  O   UNL A   1      31.738  22.867  27.683  1.00  0.00    -0.360 OA
ATOM     12  C   UNL A   1      32.758  24.052  26.104  1.00  0.00     0.085 A 
ATOM     13  N   UNL A   1      30.778  23.723  27.165  1.00  0.00    -0.074 NA
ATOM     14  C   UNL A   1      31.417  24.445  26.239  1.00  0.00     0.183 A 
ATOM     15  C   UNL A   1      30.868  25.547  25.476  1.00  0.00     0.296 A 
ATOM     16  N   UNL A   1      33.155  25.723  24.474  1.00  0.00    -0.162 NA
ATOM     17  O   UNL A   1      29.696  25.913  25.546  1.00  0.00    -0.265 OA
ATOM     18  N   UNL A   1      31.840  26.177  24.667  1.00  0.00    -0.230 N 
ATOM     19  C   UNL A   1      31.454  27.355  23.915  1.00  0.00     0.178 C 
ENDBRANCH   6   8
ENDBRANCH   5   6
ENDBRANCH   4   5
ENDBRANCH   3   4
ENDBRANCH   2   3
ENDBRANCH   1   2
BRANCH   1  20
ATOM     20  C   UNL A   1      39.657  21.241  25.939  1.00  0.00     0.261 C 
BRANCH  20  21
ATOM     21  O   UNL A   1      40.119  21.287  27.292  1.00  0.00    -0.460 OA
BRANCH  21  22
ATOM     22  C   UNL A   1      41.440  21.567  27.392  1.00  0.00     0.338 C 
ATOM     23  O   UNL A   1      42.361  20.767  27.484  1.00  0.00    -0.246 OA
BRANCH  22  24
ATOM     24  C   UNL A   1      41.670  23.015  27.351  1.00  0.00     0.060 A 
ATOM     25  C   UNL A   1      42.759  23.500  26.618  1.00  0.00     0.016 A 
ATOM     26  C   UNL A   1      40.926  23.864  28.166  1.00  0.00     0.016 A 
ATOM     27  C   UNL A   1      43.121  24.845  26.714  1.00  0.00     0.010 A 
ATOM     28  C   UNL A   1      41.306  25.202  28.276  1.00  0.00     0.010 A 
ATOM     29  C   UNL A   1      42.409  25.706  27.556  1.00  0.00    -0.014 A 
BRANCH  29  30
ATOM     30  C   UNL A   1      42.814  27.133  27.643  1.00  0.00     0.031 A 
ATOM     31  C   UNL A   1      41.698  28.102  27.492  1.00  0.00     0.074 A 
ATOM     32  C   UNL A   1      43.830  27.553  28.436  1.00  0.00     0.049 A 
ATOM     33  N   UNL A   1      40.930  28.344  28.509  1.00  0.00    -0.248 NA
ATOM     34  C   UNL A   1      41.186  28.632  26.234  1.00  0.00     0.031 C 
ATOM     35  C   UNL A   1      44.388  26.755  29.537  1.00  0.00     0.029 A 
ATOM     36  N   UNL A   1      44.397  28.802  28.606  1.00  0.00    -0.354 N 
ATOM     37  C   UNL A   1      39.786  28.948  28.040  1.00  0.00     0.074 A 
ATOM     38  C   UNL A   1      40.012  29.162  26.627  1.00  0.00     0.031 C 
ATOM     39  C   UNL A   1      45.079  27.571  30.358  1.00  0.00     0.029 A 
ATOM     40  C   UNL A   1      45.156  28.904  29.768  1.00  0.00     0.049 A 
ATOM     41  H   UNL A   1      44.278  29.544  27.969  1.00  0.00     0.167 HD
ATOM     42  C   UNL A   1      38.737  29.199  28.870  1.00  0.00     0.031 A 
ATOM     43  C   UNL A   1      45.413  30.032  30.478  1.00  0.00     0.031 A 
ATOM     44  C   UNL A   1      38.872  28.826  30.266  1.00  0.00     0.049 A 
ATOM     45  C   UNL A   1      44.114  30.318  31.175  1.00  0.00     0.074 A 
ATOM     46  C   UNL A   1      38.071  28.400  31.308  1.00  0.00     0.029 A 
ATOM     47  N   UNL A   1      40.130  28.880  30.798  1.00  0.00    -0.354 N 
ATOM     48  N   UNL A   1      43.682  29.753  32.270  1.00  0.00    -0.248 NA
ATOM     49  C   UNL A   1      43.116  31.151  30.481  1.00  0.00     0.031 C 
ATOM     50  C   UNL A   1      38.881  28.378  32.496  1.00  0.00     0.029 A 
ATOM     51  C   UNL A   1      40.142  28.839  32.160  1.00  0.00     0.049 A 
ATOM     52  H   UNL A   1      40.947  28.942  30.251  1.00  0.00     0.167 HD
ATOM     53  C   UNL A   1      42.307  29.926  32.236  1.00  0.00     0.074 A 
ATOM     54  C   UNL A   1      42.035  30.922  31.218  1.00  0.00     0.031 C 
ATOM     55  C   UNL A   1      41.417  29.057  32.795  1.00  0.00     0.031 A 
BRANCH  42  56
ATOM     56  C   UNL A   1      37.587  30.033  28.459  1.00  0.00    -0.014 A 
ATOM     57  C   UNL A   1      37.624  31.388  28.832  1.00  0.00     0.009 A 
ATOM     58  C   UNL A   1      36.432  29.521  27.865  1.00  0.00     0.009 A 
ATOM     59  C   UNL A   1      36.522  32.217  28.635  1.00  0.00     0.001 A 
ATOM     60  C   UNL A   1      35.325  30.357  27.666  1.00  0.00     0.001 A 
ATOM     61  C   UNL A   1      35.368  31.698  28.055  1.00  0.00     0.000 A 
ENDBRANCH  42  56
BRANCH  43  62
ATOM     62  C   UNL A   1      46.244  31.105  29.854  1.00  0.00    -0.014 A 
ATOM     63  C   UNL A   1      46.553  32.247  30.619  1.00  0.00     0.009 A 
ATOM     64  C   UNL A   1      46.665  31.106  28.515  1.00  0.00     0.009 A 
ATOM     65  C   UNL A   1      47.319  33.297  30.096  1.00  0.00     0.001 A 
ATOM     66  C   UNL A   1      47.460  32.136  27.999  1.00  0.00     0.001 A 
ATOM     67  C   UNL A   1      47.794  33.229  28.792  1.00  0.00     0.000 A 
ENDBRANCH  43  62
BRANCH  55  68
ATOM     68  C   UNL A   1      41.887  28.215  33.923  1.00  0.00    -0.014 A 
ATOM     69  C   UNL A   1      41.538  28.565  35.235  1.00  0.00     0.009 A 
ATOM     70  C   UNL A   1      42.623  27.045  33.703  1.00  0.00     0.009 A 
ATOM     71  C   UNL A   1      41.913  27.760  36.308  1.00  0.00     0.001 A 
ATOM     72  C   UNL A   1      42.999  26.238  34.779  1.00  0.00     0.001 A 
ATOM     73  C   UNL A   1      42.640  26.595  36.079  1.00  0.00     0.000 A 
ENDBRANCH  55  68
ENDBRANCH  29  30
ENDBRANCH  22  24
ENDBRANCH  21  22
ENDBRANCH  20  21
ENDBRANCH   1  20
TORSDOF 14
ENDMDL
MODEL 3
REMARK VINA RESULT:     -10.3      9.832     13.655
REMARK SMILES Cc1onc2c(=O)n(C)nc(C(=O)OCCOCCOC(=O)c3ccc(-c4c5nc(c(-c6ccccc6)c6ccc([nH]6)c(-c6ccccc6)c6nc(c(-c7ccccc7)c7ccc4[nH]7)C=C6)C=C5)cc3)c12
REMARK SMILES IDX 18 1 17 2 16 3 15 4 14 5 12 6 13 7 11 8 1 9 2 10 3 11 71 12
REMARK SMILES IDX 4 13 5 14 6 15 10 16 7 17 8 18 9 19 19 20 20 21 21 22 22 23
REMARK SMILES IDX 23 24 24 25 70 26 25 27 69 28 26 29 27 30 28 31 63 32 29 33
REMARK SMILES IDX 68 34 62 35 64 36 30 37 67 38 61 39 60 40 31 42 53 43 38 44
REMARK SMILES IDX 52 45 39 46 42 47 51 48 65 49 40 50 41 51 50 53 66 54 43 55
REMARK SMILES IDX 32 56 33 57 37 58 34 59 36 60 35 61 54 62 55 63 59 64 56 65
REMARK SMILES IDX 58 66 57 67 44 68 45 69 49 70 46 71 48 72 47 73
REMARK H PARENT 64 41 42 52
REMARK Flexibility Score: inf
ROOT
ATOM      1  C   UNL A   1      40.717  32.990  32.684  1.00  0.00     0.202 C 
ENDROOT
BRANCH   1   2
ATOM      2  O   UNL A   1      39.313  32.751  32.682  1.00  0.00    -0.374 OA
BRANCH   2   3
ATOM      3  C   UNL A   1      38.457  33.874  32.465  1.00  0.00     0.202 C 
BRANCH   3   4
ATOM      4  C   UNL A   1      37.597  34.290  33.663  1.00  0.00     0.261 C 
BRANCH   4   5
ATOM      5  O   UNL A   1      36.417  34.976  33.227  1.00  0.00    -0.458 OA
BRANCH   5   6
ATOM      6  C   UNL A   1      35.293  34.236  33.182  1.00  0.00     0.359 C 
ATOM      7  O   UNL A   1      34.739  33.647  34.097  1.00  0.00    -0.244 OA
BRANCH   6   8
ATOM      8  C   UNL A   1      34.683  34.308  31.795  1.00  0.00     0.182 A 
ATOM      9  C   UNL A   1      33.860  37.409  33.099  1.00  0.00     0.091 C 
ATOM     10  C   UNL A   1      33.504  36.615  31.907  1.00  0.00     0.144 A 
ATOM     11  O   UNL A   1      32.644  37.235  31.041  1.00  0.00    -0.360 OA
ATOM     12  C   UNL A   1      33.845  35.395  31.376  1.00  0.00     0.085 A 
ATOM     13  N   UNL A   1      32.453  36.443  29.920  1.00  0.00    -0.074 NA
ATOM     14  C   UNL A   1      33.204  35.356  30.127  1.00  0.00     0.183 A 
ATOM     15  C   UNL A   1      33.418  34.268  29.197  1.00  0.00     0.296 A 
ATOM     16  N   UNL A   1      34.931  33.333  30.957  1.00  0.00    -0.162 NA
ATOM     17  O   UNL A   1      32.864  34.181  28.102  1.00  0.00    -0.265 OA
ATOM     18  N   UNL A   1      34.362  33.331  29.673  1.00  0.00    -0.230 N 
ATOM     19  C   UNL A   1      34.745  32.234  28.807  1.00  0.00     0.178 C 
ENDBRANCH   6   8
ENDBRANCH   5   6
ENDBRANCH   4   5
ENDBRANCH   3   4
ENDBRANCH   2   3
ENDBRANCH   1   2
BRANCH   1  20
ATOM     20  C   UNL A   1      41.303  34.061  31.751  1.00  0.00     0.261 C 
BRANCH  20  21
ATOM     21  O   UNL A   1      41.599  33.645  30.414  1.00  0.00    -0.460 OA
BRANCH  21  22
ATOM     22  C   UNL A   1      42.890  33.860  30.065  1.00  0.00     0.338 C 
ATOM     23  O   UNL A   1      43.844  33.122  30.268  1.00  0.00    -0.246 OA
BRANCH  22  24
ATOM     24  C   UNL A   1      43.031  35.135  29.351  1.00  0.00     0.060 A 
ATOM     25  C   UNL A   1      43.848  36.126  29.906  1.00  0.00     0.016 A 
ATOM     26  C   UNL A   1      42.231  35.407  28.244  1.00  0.00     0.016 A 
ATOM     27  C   UNL A   1      43.852  37.411  29.361  1.00  0.00     0.010 A 
ATOM     28  C   UNL A   1      42.222  36.699  27.718  1.00  0.00     0.010 A 
ATOM     29  C   UNL A   1      43.028  37.715  28.272  1.00  0.00    -0.014 A 
BRANCH  29  30
ATOM     30  C   UNL A   1      43.049  39.091  27.710  1.00  0.00     0.031 A 
ATOM     31  C   UNL A   1      42.669  40.157  28.673  1.00  0.00     0.074 A 
ATOM     32  C   UNL A   1      43.932  39.473  26.755  1.00  0.00     0.049 A 
ATOM     33  N   UNL A   1      43.550  40.581  29.524  1.00  0.00    -0.248 NA
ATOM     34  C   UNL A   1      41.313  40.613  28.957  1.00  0.00     0.031 C 
ATOM     35  C   UNL A   1      45.160  38.732  26.438  1.00  0.00     0.029 A 
ATOM     36  N   UNL A   1      44.070  40.663  26.065  1.00  0.00    -0.354 N 
ATOM     37  C   UNL A   1      42.883  41.258  30.520  1.00  0.00     0.074 A 
ATOM     38  C   UNL A   1      41.500  41.304  30.098  1.00  0.00     0.031 C 
ATOM     39  C   UNL A   1      45.994  39.545  25.758  1.00  0.00     0.029 A 
ATOM     40  C   UNL A   1      45.310  40.796  25.449  1.00  0.00     0.049 A 
ATOM     41  H   UNL A   1      43.363  41.347  26.015  1.00  0.00     0.167 HD
ATOM     42  C   UNL A   1      43.542  41.703  31.624  1.00  0.00     0.031 A 
ATOM     43  C   UNL A   1      45.951  41.954  25.146  1.00  0.00     0.031 A 
ATOM     44  C   UNL A   1      44.969  41.458  31.708  1.00  0.00     0.049 A 
ATOM     45  C   UNL A   1      46.442  42.448  26.475  1.00  0.00     0.074 A 
ATOM     46  C   UNL A   1      45.928  41.228  32.677  1.00  0.00     0.029 A 
ATOM     47  N   UNL A   1      45.658  41.425  30.528  1.00  0.00    -0.354 N 
ATOM     48  N   UNL A   1      47.513  42.046  27.104  1.00  0.00    -0.248 NA
ATOM     49  C   UNL A   1      45.553  43.313  27.272  1.00  0.00     0.031 C 
ATOM     50  C   UNL A   1      47.211  41.235  32.028  1.00  0.00     0.029 A 
ATOM     51  C   UNL A   1      47.008  41.519  30.689  1.00  0.00     0.049 A 
ATOM     52  H   UNL A   1      45.222  41.343  29.649  1.00  0.00     0.167 HD
ATOM     53  C   UNL A   1      47.281  42.364  28.433  1.00  0.00     0.074 A 
ATOM     54  C   UNL A   1      46.156  43.278  28.455  1.00  0.00     0.031 C 
ATOM     55  C   UNL A   1      47.788  41.658  29.484  1.00  0.00     0.031 A 
BRANCH  42  56
ATOM     56  C   UNL A   1      42.913  42.613  32.605  1.00  0.00    -0.014 A 
ATOM     57  C   UNL A   1      42.899  43.982  32.280  1.00  0.00     0.009 A 
ATOM     58  C   UNL A   1      42.477  42.209  33.869  1.00  0.00     0.009 A 
ATOM     59  C   UNL A   1      42.477  44.934  33.205  1.00  0.00     0.001 A 
ATOM     60  C   UNL A   1      42.050  43.170  34.797  1.00  0.00     0.001 A 
ATOM     61  C   UNL A   1      42.056  44.527  34.467  1.00  0.00     0.000 A 
ENDBRANCH  42  56
BRANCH  43  62
ATOM     62  C   UNL A   1      45.355  42.862  24.120  1.00  0.00    -0.014 A 
ATOM     63  C   UNL A   1      45.999  44.087  23.851  1.00  0.00     0.009 A 
ATOM     64  C   UNL A   1      44.135  42.629  23.465  1.00  0.00     0.009 A 
ATOM     65  C   UNL A   1      45.492  44.992  22.909  1.00  0.00     0.001 A 
ATOM     66  C   UNL A   1      43.645  43.515  22.498  1.00  0.00     0.001 A 
ATOM     67  C   UNL A   1      44.327  44.693  22.214  1.00  0.00     0.000 A 
ENDBRANCH  43  62
BRANCH  55  68
ATOM     68  C   UNL A   1      49.034  40.886  29.262  1.00  0.00    -0.014 A 
ATOM     69  C   UNL A   1      50.270  41.548  29.299  1.00  0.00     0.009 A 
ATOM     70  C   UNL A   1      49.010  39.499  29.074  1.00  0.00     0.009 A 
ATOM     71  C   UNL A   1      51.460  40.839  29.155  1.00  0.00     0.001 A 
ATOM     72  C   UNL A   1      50.204  38.788  28.929  1.00  0.00     0.001 A 
ATOM     73  C   UNL A   1      51.427  39.458  28.975  1.00  0.00     0.000 A 
ENDBRANCH  55  68
ENDBRANCH  29  30
ENDBRANCH  22  24
ENDBRANCH  21  22
ENDBRANCH  20  21
ENDBRANCH   1  20
TORSDOF 14
ENDMDL
