MODEL 1
REMARK VINA RESULT:     -12.2      0.000      0.000
REMARK SMILES Cc1cccc(-c2cc(C(=O)OCCOCCOC(=O)c3ccc(-c4c5nc(c(-c6ccccc6)c6ccc([nH]6)c(-c6ccccc6)c6nc(c(-c7ccccc7)c7ccc4[nH]7)C=C6)C=C5)cc3)ccn2)c1
REMARK SMILES IDX 16 1 15 2 14 3 13 4 12 5 10 6 11 7 9 8 7 9 8 10 71 11 70 12
REMARK SMILES IDX 69 13 6 14 1 15 2 16 3 17 72 18 4 19 5 20 17 21 18 22 19 23
REMARK SMILES IDX 20 24 21 25 22 26 68 27 23 28 67 29 24 30 25 31 26 32 61 33
REMARK SMILES IDX 27 34 66 35 60 36 62 37 28 38 65 39 59 40 58 41 29 43 51 44
REMARK SMILES IDX 36 45 50 46 37 47 40 48 49 49 63 50 38 51 39 52 48 54 64 55
REMARK SMILES IDX 41 56 30 57 31 58 35 59 32 60 34 61 33 62 52 63 53 64 57 65
REMARK SMILES IDX 54 66 56 67 55 68 42 69 43 70 47 71 44 72 46 73 45 74
REMARK H PARENT 62 42 40 53
REMARK Flexibility Score: inf
ROOT
ATOM      1  C   UNL A   1      31.188  26.976  22.788  1.00  0.00     0.202 C 
ENDROOT
BRANCH   1   2
ATOM      2  O   UNL A   1      32.488  26.490  22.540  1.00  0.00    -0.374 OA
BRANCH   2   3
ATOM      3  C   UNL A   1      32.704  25.929  21.262  1.00  0.00     0.202 C 
BRANCH   3   4
ATOM      4  C   UNL A   1      32.876  24.462  21.493  1.00  0.00     0.261 C 
BRANCH   4   5
ATOM      5  O   UNL A   1      33.355  24.189  22.828  1.00  0.00    -0.460 OA
BRANCH   5   6
ATOM      6  C   UNL A   1      34.252  23.224  23.186  1.00  0.00     0.338 C 
ATOM      7  O   UNL A   1      35.428  23.124  22.934  1.00  0.00    -0.246 OA
BRANCH   6   8
ATOM      8  C   UNL A   1      33.505  22.333  24.104  1.00  0.00     0.063 A 
ATOM      9  C   UNL A   1      33.072  20.081  24.804  1.00  0.00     0.071 A 
ATOM     10  C   UNL A   1      33.898  21.006  24.197  1.00  0.00     0.044 A 
ATOM     11  N   UNL A   1      31.897  20.437  25.363  1.00  0.00    -0.256 NA
ATOM     12  C   UNL A   1      31.578  21.759  25.347  1.00  0.00     0.112 A 
ATOM     13  C   UNL A   1      32.341  22.744  24.734  1.00  0.00     0.036 A 
BRANCH   9  14
ATOM     14  C   UNL A   1      33.481  18.676  24.741  1.00  0.00     0.000 A 
ATOM     15  C   UNL A   1      32.035  15.353  25.950  1.00  0.00     0.044 C 
ATOM     16  C   UNL A   1      32.999  16.362  25.402  1.00  0.00    -0.050 A 
ATOM     17  C   UNL A   1      34.308  16.009  25.068  1.00  0.00     0.003 A 
ATOM     18  C   UNL A   1      32.594  17.684  25.210  1.00  0.00     0.013 A 
ATOM     19  C   UNL A   1      35.197  16.971  24.577  1.00  0.00     0.001 A 
ATOM     20  C   UNL A   1      34.789  18.299  24.418  1.00  0.00     0.010 A 
ENDBRANCH   9  14
ENDBRANCH   6   8
ENDBRANCH   5   6
ENDBRANCH   4   5
ENDBRANCH   3   4
ENDBRANCH   2   3
ENDBRANCH   1   2
BRANCH   1  21
ATOM     21  C   UNL A   1      31.184  27.990  23.936  1.00  0.00     0.261 C 
BRANCH  21  22
ATOM     22  O   UNL A   1      30.921  27.322  25.192  1.00  0.00    -0.460 OA
BRANCH  22  23
ATOM     23  C   UNL A   1      32.015  26.920  25.903  1.00  0.00     0.338 C 
ATOM     24  O   UNL A   1      32.125  25.852  26.480  1.00  0.00    -0.246 OA
BRANCH  23  25
ATOM     25  C   UNL A   1      32.938  28.077  26.117  1.00  0.00     0.060 A 
ATOM     26  C   UNL A   1      34.296  27.983  25.741  1.00  0.00     0.016 A 
ATOM     27  C   UNL A   1      32.536  29.062  27.010  1.00  0.00     0.016 A 
ATOM     28  C   UNL A   1      35.267  28.755  26.401  1.00  0.00     0.010 A 
ATOM     29  C   UNL A   1      33.504  29.693  27.757  1.00  0.00     0.010 A 
ATOM     30  C   UNL A   1      34.874  29.540  27.479  1.00  0.00    -0.014 A 
BRANCH  30  31
ATOM     31  C   UNL A   1      35.736  30.242  28.439  1.00  0.00     0.031 A 
ATOM     32  C   UNL A   1      35.393  31.654  28.731  1.00  0.00     0.074 A 
ATOM     33  C   UNL A   1      36.546  29.558  29.287  1.00  0.00     0.049 A 
ATOM     34  N   UNL A   1      36.046  32.398  29.546  1.00  0.00    -0.248 NA
ATOM     35  C   UNL A   1      34.274  32.366  28.110  1.00  0.00     0.031 C 
ATOM     36  C   UNL A   1      36.946  29.915  30.651  1.00  0.00     0.029 A 
ATOM     37  N   UNL A   1      37.207  28.348  29.090  1.00  0.00    -0.354 N 
ATOM     38  C   UNL A   1      35.261  33.485  29.842  1.00  0.00     0.074 A 
ATOM     39  C   UNL A   1      34.221  33.478  28.846  1.00  0.00     0.031 C 
ATOM     40  C   UNL A   1      37.960  29.126  31.052  1.00  0.00     0.029 A 
ATOM     41  C   UNL A   1      38.340  28.307  29.914  1.00  0.00     0.049 A 
ATOM     42  H   UNL A   1      36.925  27.636  28.472  1.00  0.00     0.167 HD
ATOM     43  C   UNL A   1      35.529  34.169  30.987  1.00  0.00     0.031 A 
ATOM     44  C   UNL A   1      39.578  28.165  29.369  1.00  0.00     0.031 A 
ATOM     45  C   UNL A   1      36.768  33.674  31.605  1.00  0.00     0.049 A 
ATOM     46  C   UNL A   1      40.320  29.451  29.600  1.00  0.00     0.074 A 
ATOM     47  C   UNL A   1      37.036  32.892  32.716  1.00  0.00     0.029 A 
ATOM     48  N   UNL A   1      37.938  33.678  30.841  1.00  0.00    -0.354 N 
ATOM     49  N   UNL A   1      39.703  30.588  29.788  1.00  0.00    -0.248 NA
ATOM     50  C   UNL A   1      41.762  29.554  29.790  1.00  0.00     0.031 C 
ATOM     51  C   UNL A   1      38.350  32.354  32.560  1.00  0.00     0.029 A 
ATOM     52  C   UNL A   1      38.890  32.832  31.375  1.00  0.00     0.049 A 
ATOM     53  H   UNL A   1      38.066  34.215  30.026  1.00  0.00     0.167 HD
ATOM     54  C   UNL A   1      40.587  31.503  30.263  1.00  0.00     0.074 A 
ATOM     55  C   UNL A   1      41.878  30.839  30.177  1.00  0.00     0.031 C 
ATOM     56  C   UNL A   1      40.208  32.716  30.754  1.00  0.00     0.031 A 
BRANCH  43  57
ATOM     57  C   UNL A   1      34.578  35.134  31.660  1.00  0.00    -0.014 A 
ATOM     58  C   UNL A   1      34.949  35.723  32.884  1.00  0.00     0.009 A 
ATOM     59  C   UNL A   1      33.296  35.473  31.190  1.00  0.00     0.009 A 
ATOM     60  C   UNL A   1      34.088  36.571  33.598  1.00  0.00     0.001 A 
ATOM     61  C   UNL A   1      32.427  36.318  31.898  1.00  0.00     0.001 A 
ATOM     62  C   UNL A   1      32.823  36.866  33.106  1.00  0.00     0.000 A 
ENDBRANCH  43  57
BRANCH  44  63
ATOM     63  C   UNL A   1      39.554  27.269  28.169  1.00  0.00    -0.014 A 
ATOM     64  C   UNL A   1      40.271  27.713  27.031  1.00  0.00     0.009 A 
ATOM     65  C   UNL A   1      39.337  25.888  28.307  1.00  0.00     0.009 A 
ATOM     66  C   UNL A   1      40.871  26.803  26.150  1.00  0.00     0.001 A 
ATOM     67  C   UNL A   1      39.954  24.981  27.427  1.00  0.00     0.001 A 
ATOM     68  C   UNL A   1      40.748  25.436  26.374  1.00  0.00     0.000 A 
ENDBRANCH  44  63
BRANCH  56  69
ATOM     69  C   UNL A   1      41.107  33.917  30.724  1.00  0.00    -0.014 A 
ATOM     70  C   UNL A   1      41.968  34.254  31.777  1.00  0.00     0.009 A 
ATOM     71  C   UNL A   1      41.256  34.636  29.520  1.00  0.00     0.009 A 
ATOM     72  C   UNL A   1      42.889  35.295  31.657  1.00  0.00     0.001 A 
ATOM     73  C   UNL A   1      42.221  35.630  29.372  1.00  0.00     0.001 A 
ATOM     74  C   UNL A   1      43.024  35.973  30.449  1.00  0.00     0.000 A 
ENDBRANCH  56  69
ENDBRANCH  30  31
ENDBRANCH  23  25
ENDBRANCH  22  23
ENDBRANCH  21  22
ENDBRANCH   1  21
TORSDOF 15
ENDMDL
MODEL 2
REMARK VINA RESULT:     -11.8      5.147      9.125
REMARK SMILES Cc1cccc(-c2cc(C(=O)OCCOCCOC(=O)c3ccc(-c4c5nc(c(-c6ccccc6)c6ccc([nH]6)c(-c6ccccc6)c6nc(c(-c7ccccc7)c7ccc4[nH]7)C=C6)C=C5)cc3)ccn2)c1
REMARK SMILES IDX 16 1 15 2 14 3 13 4 12 5 10 6 11 7 9 8 7 9 8 10 71 11 70 12
REMARK SMILES IDX 69 13 6 14 1 15 2 16 3 17 72 18 4 19 5 20 17 21 18 22 19 23
REMARK SMILES IDX 20 24 21 25 22 26 68 27 23 28 67 29 24 30 25 31 26 32 61 33
REMARK SMILES IDX 27 34 66 35 60 36 62 37 28 38 65 39 59 40 58 41 29 43 51 44
REMARK SMILES IDX 36 45 50 46 37 47 40 48 49 49 63 50 38 51 39 52 48 54 64 55
REMARK SMILES IDX 41 56 30 57 31 58 35 59 32 60 34 61 33 62 52 63 53 64 57 65
REMARK SMILES IDX 54 66 56 67 55 68 42 69 43 70 47 71 44 72 46 73 45 74
REMARK H PARENT 62 42 40 53
REMARK Flexibility Score: inf
ROOT
ATOM      1  C   UNL A   1      42.678  19.152  26.326  1.00  0.00     0.202 C 
ENDROOT
BRANCH   1   2
ATOM      2  O   UNL A   1      41.416  19.316  25.720  1.00  0.00    -0.374 OA
BRANCH   2   3
ATOM      3  C   UNL A   1      40.399  19.845  26.546  1.00  0.00     0.202 C 
BRANCH   3   4
ATOM      4  C   UNL A   1      40.236  21.269  26.118  1.00  0.00     0.261 C 
BRANCH   4   5
ATOM      5  O   UNL A   1      38.866  21.563  25.770  1.00  0.00    -0.460 OA
BRANCH   5   6
ATOM      6  C   UNL A   1      38.216  22.746  25.972  1.00  0.00     0.338 C 
ATOM      7  O   UNL A   1      38.637  23.811  26.354  1.00  0.00    -0.246 OA
BRANCH   6   8
ATOM      8  C   UNL A   1      36.837  22.510  25.484  1.00  0.00     0.063 A 
ATOM      9  C   UNL A   1      34.584  23.319  25.364  1.00  0.00     0.071 A 
ATOM     10  C   UNL A   1      35.932  23.560  25.531  1.00  0.00     0.044 A 
ATOM     11  N   UNL A   1      34.109  22.083  25.103  1.00  0.00    -0.256 NA
ATOM     12  C   UNL A   1      35.023  21.086  24.962  1.00  0.00     0.112 A 
ATOM     13  C   UNL A   1      36.391  21.243  25.141  1.00  0.00     0.036 A 
BRANCH   9  14
ATOM     14  C   UNL A   1      33.672  24.447  25.569  1.00  0.00     0.000 A 
ATOM     15  C   UNL A   1      34.060  28.187  26.243  1.00  0.00     0.044 C 
ATOM     16  C   UNL A   1      33.436  26.832  26.101  1.00  0.00    -0.050 A 
ATOM     17  C   UNL A   1      32.085  26.621  26.382  1.00  0.00     0.003 A 
ATOM     18  C   UNL A   1      34.206  25.749  25.673  1.00  0.00     0.013 A 
ATOM     19  C   UNL A   1      31.528  25.344  26.262  1.00  0.00     0.001 A 
ATOM     20  C   UNL A   1      32.316  24.261  25.862  1.00  0.00     0.010 A 
ENDBRANCH   9  14
ENDBRANCH   6   8
ENDBRANCH   5   6
ENDBRANCH   4   5
ENDBRANCH   3   4
ENDBRANCH   2   3
ENDBRANCH   1   2
BRANCH   1  21
ATOM     21  C   UNL A   1      43.720  18.665  25.315  1.00  0.00     0.261 C 
BRANCH  21  22
ATOM     22  O   UNL A   1      44.121  19.751  24.448  1.00  0.00    -0.460 OA
BRANCH  22  23
ATOM     23  C   UNL A   1      45.022  20.636  24.967  1.00  0.00     0.338 C 
ATOM     24  O   UNL A   1      46.068  20.333  25.517  1.00  0.00    -0.246 OA
BRANCH  23  25
ATOM     25  C   UNL A   1      44.421  22.004  25.026  1.00  0.00     0.060 A 
ATOM     26  C   UNL A   1      44.907  23.031  24.188  1.00  0.00     0.016 A 
ATOM     27  C   UNL A   1      43.668  22.327  26.147  1.00  0.00     0.016 A 
ATOM     28  C   UNL A   1      44.793  24.376  24.580  1.00  0.00     0.010 A 
ATOM     29  C   UNL A   1      43.703  23.625  26.598  1.00  0.00     0.010 A 
ATOM     30  C   UNL A   1      44.273  24.662  25.838  1.00  0.00    -0.014 A 
BRANCH  30  31
ATOM     31  C   UNL A   1      44.268  25.955  26.533  1.00  0.00     0.031 A 
ATOM     32  C   UNL A   1      43.005  26.729  26.487  1.00  0.00     0.074 A 
ATOM     33  C   UNL A   1      45.204  26.254  27.469  1.00  0.00     0.049 A 
ATOM     34  N   UNL A   1      42.841  27.872  27.046  1.00  0.00    -0.248 NA
ATOM     35  C   UNL A   1      41.800  26.281  25.783  1.00  0.00     0.031 C 
ATOM     36  C   UNL A   1      45.060  27.079  28.671  1.00  0.00     0.029 A 
ATOM     37  N   UNL A   1      46.539  25.861  27.536  1.00  0.00    -0.354 N 
ATOM     38  C   UNL A   1      41.492  28.116  27.112  1.00  0.00     0.074 A 
ATOM     39  C   UNL A   1      40.893  27.156  26.221  1.00  0.00     0.031 C 
ATOM     40  C   UNL A   1      46.273  27.352  29.188  1.00  0.00     0.029 A 
ATOM     41  C   UNL A   1      47.260  26.816  28.268  1.00  0.00     0.049 A 
ATOM     42  H   UNL A   1      46.917  25.046  27.135  1.00  0.00     0.167 HD
ATOM     43  C   UNL A   1      41.054  29.020  28.031  1.00  0.00     0.031 A 
ATOM     44  C   UNL A   1      48.304  27.472  27.694  1.00  0.00     0.031 A 
ATOM     45  C   UNL A   1      42.194  29.697  28.669  1.00  0.00     0.049 A 
ATOM     46  C   UNL A   1      47.903  28.912  27.548  1.00  0.00     0.074 A 
ATOM     47  C   UNL A   1      42.782  29.606  29.919  1.00  0.00     0.029 A 
ATOM     48  N   UNL A   1      43.116  30.355  27.852  1.00  0.00    -0.354 N 
ATOM     49  N   UNL A   1      46.651  29.284  27.487  1.00  0.00    -0.248 NA
ATOM     50  C   UNL A   1      48.824  30.041  27.610  1.00  0.00     0.031 C 
ATOM     51  C   UNL A   1      44.104  30.136  29.816  1.00  0.00     0.029 A 
ATOM     52  C   UNL A   1      44.307  30.575  28.515  1.00  0.00     0.049 A 
ATOM     53  H   UNL A   1      42.940  30.626  26.922  1.00  0.00     0.167 HD
ATOM     54  C   UNL A   1      46.576  30.630  27.659  1.00  0.00     0.074 A 
ATOM     55  C   UNL A   1      47.961  31.074  27.656  1.00  0.00     0.031 C 
ATOM     56  C   UNL A   1      45.400  31.289  27.857  1.00  0.00     0.031 A 
BRANCH  43  57
ATOM     57  C   UNL A   1      39.624  29.149  28.504  1.00  0.00    -0.014 A 
ATOM     58  C   UNL A   1      39.275  28.665  29.779  1.00  0.00     0.009 A 
ATOM     59  C   UNL A   1      38.562  29.677  27.747  1.00  0.00     0.009 A 
ATOM     60  C   UNL A   1      37.954  28.687  30.253  1.00  0.00     0.001 A 
ATOM     61  C   UNL A   1      37.238  29.702  28.212  1.00  0.00     0.001 A 
ATOM     62  C   UNL A   1      36.933  29.204  29.466  1.00  0.00     0.000 A 
ENDBRANCH  43  57
BRANCH  44  63
ATOM     63  C   UNL A   1      49.068  26.585  26.759  1.00  0.00    -0.014 A 
ATOM     64  C   UNL A   1      49.222  27.048  25.430  1.00  0.00     0.009 A 
ATOM     65  C   UNL A   1      50.018  25.674  27.248  1.00  0.00     0.009 A 
ATOM     66  C   UNL A   1      50.359  26.726  24.675  1.00  0.00     0.001 A 
ATOM     67  C   UNL A   1      51.163  25.367  26.491  1.00  0.00     0.001 A 
ATOM     68  C   UNL A   1      51.350  25.920  25.224  1.00  0.00     0.000 A 
ENDBRANCH  44  63
BRANCH  56  69
ATOM     69  C   UNL A   1      45.202  32.724  27.469  1.00  0.00    -0.014 A 
ATOM     70  C   UNL A   1      45.559  33.796  28.299  1.00  0.00     0.009 A 
ATOM     71  C   UNL A   1      44.832  33.036  26.145  1.00  0.00     0.009 A 
ATOM     72  C   UNL A   1      45.491  35.116  27.849  1.00  0.00     0.001 A 
ATOM     73  C   UNL A   1      44.828  34.345  25.670  1.00  0.00     0.001 A 
ATOM     74  C   UNL A   1      45.139  35.388  26.531  1.00  0.00     0.000 A 
ENDBRANCH  56  69
ENDBRANCH  30  31
ENDBRANCH  23  25
ENDBRANCH  22  23
ENDBRANCH  21  22
ENDBRANCH   1  21
TORSDOF 15
ENDMDL
MODEL 3
REMARK VINA RESULT:     -11.5      3.616      8.529
REMARK SMILES Cc1cccc(-c2cc(C(=O)OCCOCCOC(=O)c3ccc(-c4c5nc(c(-c6ccccc6)c6ccc([nH]6)c(-c6ccccc6)c6nc(c(-c7ccccc7)c7ccc4[nH]7)C=C6)C=C5)cc3)ccn2)c1
REMARK SMILES IDX 16 1 15 2 14 3 13 4 12 5 10 6 11 7 9 8 7 9 8 10 71 11 70 12
REMARK SMILES IDX 69 13 6 14 1 15 2 16 3 17 72 18 4 19 5 20 17 21 18 22 19 23
REMARK SMILES IDX 20 24 21 25 22 26 68 27 23 28 67 29 24 30 25 31 26 32 61 33
REMARK SMILES IDX 27 34 66 35 60 36 62 37 28 38 65 39 59 40 58 41 29 43 51 44
REMARK SMILES IDX 36 45 50 46 37 47 40 48 49 49 63 50 38 51 39 52 48 54 64 55
REMARK SMILES IDX 41 56 30 57 31 58 35 59 32 60 34 61 33 62 52 63 53 64 57 65
REMARK SMILES IDX 54 66 56 67 55 68 42 69 43 70 47 71 44 72 46 73 45 74
REMARK H PARENT 62 42 40 53
REMARK Flexibility Score: inf
ROOT
ATOM      1  C   UNL A   1      32.020  30.971  26.512  1.00  0.00     0.202 C 
ENDROOT
BRANCH   1   2
ATOM      2  O   UNL A   1      31.484  30.255  25.423  1.00  0.00    -0.374 OA
BRANCH   2   3
ATOM      3  C   UNL A   1      32.265  29.177  24.949  1.00  0.00     0.202 C 
BRANCH   3   4
ATOM      4  C   UNL A   1      31.284  28.151  24.476  1.00  0.00     0.261 C 
BRANCH   4   5
ATOM      5  O   UNL A   1      31.609  26.837  24.979  1.00  0.00    -0.460 OA
BRANCH   5   6
ATOM      6  C   UNL A   1      31.604  26.446  26.286  1.00  0.00     0.338 C 
ATOM      7  O   UNL A   1      31.297  27.058  27.280  1.00  0.00    -0.246 OA
BRANCH   6   8
ATOM      8  C   UNL A   1      31.941  25.003  26.253  1.00  0.00     0.063 A 
ATOM      9  C   UNL A   1      33.602  23.341  25.780  1.00  0.00     0.071 A 
ATOM     10  C   UNL A   1      33.271  24.642  26.103  1.00  0.00     0.044 A 
ATOM     11  N   UNL A   1      32.663  22.380  25.650  1.00  0.00    -0.256 NA
ATOM     12  C   UNL A   1      31.374  22.736  25.899  1.00  0.00     0.112 A 
ATOM     13  C   UNL A   1      30.959  24.026  26.202  1.00  0.00     0.036 A 
BRANCH   9  14
ATOM     14  C   UNL A   1      35.011  23.060  25.495  1.00  0.00     0.000 A 
ATOM     15  C   UNL A   1      37.106  19.920  24.912  1.00  0.00     0.044 C 
ATOM     16  C   UNL A   1      36.742  21.351  25.167  1.00  0.00    -0.050 A 
ATOM     17  C   UNL A   1      37.721  22.328  25.356  1.00  0.00     0.003 A 
ATOM     18  C   UNL A   1      35.400  21.733  25.212  1.00  0.00     0.013 A 
ATOM     19  C   UNL A   1      37.359  23.654  25.613  1.00  0.00     0.001 A 
ATOM     20  C   UNL A   1      36.011  24.019  25.686  1.00  0.00     0.010 A 
ENDBRANCH   9  14
ENDBRANCH   6   8
ENDBRANCH   5   6
ENDBRANCH   4   5
ENDBRANCH   3   4
ENDBRANCH   2   3
ENDBRANCH   1   2
BRANCH   1  21
ATOM     21  C   UNL A   1      33.408  30.448  26.892  1.00  0.00     0.261 C 
BRANCH  21  22
ATOM     22  O   UNL A   1      33.922  31.177  28.031  1.00  0.00    -0.460 OA
BRANCH  22  23
ATOM     23  C   UNL A   1      35.239  31.534  27.975  1.00  0.00     0.338 C 
ATOM     24  O   UNL A   1      35.662  32.593  27.541  1.00  0.00    -0.246 OA
BRANCH  23  25
ATOM     25  C   UNL A   1      36.103  30.346  28.251  1.00  0.00     0.060 A 
ATOM     26  C   UNL A   1      36.103  29.748  29.530  1.00  0.00     0.016 A 
ATOM     27  C   UNL A   1      37.149  30.095  27.372  1.00  0.00     0.016 A 
ATOM     28  C   UNL A   1      37.237  29.053  29.985  1.00  0.00     0.010 A 
ATOM     29  C   UNL A   1      38.307  29.556  27.881  1.00  0.00     0.010 A 
ATOM     30  C   UNL A   1      38.377  29.044  29.189  1.00  0.00    -0.014 A 
BRANCH  30  31
ATOM     31  C   UNL A   1      39.722  28.582  29.554  1.00  0.00     0.031 A 
ATOM     32  C   UNL A   1      40.147  27.274  29.004  1.00  0.00     0.074 A 
ATOM     33  C   UNL A   1      40.655  29.443  30.035  1.00  0.00     0.049 A 
ATOM     34  N   UNL A   1      41.290  26.736  29.228  1.00  0.00    -0.248 NA
ATOM     35  C   UNL A   1      39.301  26.435  28.149  1.00  0.00     0.031 C 
ATOM     36  C   UNL A   1      42.108  29.408  29.851  1.00  0.00     0.029 A 
ATOM     37  N   UNL A   1      40.483  30.578  30.824  1.00  0.00    -0.354 N 
ATOM     38  C   UNL A   1      41.475  25.743  28.298  1.00  0.00     0.074 A 
ATOM     39  C   UNL A   1      40.175  25.521  27.722  1.00  0.00     0.031 C 
ATOM     40  C   UNL A   1      42.699  30.270  30.699  1.00  0.00     0.029 A 
ATOM     41  C   UNL A   1      41.657  30.808  31.555  1.00  0.00     0.049 A 
ATOM     42  H   UNL A   1      39.668  31.130  30.863  1.00  0.00     0.167 HD
ATOM     43  C   UNL A   1      42.750  25.339  28.047  1.00  0.00     0.031 A 
ATOM     44  C   UNL A   1      41.624  30.826  32.914  1.00  0.00     0.031 A 
ATOM     45  C   UNL A   1      43.685  25.965  28.995  1.00  0.00     0.049 A 
ATOM     46  C   UNL A   1      42.392  29.628  33.397  1.00  0.00     0.074 A 
ATOM     47  C   UNL A   1      44.620  26.980  28.885  1.00  0.00     0.029 A 
ATOM     48  N   UNL A   1      43.460  25.790  30.362  1.00  0.00    -0.354 N 
ATOM     49  N   UNL A   1      42.558  28.563  32.658  1.00  0.00    -0.248 NA
ATOM     50  C   UNL A   1      43.149  29.574  34.641  1.00  0.00     0.031 C 
ATOM     51  C   UNL A   1      44.883  27.471  30.200  1.00  0.00     0.029 A 
ATOM     52  C   UNL A   1      44.133  26.737  31.108  1.00  0.00     0.049 A 
ATOM     53  H   UNL A   1      42.894  25.081  30.745  1.00  0.00     0.167 HD
ATOM     54  C   UNL A   1      43.522  27.781  33.210  1.00  0.00     0.074 A 
ATOM     55  C   UNL A   1      43.812  28.412  34.488  1.00  0.00     0.031 C 
ATOM     56  C   UNL A   1      44.069  26.711  32.568  1.00  0.00     0.031 A 
BRANCH  43  57
ATOM     57  C   UNL A   1      43.184  24.550  26.831  1.00  0.00    -0.014 A 
ATOM     58  C   UNL A   1      42.805  23.200  26.717  1.00  0.00     0.009 A 
ATOM     59  C   UNL A   1      43.998  25.039  25.793  1.00  0.00     0.009 A 
ATOM     60  C   UNL A   1      43.230  22.389  25.652  1.00  0.00     0.001 A 
ATOM     61  C   UNL A   1      44.431  24.237  24.726  1.00  0.00     0.001 A 
ATOM     62  C   UNL A   1      44.048  22.908  24.657  1.00  0.00     0.000 A 
ENDBRANCH  43  57
BRANCH  44  63
ATOM     63  C   UNL A   1      40.351  31.424  33.429  1.00  0.00    -0.014 A 
ATOM     64  C   UNL A   1      39.461  30.547  34.095  1.00  0.00     0.009 A 
ATOM     65  C   UNL A   1      40.272  32.792  33.739  1.00  0.00     0.009 A 
ATOM     66  C   UNL A   1      38.633  31.000  35.131  1.00  0.00     0.001 A 
ATOM     67  C   UNL A   1      39.450  33.237  34.788  1.00  0.00     0.001 A 
ATOM     68  C   UNL A   1      38.660  32.339  35.506  1.00  0.00     0.000 A 
ENDBRANCH  44  63
BRANCH  56  69
ATOM     69  C   UNL A   1      44.648  25.537  33.301  1.00  0.00    -0.014 A 
ATOM     70  C   UNL A   1      43.861  24.509  33.839  1.00  0.00     0.009 A 
ATOM     71  C   UNL A   1      46.043  25.335  33.286  1.00  0.00     0.009 A 
ATOM     72  C   UNL A   1      44.440  23.365  34.390  1.00  0.00     0.001 A 
ATOM     73  C   UNL A   1      46.622  24.165  33.772  1.00  0.00     0.001 A 
ATOM     74  C   UNL A   1      45.819  23.188  34.343  1.00  0.00     0.000 A 
ENDBRANCH  56  69
ENDBRANCH  30  31
ENDBRANCH  23  25
ENDBRANCH  22  23
ENDBRANCH  21  22
ENDBRANCH   1  21
TORSDOF 15
ENDMDL
