MODEL 1
REMARK VINA RESULT:      -8.6      0.000      0.000
REMARK SMILES O=C(OCCOCCOC(=O)C1([C@H]2CS(=O)(=O)C[C@H]2O)CCCC1)c1ccc(-c2c3nc(c(-c4ccccc4)c4ccc([nH]4)c(-c4ccccc4)c4nc(c(-c5ccccc5)c5ccc2[nH]5)C=C4)C=C3)cc1
REMARK SMILES IDX 6 1 5 2 4 3 3 4 2 5 1 6 25 7 26 8 72 9 27 10 71 11 28 12
REMARK SMILES IDX 29 13 30 14 65 15 31 16 70 17 64 18 66 19 32 20 69 21 63 22
REMARK SMILES IDX 62 23 33 25 55 26 40 27 54 28 41 29 44 30 53 31 67 32 42 33
REMARK SMILES IDX 43 34 52 36 68 37 45 38 34 39 35 40 39 41 36 42 38 43 37 44
REMARK SMILES IDX 56 45 57 46 61 47 58 48 60 49 59 50 46 51 47 52 51 53 48 54
REMARK SMILES IDX 50 55 49 56 7 57 8 58 9 59 10 60 11 61 12 62 21 63 24 64
REMARK SMILES IDX 22 65 23 66 13 67 14 68 19 69 15 70 18 71 16 72 17 73 20 74
REMARK H PARENT 66 24 44 35 20 75
REMARK Flexibility Score: inf
ROOT
ATOM      1  O   UNL A   1      45.227  20.910  25.553  1.00  0.00    -0.374 OA
ENDROOT
BRANCH   1   2
ATOM      2  C   UNL A   1      44.623  19.804  24.876  1.00  0.00     0.202 C 
BRANCH   2   3
ATOM      3  C   UNL A   1      43.595  18.982  25.654  1.00  0.00     0.261 C 
BRANCH   3   4
ATOM      4  O   UNL A   1      42.271  19.276  25.191  1.00  0.00    -0.460 OA
BRANCH   4   5
ATOM      5  C   UNL A   1      41.320  19.937  25.894  1.00  0.00     0.338 C 
ATOM      6  O   UNL A   1      40.233  19.401  26.093  1.00  0.00    -0.246 OA
BRANCH   5   7
ATOM      7  C   UNL A   1      41.586  21.262  26.516  1.00  0.00     0.060 A 
ATOM      8  C   UNL A   1      41.982  22.402  25.817  1.00  0.00     0.016 A 
ATOM      9  C   UNL A   1      41.375  21.369  27.897  1.00  0.00     0.016 A 
ATOM     10  C   UNL A   1      42.231  23.593  26.446  1.00  0.00     0.010 A 
ATOM     11  C   UNL A   1      41.584  22.584  28.548  1.00  0.00     0.010 A 
ATOM     12  C   UNL A   1      42.021  23.688  27.809  1.00  0.00    -0.014 A 
BRANCH  12  13
ATOM     13  C   UNL A   1      42.430  24.952  28.412  1.00  0.00     0.031 A 
ATOM     14  C   UNL A   1      41.375  25.982  28.622  1.00  0.00     0.074 A 
ATOM     15  C   UNL A   1      43.660  25.036  28.946  1.00  0.00     0.049 A 
ATOM     16  N   UNL A   1      41.494  27.196  29.074  1.00  0.00    -0.248 NA
ATOM     17  C   UNL A   1      39.991  25.585  28.298  1.00  0.00     0.031 C 
ATOM     18  C   UNL A   1      44.656  23.956  28.961  1.00  0.00     0.029 A 
ATOM     19  N   UNL A   1      44.263  26.052  29.625  1.00  0.00    -0.354 N 
ATOM     20  C   UNL A   1      40.214  27.727  29.032  1.00  0.00     0.074 A 
ATOM     21  C   UNL A   1      39.327  26.704  28.535  1.00  0.00     0.031 C 
ATOM     22  C   UNL A   1      45.740  24.368  29.634  1.00  0.00     0.029 A 
ATOM     23  C   UNL A   1      45.550  25.762  30.004  1.00  0.00     0.049 A 
ATOM     24  H   UNL A   1      43.820  26.909  29.825  1.00  0.00     0.167 HD
ATOM     25  C   UNL A   1      39.842  28.983  29.363  1.00  0.00     0.031 A 
ATOM     26  C   UNL A   1      46.480  26.575  30.532  1.00  0.00     0.031 A 
ATOM     27  C   UNL A   1      40.779  29.956  29.846  1.00  0.00     0.049 A 
ATOM     28  C   UNL A   1      46.075  28.004  30.759  1.00  0.00     0.074 A 
ATOM     29  C   UNL A   1      40.580  31.291  30.131  1.00  0.00     0.029 A 
ATOM     30  N   UNL A   1      42.115  29.674  30.118  1.00  0.00    -0.354 N 
ATOM     31  N   UNL A   1      44.895  28.560  30.602  1.00  0.00    -0.248 NA
ATOM     32  C   UNL A   1      47.124  28.922  31.209  1.00  0.00     0.031 C 
ATOM     33  C   UNL A   1      41.809  31.829  30.524  1.00  0.00     0.029 A 
ATOM     34  C   UNL A   1      42.759  30.815  30.550  1.00  0.00     0.049 A 
ATOM     35  H   UNL A   1      42.536  28.791  30.018  1.00  0.00     0.167 HD
ATOM     36  C   UNL A   1      45.052  29.891  30.951  1.00  0.00     0.074 A 
ATOM     37  C   UNL A   1      46.439  30.048  31.352  1.00  0.00     0.031 C 
ATOM     38  C   UNL A   1      44.144  30.899  30.942  1.00  0.00     0.031 A 
BRANCH  25  39
ATOM     39  C   UNL A   1      38.417  29.366  29.087  1.00  0.00    -0.014 A 
ATOM     40  C   UNL A   1      37.430  29.337  30.084  1.00  0.00     0.009 A 
ATOM     41  C   UNL A   1      38.050  29.713  27.778  1.00  0.00     0.009 A 
ATOM     42  C   UNL A   1      36.098  29.614  29.766  1.00  0.00     0.001 A 
ATOM     43  C   UNL A   1      36.723  30.015  27.468  1.00  0.00     0.001 A 
ATOM     44  C   UNL A   1      35.746  29.956  28.460  1.00  0.00     0.000 A 
ENDBRANCH  25  39
BRANCH  26  45
ATOM     45  C   UNL A   1      47.868  26.096  30.764  1.00  0.00    -0.014 A 
ATOM     46  C   UNL A   1      48.812  26.074  29.727  1.00  0.00     0.009 A 
ATOM     47  C   UNL A   1      48.255  25.632  32.034  1.00  0.00     0.009 A 
ATOM     48  C   UNL A   1      50.098  25.570  29.948  1.00  0.00     0.001 A 
ATOM     49  C   UNL A   1      49.551  25.163  32.262  1.00  0.00     0.001 A 
ATOM     50  C   UNL A   1      50.467  25.118  31.215  1.00  0.00     0.000 A 
ENDBRANCH  26  45
BRANCH  38  51
ATOM     51  C   UNL A   1      44.627  32.231  31.429  1.00  0.00    -0.014 A 
ATOM     52  C   UNL A   1      45.171  33.177  30.547  1.00  0.00     0.009 A 
ATOM     53  C   UNL A   1      44.479  32.556  32.786  1.00  0.00     0.009 A 
ATOM     54  C   UNL A   1      45.589  34.417  31.027  1.00  0.00     0.001 A 
ATOM     55  C   UNL A   1      44.866  33.809  33.255  1.00  0.00     0.001 A 
ATOM     56  C   UNL A   1      45.429  34.734  32.377  1.00  0.00     0.000 A 
ENDBRANCH  38  51
ENDBRANCH  12  13
ENDBRANCH   5   7
ENDBRANCH   4   5
ENDBRANCH   3   4
ENDBRANCH   2   3
ENDBRANCH   1   2
BRANCH   1  57
ATOM     57  C   UNL A   1      46.024  21.757  24.723  1.00  0.00     0.202 C 
BRANCH  57  58
ATOM     58  C   UNL A   1      45.357  23.110  24.496  1.00  0.00     0.261 C 
BRANCH  58  59
ATOM     59  O   UNL A   1      45.889  24.085  25.421  1.00  0.00    -0.463 OA
BRANCH  59  60
ATOM     60  C   UNL A   1      45.402  25.340  25.230  1.00  0.00     0.312 C 
ATOM     61  O   UNL A   1      44.231  25.563  24.933  1.00  0.00    -0.252 OA
BRANCH  60  62
ATOM     62  C   UNL A   1      46.456  26.476  25.416  1.00  0.00     0.074 C 
ATOM     63  C   UNL A   1      46.080  27.797  24.724  1.00  0.00     0.019 C 
ATOM     64  C   UNL A   1      46.458  26.893  26.909  1.00  0.00     0.019 C 
ATOM     65  C   UNL A   1      46.660  28.922  25.553  1.00  0.00     0.001 C 
ATOM     66  C   UNL A   1      46.497  28.426  26.975  1.00  0.00     0.001 C 
BRANCH  62  67
ATOM     67  C   UNL A   1      47.802  25.841  24.878  1.00  0.00     0.051 C 
ATOM     68  C   UNL A   1      48.594  26.786  23.930  1.00  0.00     0.144 C 
ATOM     69  C   UNL A   1      48.869  25.211  25.790  1.00  0.00     0.134 C 
ATOM     70  S   UNL A   1      50.098  27.269  24.751  1.00  0.00     0.153 S 
ATOM     71  C   UNL A   1      49.902  26.251  26.187  1.00  0.00     0.169 C 
ATOM     72  O   UNL A   1      51.224  26.773  23.985  1.00  0.00    -0.229 OA
ATOM     73  O   UNL A   1      49.988  28.653  25.155  1.00  0.00    -0.229 OA
BRANCH  69  74
ATOM     74  O   UNL A   1      48.331  24.492  26.880  1.00  0.00    -0.392 OA
ATOM     75  H   UNL A   1      47.380  24.360  26.742  1.00  0.00     0.211 HD
ENDBRANCH  69  74
ENDBRANCH  62  67
ENDBRANCH  60  62
ENDBRANCH  59  60
ENDBRANCH  58  59
ENDBRANCH  57  58
ENDBRANCH   1  57
TORSDOF 16
ENDMDL
MODEL 2
REMARK VINA RESULT:      -8.6      4.629      9.839
REMARK SMILES O=C(OCCOCCOC(=O)C1([C@H]2CS(=O)(=O)C[C@H]2O)CCCC1)c1ccc(-c2c3nc(c(-c4ccccc4)c4ccc([nH]4)c(-c4ccccc4)c4nc(c(-c5ccccc5)c5ccc2[nH]5)C=C4)C=C3)cc1
REMARK SMILES IDX 6 1 5 2 4 3 3 4 2 5 1 6 25 7 26 8 72 9 27 10 71 11 28 12
REMARK SMILES IDX 29 13 30 14 65 15 31 16 70 17 64 18 66 19 32 20 69 21 63 22
REMARK SMILES IDX 62 23 33 25 55 26 40 27 54 28 41 29 44 30 53 31 67 32 42 33
REMARK SMILES IDX 43 34 52 36 68 37 45 38 34 39 35 40 39 41 36 42 38 43 37 44
REMARK SMILES IDX 56 45 57 46 61 47 58 48 60 49 59 50 46 51 47 52 51 53 48 54
REMARK SMILES IDX 50 55 49 56 7 57 8 58 9 59 10 60 11 61 12 62 21 63 24 64
REMARK SMILES IDX 22 65 23 66 13 67 14 68 19 69 15 70 18 71 16 72 17 73 20 74
REMARK H PARENT 66 24 44 35 20 75
REMARK Flexibility Score: inf
ROOT
ATOM      1  O   UNL A   1      38.143  21.502  25.113  1.00  0.00    -0.374 OA
ENDROOT
BRANCH   1   2
ATOM      2  C   UNL A   1      38.147  20.096  24.850  1.00  0.00     0.202 C 
BRANCH   2   3
ATOM      3  C   UNL A   1      38.949  19.207  25.801  1.00  0.00     0.261 C 
BRANCH   3   4
ATOM      4  O   UNL A   1      40.314  19.127  25.375  1.00  0.00    -0.460 OA
BRANCH   4   5
ATOM      5  C   UNL A   1      41.395  19.439  26.129  1.00  0.00     0.338 C 
ATOM      6  O   UNL A   1      42.215  18.566  26.402  1.00  0.00    -0.246 OA
BRANCH   5   7
ATOM      7  C   UNL A   1      41.670  20.836  26.562  1.00  0.00     0.060 A 
ATOM      8  C   UNL A   1      41.605  21.952  25.728  1.00  0.00     0.016 A 
ATOM      9  C   UNL A   1      41.969  21.034  27.917  1.00  0.00     0.016 A 
ATOM     10  C   UNL A   1      41.887  23.215  26.178  1.00  0.00     0.010 A 
ATOM     11  C   UNL A   1      42.218  22.317  28.400  1.00  0.00     0.010 A 
ATOM     12  C   UNL A   1      42.182  23.399  27.516  1.00  0.00    -0.014 A 
BRANCH  12  13
ATOM     13  C   UNL A   1      42.590  24.752  27.879  1.00  0.00     0.031 A 
ATOM     14  C   UNL A   1      44.032  25.094  27.734  1.00  0.00     0.074 A 
ATOM     15  C   UNL A   1      41.633  25.670  28.100  1.00  0.00     0.049 A 
ATOM     16  N   UNL A   1      44.649  26.195  28.049  1.00  0.00    -0.248 NA
ATOM     17  C   UNL A   1      44.899  24.060  27.134  1.00  0.00     0.031 C 
ATOM     18  C   UNL A   1      40.187  25.423  28.027  1.00  0.00     0.029 A 
ATOM     19  N   UNL A   1      41.730  27.001  28.376  1.00  0.00    -0.354 N 
ATOM     20  C   UNL A   1      45.982  25.967  27.741  1.00  0.00     0.074 A 
ATOM     21  C   UNL A   1      46.088  24.636  27.195  1.00  0.00     0.031 C 
ATOM     22  C   UNL A   1      39.534  26.576  28.238  1.00  0.00     0.029 A 
ATOM     23  C   UNL A   1      40.511  27.606  28.556  1.00  0.00     0.049 A 
ATOM     24  H   UNL A   1      42.587  27.481  28.440  1.00  0.00     0.167 HD
ATOM     25  C   UNL A   1      47.019  26.810  27.936  1.00  0.00     0.031 A 
ATOM     26  C   UNL A   1      40.238  28.845  28.997  1.00  0.00     0.031 A 
ATOM     27  C   UNL A   1      46.843  28.122  28.492  1.00  0.00     0.049 A 
ATOM     28  C   UNL A   1      41.418  29.713  29.338  1.00  0.00     0.074 A 
ATOM     29  C   UNL A   1      47.798  29.055  28.840  1.00  0.00     0.029 A 
ATOM     30  N   UNL A   1      45.601  28.681  28.777  1.00  0.00    -0.354 N 
ATOM     31  N   UNL A   1      42.698  29.464  29.174  1.00  0.00    -0.248 NA
ATOM     32  C   UNL A   1      41.124  31.014  29.942  1.00  0.00     0.031 C 
ATOM     33  C   UNL A   1      47.134  30.158  29.386  1.00  0.00     0.029 A 
ATOM     34  C   UNL A   1      45.763  29.941  29.315  1.00  0.00     0.049 A 
ATOM     35  H   UNL A   1      44.736  28.243  28.617  1.00  0.00     0.167 HD
ATOM     36  C   UNL A   1      43.365  30.585  29.639  1.00  0.00     0.074 A 
ATOM     37  C   UNL A   1      42.342  31.523  30.067  1.00  0.00     0.031 C 
ATOM     38  C   UNL A   1      44.698  30.827  29.714  1.00  0.00     0.031 A 
BRANCH  25  39
ATOM     39  C   UNL A   1      48.393  26.275  27.662  1.00  0.00    -0.014 A 
ATOM     40  C   UNL A   1      49.131  25.581  28.634  1.00  0.00     0.009 A 
ATOM     41  C   UNL A   1      48.980  26.521  26.411  1.00  0.00     0.009 A 
ATOM     42  C   UNL A   1      50.443  25.178  28.368  1.00  0.00     0.001 A 
ATOM     43  C   UNL A   1      50.281  26.094  26.139  1.00  0.00     0.001 A 
ATOM     44  C   UNL A   1      51.015  25.431  27.121  1.00  0.00     0.000 A 
ENDBRANCH  25  39
BRANCH  26  45
ATOM     45  C   UNL A   1      38.837  29.277  29.240  1.00  0.00    -0.014 A 
ATOM     46  C   UNL A   1      38.115  29.982  28.266  1.00  0.00     0.009 A 
ATOM     47  C   UNL A   1      38.214  29.003  30.470  1.00  0.00     0.009 A 
ATOM     48  C   UNL A   1      36.817  30.429  28.531  1.00  0.00     0.001 A 
ATOM     49  C   UNL A   1      36.904  29.419  30.719  1.00  0.00     0.001 A 
ATOM     50  C   UNL A   1      36.211  30.145  29.755  1.00  0.00     0.000 A 
ENDBRANCH  26  45
BRANCH  38  51
ATOM     51  C   UNL A   1      45.100  32.175  30.230  1.00  0.00    -0.014 A 
ATOM     52  C   UNL A   1      45.165  33.291  29.383  1.00  0.00     0.009 A 
ATOM     53  C   UNL A   1      45.362  32.329  31.600  1.00  0.00     0.009 A 
ATOM     54  C   UNL A   1      45.520  34.536  29.899  1.00  0.00     0.001 A 
ATOM     55  C   UNL A   1      45.681  33.583  32.116  1.00  0.00     0.001 A 
ATOM     56  C   UNL A   1      45.769  34.682  31.264  1.00  0.00     0.000 A 
ENDBRANCH  38  51
ENDBRANCH  12  13
ENDBRANCH   5   7
ENDBRANCH   4   5
ENDBRANCH   3   4
ENDBRANCH   2   3
ENDBRANCH   1   2
BRANCH   1  57
ATOM     57  C   UNL A   1      36.857  22.051  25.409  1.00  0.00     0.202 C 
BRANCH  57  58
ATOM     58  C   UNL A   1      35.761  21.397  24.574  1.00  0.00     0.261 C 
BRANCH  58  59
ATOM     59  O   UNL A   1      34.542  22.169  24.668  1.00  0.00    -0.463 OA
BRANCH  59  60
ATOM     60  C   UNL A   1      34.515  23.245  23.837  1.00  0.00     0.312 C 
ATOM     61  O   UNL A   1      35.101  23.271  22.758  1.00  0.00    -0.252 OA
BRANCH  60  62
ATOM     62  C   UNL A   1      33.676  24.450  24.369  1.00  0.00     0.074 C 
ATOM     63  C   UNL A   1      34.379  25.262  25.468  1.00  0.00     0.019 C 
ATOM     64  C   UNL A   1      33.558  25.496  23.231  1.00  0.00     0.019 C 
ATOM     65  C   UNL A   1      33.917  26.697  25.335  1.00  0.00     0.001 C 
ATOM     66  C   UNL A   1      33.798  26.886  23.837  1.00  0.00     0.001 C 
BRANCH  62  67
ATOM     67  C   UNL A   1      32.317  23.791  24.840  1.00  0.00     0.051 C 
ATOM     68  C   UNL A   1      31.943  24.134  26.311  1.00  0.00     0.144 C 
ATOM     69  C   UNL A   1      30.997  23.911  24.058  1.00  0.00     0.134 C 
ATOM     70  S   UNL A   1      30.496  25.170  26.291  1.00  0.00     0.153 S 
ATOM     71  C   UNL A   1      30.205  25.111  24.546  1.00  0.00     0.169 C 
ATOM     72  O   UNL A   1      29.417  24.472  26.962  1.00  0.00    -0.229 OA
ATOM     73  O   UNL A   1      30.880  26.519  26.645  1.00  0.00    -0.229 OA
BRANCH  69  74
ATOM     74  O   UNL A   1      31.163  23.864  22.657  1.00  0.00    -0.392 OA
ATOM     75  H   UNL A   1      31.912  24.423  22.401  1.00  0.00     0.211 HD
ENDBRANCH  69  74
ENDBRANCH  62  67
ENDBRANCH  60  62
ENDBRANCH  59  60
ENDBRANCH  58  59
ENDBRANCH  57  58
ENDBRANCH   1  57
TORSDOF 16
ENDMDL
MODEL 3
REMARK VINA RESULT:      -8.6      5.835     10.926
REMARK SMILES O=C(OCCOCCOC(=O)C1([C@H]2CS(=O)(=O)C[C@H]2O)CCCC1)c1ccc(-c2c3nc(c(-c4ccccc4)c4ccc([nH]4)c(-c4ccccc4)c4nc(c(-c5ccccc5)c5ccc2[nH]5)C=C4)C=C3)cc1
REMARK SMILES IDX 6 1 5 2 4 3 3 4 2 5 1 6 25 7 26 8 72 9 27 10 71 11 28 12
REMARK SMILES IDX 29 13 30 14 65 15 31 16 70 17 64 18 66 19 32 20 69 21 63 22
REMARK SMILES IDX 62 23 33 25 55 26 40 27 54 28 41 29 44 30 53 31 67 32 42 33
REMARK SMILES IDX 43 34 52 36 68 37 45 38 34 39 35 40 39 41 36 42 38 43 37 44
REMARK SMILES IDX 56 45 57 46 61 47 58 48 60 49 59 50 46 51 47 52 51 53 48 54
REMARK SMILES IDX 50 55 49 56 7 57 8 58 9 59 10 60 11 61 12 62 21 63 24 64
REMARK SMILES IDX 22 65 23 66 13 67 14 68 19 69 15 70 18 71 16 72 17 73 20 74
REMARK H PARENT 66 24 44 35 20 75
REMARK Flexibility Score: inf
ROOT
ATOM      1  O   UNL A   1      32.483  29.331  23.840  1.00  0.00    -0.374 OA
ENDROOT
BRANCH   1   2
ATOM      2  C   UNL A   1      31.680  28.964  24.965  1.00  0.00     0.202 C 
BRANCH   2   3
ATOM      3  C   UNL A   1      31.837  29.793  26.240  1.00  0.00     0.261 C 
BRANCH   3   4
ATOM      4  O   UNL A   1      32.952  30.685  26.119  1.00  0.00    -0.460 OA
BRANCH   4   5
ATOM      5  C   UNL A   1      33.486  31.421  27.123  1.00  0.00     0.338 C 
ATOM      6  O   UNL A   1      32.898  32.423  27.518  1.00  0.00    -0.246 OA
BRANCH   5   7
ATOM      7  C   UNL A   1      34.724  30.996  27.831  1.00  0.00     0.060 A 
ATOM      8  C   UNL A   1      34.973  29.702  28.289  1.00  0.00     0.016 A 
ATOM      9  C   UNL A   1      35.723  31.965  28.000  1.00  0.00     0.016 A 
ATOM     10  C   UNL A   1      36.126  29.373  28.952  1.00  0.00     0.010 A 
ATOM     11  C   UNL A   1      36.919  31.637  28.637  1.00  0.00     0.010 A 
ATOM     12  C   UNL A   1      37.103  30.337  29.116  1.00  0.00    -0.014 A 
BRANCH  12  13
ATOM     13  C   UNL A   1      38.238  29.933  29.939  1.00  0.00     0.031 A 
ATOM     14  C   UNL A   1      39.321  29.154  29.276  1.00  0.00     0.074 A 
ATOM     15  C   UNL A   1      38.359  30.467  31.166  1.00  0.00     0.049 A 
ATOM     16  N   UNL A   1      40.389  28.628  29.799  1.00  0.00    -0.248 NA
ATOM     17  C   UNL A   1      39.193  28.955  27.819  1.00  0.00     0.031 C 
ATOM     18  C   UNL A   1      37.423  31.424  31.772  1.00  0.00     0.029 A 
ATOM     19  N   UNL A   1      39.341  30.327  32.100  1.00  0.00    -0.354 N 
ATOM     20  C   UNL A   1      41.031  27.987  28.750  1.00  0.00     0.074 A 
ATOM     21  C   UNL A   1      40.250  28.204  27.556  1.00  0.00     0.031 C 
ATOM     22  C   UNL A   1      37.892  31.795  32.973  1.00  0.00     0.029 A 
ATOM     23  C   UNL A   1      39.096  31.029  33.254  1.00  0.00     0.049 A 
ATOM     24  H   UNL A   1      40.146  29.777  31.962  1.00  0.00     0.167 HD
ATOM     25  C   UNL A   1      42.166  27.258  28.813  1.00  0.00     0.031 A 
ATOM     26  C   UNL A   1      39.753  30.990  34.424  1.00  0.00     0.031 A 
ATOM     27  C   UNL A   1      42.891  27.076  30.038  1.00  0.00     0.049 A 
ATOM     28  C   UNL A   1      40.933  30.061  34.503  1.00  0.00     0.074 A 
ATOM     29  C   UNL A   1      43.999  26.292  30.286  1.00  0.00     0.029 A 
ATOM     30  N   UNL A   1      42.562  27.709  31.233  1.00  0.00    -0.354 N 
ATOM     31  N   UNL A   1      41.480  29.342  33.549  1.00  0.00    -0.248 NA
ATOM     32  C   UNL A   1      41.570  29.917  35.814  1.00  0.00     0.031 C 
ATOM     33  C   UNL A   1      44.306  26.410  31.645  1.00  0.00     0.029 A 
ATOM     34  C   UNL A   1      43.432  27.319  32.229  1.00  0.00     0.049 A 
ATOM     35  H   UNL A   1      41.818  28.342  31.349  1.00  0.00     0.167 HD
ATOM     36  C   UNL A   1      42.539  28.671  34.138  1.00  0.00     0.074 A 
ATOM     37  C   UNL A   1      42.568  29.093  35.528  1.00  0.00     0.031 C 
ATOM     38  C   UNL A   1      43.410  27.785  33.593  1.00  0.00     0.031 A 
BRANCH  25  39
ATOM     39  C   UNL A   1      42.581  26.534  27.566  1.00  0.00    -0.014 A 
ATOM     40  C   UNL A   1      43.463  27.101  26.632  1.00  0.00     0.009 A 
ATOM     41  C   UNL A   1      42.027  25.273  27.297  1.00  0.00     0.009 A 
ATOM     42  C   UNL A   1      43.753  26.432  25.440  1.00  0.00     0.001 A 
ATOM     43  C   UNL A   1      42.339  24.595  26.118  1.00  0.00     0.001 A 
ATOM     44  C   UNL A   1      43.194  25.180  25.185  1.00  0.00     0.000 A 
ENDBRANCH  25  39
BRANCH  26  45
ATOM     45  C   UNL A   1      39.256  31.744  35.604  1.00  0.00    -0.014 A 
ATOM     46  C   UNL A   1      38.273  31.207  36.448  1.00  0.00     0.009 A 
ATOM     47  C   UNL A   1      39.751  33.031  35.884  1.00  0.00     0.009 A 
ATOM     48  C   UNL A   1      37.777  31.952  37.523  1.00  0.00     0.001 A 
ATOM     49  C   UNL A   1      39.280  33.758  36.979  1.00  0.00     0.001 A 
ATOM     50  C   UNL A   1      38.282  33.224  37.789  1.00  0.00     0.000 A 
ENDBRANCH  26  45
BRANCH  38  51
ATOM     51  C   UNL A   1      44.484  27.268  34.500  1.00  0.00    -0.014 A 
ATOM     52  C   UNL A   1      45.702  27.946  34.649  1.00  0.00     0.009 A 
ATOM     53  C   UNL A   1      44.240  26.110  35.255  1.00  0.00     0.009 A 
ATOM     54  C   UNL A   1      46.673  27.451  35.519  1.00  0.00     0.001 A 
ATOM     55  C   UNL A   1      45.199  25.639  36.149  1.00  0.00     0.001 A 
ATOM     56  C   UNL A   1      46.417  26.305  36.272  1.00  0.00     0.000 A 
ENDBRANCH  38  51
ENDBRANCH  12  13
ENDBRANCH   5   7
ENDBRANCH   4   5
ENDBRANCH   3   4
ENDBRANCH   2   3
ENDBRANCH   1   2
BRANCH   1  57
ATOM     57  C   UNL A   1      33.418  28.335  23.422  1.00  0.00     0.202 C 
BRANCH  57  58
ATOM     58  C   UNL A   1      32.902  26.927  23.700  1.00  0.00     0.261 C 
BRANCH  58  59
ATOM     59  O   UNL A   1      34.003  26.055  24.040  1.00  0.00    -0.463 OA
BRANCH  59  60
ATOM     60  C   UNL A   1      34.040  24.912  23.303  1.00  0.00     0.312 C 
ATOM     61  O   UNL A   1      33.653  24.856  22.139  1.00  0.00    -0.252 OA
BRANCH  60  62
ATOM     62  C   UNL A   1      34.612  23.673  24.062  1.00  0.00     0.074 C 
ATOM     63  C   UNL A   1      35.606  22.841  23.237  1.00  0.00     0.019 C 
ATOM     64  C   UNL A   1      35.513  24.188  25.214  1.00  0.00     0.019 C 
ATOM     65  C   UNL A   1      36.607  22.244  24.203  1.00  0.00     0.001 C 
ATOM     66  C   UNL A   1      36.794  23.341  25.231  1.00  0.00     0.001 C 
BRANCH  62  67
ATOM     67  C   UNL A   1      33.325  22.868  24.506  1.00  0.00     0.051 C 
ATOM     68  C   UNL A   1      33.147  21.522  23.745  1.00  0.00     0.144 C 
ATOM     69  C   UNL A   1      32.989  22.540  25.971  1.00  0.00     0.134 C 
ATOM     70  S   UNL A   1      33.389  20.191  24.901  1.00  0.00     0.153 S 
ATOM     71  C   UNL A   1      33.566  21.189  26.353  1.00  0.00     0.169 C 
ATOM     72  O   UNL A   1      32.154  19.439  25.007  1.00  0.00    -0.229 OA
ATOM     73  O   UNL A   1      34.659  19.555  24.627  1.00  0.00    -0.229 OA
BRANCH  69  74
ATOM     74  O   UNL A   1      33.313  23.578  26.873  1.00  0.00    -0.392 OA
ATOM     75  H   UNL A   1      33.601  24.359  26.376  1.00  0.00     0.211 HD
ENDBRANCH  69  74
ENDBRANCH  62  67
ENDBRANCH  60  62
ENDBRANCH  59  60
ENDBRANCH  58  59
ENDBRANCH  57  58
ENDBRANCH   1  57
TORSDOF 16
ENDMDL
