MODEL 1
REMARK VINA RESULT:      -9.3      0.000      0.000
REMARK SMILES [NH3+][C@@]1(C(=O)OCCOCCOC(=O)c2ccc(-c3c4nc(c(-c5ccccc5)c5ccc([nH]5)c(-c5ccccc5)c5nc(c(-c6ccccc6)c6ccc3[nH]6)C=C5)C=C4)cc2)CC[C@H](Sc2cccs2)C1
REMARK SMILES IDX 8 1 7 2 6 3 5 4 3 5 4 6 2 7 62 8 71 9 63 10 64 11 1 12 65 16
REMARK SMILES IDX 66 17 67 18 70 19 68 20 69 21 9 22 10 23 11 24 12 25 13 26
REMARK SMILES IDX 14 27 15 28 61 29 16 30 60 31 17 32 18 33 19 34 54 35 20 36
REMARK SMILES IDX 59 37 53 38 55 39 21 40 58 41 52 42 51 43 22 45 44 46 29 47
REMARK SMILES IDX 43 48 30 49 33 50 42 51 56 52 31 53 32 54 41 56 57 57 34 58
REMARK SMILES IDX 23 59 24 60 28 61 25 62 27 63 26 64 45 65 46 66 50 67 47 68
REMARK SMILES IDX 49 69 48 70 35 71 36 72 40 73 37 74 39 75 38 76
REMARK H PARENT 1 13 1 14 1 15 55 44 33 55
REMARK Flexibility Score: inf
ROOT
ATOM      1  O   UNL A   1      30.997  27.051  26.886  1.00  0.00    -0.374 OA
ENDROOT
BRANCH   1   2
ATOM      2  C   UNL A   1      31.858  26.007  26.434  1.00  0.00     0.202 C 
BRANCH   2   3
ATOM      3  C   UNL A   1      31.916  25.780  24.921  1.00  0.00     0.261 C 
BRANCH   3   4
ATOM      4  O   UNL A   1      32.322  24.437  24.603  1.00  0.00    -0.459 OA
BRANCH   4   5
ATOM      5  C   UNL A   1      31.718  23.876  23.520  1.00  0.00     0.368 C 
ATOM      6  O   UNL A   1      30.555  24.090  23.194  1.00  0.00    -0.245 OA
BRANCH   5   7
ATOM      7  C   UNL A   1      32.674  22.924  22.730  1.00  0.00     0.193 C 
ATOM      8  C   UNL A   1      32.009  21.551  22.627  1.00  0.00     0.082 C 
ATOM      9  C   UNL A   1      34.028  22.617  23.402  1.00  0.00     0.095 C 
ATOM     10  C   UNL A   1      32.392  20.876  23.938  1.00  0.00     0.022 C 
ATOM     11  C   UNL A   1      33.855  21.273  24.144  1.00  0.00     0.059 C 
BRANCH   7  12
ATOM     12  N   UNL A   1      32.879  23.497  21.383  1.00  0.00    -0.343 N 
ATOM     13  H   UNL A   1      32.154  23.153  20.754  1.00  0.00     0.345 HD
ATOM     14  H   UNL A   1      33.796  23.221  21.031  1.00  0.00     0.345 HD
ATOM     15  H   UNL A   1      32.828  24.515  21.436  1.00  0.00     0.345 HD
ENDBRANCH   7  12
BRANCH  11  16
ATOM     16  S   UNL A   1      34.346  21.442  25.883  1.00  0.00    -0.112 SA
BRANCH  16  17
ATOM     17  C   UNL A   1      35.978  22.087  25.840  1.00  0.00     0.060 A 
ATOM     18  C   UNL A   1      36.437  23.340  26.190  1.00  0.00     0.027 A 
ATOM     19  S   UNL A   1      37.267  21.081  25.319  1.00  0.00    -0.137 S 
ATOM     20  C   UNL A   1      37.844  23.484  25.986  1.00  0.00     0.013 A 
ATOM     21  C   UNL A   1      38.419  22.323  25.525  1.00  0.00     0.066 A 
ENDBRANCH  16  17
ENDBRANCH  11  16
ENDBRANCH   5   7
ENDBRANCH   4   5
ENDBRANCH   3   4
ENDBRANCH   2   3
ENDBRANCH   1   2
BRANCH   1  22
ATOM     22  C   UNL A   1      31.593  28.133  27.599  1.00  0.00     0.202 C 
BRANCH  22  23
ATOM     23  C   UNL A   1      32.636  28.963  26.839  1.00  0.00     0.261 C 
BRANCH  23  24
ATOM     24  O   UNL A   1      33.944  28.889  27.437  1.00  0.00    -0.460 OA
BRANCH  24  25
ATOM     25  C   UNL A   1      34.452  30.079  27.838  1.00  0.00     0.338 C 
ATOM     26  O   UNL A   1      33.845  31.133  27.981  1.00  0.00    -0.246 OA
BRANCH  25  27
ATOM     27  C   UNL A   1      35.854  29.929  28.266  1.00  0.00     0.060 A 
ATOM     28  C   UNL A   1      36.849  30.149  27.305  1.00  0.00     0.016 A 
ATOM     29  C   UNL A   1      36.190  29.485  29.545  1.00  0.00     0.016 A 
ATOM     30  C   UNL A   1      38.183  29.881  27.606  1.00  0.00     0.010 A 
ATOM     31  C   UNL A   1      37.530  29.203  29.840  1.00  0.00     0.010 A 
ATOM     32  C   UNL A   1      38.528  29.369  28.863  1.00  0.00    -0.014 A 
BRANCH  32  33
ATOM     33  C   UNL A   1      39.905  28.868  29.092  1.00  0.00     0.031 A 
ATOM     34  C   UNL A   1      40.899  29.755  29.792  1.00  0.00     0.074 A 
ATOM     35  C   UNL A   1      40.259  27.622  28.728  1.00  0.00     0.049 A 
ATOM     36  N   UNL A   1      42.146  29.515  30.110  1.00  0.00    -0.248 NA
ATOM     37  C   UNL A   1      40.421  31.089  30.192  1.00  0.00     0.031 C 
ATOM     38  C   UNL A   1      39.383  26.648  28.081  1.00  0.00     0.029 A 
ATOM     39  N   UNL A   1      41.457  26.965  28.861  1.00  0.00    -0.354 N 
ATOM     40  C   UNL A   1      42.602  30.666  30.741  1.00  0.00     0.074 A 
ATOM     41  C   UNL A   1      41.509  31.614  30.737  1.00  0.00     0.031 C 
ATOM     42  C   UNL A   1      40.073  25.513  27.875  1.00  0.00     0.029 A 
ATOM     43  C   UNL A   1      41.444  25.692  28.349  1.00  0.00     0.049 A 
ATOM     44  H   UNL A   1      42.249  27.369  29.284  1.00  0.00     0.167 HD
ATOM     45  C   UNL A   1      43.819  30.914  31.280  1.00  0.00     0.031 A 
ATOM     46  C   UNL A   1      42.431  24.779  28.259  1.00  0.00     0.031 A 
ATOM     47  C   UNL A   1      44.915  29.983  31.277  1.00  0.00     0.049 A 
ATOM     48  C   UNL A   1      43.799  25.105  28.799  1.00  0.00     0.074 A 
ATOM     49  C   UNL A   1      46.182  30.141  31.810  1.00  0.00     0.029 A 
ATOM     50  N   UNL A   1      44.876  28.722  30.704  1.00  0.00    -0.354 N 
ATOM     51  N   UNL A   1      44.208  26.188  29.415  1.00  0.00    -0.248 NA
ATOM     52  C   UNL A   1      44.839  24.079  28.634  1.00  0.00     0.031 C 
ATOM     53  C   UNL A   1      46.927  28.993  31.516  1.00  0.00     0.029 A 
ATOM     54  C   UNL A   1      46.105  28.101  30.846  1.00  0.00     0.049 A 
ATOM     55  H   UNL A   1      44.090  28.327  30.262  1.00  0.00     0.167 HD
ATOM     56  C   UNL A   1      45.543  25.963  29.730  1.00  0.00     0.074 A 
ATOM     57  C   UNL A   1      45.871  24.637  29.252  1.00  0.00     0.031 C 
ATOM     58  C   UNL A   1      46.418  26.782  30.364  1.00  0.00     0.031 A 
BRANCH  45  59
ATOM     59  C   UNL A   1      44.037  32.266  31.896  1.00  0.00    -0.014 A 
ATOM     60  C   UNL A   1      43.779  32.497  33.256  1.00  0.00     0.009 A 
ATOM     61  C   UNL A   1      44.537  33.316  31.109  1.00  0.00     0.009 A 
ATOM     62  C   UNL A   1      43.988  33.763  33.809  1.00  0.00     0.001 A 
ATOM     63  C   UNL A   1      44.769  34.572  31.670  1.00  0.00     0.001 A 
ATOM     64  C   UNL A   1      44.488  34.796  33.017  1.00  0.00     0.000 A 
ENDBRANCH  45  59
BRANCH  46  65
ATOM     65  C   UNL A   1      42.176  23.465  27.613  1.00  0.00    -0.014 A 
ATOM     66  C   UNL A   1      41.690  22.381  28.358  1.00  0.00     0.009 A 
ATOM     67  C   UNL A   1      42.443  23.286  26.246  1.00  0.00     0.009 A 
ATOM     68  C   UNL A   1      41.500  21.136  27.754  1.00  0.00     0.001 A 
ATOM     69  C   UNL A   1      42.226  22.047  25.639  1.00  0.00     0.001 A 
ATOM     70  C   UNL A   1      41.765  20.971  26.395  1.00  0.00     0.000 A 
ENDBRANCH  46  65
BRANCH  58  71
ATOM     71  C   UNL A   1      47.805  26.257  30.603  1.00  0.00    -0.014 A 
ATOM     72  C   UNL A   1      48.180  25.732  31.850  1.00  0.00     0.009 A 
ATOM     73  C   UNL A   1      48.735  26.247  29.552  1.00  0.00     0.009 A 
ATOM     74  C   UNL A   1      49.471  25.235  32.046  1.00  0.00     0.001 A 
ATOM     75  C   UNL A   1      50.016  25.727  29.745  1.00  0.00     0.001 A 
ATOM     76  C   UNL A   1      50.386  25.229  30.994  1.00  0.00     0.000 A 
ENDBRANCH  58  71
ENDBRANCH  32  33
ENDBRANCH  25  27
ENDBRANCH  24  25
ENDBRANCH  23  24
ENDBRANCH  22  23
ENDBRANCH   1  22
TORSDOF 17
ENDMDL
MODEL 2
REMARK VINA RESULT:      -9.0      2.328      7.398
REMARK SMILES [NH3+][C@@]1(C(=O)OCCOCCOC(=O)c2ccc(-c3c4nc(c(-c5ccccc5)c5ccc([nH]5)c(-c5ccccc5)c5nc(c(-c6ccccc6)c6ccc3[nH]6)C=C5)C=C4)cc2)CC[C@H](Sc2cccs2)C1
REMARK SMILES IDX 8 1 7 2 6 3 5 4 3 5 4 6 2 7 62 8 71 9 63 10 64 11 1 12 65 16
REMARK SMILES IDX 66 17 67 18 70 19 68 20 69 21 9 22 10 23 11 24 12 25 13 26
REMARK SMILES IDX 14 27 15 28 61 29 16 30 60 31 17 32 18 33 19 34 54 35 20 36
REMARK SMILES IDX 59 37 53 38 55 39 21 40 58 41 52 42 51 43 22 45 44 46 29 47
REMARK SMILES IDX 43 48 30 49 33 50 42 51 56 52 31 53 32 54 41 56 57 57 34 58
REMARK SMILES IDX 23 59 24 60 28 61 25 62 27 63 26 64 45 65 46 66 50 67 47 68
REMARK SMILES IDX 49 69 48 70 35 71 36 72 40 73 37 74 39 75 38 76
REMARK H PARENT 1 13 1 14 1 15 55 44 33 55
REMARK Flexibility Score: inf
ROOT
ATOM      1  O   UNL A   1      37.531  21.408  25.218  1.00  0.00    -0.374 OA
ENDROOT
BRANCH   1   2
ATOM      2  C   UNL A   1      37.007  22.306  24.241  1.00  0.00     0.202 C 
BRANCH   2   3
ATOM      3  C   UNL A   1      35.933  23.284  24.725  1.00  0.00     0.261 C 
BRANCH   3   4
ATOM      4  O   UNL A   1      34.978  23.576  23.688  1.00  0.00    -0.459 OA
BRANCH   4   5
ATOM      5  C   UNL A   1      33.733  23.929  24.110  1.00  0.00     0.368 C 
ATOM      6  O   UNL A   1      33.507  24.852  24.886  1.00  0.00    -0.245 OA
BRANCH   5   7
ATOM      7  C   UNL A   1      32.616  23.026  23.494  1.00  0.00     0.193 C 
ATOM      8  C   UNL A   1      31.356  23.170  24.348  1.00  0.00     0.082 C 
ATOM      9  C   UNL A   1      32.889  21.509  23.508  1.00  0.00     0.095 C 
ATOM     10  C   UNL A   1      31.576  22.161  25.469  1.00  0.00     0.022 C 
ATOM     11  C   UNL A   1      32.180  20.947  24.760  1.00  0.00     0.059 C 
BRANCH   7  12
ATOM     12  N   UNL A   1      32.358  23.496  22.116  1.00  0.00    -0.343 N 
ATOM     13  H   UNL A   1      32.454  22.715  21.467  1.00  0.00     0.345 HD
ATOM     14  H   UNL A   1      33.029  24.225  21.874  1.00  0.00     0.345 HD
ATOM     15  H   UNL A   1      31.411  23.872  22.057  1.00  0.00     0.345 HD
ENDBRANCH   7  12
BRANCH  11  16
ATOM     16  S   UNL A   1      33.344  19.993  25.774  1.00  0.00    -0.112 SA
BRANCH  16  17
ATOM     17  C   UNL A   1      33.476  18.434  24.979  1.00  0.00     0.060 A 
ATOM     18  C   UNL A   1      34.219  18.071  23.874  1.00  0.00     0.027 A 
ATOM     19  S   UNL A   1      32.605  17.093  25.603  1.00  0.00    -0.137 S 
ATOM     20  C   UNL A   1      34.036  16.699  23.518  1.00  0.00     0.013 A 
ATOM     21  C   UNL A   1      33.190  16.050  24.386  1.00  0.00     0.066 A 
ENDBRANCH  16  17
ENDBRANCH  11  16
ENDBRANCH   5   7
ENDBRANCH   4   5
ENDBRANCH   3   4
ENDBRANCH   2   3
ENDBRANCH   1   2
BRANCH   1  22
ATOM     22  C   UNL A   1      37.547  20.019  24.894  1.00  0.00     0.202 C 
BRANCH  22  23
ATOM     23  C   UNL A   1      38.819  19.243  25.263  1.00  0.00     0.261 C 
BRANCH  23  24
ATOM     24  O   UNL A   1      39.567  19.878  26.316  1.00  0.00    -0.460 OA
BRANCH  24  25
ATOM     25  C   UNL A   1      40.912  19.815  26.173  1.00  0.00     0.338 C 
ATOM     26  O   UNL A   1      41.557  18.946  25.599  1.00  0.00    -0.246 OA
BRANCH  25  27
ATOM     27  C   UNL A   1      41.547  21.052  26.662  1.00  0.00     0.060 A 
ATOM     28  C   UNL A   1      41.538  21.279  28.044  1.00  0.00     0.016 A 
ATOM     29  C   UNL A   1      42.048  22.019  25.789  1.00  0.00     0.016 A 
ATOM     30  C   UNL A   1      41.989  22.494  28.557  1.00  0.00     0.010 A 
ATOM     31  C   UNL A   1      42.487  23.244  26.305  1.00  0.00     0.010 A 
ATOM     32  C   UNL A   1      42.430  23.499  27.687  1.00  0.00    -0.014 A 
BRANCH  32  33
ATOM     33  C   UNL A   1      42.683  24.861  28.218  1.00  0.00     0.031 A 
ATOM     34  C   UNL A   1      44.089  25.256  28.580  1.00  0.00     0.074 A 
ATOM     35  C   UNL A   1      41.685  25.757  28.332  1.00  0.00     0.049 A 
ATOM     36  N   UNL A   1      44.538  26.395  29.044  1.00  0.00    -0.248 NA
ATOM     37  C   UNL A   1      45.128  24.231  28.389  1.00  0.00     0.031 C 
ATOM     38  C   UNL A   1      40.288  25.517  27.978  1.00  0.00     0.029 A 
ATOM     39  N   UNL A   1      41.704  27.056  28.777  1.00  0.00    -0.354 N 
ATOM     40  C   UNL A   1      45.907  26.223  29.204  1.00  0.00     0.074 A 
ATOM     41  C   UNL A   1      46.212  24.863  28.815  1.00  0.00     0.031 C 
ATOM     42  C   UNL A   1      39.581  26.636  28.216  1.00  0.00     0.029 A 
ATOM     43  C   UNL A   1      40.471  27.658  28.766  1.00  0.00     0.049 A 
ATOM     44  H   UNL A   1      42.524  27.511  29.074  1.00  0.00     0.167 HD
ATOM     45  C   UNL A   1      46.832  27.116  29.631  1.00  0.00     0.031 A 
ATOM     46  C   UNL A   1      40.099  28.889  29.168  1.00  0.00     0.031 A 
ATOM     47  C   UNL A   1      46.535  28.465  30.031  1.00  0.00     0.049 A 
ATOM     48  C   UNL A   1      41.133  29.839  29.710  1.00  0.00     0.074 A 
ATOM     49  C   UNL A   1      47.408  29.446  30.467  1.00  0.00     0.029 A 
ATOM     50  N   UNL A   1      45.266  29.020  30.052  1.00  0.00    -0.354 N 
ATOM     51  N   UNL A   1      42.428  29.671  29.833  1.00  0.00    -0.248 NA
ATOM     52  C   UNL A   1      40.653  31.152  30.166  1.00  0.00     0.031 C 
ATOM     53  C   UNL A   1      46.660  30.581  30.800  1.00  0.00     0.029 A 
ATOM     54  C   UNL A   1      45.328  30.321  30.520  1.00  0.00     0.049 A 
ATOM     55  H   UNL A   1      44.443  28.557  29.776  1.00  0.00     0.167 HD
ATOM     56  C   UNL A   1      42.917  30.862  30.356  1.00  0.00     0.074 A 
ATOM     57  C   UNL A   1      41.784  31.749  30.514  1.00  0.00     0.031 C 
ATOM     58  C   UNL A   1      44.193  31.192  30.674  1.00  0.00     0.031 A 
BRANCH  45  59
ATOM     59  C   UNL A   1      48.255  26.646  29.716  1.00  0.00    -0.014 A 
ATOM     60  C   UNL A   1      49.144  26.817  28.644  1.00  0.00     0.009 A 
ATOM     61  C   UNL A   1      48.721  26.048  30.898  1.00  0.00     0.009 A 
ATOM     62  C   UNL A   1      50.465  26.373  28.743  1.00  0.00     0.001 A 
ATOM     63  C   UNL A   1      50.048  25.628  31.004  1.00  0.00     0.001 A 
ATOM     64  C   UNL A   1      50.916  25.784  29.924  1.00  0.00     0.000 A 
ENDBRANCH  45  59
BRANCH  46  65
ATOM     65  C   UNL A   1      38.672  29.298  29.093  1.00  0.00    -0.014 A 
ATOM     66  C   UNL A   1      38.158  29.902  27.937  1.00  0.00     0.009 A 
ATOM     67  C   UNL A   1      37.823  29.107  30.196  1.00  0.00     0.009 A 
ATOM     68  C   UNL A   1      36.829  30.329  27.893  1.00  0.00     0.001 A 
ATOM     69  C   UNL A   1      36.488  29.511  30.140  1.00  0.00     0.001 A 
ATOM     70  C   UNL A   1      35.994  30.130  28.993  1.00  0.00     0.000 A 
ENDBRANCH  46  65
BRANCH  58  71
ATOM     71  C   UNL A   1      44.437  32.579  31.196  1.00  0.00    -0.014 A 
ATOM     72  C   UNL A   1      44.673  33.654  30.325  1.00  0.00     0.009 A 
ATOM     73  C   UNL A   1      44.387  32.821  32.578  1.00  0.00     0.009 A 
ATOM     74  C   UNL A   1      44.883  34.939  30.832  1.00  0.00     0.001 A 
ATOM     75  C   UNL A   1      44.571  34.110  33.079  1.00  0.00     0.001 A 
ATOM     76  C   UNL A   1      44.828  35.167  32.206  1.00  0.00     0.000 A 
ENDBRANCH  58  71
ENDBRANCH  32  33
ENDBRANCH  25  27
ENDBRANCH  24  25
ENDBRANCH  23  24
ENDBRANCH  22  23
ENDBRANCH   1  22
TORSDOF 17
ENDMDL
MODEL 3
REMARK VINA RESULT:      -9.0      2.796      7.735
REMARK SMILES [NH3+][C@@]1(C(=O)OCCOCCOC(=O)c2ccc(-c3c4nc(c(-c5ccccc5)c5ccc([nH]5)c(-c5ccccc5)c5nc(c(-c6ccccc6)c6ccc3[nH]6)C=C5)C=C4)cc2)CC[C@H](Sc2cccs2)C1
REMARK SMILES IDX 8 1 7 2 6 3 5 4 3 5 4 6 2 7 62 8 71 9 63 10 64 11 1 12 65 16
REMARK SMILES IDX 66 17 67 18 70 19 68 20 69 21 9 22 10 23 11 24 12 25 13 26
REMARK SMILES IDX 14 27 15 28 61 29 16 30 60 31 17 32 18 33 19 34 54 35 20 36
REMARK SMILES IDX 59 37 53 38 55 39 21 40 58 41 52 42 51 43 22 45 44 46 29 47
REMARK SMILES IDX 43 48 30 49 33 50 42 51 56 52 31 53 32 54 41 56 57 57 34 58
REMARK SMILES IDX 23 59 24 60 28 61 25 62 27 63 26 64 45 65 46 66 50 67 47 68
REMARK SMILES IDX 49 69 48 70 35 71 36 72 40 73 37 74 39 75 38 76
REMARK H PARENT 1 13 1 14 1 15 55 44 33 55
REMARK Flexibility Score: inf
ROOT
ATOM      1  O   UNL A   1      35.978  20.679  24.961  1.00  0.00    -0.374 OA
ENDROOT
BRANCH   1   2
ATOM      2  C   UNL A   1      35.395  21.627  25.854  1.00  0.00     0.202 C 
BRANCH   2   3
ATOM      3  C   UNL A   1      34.090  22.283  25.393  1.00  0.00     0.261 C 
BRANCH   3   4
ATOM      4  O   UNL A   1      34.305  23.636  24.954  1.00  0.00    -0.459 OA
BRANCH   4   5
ATOM      5  C   UNL A   1      34.356  23.822  23.607  1.00  0.00     0.368 C 
ATOM      6  O   UNL A   1      35.288  23.456  22.899  1.00  0.00    -0.245 OA
BRANCH   5   7
ATOM      7  C   UNL A   1      33.090  24.554  23.057  1.00  0.00     0.193 C 
ATOM      8  C   UNL A   1      33.518  25.923  22.528  1.00  0.00     0.082 C 
ATOM      9  C   UNL A   1      32.001  24.894  24.095  1.00  0.00     0.095 C 
ATOM     10  C   UNL A   1      33.503  26.801  23.774  1.00  0.00     0.022 C 
ATOM     11  C   UNL A   1      32.245  26.359  24.523  1.00  0.00     0.059 C 
BRANCH   7  12
ATOM     12  N   UNL A   1      32.528  23.735  21.963  1.00  0.00    -0.343 N 
ATOM     13  H   UNL A   1      32.388  22.779  22.291  1.00  0.00     0.345 HD
ATOM     14  H   UNL A   1      33.173  23.732  21.173  1.00  0.00     0.345 HD
ATOM     15  H   UNL A   1      31.633  24.128  21.669  1.00  0.00     0.345 HD
ENDBRANCH   7  12
BRANCH  11  16
ATOM     16  S   UNL A   1      32.370  26.478  26.329  1.00  0.00    -0.112 SA
BRANCH  16  17
ATOM     17  C   UNL A   1      32.956  28.103  26.643  1.00  0.00     0.060 A 
ATOM     18  C   UNL A   1      34.212  28.525  27.029  1.00  0.00     0.027 A 
ATOM     19  S   UNL A   1      31.890  29.435  26.451  1.00  0.00    -0.137 S 
ATOM     20  C   UNL A   1      34.282  29.941  27.209  1.00  0.00     0.013 A 
ATOM     21  C   UNL A   1      33.089  30.558  26.915  1.00  0.00     0.066 A 
ENDBRANCH  16  17
ENDBRANCH  11  16
ENDBRANCH   5   7
ENDBRANCH   4   5
ENDBRANCH   3   4
ENDBRANCH   2   3
ENDBRANCH   1   2
BRANCH   1  22
ATOM     22  C   UNL A   1      37.358  20.840  24.642  1.00  0.00     0.202 C 
BRANCH  22  23
ATOM     23  C   UNL A   1      38.286  21.248  25.794  1.00  0.00     0.261 C 
BRANCH  23  24
ATOM     24  O   UNL A   1      38.699  22.625  25.710  1.00  0.00    -0.460 OA
BRANCH  24  25
ATOM     25  C   UNL A   1      39.903  22.891  26.271  1.00  0.00     0.338 C 
ATOM     26  O   UNL A   1      40.928  22.226  26.175  1.00  0.00    -0.246 OA
BRANCH  25  27
ATOM     27  C   UNL A   1      39.899  24.219  26.908  1.00  0.00     0.060 A 
ATOM     28  C   UNL A   1      40.672  25.223  26.312  1.00  0.00     0.016 A 
ATOM     29  C   UNL A   1      39.239  24.456  28.114  1.00  0.00     0.016 A 
ATOM     30  C   UNL A   1      40.827  26.455  26.945  1.00  0.00     0.010 A 
ATOM     31  C   UNL A   1      39.407  25.690  28.755  1.00  0.00     0.010 A 
ATOM     32  C   UNL A   1      40.227  26.682  28.189  1.00  0.00    -0.014 A 
BRANCH  32  33
ATOM     33  C   UNL A   1      40.587  27.898  28.960  1.00  0.00     0.031 A 
ATOM     34  C   UNL A   1      39.590  29.021  29.063  1.00  0.00     0.074 A 
ATOM     35  C   UNL A   1      41.766  27.988  29.602  1.00  0.00     0.049 A 
ATOM     36  N   UNL A   1      39.689  30.163  29.696  1.00  0.00    -0.248 NA
ATOM     37  C   UNL A   1      38.309  28.827  28.363  1.00  0.00     0.031 C 
ATOM     38  C   UNL A   1      42.802  26.958  29.618  1.00  0.00     0.029 A 
ATOM     39  N   UNL A   1      42.283  29.000  30.373  1.00  0.00    -0.354 N 
ATOM     40  C   UNL A   1      38.488  30.824  29.468  1.00  0.00     0.074 A 
ATOM     41  C   UNL A   1      37.689  29.970  28.616  1.00  0.00     0.031 C 
ATOM     42  C   UNL A   1      43.833  27.389  30.366  1.00  0.00     0.029 A 
ATOM     43  C   UNL A   1      43.540  28.736  30.855  1.00  0.00     0.049 A 
ATOM     44  H   UNL A   1      41.797  29.835  30.561  1.00  0.00     0.167 HD
ATOM     45  C   UNL A   1      38.083  32.031  29.928  1.00  0.00     0.031 A 
ATOM     46  C   UNL A   1      44.367  29.499  31.596  1.00  0.00     0.031 A 
ATOM     47  C   UNL A   1      38.876  32.891  30.764  1.00  0.00     0.049 A 
ATOM     48  C   UNL A   1      43.924  30.870  32.033  1.00  0.00     0.074 A 
ATOM     49  C   UNL A   1      38.544  34.128  31.290  1.00  0.00     0.029 A 
ATOM     50  N   UNL A   1      40.163  32.608  31.190  1.00  0.00    -0.354 N 
ATOM     51  N   UNL A   1      42.777  31.473  31.830  1.00  0.00    -0.248 NA
ATOM     52  C   UNL A   1      44.890  31.664  32.805  1.00  0.00     0.031 C 
ATOM     53  C   UNL A   1      39.651  34.615  31.993  1.00  0.00     0.029 A 
ATOM     54  C   UNL A   1      40.651  33.657  31.948  1.00  0.00     0.049 A 
ATOM     55  H   UNL A   1      40.658  31.782  30.983  1.00  0.00     0.167 HD
ATOM     56  C   UNL A   1      42.876  32.702  32.469  1.00  0.00     0.074 A 
ATOM     57  C   UNL A   1      44.188  32.755  33.078  1.00  0.00     0.031 C 
ATOM     58  C   UNL A   1      41.959  33.698  32.547  1.00  0.00     0.031 A 
BRANCH  45  59
ATOM     59  C   UNL A   1      36.722  32.507  29.507  1.00  0.00    -0.014 A 
ATOM     60  C   UNL A   1      35.592  32.281  30.308  1.00  0.00     0.009 A 
ATOM     61  C   UNL A   1      36.575  33.217  28.306  1.00  0.00     0.009 A 
ATOM     62  C   UNL A   1      34.335  32.732  29.898  1.00  0.00     0.001 A 
ATOM     63  C   UNL A   1      35.321  33.688  27.911  1.00  0.00     0.001 A 
ATOM     64  C   UNL A   1      34.202  33.439  28.704  1.00  0.00     0.000 A 
ENDBRANCH  45  59
BRANCH  46  65
ATOM     65  C   UNL A   1      45.718  28.997  31.961  1.00  0.00    -0.014 A 
ATOM     66  C   UNL A   1      45.920  28.283  33.151  1.00  0.00     0.009 A 
ATOM     67  C   UNL A   1      46.818  29.255  31.127  1.00  0.00     0.009 A 
ATOM     68  C   UNL A   1      47.201  27.858  33.512  1.00  0.00     0.001 A 
ATOM     69  C   UNL A   1      48.093  28.806  31.478  1.00  0.00     0.001 A 
ATOM     70  C   UNL A   1      48.285  28.117  32.674  1.00  0.00     0.000 A 
ENDBRANCH  46  65
BRANCH  58  71
ATOM     71  C   UNL A   1      42.331  34.917  33.342  1.00  0.00    -0.014 A 
ATOM     72  C   UNL A   1      43.006  35.995  32.750  1.00  0.00     0.009 A 
ATOM     73  C   UNL A   1      41.960  35.005  34.694  1.00  0.00     0.009 A 
ATOM     74  C   UNL A   1      43.329  37.126  33.506  1.00  0.00     0.001 A 
ATOM     75  C   UNL A   1      42.261  36.146  35.438  1.00  0.00     0.001 A 
ATOM     76  C   UNL A   1      42.953  37.202  34.846  1.00  0.00     0.000 A 
ENDBRANCH  58  71
ENDBRANCH  32  33
ENDBRANCH  25  27
ENDBRANCH  24  25
ENDBRANCH  23  24
ENDBRANCH  22  23
ENDBRANCH   1  22
TORSDOF 17
ENDMDL
