MODEL 1
REMARK VINA RESULT:     -10.8      0.000      0.000
REMARK SMILES Cn1ncc2c(NCCC3=CCCCC3)c(C(=O)OCCOCCOC(=O)c3ccc(-c4c5nc(c(-c6ccccc6)c6ccc([nH]6)c(-c6ccccc6)c6nc(c(-c7ccccc7)c7ccc4[nH]7)C=C6)C=C5)cc3)cnc21
REMARK SMILES IDX 21 1 20 2 19 3 17 4 18 5 16 6 1 7 2 8 3 9 78 10 4 11 5 12
REMARK SMILES IDX 77 13 6 14 76 15 7 16 8 18 9 19 10 20 11 21 15 22 12 23
REMARK SMILES IDX 14 24 13 25 22 26 23 27 24 28 25 29 26 30 27 31 28 32 29 33
REMARK SMILES IDX 75 34 30 35 74 36 31 37 32 38 33 39 68 40 34 41 73 42 67 43
REMARK SMILES IDX 69 44 35 45 72 46 66 47 65 48 36 50 58 51 43 52 57 53 44 54
REMARK SMILES IDX 47 55 56 56 70 57 45 58 46 59 55 61 71 62 48 63 37 64 38 65
REMARK SMILES IDX 42 66 39 67 41 68 40 69 59 70 60 71 64 72 61 73 63 74 62 75
REMARK SMILES IDX 49 76 50 77 54 78 51 79 53 80 52 81
REMARK H PARENT 7 17 69 49 47 60
REMARK Flexibility Score: inf
ROOT
ATOM      1  C   UNL A   1      39.325  22.294  26.137  1.00  0.00     0.202 C 
ENDROOT
BRANCH   1   2
ATOM      2  C   UNL A   1      37.875  21.946  25.796  1.00  0.00     0.261 C 
BRANCH   2   3
ATOM      3  O   UNL A   1      36.932  22.959  26.197  1.00  0.00    -0.460 OA
BRANCH   3   4
ATOM      4  C   UNL A   1      36.217  23.482  25.170  1.00  0.00     0.341 C 
ATOM      5  O   UNL A   1      36.460  23.360  23.981  1.00  0.00    -0.246 OA
BRANCH   4   6
ATOM      6  C   UNL A   1      34.991  24.152  25.634  1.00  0.00     0.102 A 
ATOM      7  C   UNL A   1      30.747  26.993  25.505  1.00  0.00     0.176 C 
ATOM      8  N   UNL A   1      31.338  25.771  25.986  1.00  0.00    -0.250 N 
ATOM      9  N   UNL A   1      30.553  24.838  26.559  1.00  0.00    -0.179 NA
ATOM     10  C   UNL A   1      32.646  25.389  25.857  1.00  0.00     0.159 A 
ATOM     11  C   UNL A   1      31.398  23.826  26.777  1.00  0.00     0.147 A 
ATOM     12  C   UNL A   1      32.724  24.085  26.349  1.00  0.00     0.063 A 
ATOM     13  N   UNL A   1      33.637  26.138  25.330  1.00  0.00    -0.236 NA
ATOM     14  C   UNL A   1      33.963  23.405  26.284  1.00  0.00     0.063 A 
ATOM     15  C   UNL A   1      34.797  25.462  25.219  1.00  0.00     0.131 A 
BRANCH  14  16
ATOM     16  N   UNL A   1      34.256  22.156  26.819  1.00  0.00    -0.383 N 
ATOM     17  H   UNL A   1      34.797  22.180  27.642  1.00  0.00     0.160 HD
BRANCH  16  18
ATOM     18  C   UNL A   1      33.896  20.821  26.370  1.00  0.00     0.117 C 
BRANCH  18  19
ATOM     19  C   UNL A   1      33.754  20.800  24.833  1.00  0.00     0.052 C 
BRANCH  19  20
ATOM     20  C   UNL A   1      33.596  19.396  24.270  1.00  0.00    -0.072 C 
ATOM     21  C   UNL A   1      32.557  19.043  23.491  1.00  0.00    -0.028 C 
ATOM     22  C   UNL A   1      34.671  18.399  24.637  1.00  0.00     0.031 C 
ATOM     23  C   UNL A   1      32.412  17.708  22.830  1.00  0.00     0.027 C 
ATOM     24  C   UNL A   1      34.666  17.128  23.783  1.00  0.00     0.005 C 
ATOM     25  C   UNL A   1      33.253  16.629  23.500  1.00  0.00     0.004 C 
ENDBRANCH  19  20
ENDBRANCH  18  19
ENDBRANCH  16  18
ENDBRANCH  14  16
ENDBRANCH   4   6
ENDBRANCH   3   4
ENDBRANCH   2   3
ENDBRANCH   1   2
BRANCH   1  26
ATOM     26  O   UNL A   1      40.024  21.499  27.095  1.00  0.00    -0.374 OA
BRANCH  26  27
ATOM     27  C   UNL A   1      40.535  20.224  26.727  1.00  0.00     0.202 C 
BRANCH  27  28
ATOM     28  C   UNL A   1      42.036  20.031  26.562  1.00  0.00     0.261 C 
BRANCH  28  29
ATOM     29  O   UNL A   1      42.516  20.521  25.323  1.00  0.00    -0.460 OA
BRANCH  29  30
ATOM     30  C   UNL A   1      43.866  20.608  25.298  1.00  0.00     0.338 C 
ATOM     31  O   UNL A   1      44.669  19.695  25.348  1.00  0.00    -0.246 OA
BRANCH  30  32
ATOM     32  C   UNL A   1      44.256  22.017  25.357  1.00  0.00     0.060 A 
ATOM     33  C   UNL A   1      45.024  22.372  26.467  1.00  0.00     0.016 A 
ATOM     34  C   UNL A   1      43.524  22.950  24.610  1.00  0.00     0.016 A 
ATOM     35  C   UNL A   1      44.827  23.618  27.002  1.00  0.00     0.010 A 
ATOM     36  C   UNL A   1      43.309  24.187  25.161  1.00  0.00     0.010 A 
ATOM     37  C   UNL A   1      43.889  24.460  26.396  1.00  0.00    -0.014 A 
BRANCH  37  38
ATOM     38  C   UNL A   1      43.556  25.672  27.095  1.00  0.00     0.031 A 
ATOM     39  C   UNL A   1      44.524  26.758  26.877  1.00  0.00     0.074 A 
ATOM     40  C   UNL A   1      42.445  25.808  27.833  1.00  0.00     0.049 A 
ATOM     41  N   UNL A   1      45.368  27.239  27.726  1.00  0.00    -0.248 NA
ATOM     42  C   UNL A   1      44.665  27.261  25.505  1.00  0.00     0.031 C 
ATOM     43  C   UNL A   1      41.268  24.941  27.905  1.00  0.00     0.029 A 
ATOM     44  N   UNL A   1      42.113  26.855  28.627  1.00  0.00    -0.354 N 
ATOM     45  C   UNL A   1      46.053  28.228  27.036  1.00  0.00     0.074 A 
ATOM     46  C   UNL A   1      45.702  28.085  25.645  1.00  0.00     0.031 C 
ATOM     47  C   UNL A   1      40.268  25.613  28.527  1.00  0.00     0.029 A 
ATOM     48  C   UNL A   1      40.784  26.885  29.008  1.00  0.00     0.049 A 
ATOM     49  H   UNL A   1      42.764  27.537  28.909  1.00  0.00     0.167 HD
ATOM     50  C   UNL A   1      46.677  29.248  27.678  1.00  0.00     0.031 A 
ATOM     51  C   UNL A   1      40.168  27.937  29.596  1.00  0.00     0.031 A 
ATOM     52  C   UNL A   1      46.896  28.967  29.070  1.00  0.00     0.049 A 
ATOM     53  C   UNL A   1      41.228  28.784  30.202  1.00  0.00     0.074 A 
ATOM     54  C   UNL A   1      47.606  28.007  29.764  1.00  0.00     0.029 A 
ATOM     55  N   UNL A   1      46.017  29.514  29.975  1.00  0.00    -0.354 N 
ATOM     56  N   UNL A   1      41.966  28.407  31.208  1.00  0.00    -0.248 NA
ATOM     57  C   UNL A   1      41.759  29.896  29.426  1.00  0.00     0.031 C 
ATOM     58  C   UNL A   1      46.808  27.707  30.905  1.00  0.00     0.029 A 
ATOM     59  C   UNL A   1      45.674  28.522  30.857  1.00  0.00     0.049 A 
ATOM     60  H   UNL A   1      45.695  30.444  29.986  1.00  0.00     0.167 HD
ATOM     61  C   UNL A   1      43.219  28.950  30.959  1.00  0.00     0.074 A 
ATOM     62  C   UNL A   1      43.002  29.942  29.912  1.00  0.00     0.031 C 
ATOM     63  C   UNL A   1      44.354  28.350  31.425  1.00  0.00     0.031 A 
BRANCH  50  64
ATOM     64  C   UNL A   1      46.734  30.634  27.103  1.00  0.00    -0.014 A 
ATOM     65  C   UNL A   1      47.961  31.312  27.074  1.00  0.00     0.009 A 
ATOM     66  C   UNL A   1      45.579  31.390  26.818  1.00  0.00     0.009 A 
ATOM     67  C   UNL A   1      48.020  32.684  26.803  1.00  0.00     0.001 A 
ATOM     68  C   UNL A   1      45.638  32.746  26.500  1.00  0.00     0.001 A 
ATOM     69  C   UNL A   1      46.860  33.399  26.514  1.00  0.00     0.000 A 
ENDBRANCH  50  64
BRANCH  51  70
ATOM     70  C   UNL A   1      38.787  28.425  29.383  1.00  0.00    -0.014 A 
ATOM     71  C   UNL A   1      37.927  28.608  30.479  1.00  0.00     0.009 A 
ATOM     72  C   UNL A   1      38.395  28.977  28.149  1.00  0.00     0.009 A 
ATOM     73  C   UNL A   1      36.753  29.363  30.357  1.00  0.00     0.001 A 
ATOM     74  C   UNL A   1      37.217  29.721  28.025  1.00  0.00     0.001 A 
ATOM     75  C   UNL A   1      36.406  29.932  29.134  1.00  0.00     0.000 A 
ENDBRANCH  51  70
BRANCH  63  76
ATOM     76  C   UNL A   1      44.201  27.197  32.385  1.00  0.00    -0.014 A 
ATOM     77  C   UNL A   1      44.219  25.859  31.950  1.00  0.00     0.009 A 
ATOM     78  C   UNL A   1      44.266  27.453  33.761  1.00  0.00     0.009 A 
ATOM     79  C   UNL A   1      44.303  24.808  32.869  1.00  0.00     0.001 A 
ATOM     80  C   UNL A   1      44.365  26.403  34.678  1.00  0.00     0.001 A 
ATOM     81  C   UNL A   1      44.387  25.083  34.232  1.00  0.00     0.000 A 
ENDBRANCH  63  76
ENDBRANCH  37  38
ENDBRANCH  30  32
ENDBRANCH  29  30
ENDBRANCH  28  29
ENDBRANCH  27  28
ENDBRANCH  26  27
ENDBRANCH   1  26
TORSDOF 18
ENDMDL
MODEL 2
REMARK VINA RESULT:     -10.6      4.138      9.118
REMARK SMILES Cn1ncc2c(NCCC3=CCCCC3)c(C(=O)OCCOCCOC(=O)c3ccc(-c4c5nc(c(-c6ccccc6)c6ccc([nH]6)c(-c6ccccc6)c6nc(c(-c7ccccc7)c7ccc4[nH]7)C=C6)C=C5)cc3)cnc21
REMARK SMILES IDX 21 1 20 2 19 3 17 4 18 5 16 6 1 7 2 8 3 9 78 10 4 11 5 12
REMARK SMILES IDX 77 13 6 14 76 15 7 16 8 18 9 19 10 20 11 21 15 22 12 23
REMARK SMILES IDX 14 24 13 25 22 26 23 27 24 28 25 29 26 30 27 31 28 32 29 33
REMARK SMILES IDX 75 34 30 35 74 36 31 37 32 38 33 39 68 40 34 41 73 42 67 43
REMARK SMILES IDX 69 44 35 45 72 46 66 47 65 48 36 50 58 51 43 52 57 53 44 54
REMARK SMILES IDX 47 55 56 56 70 57 45 58 46 59 55 61 71 62 48 63 37 64 38 65
REMARK SMILES IDX 42 66 39 67 41 68 40 69 59 70 60 71 64 72 61 73 63 74 62 75
REMARK SMILES IDX 49 76 50 77 54 78 51 79 53 80 52 81
REMARK H PARENT 7 17 69 49 47 60
REMARK Flexibility Score: inf
ROOT
ATOM      1  C   UNL A   1      33.209  29.271  23.923  1.00  0.00     0.202 C 
ENDROOT
BRANCH   1   2
ATOM      2  C   UNL A   1      34.223  28.206  23.501  1.00  0.00     0.261 C 
BRANCH   2   3
ATOM      3  O   UNL A   1      33.819  26.865  23.836  1.00  0.00    -0.460 OA
BRANCH   3   4
ATOM      4  C   UNL A   1      33.490  26.106  22.761  1.00  0.00     0.341 C 
ATOM      5  O   UNL A   1      33.742  26.353  21.594  1.00  0.00    -0.246 OA
BRANCH   4   6
ATOM      6  C   UNL A   1      32.863  24.833  23.154  1.00  0.00     0.102 A 
ATOM      7  C   UNL A   1      32.443  19.979  24.693  1.00  0.00     0.176 C 
ATOM      8  N   UNL A   1      31.927  21.316  24.841  1.00  0.00    -0.250 N 
ATOM      9  N   UNL A   1      31.049  21.579  25.827  1.00  0.00    -0.179 NA
ATOM     10  C   UNL A   1      32.296  22.419  24.120  1.00  0.00     0.159 A 
ATOM     11  C   UNL A   1      30.878  22.901  25.733  1.00  0.00     0.147 A 
ATOM     12  C   UNL A   1      31.638  23.505  24.700  1.00  0.00     0.063 A 
ATOM     13  N   UNL A   1      33.151  22.428  23.076  1.00  0.00    -0.236 NA
ATOM     14  C   UNL A   1      31.882  24.802  24.190  1.00  0.00     0.063 A 
ATOM     15  C   UNL A   1      33.422  23.672  22.636  1.00  0.00     0.131 A 
BRANCH  14  16
ATOM     16  N   UNL A   1      31.241  25.977  24.564  1.00  0.00    -0.383 N 
ATOM     17  H   UNL A   1      31.787  26.791  24.464  1.00  0.00     0.160 HD
BRANCH  16  18
ATOM     18  C   UNL A   1      29.900  26.208  25.076  1.00  0.00     0.117 C 
BRANCH  18  19
ATOM     19  C   UNL A   1      28.891  26.266  23.909  1.00  0.00     0.052 C 
BRANCH  19  20
ATOM     20  C   UNL A   1      28.786  27.649  23.284  1.00  0.00    -0.072 C 
ATOM     21  C   UNL A   1      27.648  28.368  23.310  1.00  0.00    -0.028 C 
ATOM     22  C   UNL A   1      30.032  28.183  22.617  1.00  0.00     0.031 C 
ATOM     23  C   UNL A   1      27.524  29.771  22.804  1.00  0.00     0.027 C 
ATOM     24  C   UNL A   1      29.991  29.685  22.321  1.00  0.00     0.005 C 
ATOM     25  C   UNL A   1      28.625  30.136  21.816  1.00  0.00     0.004 C 
ENDBRANCH  19  20
ENDBRANCH  18  19
ENDBRANCH  16  18
ENDBRANCH  14  16
ENDBRANCH   4   6
ENDBRANCH   3   4
ENDBRANCH   2   3
ENDBRANCH   1   2
BRANCH   1  26
ATOM     26  O   UNL A   1      33.106  29.626  25.302  1.00  0.00    -0.374 OA
BRANCH  26  27
ATOM     27  C   UNL A   1      31.837  29.926  25.869  1.00  0.00     0.202 C 
BRANCH  27  28
ATOM     28  C   UNL A   1      31.686  31.133  26.784  1.00  0.00     0.261 C 
BRANCH  28  29
ATOM     29  O   UNL A   1      32.932  31.683  27.172  1.00  0.00    -0.460 OA
BRANCH  29  30
ATOM     30  C   UNL A   1      32.806  32.945  27.642  1.00  0.00     0.338 C 
ATOM     31  O   UNL A   1      31.953  33.764  27.352  1.00  0.00    -0.246 OA
BRANCH  30  32
ATOM     32  C   UNL A   1      33.969  33.265  28.471  1.00  0.00     0.060 A 
ATOM     33  C   UNL A   1      34.986  33.962  27.818  1.00  0.00     0.016 A 
ATOM     34  C   UNL A   1      34.185  32.525  29.642  1.00  0.00     0.016 A 
ATOM     35  C   UNL A   1      36.279  33.683  28.177  1.00  0.00     0.010 A 
ATOM     36  C   UNL A   1      35.480  32.227  29.983  1.00  0.00     0.010 A 
ATOM     37  C   UNL A   1      36.498  32.735  29.182  1.00  0.00    -0.014 A 
BRANCH  37  38
ATOM     38  C   UNL A   1      37.857  32.313  29.392  1.00  0.00     0.031 A 
ATOM     39  C   UNL A   1      38.065  30.875  29.167  1.00  0.00     0.074 A 
ATOM     40  C   UNL A   1      38.844  33.162  29.716  1.00  0.00     0.049 A 
ATOM     41  N   UNL A   1      38.304  29.968  30.052  1.00  0.00    -0.248 NA
ATOM     42  C   UNL A   1      37.827  30.370  27.808  1.00  0.00     0.031 C 
ATOM     43  C   UNL A   1      38.855  34.624  29.687  1.00  0.00     0.029 A 
ATOM     44  N   UNL A   1      40.115  32.844  30.060  1.00  0.00    -0.354 N 
ATOM     45  C   UNL A   1      38.406  28.782  29.340  1.00  0.00     0.074 A 
ATOM     46  C   UNL A   1      37.942  29.059  28.003  1.00  0.00     0.031 C 
ATOM     47  C   UNL A   1      40.137  35.053  29.787  1.00  0.00     0.029 A 
ATOM     48  C   UNL A   1      41.000  33.906  30.023  1.00  0.00     0.049 A 
ATOM     49  H   UNL A   1      40.387  31.932  30.315  1.00  0.00     0.167 HD
ATOM     50  C   UNL A   1      39.085  27.712  29.823  1.00  0.00     0.031 A 
ATOM     51  C   UNL A   1      42.348  33.799  30.096  1.00  0.00     0.031 A 
ATOM     52  C   UNL A   1      39.304  27.796  31.242  1.00  0.00     0.049 A 
ATOM     53  C   UNL A   1      42.649  32.484  30.719  1.00  0.00     0.074 A 
ATOM     54  C   UNL A   1      38.477  27.856  32.346  1.00  0.00     0.029 A 
ATOM     55  N   UNL A   1      40.538  28.222  31.670  1.00  0.00    -0.354 N 
ATOM     56  N   UNL A   1      42.367  32.189  31.957  1.00  0.00    -0.248 NA
ATOM     57  C   UNL A   1      42.893  31.341  29.850  1.00  0.00     0.031 C 
ATOM     58  C   UNL A   1      39.129  28.744  33.250  1.00  0.00     0.029 A 
ATOM     59  C   UNL A   1      40.326  29.150  32.657  1.00  0.00     0.049 A 
ATOM     60  H   UNL A   1      41.411  27.918  31.331  1.00  0.00     0.167 HD
ATOM     61  C   UNL A   1      42.003  30.850  31.934  1.00  0.00     0.074 A 
ATOM     62  C   UNL A   1      42.450  30.356  30.636  1.00  0.00     0.031 C 
ATOM     63  C   UNL A   1      41.129  30.339  32.851  1.00  0.00     0.031 A 
BRANCH  50  64
ATOM     64  C   UNL A   1      39.865  26.793  28.928  1.00  0.00    -0.014 A 
ATOM     65  C   UNL A   1      41.044  27.259  28.328  1.00  0.00     0.009 A 
ATOM     66  C   UNL A   1      39.350  25.569  28.456  1.00  0.00     0.009 A 
ATOM     67  C   UNL A   1      41.655  26.547  27.289  1.00  0.00     0.001 A 
ATOM     68  C   UNL A   1      39.982  24.832  27.455  1.00  0.00     0.001 A 
ATOM     69  C   UNL A   1      41.125  25.334  26.856  1.00  0.00     0.000 A 
ENDBRANCH  50  64
BRANCH  51  70
ATOM     70  C   UNL A   1      43.369  34.588  29.372  1.00  0.00    -0.014 A 
ATOM     71  C   UNL A   1      43.360  34.634  27.968  1.00  0.00     0.009 A 
ATOM     72  C   UNL A   1      44.181  35.518  30.049  1.00  0.00     0.009 A 
ATOM     73  C   UNL A   1      44.087  35.610  27.273  1.00  0.00     0.001 A 
ATOM     74  C   UNL A   1      44.916  36.484  29.355  1.00  0.00     0.001 A 
ATOM     75  C   UNL A   1      44.852  36.544  27.967  1.00  0.00     0.000 A 
ENDBRANCH  51  70
BRANCH  63  76
ATOM     76  C   UNL A   1      40.724  31.218  34.008  1.00  0.00    -0.014 A 
ATOM     77  C   UNL A   1      41.503  31.317  35.175  1.00  0.00     0.009 A 
ATOM     78  C   UNL A   1      39.670  32.124  33.828  1.00  0.00     0.009 A 
ATOM     79  C   UNL A   1      41.234  32.300  36.134  1.00  0.00     0.001 A 
ATOM     80  C   UNL A   1      39.412  33.114  34.779  1.00  0.00     0.001 A 
ATOM     81  C   UNL A   1      40.195  33.205  35.928  1.00  0.00     0.000 A 
ENDBRANCH  63  76
ENDBRANCH  37  38
ENDBRANCH  30  32
ENDBRANCH  29  30
ENDBRANCH  28  29
ENDBRANCH  27  28
ENDBRANCH  26  27
ENDBRANCH   1  26
TORSDOF 18
ENDMDL
MODEL 3
REMARK VINA RESULT:     -10.5      4.802      9.493
REMARK SMILES Cn1ncc2c(NCCC3=CCCCC3)c(C(=O)OCCOCCOC(=O)c3ccc(-c4c5nc(c(-c6ccccc6)c6ccc([nH]6)c(-c6ccccc6)c6nc(c(-c7ccccc7)c7ccc4[nH]7)C=C6)C=C5)cc3)cnc21
REMARK SMILES IDX 21 1 20 2 19 3 17 4 18 5 16 6 1 7 2 8 3 9 78 10 4 11 5 12
REMARK SMILES IDX 77 13 6 14 76 15 7 16 8 18 9 19 10 20 11 21 15 22 12 23
REMARK SMILES IDX 14 24 13 25 22 26 23 27 24 28 25 29 26 30 27 31 28 32 29 33
REMARK SMILES IDX 75 34 30 35 74 36 31 37 32 38 33 39 68 40 34 41 73 42 67 43
REMARK SMILES IDX 69 44 35 45 72 46 66 47 65 48 36 50 58 51 43 52 57 53 44 54
REMARK SMILES IDX 47 55 56 56 70 57 45 58 46 59 55 61 71 62 48 63 37 64 38 65
REMARK SMILES IDX 42 66 39 67 41 68 40 69 59 70 60 71 64 72 61 73 63 74 62 75
REMARK SMILES IDX 49 76 50 77 54 78 51 79 53 80 52 81
REMARK H PARENT 7 17 69 49 47 60
REMARK Flexibility Score: inf
ROOT
ATOM      1  C   UNL A   1      34.136  32.003  28.046  1.00  0.00     0.202 C 
ENDROOT
BRANCH   1   2
ATOM      2  C   UNL A   1      34.539  30.636  27.489  1.00  0.00     0.261 C 
BRANCH   2   3
ATOM      3  O   UNL A   1      33.435  29.718  27.369  1.00  0.00    -0.460 OA
BRANCH   3   4
ATOM      4  C   UNL A   1      33.420  29.028  26.200  1.00  0.00     0.341 C 
ATOM      5  O   UNL A   1      34.281  28.264  25.799  1.00  0.00    -0.246 OA
BRANCH   4   6
ATOM      6  C   UNL A   1      32.154  29.205  25.471  1.00  0.00     0.102 A 
ATOM      7  C   UNL A   1      28.539  31.429  22.626  1.00  0.00     0.176 C 
ATOM      8  N   UNL A   1      29.272  30.213  22.868  1.00  0.00    -0.250 N 
ATOM      9  N   UNL A   1      29.149  29.185  22.007  1.00  0.00    -0.179 NA
ATOM     10  C   UNL A   1      30.181  29.991  23.868  1.00  0.00     0.159 A 
ATOM     11  C   UNL A   1      30.029  28.294  22.474  1.00  0.00     0.147 A 
ATOM     12  C   UNL A   1      30.729  28.731  23.626  1.00  0.00     0.063 A 
ATOM     13  N   UNL A   1      30.484  30.852  24.861  1.00  0.00    -0.236 NA
ATOM     14  C   UNL A   1      31.754  28.259  24.480  1.00  0.00     0.063 A 
ATOM     15  C   UNL A   1      31.500  30.420  25.632  1.00  0.00     0.131 A 
BRANCH  14  16
ATOM     16  N   UNL A   1      32.337  26.997  24.461  1.00  0.00    -0.383 N 
ATOM     17  H   UNL A   1      33.281  26.986  24.180  1.00  0.00     0.160 HD
BRANCH  16  18
ATOM     18  C   UNL A   1      31.788  25.691  24.789  1.00  0.00     0.117 C 
BRANCH  18  19
ATOM     19  C   UNL A   1      32.095  25.342  26.261  1.00  0.00     0.052 C 
BRANCH  19  20
ATOM     20  C   UNL A   1      33.094  24.204  26.405  1.00  0.00    -0.072 C 
ATOM     21  C   UNL A   1      34.340  24.270  25.900  1.00  0.00    -0.028 C 
ATOM     22  C   UNL A   1      32.615  22.977  27.145  1.00  0.00     0.031 C 
ATOM     23  C   UNL A   1      35.391  23.223  26.106  1.00  0.00     0.027 C 
ATOM     24  C   UNL A   1      33.734  22.022  27.569  1.00  0.00     0.005 C 
ATOM     25  C   UNL A   1      34.803  21.872  26.491  1.00  0.00     0.004 C 
ENDBRANCH  19  20
ENDBRANCH  18  19
ENDBRANCH  16  18
ENDBRANCH  14  16
ENDBRANCH   4   6
ENDBRANCH   3   4
ENDBRANCH   2   3
ENDBRANCH   1   2
BRANCH   1  26
ATOM     26  O   UNL A   1      34.932  33.145  27.729  1.00  0.00    -0.374 OA
BRANCH  26  27
ATOM     27  C   UNL A   1      34.825  34.328  28.510  1.00  0.00     0.202 C 
BRANCH  27  28
ATOM     28  C   UNL A   1      33.623  34.525  29.422  1.00  0.00     0.261 C 
BRANCH  28  29
ATOM     29  O   UNL A   1      33.873  35.455  30.461  1.00  0.00    -0.460 OA
BRANCH  29  30
ATOM     30  C   UNL A   1      33.389  35.031  31.651  1.00  0.00     0.338 C 
ATOM     31  O   UNL A   1      32.288  35.246  32.124  1.00  0.00    -0.246 OA
BRANCH  30  32
ATOM     32  C   UNL A   1      34.463  34.374  32.397  1.00  0.00     0.060 A 
ATOM     33  C   UNL A   1      35.624  35.132  32.553  1.00  0.00     0.016 A 
ATOM     34  C   UNL A   1      34.446  32.977  32.511  1.00  0.00     0.016 A 
ATOM     35  C   UNL A   1      36.823  34.467  32.537  1.00  0.00     0.010 A 
ATOM     36  C   UNL A   1      35.647  32.315  32.469  1.00  0.00     0.010 A 
ATOM     37  C   UNL A   1      36.808  33.077  32.385  1.00  0.00    -0.014 A 
BRANCH  37  38
ATOM     38  C   UNL A   1      38.075  32.434  32.165  1.00  0.00     0.031 A 
ATOM     39  C   UNL A   1      38.963  32.472  33.336  1.00  0.00     0.074 A 
ATOM     40  C   UNL A   1      38.393  31.818  31.016  1.00  0.00     0.049 A 
ATOM     41  N   UNL A   1      40.044  33.162  33.480  1.00  0.00    -0.248 NA
ATOM     42  C   UNL A   1      38.506  31.773  34.544  1.00  0.00     0.031 C 
ATOM     43  C   UNL A   1      37.530  31.447  29.894  1.00  0.00     0.029 A 
ATOM     44  N   UNL A   1      39.597  31.303  30.670  1.00  0.00    -0.354 N 
ATOM     45  C   UNL A   1      40.499  32.862  34.755  1.00  0.00     0.074 A 
ATOM     46  C   UNL A   1      39.438  32.145  35.418  1.00  0.00     0.031 C 
ATOM     47  C   UNL A   1      38.197  30.576  29.099  1.00  0.00     0.029 A 
ATOM     48  C   UNL A   1      39.562  30.446  29.585  1.00  0.00     0.049 A 
ATOM     49  H   UNL A   1      40.428  31.521  31.151  1.00  0.00     0.167 HD
ATOM     50  C   UNL A   1      41.801  33.013  35.105  1.00  0.00     0.031 A 
ATOM     51  C   UNL A   1      40.578  29.638  29.200  1.00  0.00     0.031 A 
ATOM     52  C   UNL A   1      42.518  33.866  34.197  1.00  0.00     0.049 A 
ATOM     53  C   UNL A   1      41.826  30.194  29.783  1.00  0.00     0.074 A 
ATOM     54  C   UNL A   1      42.399  35.186  33.811  1.00  0.00     0.029 A 
ATOM     55  N   UNL A   1      43.297  33.261  33.239  1.00  0.00    -0.354 N 
ATOM     56  N   UNL A   1      42.345  31.335  29.426  1.00  0.00    -0.248 NA
ATOM     57  C   UNL A   1      42.285  29.679  31.066  1.00  0.00     0.031 C 
ATOM     58  C   UNL A   1      42.715  35.197  32.422  1.00  0.00     0.029 A 
ATOM     59  C   UNL A   1      43.038  33.890  32.049  1.00  0.00     0.049 A 
ATOM     60  H   UNL A   1      43.925  32.516  33.383  1.00  0.00     0.167 HD
ATOM     61  C   UNL A   1      42.872  31.872  30.592  1.00  0.00     0.074 A 
ATOM     62  C   UNL A   1      42.902  30.764  31.541  1.00  0.00     0.031 C 
ATOM     63  C   UNL A   1      42.973  33.223  30.766  1.00  0.00     0.031 A 
BRANCH  50  64
ATOM     64  C   UNL A   1      42.484  32.074  36.058  1.00  0.00    -0.014 A 
ATOM     65  C   UNL A   1      43.338  32.597  37.040  1.00  0.00     0.009 A 
ATOM     66  C   UNL A   1      42.511  30.678  35.865  1.00  0.00     0.009 A 
ATOM     67  C   UNL A   1      44.195  31.763  37.768  1.00  0.00     0.001 A 
ATOM     68  C   UNL A   1      43.327  29.839  36.621  1.00  0.00     0.001 A 
ATOM     69  C   UNL A   1      44.187  30.386  37.559  1.00  0.00     0.000 A 
ENDBRANCH  50  64
BRANCH  51  70
ATOM     70  C   UNL A   1      40.498  28.263  28.657  1.00  0.00    -0.014 A 
ATOM     71  C   UNL A   1      39.814  27.263  29.369  1.00  0.00     0.009 A 
ATOM     72  C   UNL A   1      40.845  27.989  27.321  1.00  0.00     0.009 A 
ATOM     73  C   UNL A   1      39.441  26.063  28.749  1.00  0.00     0.001 A 
ATOM     74  C   UNL A   1      40.483  26.786  26.706  1.00  0.00     0.001 A 
ATOM     75  C   UNL A   1      39.762  25.831  27.414  1.00  0.00     0.000 A 
ENDBRANCH  51  70
BRANCH  63  76
ATOM     76  C   UNL A   1      42.684  34.111  29.582  1.00  0.00    -0.014 A 
ATOM     77  C   UNL A   1      41.411  34.669  29.363  1.00  0.00     0.009 A 
ATOM     78  C   UNL A   1      43.758  34.571  28.808  1.00  0.00     0.009 A 
ATOM     79  C   UNL A   1      41.222  35.663  28.396  1.00  0.00     0.001 A 
ATOM     80  C   UNL A   1      43.571  35.574  27.853  1.00  0.00     0.001 A 
ATOM     81  C   UNL A   1      42.306  36.121  27.650  1.00  0.00     0.000 A 
ENDBRANCH  63  76
ENDBRANCH  37  38
ENDBRANCH  30  32
ENDBRANCH  29  30
ENDBRANCH  28  29
ENDBRANCH  27  28
ENDBRANCH  26  27
ENDBRANCH   1  26
TORSDOF 18
ENDMDL
