MODEL 1
REMARK VINA RESULT:     -12.3      0.000      0.000
REMARK SMILES CC1=Nc2c(c(C)nn2-c2ccc(F)cc2)[C@H](c2ccc(C(=O)OCCOCCOC(=O)c3ccc(-c4c5nc(c(-c6ccccc6)c6ccc([nH]6)c(-c6ccccc6)c6nc(c(-c7ccccc7)c7ccc4[nH]7)C=C6)C=C5)cc3)cc2)S1
REMARK SMILES IDX 27 1 26 2 25 3 24 4 22 5 23 6 21 7 18 8 19 9 82 10 20 11
REMARK SMILES IDX 81 12 17 13 1 14 2 15 3 16 83 17 4 18 5 19 9 20 6 21 8 22
REMARK SMILES IDX 7 23 10 24 11 25 16 26 12 27 15 28 13 29 14 30 28 31 29 32
REMARK SMILES IDX 30 33 31 34 32 35 33 36 34 37 80 38 35 39 79 40 36 41 37 42
REMARK SMILES IDX 38 43 73 44 39 45 78 46 72 47 74 48 40 49 77 50 71 51 70 52
REMARK SMILES IDX 41 54 63 55 48 56 62 57 49 58 52 59 61 60 75 61 50 62 51 63
REMARK SMILES IDX 60 65 76 66 53 67 42 68 43 69 47 70 44 71 46 72 45 73 64 74
REMARK SMILES IDX 65 75 69 76 66 77 68 78 67 79 54 80 55 81 59 82 56 83 58 84
REMARK SMILES IDX 57 85
REMARK H PARENT 74 53 52 64
REMARK Flexibility Score: inf
ROOT
ATOM      1  O   UNL A   1      41.545  19.330  25.766  1.00  0.00    -0.374 OA
ENDROOT
BRANCH   1   2
ATOM      2  C   UNL A   1      40.774  20.011  26.755  1.00  0.00     0.202 C 
BRANCH   2   3
ATOM      3  C   UNL A   1      40.183  21.388  26.444  1.00  0.00     0.261 C 
BRANCH   3   4
ATOM      4  O   UNL A   1      38.894  21.320  25.812  1.00  0.00    -0.460 OA
BRANCH   4   5
ATOM      5  C   UNL A   1      38.215  22.491  25.865  1.00  0.00     0.338 C 
ATOM      6  O   UNL A   1      38.651  23.569  26.239  1.00  0.00    -0.246 OA
BRANCH   5   7
ATOM      7  C   UNL A   1      36.881  22.383  25.237  1.00  0.00     0.060 A 
ATOM      8  C   UNL A   1      34.259  22.577  24.208  1.00  0.00    -0.030 A 
ATOM      9  C   UNL A   1      35.254  23.500  23.844  1.00  0.00     0.006 A 
ATOM     10  C   UNL A   1      34.642  21.491  25.024  1.00  0.00     0.006 A 
ATOM     11  C   UNL A   1      36.549  23.399  24.340  1.00  0.00     0.016 A 
ATOM     12  C   UNL A   1      35.944  21.397  25.547  1.00  0.00     0.016 A 
BRANCH   8  13
ATOM     13  C   UNL A   1      32.827  22.879  23.778  1.00  0.00     0.119 C 
ATOM     14  C   UNL A   1      32.950  24.986  20.210  1.00  0.00     0.075 C 
ATOM     15  C   UNL A   1      32.604  24.622  21.630  1.00  0.00     0.074 C 
ATOM     16  N   UNL A   1      32.363  25.593  22.453  1.00  0.00    -0.227 NA
ATOM     17  S   UNL A   1      32.569  22.902  21.976  1.00  0.00    -0.098 SA
ATOM     18  C   UNL A   1      32.135  25.292  23.753  1.00  0.00     0.161 A 
ATOM     19  C   UNL A   1      32.379  24.124  24.441  1.00  0.00     0.038 A 
ATOM     20  N   UNL A   1      31.654  26.201  24.681  1.00  0.00    -0.215 N 
ATOM     21  C   UNL A   1      32.026  24.420  25.787  1.00  0.00     0.067 A 
ATOM     22  N   UNL A   1      31.716  25.713  25.945  1.00  0.00    -0.171 NA
ATOM     23  C   UNL A   1      31.974  23.521  26.969  1.00  0.00     0.069 C 
BRANCH  20  24
ATOM     24  C   UNL A   1      31.136  27.490  24.423  1.00  0.00     0.067 A 
ATOM     25  C   UNL A   1      31.723  28.613  25.026  1.00  0.00     0.031 A 
ATOM     26  C   UNL A   1      30.025  27.628  23.584  1.00  0.00     0.031 A 
ATOM     27  C   UNL A   1      31.178  29.876  24.805  1.00  0.00     0.041 A 
ATOM     28  C   UNL A   1      29.453  28.889  23.414  1.00  0.00     0.041 A 
ATOM     29  C   UNL A   1      30.035  29.999  24.023  1.00  0.00     0.123 A 
ATOM     30  F   UNL A   1      29.481  31.207  23.856  1.00  0.00    -0.207 F 
ENDBRANCH  20  24
ENDBRANCH   8  13
ENDBRANCH   5   7
ENDBRANCH   4   5
ENDBRANCH   3   4
ENDBRANCH   2   3
ENDBRANCH   1   2
BRANCH   1  31
ATOM     31  C   UNL A   1      42.546  18.386  26.132  1.00  0.00     0.202 C 
BRANCH  31  32
ATOM     32  C   UNL A   1      43.956  18.551  25.582  1.00  0.00     0.261 C 
BRANCH  32  33
ATOM     33  O   UNL A   1      44.289  19.915  25.422  1.00  0.00    -0.460 OA
BRANCH  33  34
ATOM     34  C   UNL A   1      44.577  20.258  24.144  1.00  0.00     0.338 C 
ATOM     35  O   UNL A   1      44.543  19.548  23.160  1.00  0.00    -0.246 OA
BRANCH  34  36
ATOM     36  C   UNL A   1      45.063  21.644  24.140  1.00  0.00     0.060 A 
ATOM     37  C   UNL A   1      46.176  21.875  24.953  1.00  0.00     0.016 A 
ATOM     38  C   UNL A   1      44.150  22.649  23.804  1.00  0.00     0.016 A 
ATOM     39  C   UNL A   1      46.160  23.000  25.737  1.00  0.00     0.010 A 
ATOM     40  C   UNL A   1      44.106  23.742  24.621  1.00  0.00     0.010 A 
ATOM     41  C   UNL A   1      45.046  23.835  25.646  1.00  0.00    -0.014 A 
BRANCH  41  42
ATOM     42  C   UNL A   1      44.872  24.868  26.635  1.00  0.00     0.031 A 
ATOM     43  C   UNL A   1      45.988  25.833  26.620  1.00  0.00     0.074 A 
ATOM     44  C   UNL A   1      43.731  24.976  27.340  1.00  0.00     0.049 A 
ATOM     45  N   UNL A   1      46.923  25.972  27.498  1.00  0.00    -0.248 NA
ATOM     46  C   UNL A   1      46.224  26.563  25.360  1.00  0.00     0.031 C 
ATOM     47  C   UNL A   1      42.477  24.231  27.181  1.00  0.00     0.029 A 
ATOM     48  N   UNL A   1      43.416  25.889  28.288  1.00  0.00    -0.354 N 
ATOM     49  C   UNL A   1      47.752  26.958  26.978  1.00  0.00     0.074 A 
ATOM     50  C   UNL A   1      47.439  27.056  25.579  1.00  0.00     0.031 C 
ATOM     51  C   UNL A   1      41.485  24.892  27.823  1.00  0.00     0.029 A 
ATOM     52  C   UNL A   1      42.057  26.028  28.527  1.00  0.00     0.049 A 
ATOM     53  H   UNL A   1      44.097  26.413  28.769  1.00  0.00     0.167 HD
ATOM     54  C   UNL A   1      48.381  27.856  27.781  1.00  0.00     0.031 A 
ATOM     55  C   UNL A   1      41.466  27.062  29.180  1.00  0.00     0.031 A 
ATOM     56  C   UNL A   1      48.388  27.421  29.153  1.00  0.00     0.049 A 
ATOM     57  C   UNL A   1      42.533  27.785  29.920  1.00  0.00     0.074 A 
ATOM     58  C   UNL A   1      48.920  26.337  29.821  1.00  0.00     0.029 A 
ATOM     59  N   UNL A   1      47.411  27.938  29.973  1.00  0.00    -0.354 N 
ATOM     60  N   UNL A   1      43.176  27.271  30.929  1.00  0.00    -0.248 NA
ATOM     61  C   UNL A   1      43.227  28.863  29.228  1.00  0.00     0.031 C 
ATOM     62  C   UNL A   1      47.938  25.984  30.793  1.00  0.00     0.029 A 
ATOM     63  C   UNL A   1      46.894  26.910  30.719  1.00  0.00     0.049 A 
ATOM     64  H   UNL A   1      47.134  28.881  30.017  1.00  0.00     0.167 HD
ATOM     65  C   UNL A   1      44.502  27.639  30.736  1.00  0.00     0.074 A 
ATOM     66  C   UNL A   1      44.459  28.694  29.722  1.00  0.00     0.031 C 
ATOM     67  C   UNL A   1      45.525  26.853  31.186  1.00  0.00     0.031 A 
BRANCH  54  68
ATOM     68  C   UNL A   1      48.574  29.301  27.387  1.00  0.00    -0.014 A 
ATOM     69  C   UNL A   1      49.877  29.822  27.378  1.00  0.00     0.009 A 
ATOM     70  C   UNL A   1      47.524  30.236  27.274  1.00  0.00     0.009 A 
ATOM     71  C   UNL A   1      50.107  31.201  27.327  1.00  0.00     0.001 A 
ATOM     72  C   UNL A   1      47.749  31.609  27.178  1.00  0.00     0.001 A 
ATOM     73  C   UNL A   1      49.043  32.094  27.233  1.00  0.00     0.000 A 
ENDBRANCH  54  68
BRANCH  55  74
ATOM     74  C   UNL A   1      40.131  27.657  28.940  1.00  0.00    -0.014 A 
ATOM     75  C   UNL A   1      39.154  27.688  29.949  1.00  0.00     0.009 A 
ATOM     76  C   UNL A   1      39.902  28.434  27.789  1.00  0.00     0.009 A 
ATOM     77  C   UNL A   1      38.003  28.482  29.816  1.00  0.00     0.001 A 
ATOM     78  C   UNL A   1      38.756  29.226  27.656  1.00  0.00     0.001 A 
ATOM     79  C   UNL A   1      37.811  29.259  28.676  1.00  0.00     0.000 A 
ENDBRANCH  55  74
BRANCH  67  80
ATOM     80  C   UNL A   1      45.166  25.670  32.058  1.00  0.00    -0.014 A 
ATOM     81  C   UNL A   1      45.112  25.739  33.463  1.00  0.00     0.009 A 
ATOM     82  C   UNL A   1      44.707  24.502  31.435  1.00  0.00     0.009 A 
ATOM     83  C   UNL A   1      44.636  24.660  34.218  1.00  0.00     0.001 A 
ATOM     84  C   UNL A   1      44.213  23.434  32.185  1.00  0.00     0.001 A 
ATOM     85  C   UNL A   1      44.180  23.511  33.577  1.00  0.00     0.000 A 
ENDBRANCH  67  80
ENDBRANCH  41  42
ENDBRANCH  34  36
ENDBRANCH  33  34
ENDBRANCH  32  33
ENDBRANCH  31  32
ENDBRANCH   1  31
TORSDOF 16
ENDMDL
MODEL 2
REMARK VINA RESULT:     -11.2      4.749      9.013
REMARK SMILES CC1=Nc2c(c(C)nn2-c2ccc(F)cc2)[C@H](c2ccc(C(=O)OCCOCCOC(=O)c3ccc(-c4c5nc(c(-c6ccccc6)c6ccc([nH]6)c(-c6ccccc6)c6nc(c(-c7ccccc7)c7ccc4[nH]7)C=C6)C=C5)cc3)cc2)S1
REMARK SMILES IDX 27 1 26 2 25 3 24 4 22 5 23 6 21 7 18 8 19 9 82 10 20 11
REMARK SMILES IDX 81 12 17 13 1 14 2 15 3 16 83 17 4 18 5 19 9 20 6 21 8 22
REMARK SMILES IDX 7 23 10 24 11 25 16 26 12 27 15 28 13 29 14 30 28 31 29 32
REMARK SMILES IDX 30 33 31 34 32 35 33 36 34 37 80 38 35 39 79 40 36 41 37 42
REMARK SMILES IDX 38 43 73 44 39 45 78 46 72 47 74 48 40 49 77 50 71 51 70 52
REMARK SMILES IDX 41 54 63 55 48 56 62 57 49 58 52 59 61 60 75 61 50 62 51 63
REMARK SMILES IDX 60 65 76 66 53 67 42 68 43 69 47 70 44 71 46 72 45 73 64 74
REMARK SMILES IDX 65 75 69 76 66 77 68 78 67 79 54 80 55 81 59 82 56 83 58 84
REMARK SMILES IDX 57 85
REMARK H PARENT 74 53 52 64
REMARK Flexibility Score: inf
ROOT
ATOM      1  O   UNL A   1      41.258  30.716  34.206  1.00  0.00    -0.374 OA
ENDROOT
BRANCH   1   2
ATOM      2  C   UNL A   1      40.395  31.182  35.242  1.00  0.00     0.202 C 
BRANCH   2   3
ATOM      3  C   UNL A   1      38.995  30.583  35.391  1.00  0.00     0.261 C 
BRANCH   3   4
ATOM      4  O   UNL A   1      38.190  30.723  34.207  1.00  0.00    -0.460 OA
BRANCH   4   5
ATOM      5  C   UNL A   1      37.412  31.832  34.223  1.00  0.00     0.338 C 
ATOM      6  O   UNL A   1      37.098  32.487  35.205  1.00  0.00    -0.246 OA
BRANCH   5   7
ATOM      7  C   UNL A   1      37.099  32.304  32.857  1.00  0.00     0.060 A 
ATOM      8  C   UNL A   1      36.535  32.782  30.133  1.00  0.00    -0.030 A 
ATOM      9  C   UNL A   1      35.712  31.950  30.911  1.00  0.00     0.006 A 
ATOM     10  C   UNL A   1      37.592  33.451  30.785  1.00  0.00     0.006 A 
ATOM     11  C   UNL A   1      35.981  31.723  32.256  1.00  0.00     0.016 A 
ATOM     12  C   UNL A   1      37.883  33.206  32.140  1.00  0.00     0.016 A 
BRANCH   8  13
ATOM     13  C   UNL A   1      36.282  32.814  28.628  1.00  0.00     0.119 C 
ATOM     14  C   UNL A   1      32.432  34.205  27.979  1.00  0.00     0.075 C 
ATOM     15  C   UNL A   1      33.653  33.326  27.905  1.00  0.00     0.074 C 
ATOM     16  N   UNL A   1      33.465  32.058  27.720  1.00  0.00    -0.227 NA
ATOM     17  S   UNL A   1      35.187  34.159  28.075  1.00  0.00    -0.098 SA
ATOM     18  C   UNL A   1      34.543  31.239  27.737  1.00  0.00     0.161 A 
ATOM     19  C   UNL A   1      35.821  31.477  28.191  1.00  0.00     0.038 A 
ATOM     20  N   UNL A   1      34.508  29.913  27.340  1.00  0.00    -0.215 N 
ATOM     21  C   UNL A   1      36.493  30.232  28.041  1.00  0.00     0.067 A 
ATOM     22  N   UNL A   1      35.656  29.262  27.651  1.00  0.00    -0.171 NA
ATOM     23  C   UNL A   1      37.923  29.899  28.263  1.00  0.00     0.069 C 
BRANCH  20  24
ATOM     24  C   UNL A   1      33.452  29.248  26.677  1.00  0.00     0.067 A 
ATOM     25  C   UNL A   1      32.484  28.556  27.422  1.00  0.00     0.031 A 
ATOM     26  C   UNL A   1      33.397  29.269  25.279  1.00  0.00     0.031 A 
ATOM     27  C   UNL A   1      31.472  27.863  26.761  1.00  0.00     0.041 A 
ATOM     28  C   UNL A   1      32.414  28.526  24.626  1.00  0.00     0.041 A 
ATOM     29  C   UNL A   1      31.461  27.834  25.371  1.00  0.00     0.123 A 
ATOM     30  F   UNL A   1      30.520  27.123  24.737  1.00  0.00    -0.207 F 
ENDBRANCH  20  24
ENDBRANCH   8  13
ENDBRANCH   5   7
ENDBRANCH   4   5
ENDBRANCH   3   4
ENDBRANCH   2   3
ENDBRANCH   1   2
BRANCH   1  31
ATOM     31  C   UNL A   1      42.598  31.188  34.096  1.00  0.00     0.202 C 
BRANCH  31  32
ATOM     32  C   UNL A   1      42.843  32.632  33.681  1.00  0.00     0.261 C 
BRANCH  32  33
ATOM     33  O   UNL A   1      43.022  32.741  32.282  1.00  0.00    -0.460 OA
BRANCH  33  34
ATOM     34  C   UNL A   1      41.926  33.195  31.630  1.00  0.00     0.338 C 
ATOM     35  O   UNL A   1      41.227  34.144  31.924  1.00  0.00    -0.246 OA
BRANCH  34  36
ATOM     36  C   UNL A   1      41.630  32.267  30.529  1.00  0.00     0.060 A 
ATOM     37  C   UNL A   1      40.603  31.358  30.793  1.00  0.00     0.016 A 
ATOM     38  C   UNL A   1      42.651  32.010  29.609  1.00  0.00     0.016 A 
ATOM     39  C   UNL A   1      40.811  30.052  30.431  1.00  0.00     0.010 A 
ATOM     40  C   UNL A   1      42.884  30.703  29.294  1.00  0.00     0.010 A 
ATOM     41  C   UNL A   1      42.021  29.738  29.810  1.00  0.00    -0.014 A 
BRANCH  41  42
ATOM     42  C   UNL A   1      42.383  28.352  29.661  1.00  0.00     0.031 A 
ATOM     43  C   UNL A   1      43.065  27.832  30.861  1.00  0.00     0.074 A 
ATOM     44  C   UNL A   1      41.973  27.633  28.600  1.00  0.00     0.049 A 
ATOM     45  N   UNL A   1      44.313  27.531  30.992  1.00  0.00    -0.248 NA
ATOM     46  C   UNL A   1      42.317  27.885  32.132  1.00  0.00     0.031 C 
ATOM     47  C   UNL A   1      41.043  28.016  27.532  1.00  0.00     0.029 A 
ATOM     48  N   UNL A   1      42.220  26.331  28.326  1.00  0.00    -0.354 N 
ATOM     49  C   UNL A   1      44.450  27.164  32.325  1.00  0.00     0.074 A 
ATOM     50  C   UNL A   1      43.294  27.675  33.008  1.00  0.00     0.031 C 
ATOM     51  C   UNL A   1      40.622  26.900  26.890  1.00  0.00     0.029 A 
ATOM     52  C   UNL A   1      41.341  25.753  27.421  1.00  0.00     0.049 A 
ATOM     53  H   UNL A   1      42.965  25.833  28.735  1.00  0.00     0.167 HD
ATOM     54  C   UNL A   1      45.310  26.184  32.709  1.00  0.00     0.031 A 
ATOM     55  C   UNL A   1      41.173  24.422  27.214  1.00  0.00     0.031 A 
ATOM     56  C   UNL A   1      46.270  25.892  31.677  1.00  0.00     0.049 A 
ATOM     57  C   UNL A   1      42.345  23.730  27.813  1.00  0.00     0.074 A 
ATOM     58  C   UNL A   1      47.259  26.616  31.041  1.00  0.00     0.029 A 
ATOM     59  N   UNL A   1      45.998  24.816  30.862  1.00  0.00    -0.354 N 
ATOM     60  N   UNL A   1      43.555  23.841  27.344  1.00  0.00    -0.248 NA
ATOM     61  C   UNL A   1      42.256  23.334  29.213  1.00  0.00     0.031 C 
ATOM     62  C   UNL A   1      47.208  26.196  29.680  1.00  0.00     0.029 A 
ATOM     63  C   UNL A   1      46.246  25.189  29.567  1.00  0.00     0.049 A 
ATOM     64  H   UNL A   1      45.682  23.932  31.160  1.00  0.00     0.167 HD
ATOM     65  C   UNL A   1      44.365  23.961  28.467  1.00  0.00     0.074 A 
ATOM     66  C   UNL A   1      43.521  23.552  29.590  1.00  0.00     0.031 C 
ATOM     67  C   UNL A   1      45.536  24.664  28.419  1.00  0.00     0.031 A 
BRANCH  54  68
ATOM     68  C   UNL A   1      44.988  25.210  33.817  1.00  0.00    -0.014 A 
ATOM     69  C   UNL A   1      45.861  25.133  34.912  1.00  0.00     0.009 A 
ATOM     70  C   UNL A   1      44.017  24.192  33.715  1.00  0.00     0.009 A 
ATOM     71  C   UNL A   1      45.804  24.062  35.811  1.00  0.00     0.001 A 
ATOM     72  C   UNL A   1      43.927  23.146  34.633  1.00  0.00     0.001 A 
ATOM     73  C   UNL A   1      44.842  23.067  35.668  1.00  0.00     0.000 A 
ENDBRANCH  54  68
BRANCH  55  74
ATOM     74  C   UNL A   1      39.934  23.698  26.846  1.00  0.00    -0.014 A 
ATOM     75  C   UNL A   1      38.724  24.381  26.641  1.00  0.00     0.009 A 
ATOM     76  C   UNL A   1      39.998  22.353  26.439  1.00  0.00     0.009 A 
ATOM     77  C   UNL A   1      37.629  23.744  26.035  1.00  0.00     0.001 A 
ATOM     78  C   UNL A   1      38.908  21.718  25.834  1.00  0.00     0.001 A 
ATOM     79  C   UNL A   1      37.726  22.418  25.622  1.00  0.00     0.000 A 
ENDBRANCH  55  74
BRANCH  67  80
ATOM     80  C   UNL A   1      46.007  25.147  27.065  1.00  0.00    -0.014 A 
ATOM     81  C   UNL A   1      45.411  26.224  26.382  1.00  0.00     0.009 A 
ATOM     82  C   UNL A   1      47.190  24.606  26.544  1.00  0.00     0.009 A 
ATOM     83  C   UNL A   1      45.972  26.724  25.201  1.00  0.00     0.001 A 
ATOM     84  C   UNL A   1      47.761  25.118  25.378  1.00  0.00     0.001 A 
ATOM     85  C   UNL A   1      47.151  26.175  24.704  1.00  0.00     0.000 A 
ENDBRANCH  67  80
ENDBRANCH  41  42
ENDBRANCH  34  36
ENDBRANCH  33  34
ENDBRANCH  32  33
ENDBRANCH  31  32
ENDBRANCH   1  31
TORSDOF 16
ENDMDL
MODEL 3
REMARK VINA RESULT:     -11.2      4.319      8.807
REMARK SMILES CC1=Nc2c(c(C)nn2-c2ccc(F)cc2)[C@H](c2ccc(C(=O)OCCOCCOC(=O)c3ccc(-c4c5nc(c(-c6ccccc6)c6ccc([nH]6)c(-c6ccccc6)c6nc(c(-c7ccccc7)c7ccc4[nH]7)C=C6)C=C5)cc3)cc2)S1
REMARK SMILES IDX 27 1 26 2 25 3 24 4 22 5 23 6 21 7 18 8 19 9 82 10 20 11
REMARK SMILES IDX 81 12 17 13 1 14 2 15 3 16 83 17 4 18 5 19 9 20 6 21 8 22
REMARK SMILES IDX 7 23 10 24 11 25 16 26 12 27 15 28 13 29 14 30 28 31 29 32
REMARK SMILES IDX 30 33 31 34 32 35 33 36 34 37 80 38 35 39 79 40 36 41 37 42
REMARK SMILES IDX 38 43 73 44 39 45 78 46 72 47 74 48 40 49 77 50 71 51 70 52
REMARK SMILES IDX 41 54 63 55 48 56 62 57 49 58 52 59 61 60 75 61 50 62 51 63
REMARK SMILES IDX 60 65 76 66 53 67 42 68 43 69 47 70 44 71 46 72 45 73 64 74
REMARK SMILES IDX 65 75 69 76 66 77 68 78 67 79 54 80 55 81 59 82 56 83 58 84
REMARK SMILES IDX 57 85
REMARK H PARENT 74 53 52 64
REMARK Flexibility Score: inf
ROOT
ATOM      1  O   UNL A   1      33.078  32.425  27.625  1.00  0.00    -0.374 OA
ENDROOT
BRANCH   1   2
ATOM      2  C   UNL A   1      33.078  31.042  27.276  1.00  0.00     0.202 C 
BRANCH   2   3
ATOM      3  C   UNL A   1      31.796  30.389  26.756  1.00  0.00     0.261 C 
BRANCH   3   4
ATOM      4  O   UNL A   1      32.028  29.136  26.091  1.00  0.00    -0.460 OA
BRANCH   4   5
ATOM      5  C   UNL A   1      31.992  28.074  26.932  1.00  0.00     0.338 C 
ATOM      6  O   UNL A   1      31.396  28.009  27.996  1.00  0.00    -0.246 OA
BRANCH   5   7
ATOM      7  C   UNL A   1      32.628  26.879  26.338  1.00  0.00     0.060 A 
ATOM      8  C   UNL A   1      33.754  24.785  24.815  1.00  0.00    -0.030 A 
ATOM      9  C   UNL A   1      34.259  26.095  24.738  1.00  0.00     0.006 A 
ATOM     10  C   UNL A   1      32.733  24.533  25.755  1.00  0.00     0.006 A 
ATOM     11  C   UNL A   1      33.714  27.124  25.496  1.00  0.00     0.016 A 
ATOM     12  C   UNL A   1      32.161  25.576  26.507  1.00  0.00     0.016 A 
BRANCH   8  13
ATOM     13  C   UNL A   1      34.278  23.769  23.805  1.00  0.00     0.119 C 
ATOM     14  C   UNL A   1      31.034  21.869  22.060  1.00  0.00     0.075 C 
ATOM     15  C   UNL A   1      32.349  22.066  22.766  1.00  0.00     0.074 C 
ATOM     16  N   UNL A   1      32.722  21.148  23.601  1.00  0.00    -0.227 NA
ATOM     17  S   UNL A   1      33.212  23.535  22.347  1.00  0.00    -0.098 SA
ATOM     18  C   UNL A   1      33.857  21.347  24.311  1.00  0.00     0.161 A 
ATOM     19  C   UNL A   1      34.578  22.503  24.510  1.00  0.00     0.038 A 
ATOM     20  N   UNL A   1      34.476  20.363  25.064  1.00  0.00    -0.215 N 
ATOM     21  C   UNL A   1      35.616  22.128  25.409  1.00  0.00     0.067 A 
ATOM     22  N   UNL A   1      35.467  20.869  25.839  1.00  0.00    -0.171 NA
ATOM     23  C   UNL A   1      36.768  22.924  25.905  1.00  0.00     0.069 C 
BRANCH  20  24
ATOM     24  C   UNL A   1      34.181  18.981  25.070  1.00  0.00     0.067 A 
ATOM     25  C   UNL A   1      32.990  18.524  25.655  1.00  0.00     0.031 A 
ATOM     26  C   UNL A   1      35.094  18.081  24.512  1.00  0.00     0.031 A 
ATOM     27  C   UNL A   1      32.727  17.156  25.701  1.00  0.00     0.041 A 
ATOM     28  C   UNL A   1      34.848  16.711  24.612  1.00  0.00     0.041 A 
ATOM     29  C   UNL A   1      33.668  16.263  25.202  1.00  0.00     0.123 A 
ATOM     30  F   UNL A   1      33.438  14.947  25.296  1.00  0.00    -0.207 F 
ENDBRANCH  20  24
ENDBRANCH   8  13
ENDBRANCH   5   7
ENDBRANCH   4   5
ENDBRANCH   3   4
ENDBRANCH   2   3
ENDBRANCH   1   2
BRANCH   1  31
ATOM     31  C   UNL A   1      34.132  32.990  28.399  1.00  0.00     0.202 C 
BRANCH  31  32
ATOM     32  C   UNL A   1      34.725  32.180  29.545  1.00  0.00     0.261 C 
BRANCH  32  33
ATOM     33  O   UNL A   1      36.099  32.465  29.717  1.00  0.00    -0.460 OA
BRANCH  33  34
ATOM     34  C   UNL A   1      36.787  31.470  30.327  1.00  0.00     0.338 C 
ATOM     35  O   UNL A   1      36.636  31.048  31.456  1.00  0.00    -0.246 OA
BRANCH  34  36
ATOM     36  C   UNL A   1      37.859  31.032  29.423  1.00  0.00     0.060 A 
ATOM     37  C   UNL A   1      37.618  29.817  28.777  1.00  0.00     0.016 A 
ATOM     38  C   UNL A   1      39.148  31.518  29.665  1.00  0.00     0.016 A 
ATOM     39  C   UNL A   1      38.651  28.917  28.725  1.00  0.00     0.010 A 
ATOM     40  C   UNL A   1      40.162  30.605  29.662  1.00  0.00     0.010 A 
ATOM     41  C   UNL A   1      39.865  29.292  29.300  1.00  0.00    -0.014 A 
BRANCH  41  42
ATOM     42  C   UNL A   1      40.877  28.287  29.501  1.00  0.00     0.031 A 
ATOM     43  C   UNL A   1      41.287  28.197  30.914  1.00  0.00     0.074 A 
ATOM     44  C   UNL A   1      41.239  27.452  28.509  1.00  0.00     0.049 A 
ATOM     45  N   UNL A   1      42.403  28.579  31.438  1.00  0.00    -0.248 NA
ATOM     46  C   UNL A   1      40.237  27.867  31.897  1.00  0.00     0.031 C 
ATOM     47  C   UNL A   1      40.649  27.298  27.174  1.00  0.00     0.029 A 
ATOM     48  N   UNL A   1      42.157  26.459  28.544  1.00  0.00    -0.354 N 
ATOM     49  C   UNL A   1      42.254  28.342  32.799  1.00  0.00     0.074 A 
ATOM     50  C   UNL A   1      40.844  28.193  33.034  1.00  0.00     0.031 C 
ATOM     51  C   UNL A   1      41.056  26.120  26.643  1.00  0.00     0.029 A 
ATOM     52  C   UNL A   1      42.018  25.507  27.545  1.00  0.00     0.049 A 
ATOM     53  H   UNL A   1      42.868  26.415  29.224  1.00  0.00     0.167 HD
ATOM     54  C   UNL A   1      43.299  27.943  33.571  1.00  0.00     0.031 A 
ATOM     55  C   UNL A   1      42.592  24.276  27.533  1.00  0.00     0.031 A 
ATOM     56  C   UNL A   1      44.558  28.178  32.915  1.00  0.00     0.049 A 
ATOM     57  C   UNL A   1      43.680  24.286  28.545  1.00  0.00     0.074 A 
ATOM     58  C   UNL A   1      45.221  29.302  32.465  1.00  0.00     0.029 A 
ATOM     59  N   UNL A   1      45.123  27.109  32.256  1.00  0.00    -0.354 N 
ATOM     60  N   UNL A   1      44.764  24.998  28.421  1.00  0.00    -0.248 NA
ATOM     61  C   UNL A   1      43.340  23.910  29.911  1.00  0.00     0.031 C 
ATOM     62  C   UNL A   1      45.829  28.906  31.238  1.00  0.00     0.029 A 
ATOM     63  C   UNL A   1      45.570  27.548  31.037  1.00  0.00     0.049 A 
ATOM     64  H   UNL A   1      45.195  26.190  32.602  1.00  0.00     0.167 HD
ATOM     65  C   UNL A   1      44.996  25.524  29.686  1.00  0.00     0.074 A 
ATOM     66  C   UNL A   1      44.138  24.747  30.582  1.00  0.00     0.031 C 
ATOM     67  C   UNL A   1      45.623  26.727  29.846  1.00  0.00     0.031 A 
BRANCH  54  68
ATOM     68  C   UNL A   1      43.143  26.948  34.697  1.00  0.00    -0.014 A 
ATOM     69  C   UNL A   1      42.850  25.615  34.372  1.00  0.00     0.009 A 
ATOM     70  C   UNL A   1      43.017  27.307  36.055  1.00  0.00     0.009 A 
ATOM     71  C   UNL A   1      42.394  24.716  35.343  1.00  0.00     0.001 A 
ATOM     72  C   UNL A   1      42.604  26.403  37.034  1.00  0.00     0.001 A 
ATOM     73  C   UNL A   1      42.265  25.112  36.671  1.00  0.00     0.000 A 
ENDBRANCH  54  68
BRANCH  55  74
ATOM     74  C   UNL A   1      42.055  23.018  26.965  1.00  0.00    -0.014 A 
ATOM     75  C   UNL A   1      42.908  22.021  26.463  1.00  0.00     0.009 A 
ATOM     76  C   UNL A   1      40.702  22.681  27.152  1.00  0.00     0.009 A 
ATOM     77  C   UNL A   1      42.426  20.734  26.180  1.00  0.00     0.001 A 
ATOM     78  C   UNL A   1      40.221  21.398  26.871  1.00  0.00     0.001 A 
ATOM     79  C   UNL A   1      41.086  20.419  26.395  1.00  0.00     0.000 A 
ENDBRANCH  55  74
BRANCH  67  80
ATOM     80  C   UNL A   1      46.218  27.374  28.614  1.00  0.00    -0.014 A 
ATOM     81  C   UNL A   1      45.471  28.172  27.728  1.00  0.00     0.009 A 
ATOM     82  C   UNL A   1      47.607  27.312  28.439  1.00  0.00     0.009 A 
ATOM     83  C   UNL A   1      46.095  28.866  26.685  1.00  0.00     0.001 A 
ATOM     84  C   UNL A   1      48.233  28.020  27.412  1.00  0.00     0.001 A 
ATOM     85  C   UNL A   1      47.477  28.794  26.532  1.00  0.00     0.000 A 
ENDBRANCH  67  80
ENDBRANCH  41  42
ENDBRANCH  34  36
ENDBRANCH  33  34
ENDBRANCH  32  33
ENDBRANCH  31  32
ENDBRANCH   1  31
TORSDOF 16
ENDMDL
