MODEL 1
REMARK VINA RESULT:     -10.5      0.000      0.000
REMARK SMILES O=C(OCCOCCOC(=O)c1cc(Br)ccc1N1CC2(CCCCC2)C1)c1ccc(-c2c3nc(c(-c4ccccc4)c4ccc([nH]4)c(-c4ccccc4)c4nc(c(-c5ccccc5)c5ccc2[nH]5)C=C4)C=C3)cc1
REMARK SMILES IDX 5 1 4 2 3 3 2 4 1 5 28 6 29 7 75 8 30 9 74 10 31 11 32 12
REMARK SMILES IDX 33 13 68 14 34 15 73 16 67 17 69 18 35 19 72 20 66 21 65 22
REMARK SMILES IDX 36 24 58 25 43 26 57 27 44 28 47 29 56 30 70 31 45 32 46 33
REMARK SMILES IDX 55 35 71 36 48 37 37 38 38 39 42 40 39 41 41 42 40 43 59 44
REMARK SMILES IDX 60 45 64 46 61 47 63 48 62 49 49 50 50 51 54 52 51 53 53 54
REMARK SMILES IDX 52 55 6 56 7 57 8 58 9 59 10 60 11 61 12 62 13 63 18 64
REMARK SMILES IDX 14 65 17 66 15 67 16 68 19 69 20 70 27 71 21 72 22 73 26 74
REMARK SMILES IDX 23 75 25 76 24 77
REMARK H PARENT 69 23 47 34
REMARK Flexibility Score: inf
ROOT
ATOM      1  C   UNL A   1      32.605  31.125  26.870  1.00  0.00     0.202 C 
ENDROOT
BRANCH   1   2
ATOM      2  C   UNL A   1      31.607  32.244  27.180  1.00  0.00     0.261 C 
BRANCH   2   3
ATOM      3  O   UNL A   1      32.329  33.497  27.215  1.00  0.00    -0.460 OA
BRANCH   3   4
ATOM      4  C   UNL A   1      33.047  34.014  28.239  1.00  0.00     0.338 C 
ATOM      5  O   UNL A   1      32.567  34.904  28.938  1.00  0.00    -0.246 OA
BRANCH   4   6
ATOM      6  C   UNL A   1      34.348  33.431  28.655  1.00  0.00     0.060 A 
ATOM      7  C   UNL A   1      35.536  33.650  27.971  1.00  0.00     0.016 A 
ATOM      8  C   UNL A   1      34.399  32.735  29.871  1.00  0.00     0.016 A 
ATOM      9  C   UNL A   1      36.733  33.126  28.433  1.00  0.00     0.010 A 
ATOM     10  C   UNL A   1      35.620  32.259  30.374  1.00  0.00     0.010 A 
ATOM     11  C   UNL A   1      36.802  32.445  29.646  1.00  0.00    -0.014 A 
BRANCH  11  12
ATOM     12  C   UNL A   1      38.124  31.927  30.078  1.00  0.00     0.031 A 
ATOM     13  C   UNL A   1      38.648  30.649  29.495  1.00  0.00     0.074 A 
ATOM     14  C   UNL A   1      38.908  32.682  30.876  1.00  0.00     0.049 A 
ATOM     15  N   UNL A   1      39.745  29.999  29.789  1.00  0.00    -0.248 NA
ATOM     16  C   UNL A   1      37.835  30.013  28.446  1.00  0.00     0.031 C 
ATOM     17  C   UNL A   1      38.547  33.996  31.421  1.00  0.00     0.029 A 
ATOM     18  N   UNL A   1      40.192  32.489  31.319  1.00  0.00    -0.354 N 
ATOM     19  C   UNL A   1      39.726  28.855  29.002  1.00  0.00     0.074 A 
ATOM     20  C   UNL A   1      38.515  28.900  28.213  1.00  0.00     0.031 C 
ATOM     21  C   UNL A   1      39.611  34.526  32.040  1.00  0.00     0.029 A 
ATOM     22  C   UNL A   1      40.690  33.548  32.043  1.00  0.00     0.049 A 
ATOM     23  H   UNL A   1      40.708  31.671  31.135  1.00  0.00     0.167 HD
ATOM     24  C   UNL A   1      40.634  27.853  28.957  1.00  0.00     0.031 A 
ATOM     25  C   UNL A   1      41.869  33.696  32.675  1.00  0.00     0.031 A 
ATOM     26  C   UNL A   1      41.842  27.833  29.735  1.00  0.00     0.049 A 
ATOM     27  C   UNL A   1      42.834  32.544  32.650  1.00  0.00     0.074 A 
ATOM     28  C   UNL A   1      42.793  26.833  29.841  1.00  0.00     0.029 A 
ATOM     29  N   UNL A   1      42.278  28.885  30.529  1.00  0.00    -0.354 N 
ATOM     30  N   UNL A   1      42.744  31.407  32.004  1.00  0.00    -0.248 NA
ATOM     31  C   UNL A   1      44.045  32.683  33.468  1.00  0.00     0.031 C 
ATOM     32  C   UNL A   1      43.786  27.268  30.724  1.00  0.00     0.029 A 
ATOM     33  C   UNL A   1      43.481  28.559  31.128  1.00  0.00     0.049 A 
ATOM     34  H   UNL A   1      41.800  29.738  30.649  1.00  0.00     0.167 HD
ATOM     35  C   UNL A   1      43.881  30.689  32.346  1.00  0.00     0.074 A 
ATOM     36  C   UNL A   1      44.668  31.540  33.216  1.00  0.00     0.031 C 
ATOM     37  C   UNL A   1      44.235  29.427  31.995  1.00  0.00     0.031 A 
BRANCH  24  38
ATOM     38  C   UNL A   1      40.304  26.671  28.091  1.00  0.00    -0.014 A 
ATOM     39  C   UNL A   1      39.473  25.634  28.543  1.00  0.00     0.009 A 
ATOM     40  C   UNL A   1      40.849  26.590  26.800  1.00  0.00     0.009 A 
ATOM     41  C   UNL A   1      39.227  24.523  27.732  1.00  0.00     0.001 A 
ATOM     42  C   UNL A   1      40.578  25.492  25.981  1.00  0.00     0.001 A 
ATOM     43  C   UNL A   1      39.777  24.455  26.452  1.00  0.00     0.000 A 
ENDBRANCH  24  38
BRANCH  25  44
ATOM     44  C   UNL A   1      42.163  34.928  33.459  1.00  0.00    -0.014 A 
ATOM     45  C   UNL A   1      41.660  35.099  34.758  1.00  0.00     0.009 A 
ATOM     46  C   UNL A   1      42.928  35.963  32.894  1.00  0.00     0.009 A 
ATOM     47  C   UNL A   1      41.896  36.287  35.460  1.00  0.00     0.001 A 
ATOM     48  C   UNL A   1      43.195  37.130  33.612  1.00  0.00     0.001 A 
ATOM     49  C   UNL A   1      42.668  37.297  34.889  1.00  0.00     0.000 A 
ENDBRANCH  25  44
BRANCH  37  50
ATOM     50  C   UNL A   1      45.533  28.918  32.548  1.00  0.00    -0.014 A 
ATOM     51  C   UNL A   1      45.574  28.207  33.757  1.00  0.00     0.009 A 
ATOM     52  C   UNL A   1      46.724  29.142  31.843  1.00  0.00     0.009 A 
ATOM     53  C   UNL A   1      46.794  27.763  34.270  1.00  0.00     0.001 A 
ATOM     54  C   UNL A   1      47.939  28.672  32.344  1.00  0.00     0.001 A 
ATOM     55  C   UNL A   1      47.973  27.993  33.561  1.00  0.00     0.000 A 
ENDBRANCH  37  50
ENDBRANCH  11  12
ENDBRANCH   4   6
ENDBRANCH   3   4
ENDBRANCH   2   3
ENDBRANCH   1   2
BRANCH   1  56
ATOM     56  O   UNL A   1      31.937  29.878  27.017  1.00  0.00    -0.374 OA
BRANCH  56  57
ATOM     57  C   UNL A   1      32.750  28.730  27.223  1.00  0.00     0.202 C 
BRANCH  57  58
ATOM     58  C   UNL A   1      34.011  28.833  26.372  1.00  0.00     0.261 C 
BRANCH  58  59
ATOM     59  O   UNL A   1      33.976  27.791  25.384  1.00  0.00    -0.460 OA
BRANCH  59  60
ATOM     60  C   UNL A   1      33.668  28.159  24.108  1.00  0.00     0.340 C 
ATOM     61  O   UNL A   1      34.420  28.715  23.326  1.00  0.00    -0.246 OA
BRANCH  60  62
ATOM     62  C   UNL A   1      32.287  27.658  23.825  1.00  0.00     0.084 A 
ATOM     63  C   UNL A   1      31.288  28.619  23.563  1.00  0.00     0.033 A 
ATOM     64  C   UNL A   1      31.957  26.282  23.839  1.00  0.00     0.051 A 
ATOM     65  C   UNL A   1      29.967  28.230  23.382  1.00  0.00     0.018 A 
ATOM     66  C   UNL A   1      30.611  25.925  23.645  1.00  0.00     0.028 A 
ATOM     67  Br  UNL A   1      28.642  29.541  23.075  1.00  0.00    -0.051 Br
ATOM     68  C   UNL A   1      29.621  26.888  23.438  1.00  0.00     0.018 A 
BRANCH  64  69
ATOM     69  N   UNL A   1      32.911  25.267  24.021  1.00  0.00    -0.370 N 
ATOM     70  C   UNL A   1      32.868  24.162  24.932  1.00  0.00     0.125 C 
ATOM     71  C   UNL A   1      33.678  24.533  23.054  1.00  0.00     0.125 C 
ATOM     72  C   UNL A   1      34.148  23.636  24.228  1.00  0.00     0.005 C 
ATOM     73  C   UNL A   1      34.208  22.131  23.953  1.00  0.00     0.011 C 
ATOM     74  C   UNL A   1      35.468  24.120  24.853  1.00  0.00     0.011 C 
ATOM     75  C   UNL A   1      34.486  21.367  25.251  1.00  0.00     0.001 C 
ATOM     76  C   UNL A   1      35.706  23.381  26.163  1.00  0.00     0.001 C 
ATOM     77  C   UNL A   1      35.745  21.871  25.958  1.00  0.00     0.000 C 
ENDBRANCH  64  69
ENDBRANCH  60  62
ENDBRANCH  59  60
ENDBRANCH  58  59
ENDBRANCH  57  58
ENDBRANCH  56  57
ENDBRANCH   1  56
TORSDOF 15
ENDMDL
MODEL 2
REMARK VINA RESULT:     -10.5      3.674      8.707
REMARK SMILES O=C(OCCOCCOC(=O)c1cc(Br)ccc1N1CC2(CCCCC2)C1)c1ccc(-c2c3nc(c(-c4ccccc4)c4ccc([nH]4)c(-c4ccccc4)c4nc(c(-c5ccccc5)c5ccc2[nH]5)C=C4)C=C3)cc1
REMARK SMILES IDX 5 1 4 2 3 3 2 4 1 5 28 6 29 7 75 8 30 9 74 10 31 11 32 12
REMARK SMILES IDX 33 13 68 14 34 15 73 16 67 17 69 18 35 19 72 20 66 21 65 22
REMARK SMILES IDX 36 24 58 25 43 26 57 27 44 28 47 29 56 30 70 31 45 32 46 33
REMARK SMILES IDX 55 35 71 36 48 37 37 38 38 39 42 40 39 41 41 42 40 43 59 44
REMARK SMILES IDX 60 45 64 46 61 47 63 48 62 49 49 50 50 51 54 52 51 53 53 54
REMARK SMILES IDX 52 55 6 56 7 57 8 58 9 59 10 60 11 61 12 62 13 63 18 64
REMARK SMILES IDX 14 65 17 66 15 67 16 68 19 69 20 70 27 71 21 72 22 73 26 74
REMARK SMILES IDX 23 75 25 76 24 77
REMARK H PARENT 69 23 47 34
REMARK Flexibility Score: inf
ROOT
ATOM      1  C   UNL A   1      38.290  19.633  24.947  1.00  0.00     0.202 C 
ENDROOT
BRANCH   1   2
ATOM      2  C   UNL A   1      39.346  19.899  26.022  1.00  0.00     0.261 C 
BRANCH   2   3
ATOM      3  O   UNL A   1      40.558  19.200  25.650  1.00  0.00    -0.460 OA
BRANCH   3   4
ATOM      4  C   UNL A   1      41.838  19.580  25.872  1.00  0.00     0.338 C 
ATOM      5  O   UNL A   1      42.764  18.883  25.464  1.00  0.00    -0.246 OA
BRANCH   4   6
ATOM      6  C   UNL A   1      42.171  20.902  26.458  1.00  0.00     0.060 A 
ATOM      7  C   UNL A   1      42.377  22.045  25.697  1.00  0.00     0.016 A 
ATOM      8  C   UNL A   1      42.144  21.030  27.855  1.00  0.00     0.016 A 
ATOM      9  C   UNL A   1      42.632  23.267  26.298  1.00  0.00     0.010 A 
ATOM     10  C   UNL A   1      42.337  22.279  28.464  1.00  0.00     0.010 A 
ATOM     11  C   UNL A   1      42.594  23.412  27.683  1.00  0.00    -0.014 A 
BRANCH  11  12
ATOM     12  C   UNL A   1      42.864  24.757  28.248  1.00  0.00     0.031 A 
ATOM     13  C   UNL A   1      44.278  25.198  28.478  1.00  0.00     0.074 A 
ATOM     14  C   UNL A   1      41.845  25.628  28.413  1.00  0.00     0.049 A 
ATOM     15  N   UNL A   1      44.719  26.304  29.021  1.00  0.00    -0.248 NA
ATOM     16  C   UNL A   1      45.341  24.277  28.043  1.00  0.00     0.031 C 
ATOM     17  C   UNL A   1      40.435  25.347  28.122  1.00  0.00     0.029 A 
ATOM     18  N   UNL A   1      41.841  26.944  28.802  1.00  0.00    -0.354 N 
ATOM     19  C   UNL A   1      46.102  26.187  29.043  1.00  0.00     0.074 A 
ATOM     20  C   UNL A   1      46.431  24.909  28.452  1.00  0.00     0.031 C 
ATOM     21  C   UNL A   1      39.723  26.476  28.251  1.00  0.00     0.029 A 
ATOM     22  C   UNL A   1      40.596  27.529  28.750  1.00  0.00     0.049 A 
ATOM     23  H   UNL A   1      42.650  27.422  29.092  1.00  0.00     0.167 HD
ATOM     24  C   UNL A   1      47.011  27.065  29.525  1.00  0.00     0.031 A 
ATOM     25  C   UNL A   1      40.197  28.765  29.103  1.00  0.00     0.031 A 
ATOM     26  C   UNL A   1      46.667  28.341  30.093  1.00  0.00     0.049 A 
ATOM     27  C   UNL A   1      41.220  29.699  29.685  1.00  0.00     0.074 A 
ATOM     28  C   UNL A   1      47.490  29.275  30.695  1.00  0.00     0.029 A 
ATOM     29  N   UNL A   1      45.384  28.870  30.105  1.00  0.00    -0.354 N 
ATOM     30  N   UNL A   1      42.513  29.525  29.821  1.00  0.00    -0.248 NA
ATOM     31  C   UNL A   1      40.724  30.984  30.194  1.00  0.00     0.031 C 
ATOM     32  C   UNL A   1      46.699  30.356  31.100  1.00  0.00     0.029 A 
ATOM     33  C   UNL A   1      45.392  30.117  30.704  1.00  0.00     0.049 A 
ATOM     34  H   UNL A   1      44.585  28.424  29.741  1.00  0.00     0.167 HD
ATOM     35  C   UNL A   1      42.984  30.673  30.441  1.00  0.00     0.074 A 
ATOM     36  C   UNL A   1      41.846  31.556  30.607  1.00  0.00     0.031 C 
ATOM     37  C   UNL A   1      44.240  30.966  30.860  1.00  0.00     0.031 A 
BRANCH  24  38
ATOM     38  C   UNL A   1      48.449  26.632  29.523  1.00  0.00    -0.014 A 
ATOM     39  C   UNL A   1      49.306  26.925  28.451  1.00  0.00     0.009 A 
ATOM     40  C   UNL A   1      48.950  25.903  30.613  1.00  0.00     0.009 A 
ATOM     41  C   UNL A   1      50.625  26.464  28.456  1.00  0.00     0.001 A 
ATOM     42  C   UNL A   1      50.276  25.467  30.627  1.00  0.00     0.001 A 
ATOM     43  C   UNL A   1      51.109  25.738  29.544  1.00  0.00     0.000 A 
ENDBRANCH  24  38
BRANCH  25  44
ATOM     44  C   UNL A   1      38.763  29.157  29.011  1.00  0.00    -0.014 A 
ATOM     45  C   UNL A   1      38.241  29.737  27.844  1.00  0.00     0.009 A 
ATOM     46  C   UNL A   1      37.908  28.980  30.113  1.00  0.00     0.009 A 
ATOM     47  C   UNL A   1      36.907  30.154  27.794  1.00  0.00     0.001 A 
ATOM     48  C   UNL A   1      36.566  29.359  30.045  1.00  0.00     0.001 A 
ATOM     49  C   UNL A   1      36.069  29.958  28.890  1.00  0.00     0.000 A 
ENDBRANCH  25  44
BRANCH  37  50
ATOM     50  C   UNL A   1      44.432  32.300  31.521  1.00  0.00    -0.014 A 
ATOM     51  C   UNL A   1      44.808  33.428  30.776  1.00  0.00     0.009 A 
ATOM     52  C   UNL A   1      44.221  32.428  32.901  1.00  0.00     0.009 A 
ATOM     53  C   UNL A   1      45.008  34.655  31.410  1.00  0.00     0.001 A 
ATOM     54  C   UNL A   1      44.393  33.663  33.528  1.00  0.00     0.001 A 
ATOM     55  C   UNL A   1      44.797  34.771  32.784  1.00  0.00     0.000 A 
ENDBRANCH  37  50
ENDBRANCH  11  12
ENDBRANCH   4   6
ENDBRANCH   3   4
ENDBRANCH   2   3
ENDBRANCH   1   2
BRANCH   1  56
ATOM     56  O   UNL A   1      37.375  20.721  24.941  1.00  0.00    -0.374 OA
BRANCH  56  57
ATOM     57  C   UNL A   1      37.768  21.901  25.629  1.00  0.00     0.202 C 
BRANCH  57  58
ATOM     58  C   UNL A   1      37.380  23.127  24.808  1.00  0.00     0.261 C 
BRANCH  58  59
ATOM     59  O   UNL A   1      35.997  23.421  25.060  1.00  0.00    -0.460 OA
BRANCH  59  60
ATOM     60  C   UNL A   1      35.141  23.317  24.004  1.00  0.00     0.340 C 
ATOM     61  O   UNL A   1      35.358  23.711  22.870  1.00  0.00    -0.246 OA
BRANCH  60  62
ATOM     62  C   UNL A   1      33.951  22.543  24.473  1.00  0.00     0.084 A 
ATOM     63  C   UNL A   1      34.009  21.137  24.371  1.00  0.00     0.033 A 
ATOM     64  C   UNL A   1      32.786  23.167  24.979  1.00  0.00     0.051 A 
ATOM     65  C   UNL A   1      32.906  20.361  24.702  1.00  0.00     0.018 A 
ATOM     66  C   UNL A   1      31.691  22.349  25.311  1.00  0.00     0.028 A 
ATOM     67  Br  UNL A   1      32.996  18.483  24.516  1.00  0.00    -0.051 Br
ATOM     68  C   UNL A   1      31.741  20.962  25.157  1.00  0.00     0.018 A 
BRANCH  64  69
ATOM     69  N   UNL A   1      32.685  24.554  25.176  1.00  0.00    -0.370 N 
ATOM     70  C   UNL A   1      33.401  25.372  26.109  1.00  0.00     0.125 C 
ATOM     71  C   UNL A   1      32.571  25.619  24.220  1.00  0.00     0.125 C 
ATOM     72  C   UNL A   1      32.754  26.598  25.409  1.00  0.00     0.005 C 
ATOM     73  C   UNL A   1      33.662  27.805  25.164  1.00  0.00     0.011 C 
ATOM     74  C   UNL A   1      31.414  27.049  26.016  1.00  0.00     0.011 C 
ATOM     75  C   UNL A   1      33.907  28.557  26.476  1.00  0.00     0.001 C 
ATOM     76  C   UNL A   1      31.673  27.756  27.340  1.00  0.00     0.001 C 
ATOM     77  C   UNL A   1      32.601  28.954  27.165  1.00  0.00     0.000 C 
ENDBRANCH  64  69
ENDBRANCH  60  62
ENDBRANCH  59  60
ENDBRANCH  58  59
ENDBRANCH  57  58
ENDBRANCH  56  57
ENDBRANCH   1  56
TORSDOF 15
ENDMDL
MODEL 3
REMARK VINA RESULT:     -10.4      1.832      6.981
REMARK SMILES O=C(OCCOCCOC(=O)c1cc(Br)ccc1N1CC2(CCCCC2)C1)c1ccc(-c2c3nc(c(-c4ccccc4)c4ccc([nH]4)c(-c4ccccc4)c4nc(c(-c5ccccc5)c5ccc2[nH]5)C=C4)C=C3)cc1
REMARK SMILES IDX 5 1 4 2 3 3 2 4 1 5 28 6 29 7 75 8 30 9 74 10 31 11 32 12
REMARK SMILES IDX 33 13 68 14 34 15 73 16 67 17 69 18 35 19 72 20 66 21 65 22
REMARK SMILES IDX 36 24 58 25 43 26 57 27 44 28 47 29 56 30 70 31 45 32 46 33
REMARK SMILES IDX 55 35 71 36 48 37 37 38 38 39 42 40 39 41 41 42 40 43 59 44
REMARK SMILES IDX 60 45 64 46 61 47 63 48 62 49 49 50 50 51 54 52 51 53 53 54
REMARK SMILES IDX 52 55 6 56 7 57 8 58 9 59 10 60 11 61 12 62 13 63 18 64
REMARK SMILES IDX 14 65 17 66 15 67 16 68 19 69 20 70 27 71 21 72 22 73 26 74
REMARK SMILES IDX 23 75 25 76 24 77
REMARK H PARENT 69 23 47 34
REMARK Flexibility Score: inf
ROOT
ATOM      1  C   UNL A   1      31.648  31.613  26.821  1.00  0.00     0.202 C 
ENDROOT
BRANCH   1   2
ATOM      2  C   UNL A   1      32.020  33.068  26.530  1.00  0.00     0.261 C 
BRANCH   2   3
ATOM      3  O   UNL A   1      32.003  33.799  27.778  1.00  0.00    -0.460 OA
BRANCH   3   4
ATOM      4  C   UNL A   1      33.015  34.493  28.350  1.00  0.00     0.338 C 
ATOM      5  O   UNL A   1      32.854  35.673  28.653  1.00  0.00    -0.246 OA
BRANCH   4   6
ATOM      6  C   UNL A   1      34.274  33.832  28.774  1.00  0.00     0.060 A 
ATOM      7  C   UNL A   1      35.532  34.249  28.361  1.00  0.00     0.016 A 
ATOM      8  C   UNL A   1      34.194  32.822  29.744  1.00  0.00     0.016 A 
ATOM      9  C   UNL A   1      36.680  33.631  28.830  1.00  0.00     0.010 A 
ATOM     10  C   UNL A   1      35.357  32.239  30.269  1.00  0.00     0.010 A 
ATOM     11  C   UNL A   1      36.617  32.636  29.804  1.00  0.00    -0.014 A 
BRANCH  11  12
ATOM     12  C   UNL A   1      37.892  32.034  30.265  1.00  0.00     0.031 A 
ATOM     13  C   UNL A   1      38.585  32.592  31.472  1.00  0.00     0.074 A 
ATOM     14  C   UNL A   1      38.342  30.900  29.686  1.00  0.00     0.049 A 
ATOM     15  N   UNL A   1      39.735  32.250  31.993  1.00  0.00    -0.248 NA
ATOM     16  C   UNL A   1      37.898  33.678  32.190  1.00  0.00     0.031 C 
ATOM     17  C   UNL A   1      37.694  30.203  28.570  1.00  0.00     0.029 A 
ATOM     18  N   UNL A   1      39.411  30.096  29.994  1.00  0.00    -0.354 N 
ATOM     19  C   UNL A   1      39.934  33.113  33.063  1.00  0.00     0.074 A 
ATOM     20  C   UNL A   1      38.785  33.989  33.123  1.00  0.00     0.031 C 
ATOM     21  C   UNL A   1      38.320  29.038  28.352  1.00  0.00     0.029 A 
ATOM     22  C   UNL A   1      39.483  28.957  29.225  1.00  0.00     0.049 A 
ATOM     23  H   UNL A   1      40.064  30.314  30.697  1.00  0.00     0.167 HD
ATOM     24  C   UNL A   1      40.990  33.173  33.907  1.00  0.00     0.031 A 
ATOM     25  C   UNL A   1      40.405  27.978  29.200  1.00  0.00     0.031 A 
ATOM     26  C   UNL A   1      42.116  32.282  33.843  1.00  0.00     0.049 A 
ATOM     27  C   UNL A   1      41.593  28.101  30.112  1.00  0.00     0.074 A 
ATOM     28  C   UNL A   1      43.283  32.301  34.585  1.00  0.00     0.029 A 
ATOM     29  N   UNL A   1      42.199  31.187  32.993  1.00  0.00    -0.354 N 
ATOM     30  N   UNL A   1      41.834  29.000  31.035  1.00  0.00    -0.248 NA
ATOM     31  C   UNL A   1      42.650  27.094  29.955  1.00  0.00     0.031 C 
ATOM     32  C   UNL A   1      44.087  31.237  34.161  1.00  0.00     0.029 A 
ATOM     33  C   UNL A   1      43.398  30.525  33.191  1.00  0.00     0.049 A 
ATOM     34  H   UNL A   1      41.508  30.922  32.344  1.00  0.00     0.167 HD
ATOM     35  C   UNL A   1      43.075  28.676  31.562  1.00  0.00     0.074 A 
ATOM     36  C   UNL A   1      43.512  27.468  30.890  1.00  0.00     0.031 C 
ATOM     37  C   UNL A   1      43.805  29.329  32.500  1.00  0.00     0.031 A 
BRANCH  24  38
ATOM     38  C   UNL A   1      40.997  34.287  34.914  1.00  0.00    -0.014 A 
ATOM     39  C   UNL A   1      40.466  34.120  36.202  1.00  0.00     0.009 A 
ATOM     40  C   UNL A   1      41.535  35.534  34.558  1.00  0.00     0.009 A 
ATOM     41  C   UNL A   1      40.442  35.191  37.099  1.00  0.00     0.001 A 
ATOM     42  C   UNL A   1      41.534  36.594  35.465  1.00  0.00     0.001 A 
ATOM     43  C   UNL A   1      40.978  36.425  36.731  1.00  0.00     0.000 A 
ENDBRANCH  24  38
BRANCH  25  44
ATOM     44  C   UNL A   1      40.300  26.858  28.222  1.00  0.00    -0.014 A 
ATOM     45  C   UNL A   1      40.870  26.955  26.943  1.00  0.00     0.009 A 
ATOM     46  C   UNL A   1      39.594  25.689  28.556  1.00  0.00     0.009 A 
ATOM     47  C   UNL A   1      40.712  25.920  26.015  1.00  0.00     0.001 A 
ATOM     48  C   UNL A   1      39.472  24.641  27.641  1.00  0.00     0.001 A 
ATOM     49  C   UNL A   1      40.021  24.762  26.367  1.00  0.00     0.000 A 
ENDBRANCH  25  44
BRANCH  37  50
ATOM     50  C   UNL A   1      45.136  28.731  32.851  1.00  0.00    -0.014 A 
ATOM     51  C   UNL A   1      46.305  29.132  32.187  1.00  0.00     0.009 A 
ATOM     52  C   UNL A   1      45.218  27.765  33.864  1.00  0.00     0.009 A 
ATOM     53  C   UNL A   1      47.531  28.546  32.507  1.00  0.00     0.001 A 
ATOM     54  C   UNL A   1      46.449  27.202  34.201  1.00  0.00     0.001 A 
ATOM     55  C   UNL A   1      47.601  27.585  33.516  1.00  0.00     0.000 A 
ENDBRANCH  37  50
ENDBRANCH  11  12
ENDBRANCH   4   6
ENDBRANCH   3   4
ENDBRANCH   2   3
ENDBRANCH   1   2
BRANCH   1  56
ATOM     56  O   UNL A   1      32.827  30.920  27.210  1.00  0.00    -0.374 OA
BRANCH  56  57
ATOM     57  C   UNL A   1      33.215  29.806  26.417  1.00  0.00     0.202 C 
BRANCH  57  58
ATOM     58  C   UNL A   1      32.474  28.557  26.886  1.00  0.00     0.261 C 
BRANCH  58  59
ATOM     59  O   UNL A   1      31.400  28.298  25.970  1.00  0.00    -0.460 OA
BRANCH  59  60
ATOM     60  C   UNL A   1      31.093  26.991  25.731  1.00  0.00     0.340 C 
ATOM     61  O   UNL A   1      30.332  26.306  26.392  1.00  0.00    -0.246 OA
BRANCH  60  62
ATOM     62  C   UNL A   1      31.776  26.603  24.458  1.00  0.00     0.084 A 
ATOM     63  C   UNL A   1      32.724  25.559  24.521  1.00  0.00     0.033 A 
ATOM     64  C   UNL A   1      31.526  27.256  23.228  1.00  0.00     0.051 A 
ATOM     65  C   UNL A   1      33.461  25.208  23.398  1.00  0.00     0.018 A 
ATOM     66  C   UNL A   1      32.287  26.870  22.110  1.00  0.00     0.028 A 
ATOM     67  Br  UNL A   1      34.753  23.836  23.521  1.00  0.00    -0.051 Br
ATOM     68  C   UNL A   1      33.259  25.870  22.195  1.00  0.00     0.018 A 
BRANCH  64  69
ATOM     69  N   UNL A   1      30.548  28.252  23.075  1.00  0.00    -0.370 N 
ATOM     70  C   UNL A   1      30.548  29.363  22.170  1.00  0.00     0.125 C 
ATOM     71  C   UNL A   1      29.115  28.150  23.063  1.00  0.00     0.125 C 
ATOM     72  C   UNL A   1      29.093  29.641  22.638  1.00  0.00     0.005 C 
ATOM     73  C   UNL A   1      28.086  30.025  21.552  1.00  0.00     0.011 C 
ATOM     74  C   UNL A   1      28.979  30.598  23.838  1.00  0.00     0.011 C 
ATOM     75  C   UNL A   1      28.323  31.468  21.097  1.00  0.00     0.001 C 
ATOM     76  C   UNL A   1      29.259  32.022  23.376  1.00  0.00     0.001 C 
ATOM     77  C   UNL A   1      28.304  32.452  22.268  1.00  0.00     0.000 C 
ENDBRANCH  64  69
ENDBRANCH  60  62
ENDBRANCH  59  60
ENDBRANCH  58  59
ENDBRANCH  57  58
ENDBRANCH  56  57
ENDBRANCH   1  56
TORSDOF 15
ENDMDL
