MODEL 1
REMARK VINA RESULT:      -9.6      0.000      0.000
REMARK SMILES C[NH2+][C@]1(C(=O)OCCOCCOC(=O)c2ccc(-c3c4nc(c(-c5ccccc5)c5ccc([nH]5)c(-c5ccccc5)c5nc(c(-c6ccccc6)c6ccc3[nH]6)C=C5)C=C4)cc2)CCC[C@@H]1CCn1nc(C)c(Cl)c1C
REMARK SMILES IDX 8 1 7 2 6 3 4 4 5 5 3 6 63 7 66 8 64 9 65 10 2 11 1 12 67 15
REMARK SMILES IDX 68 16 69 17 70 18 75 19 71 20 73 21 76 22 72 23 74 24 9 25
REMARK SMILES IDX 10 26 11 27 12 28 13 29 14 30 15 31 16 32 62 33 17 34 61 35
REMARK SMILES IDX 18 36 19 37 20 38 55 39 21 40 60 41 54 42 56 43 22 44 59 45
REMARK SMILES IDX 53 46 52 47 23 49 45 50 30 51 44 52 31 53 34 54 43 55 57 56
REMARK SMILES IDX 32 57 33 58 42 60 58 61 35 62 24 63 25 64 29 65 26 66 28 67
REMARK SMILES IDX 27 68 46 69 47 70 51 71 48 72 50 73 49 74 36 75 37 76 41 77
REMARK SMILES IDX 38 78 40 79 39 80
REMARK H PARENT 2 13 2 14 56 48 34 59
REMARK Flexibility Score: inf
ROOT
ATOM      1  C   UNL A   1      37.429  23.204  24.802  1.00  0.00     0.202 C 
ENDROOT
BRANCH   1   2
ATOM      2  C   UNL A   1      36.040  23.580  24.264  1.00  0.00     0.261 C 
BRANCH   2   3
ATOM      3  O   UNL A   1      35.246  24.350  25.175  1.00  0.00    -0.459 OA
BRANCH   3   4
ATOM      4  C   UNL A   1      34.315  23.632  25.873  1.00  0.00     0.368 C 
ATOM      5  O   UNL A   1      34.559  23.049  26.923  1.00  0.00    -0.245 OA
BRANCH   4   6
ATOM      6  C   UNL A   1      32.947  23.570  25.128  1.00  0.00     0.197 C 
ATOM      7  C   UNL A   1      32.731  24.622  24.015  1.00  0.00     0.081 C 
ATOM      8  C   UNL A   1      32.960  22.291  24.249  1.00  0.00     0.064 C 
ATOM      9  C   UNL A   1      31.722  23.998  23.044  1.00  0.00     0.008 C 
ATOM     10  C   UNL A   1      31.784  22.487  23.284  1.00  0.00     0.011 C 
BRANCH   6  11
ATOM     11  N   UNL A   1      31.736  23.632  26.001  1.00  0.00    -0.334 N 
ATOM     12  C   UNL A   1      31.421  24.922  26.597  1.00  0.00     0.331 C 
ATOM     13  H   UNL A   1      30.934  23.348  25.438  1.00  0.00     0.347 HD
ATOM     14  H   UNL A   1      31.944  23.019  26.789  1.00  0.00     0.347 HD
ENDBRANCH   6  11
BRANCH   8  15
ATOM     15  C   UNL A   1      32.942  20.963  25.021  1.00  0.00     0.034 C 
BRANCH  15  16
ATOM     16  C   UNL A   1      32.416  19.777  24.206  1.00  0.00     0.145 C 
BRANCH  16  17
ATOM     17  N   UNL A   1      32.960  18.491  24.615  1.00  0.00    -0.268 N 
ATOM     18  N   UNL A   1      32.099  17.504  24.942  1.00  0.00    -0.176 NA
ATOM     19  C   UNL A   1      34.279  18.120  24.736  1.00  0.00     0.054 A 
ATOM     20  C   UNL A   1      32.883  16.465  25.255  1.00  0.00     0.078 A 
ATOM     21  C   UNL A   1      34.249  16.802  25.140  1.00  0.00     0.084 A 
ATOM     22  C   UNL A   1      35.446  19.006  24.507  1.00  0.00     0.068 C 
ATOM     23  C   UNL A   1      32.272  15.172  25.653  1.00  0.00     0.070 C 
ATOM     24  Cl  UNL A   1      35.580  15.799  25.446  1.00  0.00    -0.080 Cl
ENDBRANCH  16  17
ENDBRANCH  15  16
ENDBRANCH   8  15
ENDBRANCH   4   6
ENDBRANCH   3   4
ENDBRANCH   2   3
ENDBRANCH   1   2
BRANCH   1  25
ATOM     25  O   UNL A   1      37.529  22.195  25.799  1.00  0.00    -0.374 OA
BRANCH  25  26
ATOM     26  C   UNL A   1      38.829  21.784  26.224  1.00  0.00     0.202 C 
BRANCH  26  27
ATOM     27  C   UNL A   1      39.463  20.555  25.563  1.00  0.00     0.261 C 
BRANCH  27  28
ATOM     28  O   UNL A   1      40.388  19.870  26.429  1.00  0.00    -0.460 OA
BRANCH  28  29
ATOM     29  C   UNL A   1      41.683  19.945  26.033  1.00  0.00     0.338 C 
ATOM     30  O   UNL A   1      42.266  19.208  25.256  1.00  0.00    -0.246 OA
BRANCH  29  31
ATOM     31  C   UNL A   1      42.307  21.177  26.544  1.00  0.00     0.060 A 
ATOM     32  C   UNL A   1      42.237  21.416  27.923  1.00  0.00     0.016 A 
ATOM     33  C   UNL A   1      42.812  22.146  25.677  1.00  0.00     0.016 A 
ATOM     34  C   UNL A   1      42.627  22.650  28.436  1.00  0.00     0.010 A 
ATOM     35  C   UNL A   1      43.194  23.389  26.194  1.00  0.00     0.010 A 
ATOM     36  C   UNL A   1      43.065  23.659  27.568  1.00  0.00    -0.014 A 
BRANCH  36  37
ATOM     37  C   UNL A   1      43.239  25.037  28.086  1.00  0.00     0.031 A 
ATOM     38  C   UNL A   1      44.611  25.506  28.480  1.00  0.00     0.074 A 
ATOM     39  C   UNL A   1      42.193  25.877  28.169  1.00  0.00     0.049 A 
ATOM     40  N   UNL A   1      44.986  26.664  28.959  1.00  0.00    -0.248 NA
ATOM     41  C   UNL A   1      45.711  24.543  28.300  1.00  0.00     0.031 C 
ATOM     42  C   UNL A   1      40.825  25.564  27.765  1.00  0.00     0.029 A 
ATOM     43  N   UNL A   1      42.122  27.169  28.628  1.00  0.00    -0.354 N 
ATOM     44  C   UNL A   1      46.361  26.573  29.135  1.00  0.00     0.074 A 
ATOM     45  C   UNL A   1      46.751  25.237  28.741  1.00  0.00     0.031 C 
ATOM     46  C   UNL A   1      40.042  26.628  28.017  1.00  0.00     0.029 A 
ATOM     47  C   UNL A   1      40.851  27.685  28.616  1.00  0.00     0.049 A 
ATOM     48  H   UNL A   1      42.909  27.676  28.936  1.00  0.00     0.167 HD
ATOM     49  C   UNL A   1      47.223  27.520  29.575  1.00  0.00     0.031 A 
ATOM     50  C   UNL A   1      40.389  28.870  29.058  1.00  0.00     0.031 A 
ATOM     51  C   UNL A   1      46.837  28.843  29.985  1.00  0.00     0.049 A 
ATOM     52  C   UNL A   1      41.353  29.871  29.634  1.00  0.00     0.074 A 
ATOM     53  C   UNL A   1      47.640  29.876  30.435  1.00  0.00     0.029 A 
ATOM     54  N   UNL A   1      45.533  29.311  30.002  1.00  0.00    -0.354 N 
ATOM     55  N   UNL A   1      42.654  29.783  29.769  1.00  0.00    -0.248 NA
ATOM     56  C   UNL A   1      40.784  31.141  30.107  1.00  0.00     0.031 C 
ATOM     57  C   UNL A   1      46.815  30.954  30.773  1.00  0.00     0.029 A 
ATOM     58  C   UNL A   1      45.504  30.609  30.485  1.00  0.00     0.049 A 
ATOM     59  H   UNL A   1      44.743  28.798  29.716  1.00  0.00     0.167 HD
ATOM     60  C   UNL A   1      43.062  30.994  30.312  1.00  0.00     0.074 A 
ATOM     61  C   UNL A   1      41.872  31.803  30.475  1.00  0.00     0.031 C 
ATOM     62  C   UNL A   1      44.312  31.401  30.642  1.00  0.00     0.031 A 
BRANCH  49  63
ATOM     63  C   UNL A   1      48.673  27.139  29.664  1.00  0.00    -0.014 A 
ATOM     64  C   UNL A   1      49.551  27.361  28.591  1.00  0.00     0.009 A 
ATOM     65  C   UNL A   1      49.175  26.576  30.848  1.00  0.00     0.009 A 
ATOM     66  C   UNL A   1      50.895  26.995  28.691  1.00  0.00     0.001 A 
ATOM     67  C   UNL A   1      50.524  26.234  30.953  1.00  0.00     0.001 A 
ATOM     68  C   UNL A   1      51.380  26.436  29.872  1.00  0.00     0.000 A 
ENDBRANCH  49  63
BRANCH  50  69
ATOM     69  C   UNL A   1      38.936  29.173  28.987  1.00  0.00    -0.014 A 
ATOM     70  C   UNL A   1      38.364  29.671  27.808  1.00  0.00     0.009 A 
ATOM     71  C   UNL A   1      38.118  28.974  30.110  1.00  0.00     0.009 A 
ATOM     72  C   UNL A   1      37.004  29.986  27.761  1.00  0.00     0.001 A 
ATOM     73  C   UNL A   1      36.754  29.268  30.053  1.00  0.00     0.001 A 
ATOM     74  C   UNL A   1      36.200  29.782  28.882  1.00  0.00     0.000 A 
ENDBRANCH  50  69
BRANCH  62  75
ATOM     75  C   UNL A   1      44.463  32.796  31.178  1.00  0.00    -0.014 A 
ATOM     76  C   UNL A   1      44.413  33.055  32.556  1.00  0.00     0.009 A 
ATOM     77  C   UNL A   1      44.696  33.859  30.292  1.00  0.00     0.009 A 
ATOM     78  C   UNL A   1      44.566  34.359  33.033  1.00  0.00     0.001 A 
ATOM     79  C   UNL A   1      44.875  35.156  30.773  1.00  0.00     0.001 A 
ATOM     80  C   UNL A   1      44.801  35.406  32.143  1.00  0.00     0.000 A 
ENDBRANCH  62  75
ENDBRANCH  36  37
ENDBRANCH  29  31
ENDBRANCH  28  29
ENDBRANCH  27  28
ENDBRANCH  26  27
ENDBRANCH  25  26
ENDBRANCH   1  25
TORSDOF 18
ENDMDL
MODEL 2
REMARK VINA RESULT:      -9.6      4.204      8.711
REMARK SMILES C[NH2+][C@]1(C(=O)OCCOCCOC(=O)c2ccc(-c3c4nc(c(-c5ccccc5)c5ccc([nH]5)c(-c5ccccc5)c5nc(c(-c6ccccc6)c6ccc3[nH]6)C=C5)C=C4)cc2)CCC[C@@H]1CCn1nc(C)c(Cl)c1C
REMARK SMILES IDX 8 1 7 2 6 3 4 4 5 5 3 6 63 7 66 8 64 9 65 10 2 11 1 12 67 15
REMARK SMILES IDX 68 16 69 17 70 18 75 19 71 20 73 21 76 22 72 23 74 24 9 25
REMARK SMILES IDX 10 26 11 27 12 28 13 29 14 30 15 31 16 32 62 33 17 34 61 35
REMARK SMILES IDX 18 36 19 37 20 38 55 39 21 40 60 41 54 42 56 43 22 44 59 45
REMARK SMILES IDX 53 46 52 47 23 49 45 50 30 51 44 52 31 53 34 54 43 55 57 56
REMARK SMILES IDX 32 57 33 58 42 60 58 61 35 62 24 63 25 64 29 65 26 66 28 67
REMARK SMILES IDX 27 68 46 69 47 70 51 71 48 72 50 73 49 74 36 75 37 76 41 77
REMARK SMILES IDX 38 78 40 79 39 80
REMARK H PARENT 2 13 2 14 56 48 34 59
REMARK Flexibility Score: inf
ROOT
ATOM      1  C   UNL A   1      33.188  30.162  26.516  1.00  0.00     0.202 C 
ENDROOT
BRANCH   1   2
ATOM      2  C   UNL A   1      33.293  28.640  26.690  1.00  0.00     0.261 C 
BRANCH   2   3
ATOM      3  O   UNL A   1      33.552  27.926  25.476  1.00  0.00    -0.459 OA
BRANCH   3   4
ATOM      4  C   UNL A   1      33.259  26.591  25.522  1.00  0.00     0.368 C 
ATOM      5  O   UNL A   1      33.870  25.788  26.218  1.00  0.00    -0.245 OA
BRANCH   4   6
ATOM      6  C   UNL A   1      32.128  26.207  24.519  1.00  0.00     0.197 C 
ATOM      7  C   UNL A   1      31.032  27.275  24.291  1.00  0.00     0.081 C 
ATOM      8  C   UNL A   1      32.756  26.200  23.100  1.00  0.00     0.064 C 
ATOM      9  C   UNL A   1      30.473  27.001  22.890  1.00  0.00     0.008 C 
ATOM     10  C   UNL A   1      31.547  26.193  22.155  1.00  0.00     0.011 C 
BRANCH   6  11
ATOM     11  N   UNL A   1      31.411  24.930  24.817  1.00  0.00    -0.334 N 
ATOM     12  C   UNL A   1      30.477  24.946  25.933  1.00  0.00     0.331 C 
ATOM     13  H   UNL A   1      30.889  24.668  23.981  1.00  0.00     0.347 HD
ATOM     14  H   UNL A   1      32.141  24.273  25.090  1.00  0.00     0.347 HD
ENDBRANCH   6  11
BRANCH   8  15
ATOM     15  C   UNL A   1      33.779  25.084  22.840  1.00  0.00     0.034 C 
BRANCH  15  16
ATOM     16  C   UNL A   1      33.159  23.780  22.326  1.00  0.00     0.145 C 
BRANCH  16  17
ATOM     17  N   UNL A   1      33.181  22.694  23.293  1.00  0.00    -0.268 N 
ATOM     18  N   UNL A   1      33.844  22.881  24.454  1.00  0.00    -0.176 NA
ATOM     19  C   UNL A   1      32.613  21.445  23.191  1.00  0.00     0.054 A 
ATOM     20  C   UNL A   1      33.676  21.734  25.126  1.00  0.00     0.078 A 
ATOM     21  C   UNL A   1      32.915  20.811  24.377  1.00  0.00     0.084 A 
ATOM     22  C   UNL A   1      31.878  20.929  22.010  1.00  0.00     0.068 C 
ATOM     23  C   UNL A   1      34.263  21.579  26.481  1.00  0.00     0.070 C 
ATOM     24  Cl  UNL A   1      32.471  19.241  24.836  1.00  0.00    -0.080 Cl
ENDBRANCH  16  17
ENDBRANCH  15  16
ENDBRANCH   8  15
ENDBRANCH   4   6
ENDBRANCH   3   4
ENDBRANCH   2   3
ENDBRANCH   1   2
BRANCH   1  25
ATOM     25  O   UNL A   1      32.062  30.840  27.059  1.00  0.00    -0.374 OA
BRANCH  25  26
ATOM     26  C   UNL A   1      31.576  32.002  26.387  1.00  0.00     0.202 C 
BRANCH  26  27
ATOM     27  C   UNL A   1      31.826  33.375  27.021  1.00  0.00     0.261 C 
BRANCH  27  28
ATOM     28  O   UNL A   1      32.642  33.304  28.206  1.00  0.00    -0.460 OA
BRANCH  28  29
ATOM     29  C   UNL A   1      33.775  34.046  28.147  1.00  0.00     0.338 C 
ATOM     30  O   UNL A   1      33.865  35.259  28.056  1.00  0.00    -0.246 OA
BRANCH  29  31
ATOM     31  C   UNL A   1      34.957  33.199  28.379  1.00  0.00     0.060 A 
ATOM     32  C   UNL A   1      34.741  31.895  28.842  1.00  0.00     0.016 A 
ATOM     33  C   UNL A   1      36.249  33.720  28.290  1.00  0.00     0.016 A 
ATOM     34  C   UNL A   1      35.817  31.121  29.268  1.00  0.00     0.010 A 
ATOM     35  C   UNL A   1      37.327  32.943  28.729  1.00  0.00     0.010 A 
ATOM     36  C   UNL A   1      37.111  31.658  29.256  1.00  0.00    -0.014 A 
BRANCH  36  37
ATOM     37  C   UNL A   1      38.206  30.928  29.939  1.00  0.00     0.031 A 
ATOM     38  C   UNL A   1      38.450  31.171  31.402  1.00  0.00     0.074 A 
ATOM     39  C   UNL A   1      38.951  30.028  29.274  1.00  0.00     0.049 A 
ATOM     40  N   UNL A   1      39.353  30.647  32.190  1.00  0.00    -0.248 NA
ATOM     41  C   UNL A   1      37.548  32.126  32.068  1.00  0.00     0.031 C 
ATOM     42  C   UNL A   1      38.778  29.660  27.872  1.00  0.00     0.029 A 
ATOM     43  N   UNL A   1      40.010  29.264  29.696  1.00  0.00    -0.354 N 
ATOM     44  C   UNL A   1      39.129  31.203  33.443  1.00  0.00     0.074 A 
ATOM     45  C   UNL A   1      38.025  32.128  33.305  1.00  0.00     0.031 C 
ATOM     46  C   UNL A   1      39.716  28.756  27.540  1.00  0.00     0.029 A 
ATOM     47  C   UNL A   1      40.564  28.500  28.700  1.00  0.00     0.049 A 
ATOM     48  H   UNL A   1      40.341  29.265  30.624  1.00  0.00     0.167 HD
ATOM     49  C   UNL A   1      39.776  30.958  34.606  1.00  0.00     0.031 A 
ATOM     50  C   UNL A   1      41.646  27.698  28.719  1.00  0.00     0.031 A 
ATOM     51  C   UNL A   1      40.885  30.053  34.744  1.00  0.00     0.049 A 
ATOM     52  C   UNL A   1      42.410  27.516  30.001  1.00  0.00     0.074 A 
ATOM     53  C   UNL A   1      41.600  29.730  35.884  1.00  0.00     0.029 A 
ATOM     54  N   UNL A   1      41.446  29.333  33.702  1.00  0.00    -0.354 N 
ATOM     55  N   UNL A   1      42.171  28.026  31.185  1.00  0.00    -0.248 NA
ATOM     56  C   UNL A   1      43.587  26.636  29.952  1.00  0.00     0.031 C 
ATOM     57  C   UNL A   1      42.626  28.852  35.522  1.00  0.00     0.029 A 
ATOM     58  C   UNL A   1      42.518  28.588  34.165  1.00  0.00     0.049 A 
ATOM     59  H   UNL A   1      41.131  29.348  32.769  1.00  0.00     0.167 HD
ATOM     60  C   UNL A   1      43.146  27.507  32.026  1.00  0.00     0.074 A 
ATOM     61  C   UNL A   1      43.975  26.635  31.219  1.00  0.00     0.031 C 
ATOM     62  C   UNL A   1      43.334  27.727  33.350  1.00  0.00     0.031 A 
BRANCH  49  63
ATOM     63  C   UNL A   1      39.314  31.711  35.821  1.00  0.00    -0.014 A 
ATOM     64  C   UNL A   1      38.241  31.248  36.600  1.00  0.00     0.009 A 
ATOM     65  C   UNL A   1      39.979  32.886  36.208  1.00  0.00     0.009 A 
ATOM     66  C   UNL A   1      37.823  31.966  37.722  1.00  0.00     0.001 A 
ATOM     67  C   UNL A   1      39.573  33.587  37.344  1.00  0.00     0.001 A 
ATOM     68  C   UNL A   1      38.491  33.131  38.095  1.00  0.00     0.000 A 
ENDBRANCH  49  63
BRANCH  50  69
ATOM     69  C   UNL A   1      42.083  27.015  27.474  1.00  0.00    -0.014 A 
ATOM     70  C   UNL A   1      41.618  25.730  27.159  1.00  0.00     0.009 A 
ATOM     71  C   UNL A   1      42.982  27.646  26.600  1.00  0.00     0.009 A 
ATOM     72  C   UNL A   1      42.063  25.081  26.005  1.00  0.00     0.001 A 
ATOM     73  C   UNL A   1      43.407  27.005  25.435  1.00  0.00     0.001 A 
ATOM     74  C   UNL A   1      42.954  25.720  25.143  1.00  0.00     0.000 A 
ENDBRANCH  50  69
BRANCH  62  75
ATOM     75  C   UNL A   1      44.458  26.988  34.018  1.00  0.00    -0.014 A 
ATOM     76  C   UNL A   1      44.259  25.722  34.590  1.00  0.00     0.009 A 
ATOM     77  C   UNL A   1      45.744  27.551  34.039  1.00  0.00     0.009 A 
ATOM     78  C   UNL A   1      45.322  25.048  35.196  1.00  0.00     0.001 A 
ATOM     79  C   UNL A   1      46.809  26.864  34.622  1.00  0.00     0.001 A 
ATOM     80  C   UNL A   1      46.595  25.617  35.208  1.00  0.00     0.000 A 
ENDBRANCH  62  75
ENDBRANCH  36  37
ENDBRANCH  29  31
ENDBRANCH  28  29
ENDBRANCH  27  28
ENDBRANCH  26  27
ENDBRANCH  25  26
ENDBRANCH   1  25
TORSDOF 18
ENDMDL
MODEL 3
REMARK VINA RESULT:      -9.6      3.098      7.563
REMARK SMILES C[NH2+][C@]1(C(=O)OCCOCCOC(=O)c2ccc(-c3c4nc(c(-c5ccccc5)c5ccc([nH]5)c(-c5ccccc5)c5nc(c(-c6ccccc6)c6ccc3[nH]6)C=C5)C=C4)cc2)CCC[C@@H]1CCn1nc(C)c(Cl)c1C
REMARK SMILES IDX 8 1 7 2 6 3 4 4 5 5 3 6 63 7 66 8 64 9 65 10 2 11 1 12 67 15
REMARK SMILES IDX 68 16 69 17 70 18 75 19 71 20 73 21 76 22 72 23 74 24 9 25
REMARK SMILES IDX 10 26 11 27 12 28 13 29 14 30 15 31 16 32 62 33 17 34 61 35
REMARK SMILES IDX 18 36 19 37 20 38 55 39 21 40 60 41 54 42 56 43 22 44 59 45
REMARK SMILES IDX 53 46 52 47 23 49 45 50 30 51 44 52 31 53 34 54 43 55 57 56
REMARK SMILES IDX 32 57 33 58 42 60 58 61 35 62 24 63 25 64 29 65 26 66 28 67
REMARK SMILES IDX 27 68 46 69 47 70 51 71 48 72 50 73 49 74 36 75 37 76 41 77
REMARK SMILES IDX 38 78 40 79 39 80
REMARK H PARENT 2 13 2 14 56 48 34 59
REMARK Flexibility Score: inf
ROOT
ATOM      1  C   UNL A   1      33.472  30.422  26.703  1.00  0.00     0.202 C 
ENDROOT
BRANCH   1   2
ATOM      2  C   UNL A   1      33.450  28.888  26.644  1.00  0.00     0.261 C 
BRANCH   2   3
ATOM      3  O   UNL A   1      32.304  28.341  25.981  1.00  0.00    -0.459 OA
BRANCH   3   4
ATOM      4  C   UNL A   1      31.608  27.415  26.708  1.00  0.00     0.368 C 
ATOM      5  O   UNL A   1      31.414  27.510  27.914  1.00  0.00    -0.245 OA
BRANCH   4   6
ATOM      6  C   UNL A   1      31.180  26.193  25.839  1.00  0.00     0.197 C 
ATOM      7  C   UNL A   1      30.276  26.508  24.624  1.00  0.00     0.081 C 
ATOM      8  C   UNL A   1      32.442  25.705  25.079  1.00  0.00     0.064 C 
ATOM      9  C   UNL A   1      30.532  25.382  23.614  1.00  0.00     0.008 C 
ATOM     10  C   UNL A   1      31.889  24.779  23.989  1.00  0.00     0.011 C 
BRANCH   6  11
ATOM     11  N   UNL A   1      30.511  25.081  26.579  1.00  0.00    -0.334 N 
ATOM     12  C   UNL A   1      29.057  25.106  26.630  1.00  0.00     0.331 C 
ATOM     13  H   UNL A   1      30.789  24.205  26.137  1.00  0.00     0.347 HD
ATOM     14  H   UNL A   1      30.813  25.186  27.548  1.00  0.00     0.347 HD
ENDBRANCH   6  11
BRANCH   8  15
ATOM     15  C   UNL A   1      33.536  25.080  25.958  1.00  0.00     0.034 C 
BRANCH  15  16
ATOM     16  C   UNL A   1      34.855  24.825  25.221  1.00  0.00     0.145 C 
BRANCH  16  17
ATOM     17  N   UNL A   1      35.235  23.422  25.157  1.00  0.00    -0.268 N 
ATOM     18  N   UNL A   1      34.262  22.501  24.987  1.00  0.00    -0.176 NA
ATOM     19  C   UNL A   1      36.489  22.869  25.261  1.00  0.00     0.054 A 
ATOM     20  C   UNL A   1      34.912  21.329  24.955  1.00  0.00     0.078 A 
ATOM     21  C   UNL A   1      36.301  21.511  25.122  1.00  0.00     0.084 A 
ATOM     22  C   UNL A   1      37.742  23.623  25.513  1.00  0.00     0.068 C 
ATOM     23  C   UNL A   1      34.152  20.069  24.759  1.00  0.00     0.070 C 
ATOM     24  Cl  UNL A   1      37.493  20.307  25.154  1.00  0.00    -0.080 Cl
ENDBRANCH  16  17
ENDBRANCH  15  16
ENDBRANCH   8  15
ENDBRANCH   4   6
ENDBRANCH   3   4
ENDBRANCH   2   3
ENDBRANCH   1   2
BRANCH   1  25
ATOM     25  O   UNL A   1      33.777  31.058  27.938  1.00  0.00    -0.374 OA
BRANCH  25  26
ATOM     26  C   UNL A   1      33.954  32.474  27.950  1.00  0.00     0.202 C 
BRANCH  26  27
ATOM     27  C   UNL A   1      34.376  33.150  29.259  1.00  0.00     0.261 C 
BRANCH  27  28
ATOM     28  O   UNL A   1      35.746  32.876  29.613  1.00  0.00    -0.460 OA
BRANCH  28  29
ATOM     29  C   UNL A   1      35.896  31.915  30.557  1.00  0.00     0.338 C 
ATOM     30  O   UNL A   1      35.188  31.710  31.529  1.00  0.00    -0.246 OA
BRANCH  29  31
ATOM     31  C   UNL A   1      36.974  30.986  30.179  1.00  0.00     0.060 A 
ATOM     32  C   UNL A   1      37.749  30.437  31.208  1.00  0.00     0.016 A 
ATOM     33  C   UNL A   1      37.315  30.779  28.842  1.00  0.00     0.016 A 
ATOM     34  C   UNL A   1      38.901  29.716  30.905  1.00  0.00     0.010 A 
ATOM     35  C   UNL A   1      38.479  30.063  28.539  1.00  0.00     0.010 A 
ATOM     36  C   UNL A   1      39.297  29.565  29.569  1.00  0.00    -0.014 A 
BRANCH  36  37
ATOM     37  C   UNL A   1      40.642  29.020  29.268  1.00  0.00     0.031 A 
ATOM     38  C   UNL A   1      41.839  29.924  29.369  1.00  0.00     0.074 A 
ATOM     39  C   UNL A   1      40.803  27.725  28.946  1.00  0.00     0.049 A 
ATOM     40  N   UNL A   1      43.100  29.656  29.146  1.00  0.00    -0.248 NA
ATOM     41  C   UNL A   1      41.581  31.311  29.789  1.00  0.00     0.031 C 
ATOM     42  C   UNL A   1      39.733  26.735  28.871  1.00  0.00     0.029 A 
ATOM     43  N   UNL A   1      41.936  27.024  28.617  1.00  0.00    -0.354 N 
ATOM     44  C   UNL A   1      43.787  30.837  29.400  1.00  0.00     0.074 A 
ATOM     45  C   UNL A   1      42.800  31.831  29.763  1.00  0.00     0.031 C 
ATOM     46  C   UNL A   1      40.256  25.556  28.493  1.00  0.00     0.029 A 
ATOM     47  C   UNL A   1      41.691  25.716  28.282  1.00  0.00     0.049 A 
ATOM     48  H   UNL A   1      42.837  27.422  28.620  1.00  0.00     0.167 HD
ATOM     49  C   UNL A   1      45.119  31.071  29.344  1.00  0.00     0.031 A 
ATOM     50  C   UNL A   1      42.530  24.761  27.836  1.00  0.00     0.031 A 
ATOM     51  C   UNL A   1      46.101  30.090  28.965  1.00  0.00     0.049 A 
ATOM     52  C   UNL A   1      43.994  25.072  27.689  1.00  0.00     0.074 A 
ATOM     53  C   UNL A   1      47.475  30.230  28.891  1.00  0.00     0.029 A 
ATOM     54  N   UNL A   1      45.808  28.790  28.588  1.00  0.00    -0.354 N 
ATOM     55  N   UNL A   1      44.634  26.184  27.959  1.00  0.00    -0.248 NA
ATOM     56  C   UNL A   1      44.853  23.989  27.189  1.00  0.00     0.031 C 
ATOM     57  C   UNL A   1      48.011  29.027  28.419  1.00  0.00     0.029 A 
ATOM     58  C   UNL A   1      46.974  28.123  28.250  1.00  0.00     0.049 A 
ATOM     59  H   UNL A   1      44.905  28.397  28.563  1.00  0.00     0.167 HD
ATOM     60  C   UNL A   1      45.972  25.927  27.690  1.00  0.00     0.074 A 
ATOM     61  C   UNL A   1      46.053  24.551  27.245  1.00  0.00     0.031 C 
ATOM     62  C   UNL A   1      47.039  26.754  27.808  1.00  0.00     0.031 A 
BRANCH  49  63
ATOM     63  C   UNL A   1      45.587  32.459  29.675  1.00  0.00    -0.014 A 
ATOM     64  C   UNL A   1      45.947  32.813  30.985  1.00  0.00     0.009 A 
ATOM     65  C   UNL A   1      45.694  33.420  28.657  1.00  0.00     0.009 A 
ATOM     66  C   UNL A   1      46.374  34.111  31.273  1.00  0.00     0.001 A 
ATOM     67  C   UNL A   1      46.145  34.709  28.944  1.00  0.00     0.001 A 
ATOM     68  C   UNL A   1      46.476  35.055  30.252  1.00  0.00     0.000 A 
ENDBRANCH  49  63
BRANCH  50  69
ATOM     69  C   UNL A   1      42.002  23.419  27.481  1.00  0.00    -0.014 A 
ATOM     70  C   UNL A   1      41.526  23.154  26.189  1.00  0.00     0.009 A 
ATOM     71  C   UNL A   1      41.961  22.398  28.443  1.00  0.00     0.009 A 
ATOM     72  C   UNL A   1      40.998  21.900  25.873  1.00  0.00     0.001 A 
ATOM     73  C   UNL A   1      41.455  21.138  28.119  1.00  0.00     0.001 A 
ATOM     74  C   UNL A   1      40.966  20.893  26.837  1.00  0.00     0.000 A 
ENDBRANCH  50  69
BRANCH  62  75
ATOM     75  C   UNL A   1      48.390  26.185  27.484  1.00  0.00    -0.014 A 
ATOM     76  C   UNL A   1      48.963  26.348  26.213  1.00  0.00     0.009 A 
ATOM     77  C   UNL A   1      49.116  25.511  28.478  1.00  0.00     0.009 A 
ATOM     78  C   UNL A   1      50.227  25.820  25.937  1.00  0.00     0.001 A 
ATOM     79  C   UNL A   1      50.389  25.008  28.207  1.00  0.00     0.001 A 
ATOM     80  C   UNL A   1      50.939  25.155  26.934  1.00  0.00     0.000 A 
ENDBRANCH  62  75
ENDBRANCH  36  37
ENDBRANCH  29  31
ENDBRANCH  28  29
ENDBRANCH  27  28
ENDBRANCH  26  27
ENDBRANCH  25  26
ENDBRANCH   1  25
TORSDOF 18
ENDMDL
