MODEL 1
REMARK VINA RESULT:     -10.7      0.000      0.000
REMARK SMILES [NH3+]Cc1ccc(C(=O)N2[C@@H](C(=O)OCCOCCOC(=O)c3ccc(-c4c5nc(c(-c6ccccc6)c6ccc([nH]6)c(-c6ccccc6)c6nc(c(-c7ccccc7)c7ccc4[nH]7)C=C6)C=C5)cc3)C[C@H]3CCCC[C@@H]32)o1
REMARK SMILES IDX 15 1 14 2 13 3 11 4 12 5 10 6 9 7 76 8 70 9 71 10 75 11
REMARK SMILES IDX 72 12 74 13 73 14 7 15 8 16 6 17 3 18 4 19 77 20 5 21 2 22
REMARK SMILES IDX 1 23 16 27 17 28 18 29 19 30 20 31 21 32 22 33 23 34 69 35
REMARK SMILES IDX 24 36 68 37 25 38 26 39 27 40 62 41 28 42 67 43 61 44 63 45
REMARK SMILES IDX 29 46 66 47 60 48 59 49 30 51 52 52 37 53 51 54 38 55 41 56
REMARK SMILES IDX 50 57 64 58 39 59 40 60 49 62 65 63 42 64 31 65 32 66 36 67
REMARK SMILES IDX 33 68 35 69 34 70 53 71 54 72 58 73 55 74 57 75 56 76 43 77
REMARK SMILES IDX 44 78 48 79 45 80 47 81 46 82
REMARK H PARENT 1 24 1 25 1 26 63 50 41 61
REMARK Flexibility Score: inf
ROOT
ATOM      1  C   UNL A   1      34.879  23.764  25.676  1.00  0.00     0.202 C 
ENDROOT
BRANCH   1   2
ATOM      2  C   UNL A   1      33.406  23.415  25.467  1.00  0.00     0.261 C 
BRANCH   2   3
ATOM      3  O   UNL A   1      32.563  24.579  25.534  1.00  0.00    -0.462 OA
BRANCH   3   4
ATOM      4  C   UNL A   1      31.861  24.831  24.392  1.00  0.00     0.328 C 
ATOM      5  O   UNL A   1      32.201  24.455  23.277  1.00  0.00    -0.250 OA
BRANCH   4   6
ATOM      6  C   UNL A   1      30.628  25.721  24.680  1.00  0.00     0.196 C 
ATOM      7  N   UNL A   1      30.755  27.056  24.074  1.00  0.00    -0.319 N 
ATOM      8  C   UNL A   1      31.633  27.842  24.897  1.00  0.00     0.089 C 
ATOM      9  C   UNL A   1      30.656  26.018  26.190  1.00  0.00     0.043 C 
ATOM     10  C   UNL A   1      31.066  27.497  26.277  1.00  0.00     0.014 C 
ATOM     11  C   UNL A   1      31.699  29.353  24.744  1.00  0.00     0.025 C 
ATOM     12  C   UNL A   1      32.054  27.906  27.350  1.00  0.00     0.006 C 
ATOM     13  C   UNL A   1      32.644  29.899  25.828  1.00  0.00     0.002 C 
ATOM     14  C   UNL A   1      32.296  29.420  27.248  1.00  0.00     0.000 C 
BRANCH   7  15
ATOM     15  C   UNL A   1      30.429  27.380  22.777  1.00  0.00     0.290 C 
ATOM     16  O   UNL A   1      31.182  27.121  21.841  1.00  0.00    -0.265 OA
BRANCH  15  17
ATOM     17  C   UNL A   1      29.230  28.198  22.654  1.00  0.00     0.192 A 
ATOM     18  C   UNL A   1      28.127  30.040  22.119  1.00  0.00     0.159 A 
ATOM     19  C   UNL A   1      27.266  29.285  22.883  1.00  0.00     0.052 A 
ATOM     20  O   UNL A   1      29.304  29.370  21.942  1.00  0.00    -0.450 OA
ATOM     21  C   UNL A   1      27.973  28.110  23.233  1.00  0.00     0.057 A 
BRANCH  18  22
ATOM     22  C   UNL A   1      28.025  31.401  21.525  1.00  0.00     0.335 C 
BRANCH  22  23
ATOM     23  N   UNL A   1      29.244  32.172  21.742  1.00  0.00    -0.351 N 
ATOM     24  H   UNL A   1      29.772  31.765  22.514  1.00  0.00     0.344 HD
ATOM     25  H   UNL A   1      29.000  33.136  21.968  1.00  0.00     0.344 HD
ATOM     26  H   UNL A   1      29.812  32.155  20.896  1.00  0.00     0.344 HD
ENDBRANCH  22  23
ENDBRANCH  18  22
ENDBRANCH  15  17
ENDBRANCH   7  15
ENDBRANCH   4   6
ENDBRANCH   3   4
ENDBRANCH   2   3
ENDBRANCH   1   2
BRANCH   1  27
ATOM     27  O   UNL A   1      35.756  22.705  26.043  1.00  0.00    -0.374 OA
BRANCH  27  28
ATOM     28  C   UNL A   1      35.617  21.447  25.383  1.00  0.00     0.202 C 
BRANCH  28  29
ATOM     29  C   UNL A   1      36.876  20.583  25.245  1.00  0.00     0.261 C 
BRANCH  29  30
ATOM     30  O   UNL A   1      38.074  21.362  25.070  1.00  0.00    -0.460 OA
BRANCH  30  31
ATOM     31  C   UNL A   1      39.057  21.098  25.964  1.00  0.00     0.338 C 
ATOM     32  O   UNL A   1      39.557  20.012  26.224  1.00  0.00    -0.246 OA
BRANCH  31  33
ATOM     33  C   UNL A   1      39.608  22.356  26.497  1.00  0.00     0.060 A 
ATOM     34  C   UNL A   1      39.090  23.558  25.998  1.00  0.00     0.016 A 
ATOM     35  C   UNL A   1      40.661  22.362  27.413  1.00  0.00     0.016 A 
ATOM     36  C   UNL A   1      39.642  24.775  26.394  1.00  0.00     0.010 A 
ATOM     37  C   UNL A   1      41.225  23.584  27.797  1.00  0.00     0.010 A 
ATOM     38  C   UNL A   1      40.733  24.793  27.272  1.00  0.00    -0.014 A 
BRANCH  38  39
ATOM     39  C   UNL A   1      41.425  26.071  27.558  1.00  0.00     0.031 A 
ATOM     40  C   UNL A   1      40.761  27.088  28.440  1.00  0.00     0.074 A 
ATOM     41  C   UNL A   1      42.644  26.314  27.047  1.00  0.00     0.049 A 
ATOM     42  N   UNL A   1      41.180  28.278  28.791  1.00  0.00    -0.248 NA
ATOM     43  C   UNL A   1      39.455  26.715  29.004  1.00  0.00     0.031 C 
ATOM     44  C   UNL A   1      43.414  25.386  26.220  1.00  0.00     0.029 A 
ATOM     45  N   UNL A   1      43.445  27.423  27.148  1.00  0.00    -0.354 N 
ATOM     46  C   UNL A   1      40.188  28.797  29.615  1.00  0.00     0.074 A 
ATOM     47  C   UNL A   1      39.137  27.804  29.690  1.00  0.00     0.031 C 
ATOM     48  C   UNL A   1      44.578  25.969  25.883  1.00  0.00     0.029 A 
ATOM     49  C   UNL A   1      44.617  27.319  26.442  1.00  0.00     0.049 A 
ATOM     50  H   UNL A   1      43.201  28.217  27.677  1.00  0.00     0.167 HD
ATOM     51  C   UNL A   1      40.158  29.990  30.255  1.00  0.00     0.031 A 
ATOM     52  C   UNL A   1      45.599  28.219  26.248  1.00  0.00     0.031 A 
ATOM     53  C   UNL A   1      41.190  30.987  30.162  1.00  0.00     0.049 A 
ATOM     54  C   UNL A   1      45.489  29.581  26.874  1.00  0.00     0.074 A 
ATOM     55  C   UNL A   1      41.263  32.218  30.792  1.00  0.00     0.029 A 
ATOM     56  N   UNL A   1      42.324  30.875  29.372  1.00  0.00    -0.354 N 
ATOM     57  N   UNL A   1      44.560  30.051  27.673  1.00  0.00    -0.248 NA
ATOM     58  C   UNL A   1      46.559  30.541  26.566  1.00  0.00     0.031 C 
ATOM     59  C   UNL A   1      42.411  32.875  30.336  1.00  0.00     0.029 A 
ATOM     60  C   UNL A   1      43.080  32.032  29.463  1.00  0.00     0.049 A 
ATOM     61  H   UNL A   1      42.558  30.089  28.828  1.00  0.00     0.167 HD
ATOM     62  C   UNL A   1      44.941  31.352  27.973  1.00  0.00     0.074 A 
ATOM     63  C   UNL A   1      46.192  31.593  27.284  1.00  0.00     0.031 C 
ATOM     64  C   UNL A   1      44.310  32.266  28.753  1.00  0.00     0.031 A 
BRANCH  51  65
ATOM     65  C   UNL A   1      38.940  30.294  31.080  1.00  0.00    -0.014 A 
ATOM     66  C   UNL A   1      38.880  29.963  32.443  1.00  0.00     0.009 A 
ATOM     67  C   UNL A   1      37.840  30.933  30.486  1.00  0.00     0.009 A 
ATOM     68  C   UNL A   1      37.728  30.233  33.185  1.00  0.00     0.001 A 
ATOM     69  C   UNL A   1      36.700  31.224  31.237  1.00  0.00     0.001 A 
ATOM     70  C   UNL A   1      36.641  30.865  32.582  1.00  0.00     0.000 A 
ENDBRANCH  51  65
BRANCH  52  71
ATOM     71  C   UNL A   1      46.763  27.870  25.395  1.00  0.00    -0.014 A 
ATOM     72  C   UNL A   1      47.941  27.367  25.965  1.00  0.00     0.009 A 
ATOM     73  C   UNL A   1      46.697  28.034  24.002  1.00  0.00     0.009 A 
ATOM     74  C   UNL A   1      49.034  27.047  25.159  1.00  0.00     0.001 A 
ATOM     75  C   UNL A   1      47.784  27.690  23.196  1.00  0.00     0.001 A 
ATOM     76  C   UNL A   1      48.954  27.202  23.775  1.00  0.00     0.000 A 
ENDBRANCH  52  71
BRANCH  64  77
ATOM     77  C   UNL A   1      44.965  33.610  28.900  1.00  0.00    -0.014 A 
ATOM     78  C   UNL A   1      45.927  33.840  29.895  1.00  0.00     0.009 A 
ATOM     79  C   UNL A   1      44.645  34.645  28.009  1.00  0.00     0.009 A 
ATOM     80  C   UNL A   1      46.539  35.090  30.009  1.00  0.00     0.001 A 
ATOM     81  C   UNL A   1      45.277  35.886  28.110  1.00  0.00     0.001 A 
ATOM     82  C   UNL A   1      46.217  36.109  29.114  1.00  0.00     0.000 A 
ENDBRANCH  64  77
ENDBRANCH  38  39
ENDBRANCH  31  33
ENDBRANCH  30  31
ENDBRANCH  29  30
ENDBRANCH  28  29
ENDBRANCH  27  28
ENDBRANCH   1  27
TORSDOF 18
ENDMDL
MODEL 2
REMARK VINA RESULT:     -10.5      4.076      8.944
REMARK SMILES [NH3+]Cc1ccc(C(=O)N2[C@@H](C(=O)OCCOCCOC(=O)c3ccc(-c4c5nc(c(-c6ccccc6)c6ccc([nH]6)c(-c6ccccc6)c6nc(c(-c7ccccc7)c7ccc4[nH]7)C=C6)C=C5)cc3)C[C@H]3CCCC[C@@H]32)o1
REMARK SMILES IDX 15 1 14 2 13 3 11 4 12 5 10 6 9 7 76 8 70 9 71 10 75 11
REMARK SMILES IDX 72 12 74 13 73 14 7 15 8 16 6 17 3 18 4 19 77 20 5 21 2 22
REMARK SMILES IDX 1 23 16 27 17 28 18 29 19 30 20 31 21 32 22 33 23 34 69 35
REMARK SMILES IDX 24 36 68 37 25 38 26 39 27 40 62 41 28 42 67 43 61 44 63 45
REMARK SMILES IDX 29 46 66 47 60 48 59 49 30 51 52 52 37 53 51 54 38 55 41 56
REMARK SMILES IDX 50 57 64 58 39 59 40 60 49 62 65 63 42 64 31 65 32 66 36 67
REMARK SMILES IDX 33 68 35 69 34 70 53 71 54 72 58 73 55 74 57 75 56 76 43 77
REMARK SMILES IDX 44 78 48 79 45 80 47 81 46 82
REMARK H PARENT 1 24 1 25 1 26 63 50 41 61
REMARK Flexibility Score: inf
ROOT
ATOM      1  C   UNL A   1      32.760  29.444  25.948  1.00  0.00     0.202 C 
ENDROOT
BRANCH   1   2
ATOM      2  C   UNL A   1      32.568  27.927  25.916  1.00  0.00     0.261 C 
BRANCH   2   3
ATOM      3  O   UNL A   1      33.678  27.259  25.289  1.00  0.00    -0.462 OA
BRANCH   3   4
ATOM      4  C   UNL A   1      33.575  25.899  25.268  1.00  0.00     0.328 C 
ATOM      5  O   UNL A   1      32.989  25.238  26.117  1.00  0.00    -0.250 OA
BRANCH   4   6
ATOM      6  C   UNL A   1      34.364  25.299  24.080  1.00  0.00     0.196 C 
ATOM      7  N   UNL A   1      33.482  24.622  23.116  1.00  0.00    -0.319 N 
ATOM      8  C   UNL A   1      33.129  23.337  23.654  1.00  0.00     0.089 C 
ATOM      9  C   UNL A   1      35.202  24.144  24.659  1.00  0.00     0.043 C 
ATOM     10  C   UNL A   1      34.507  22.875  24.137  1.00  0.00     0.014 C 
ATOM     11  C   UNL A   1      32.521  22.261  22.768  1.00  0.00     0.025 C 
ATOM     12  C   UNL A   1      34.349  21.703  25.083  1.00  0.00     0.006 C 
ATOM     13  C   UNL A   1      32.358  20.986  23.613  1.00  0.00     0.002 C 
ATOM     14  C   UNL A   1      33.646  20.558  24.338  1.00  0.00     0.000 C 
BRANCH   7  15
ATOM     15  C   UNL A   1      32.801  25.234  22.088  1.00  0.00     0.290 C 
ATOM     16  O   UNL A   1      33.235  25.233  20.939  1.00  0.00    -0.265 OA
BRANCH  15  17
ATOM     17  C   UNL A   1      31.649  26.013  22.523  1.00  0.00     0.192 A 
ATOM     18  C   UNL A   1      30.576  27.899  22.956  1.00  0.00     0.159 A 
ATOM     19  C   UNL A   1      29.830  26.891  23.526  1.00  0.00     0.052 A 
ATOM     20  O   UNL A   1      31.657  27.370  22.311  1.00  0.00    -0.450 OA
ATOM     21  C   UNL A   1      30.520  25.686  23.257  1.00  0.00     0.057 A 
BRANCH  18  22
ATOM     22  C   UNL A   1      30.443  29.381  22.958  1.00  0.00     0.335 C 
BRANCH  22  23
ATOM     23  N   UNL A   1      30.685  29.942  21.633  1.00  0.00    -0.351 N 
ATOM     24  H   UNL A   1      31.373  30.692  21.702  1.00  0.00     0.344 HD
ATOM     25  H   UNL A   1      29.813  30.313  21.257  1.00  0.00     0.344 HD
ATOM     26  H   UNL A   1      31.039  29.213  21.015  1.00  0.00     0.344 HD
ENDBRANCH  22  23
ENDBRANCH  18  22
ENDBRANCH  15  17
ENDBRANCH   7  15
ENDBRANCH   4   6
ENDBRANCH   3   4
ENDBRANCH   2   3
ENDBRANCH   1   2
BRANCH   1  27
ATOM     27  O   UNL A   1      32.187  30.151  27.043  1.00  0.00    -0.374 OA
BRANCH  27  28
ATOM     28  C   UNL A   1      31.789  31.507  26.843  1.00  0.00     0.202 C 
BRANCH  28  29
ATOM     29  C   UNL A   1      32.789  32.599  27.239  1.00  0.00     0.261 C 
BRANCH  29  30
ATOM     30  O   UNL A   1      32.150  33.829  27.630  1.00  0.00    -0.460 OA
BRANCH  30  31
ATOM     31  C   UNL A   1      32.921  34.657  28.375  1.00  0.00     0.338 C 
ATOM     32  O   UNL A   1      32.636  35.774  28.785  1.00  0.00    -0.246 OA
BRANCH  31  33
ATOM     33  C   UNL A   1      34.144  33.958  28.807  1.00  0.00     0.060 A 
ATOM     34  C   UNL A   1      34.022  32.996  29.819  1.00  0.00     0.016 A 
ATOM     35  C   UNL A   1      35.396  34.286  28.286  1.00  0.00     0.016 A 
ATOM     36  C   UNL A   1      35.159  32.375  30.333  1.00  0.00     0.010 A 
ATOM     37  C   UNL A   1      36.538  33.674  28.815  1.00  0.00     0.010 A 
ATOM     38  C   UNL A   1      36.426  32.735  29.855  1.00  0.00    -0.014 A 
BRANCH  38  39
ATOM     39  C   UNL A   1      37.639  32.203  30.518  1.00  0.00     0.031 A 
ATOM     40  C   UNL A   1      38.329  31.000  29.940  1.00  0.00     0.074 A 
ATOM     41  C   UNL A   1      38.130  32.797  31.618  1.00  0.00     0.049 A 
ATOM     42  N   UNL A   1      39.383  30.360  30.379  1.00  0.00    -0.248 NA
ATOM     43  C   UNL A   1      37.758  30.449  28.701  1.00  0.00     0.031 C 
ATOM     44  C   UNL A   1      37.582  33.999  32.246  1.00  0.00     0.029 A 
ATOM     45  N   UNL A   1      39.204  32.464  32.405  1.00  0.00    -0.354 N 
ATOM     46  C   UNL A   1      39.601  29.330  29.473  1.00  0.00     0.074 A 
ATOM     47  C   UNL A   1      38.554  29.414  28.476  1.00  0.00     0.031 C 
ATOM     48  C   UNL A   1      38.322  34.300  33.327  1.00  0.00     0.029 A 
ATOM     49  C   UNL A   1      39.370  33.294  33.485  1.00  0.00     0.049 A 
ATOM     50  H   UNL A   1      39.797  31.701  32.213  1.00  0.00     0.167 HD
ATOM     51  C   UNL A   1      40.585  28.399  29.469  1.00  0.00     0.031 A 
ATOM     52  C   UNL A   1      40.253  33.235  34.500  1.00  0.00     0.031 A 
ATOM     53  C   UNL A   1      41.610  28.299  30.474  1.00  0.00     0.049 A 
ATOM     54  C   UNL A   1      41.265  32.124  34.537  1.00  0.00     0.074 A 
ATOM     55  C   UNL A   1      42.666  27.407  30.544  1.00  0.00     0.029 A 
ATOM     56  N   UNL A   1      41.696  29.111  31.594  1.00  0.00    -0.354 N 
ATOM     57  N   UNL A   1      41.479  31.171  33.661  1.00  0.00    -0.248 NA
ATOM     58  C   UNL A   1      42.154  32.076  35.707  1.00  0.00     0.031 C 
ATOM     59  C   UNL A   1      43.355  27.640  31.740  1.00  0.00     0.029 A 
ATOM     60  C   UNL A   1      42.760  28.711  32.386  1.00  0.00     0.049 A 
ATOM     61  H   UNL A   1      41.092  29.860  31.797  1.00  0.00     0.167 HD
ATOM     62  C   UNL A   1      42.532  30.421  34.166  1.00  0.00     0.074 A 
ATOM     63  C   UNL A   1      42.925  31.037  35.417  1.00  0.00     0.031 C 
ATOM     64  C   UNL A   1      43.123  29.320  33.640  1.00  0.00     0.031 A 
BRANCH  51  65
ATOM     65  C   UNL A   1      40.567  27.387  28.359  1.00  0.00    -0.014 A 
ATOM     66  C   UNL A   1      41.276  27.600  27.167  1.00  0.00     0.009 A 
ATOM     67  C   UNL A   1      39.840  26.197  28.516  1.00  0.00     0.009 A 
ATOM     68  C   UNL A   1      41.225  26.655  26.138  1.00  0.00     0.001 A 
ATOM     69  C   UNL A   1      39.811  25.245  27.496  1.00  0.00     0.001 A 
ATOM     70  C   UNL A   1      40.495  25.479  26.305  1.00  0.00     0.000 A 
ENDBRANCH  51  65
BRANCH  52  71
ATOM     71  C   UNL A   1      40.199  34.247  35.585  1.00  0.00    -0.014 A 
ATOM     72  C   UNL A   1      39.543  33.966  36.792  1.00  0.00     0.009 A 
ATOM     73  C   UNL A   1      40.809  35.500  35.418  1.00  0.00     0.009 A 
ATOM     74  C   UNL A   1      39.490  34.924  37.806  1.00  0.00     0.001 A 
ATOM     75  C   UNL A   1      40.775  36.448  36.442  1.00  0.00     0.001 A 
ATOM     76  C   UNL A   1      40.110  36.161  37.633  1.00  0.00     0.000 A 
ENDBRANCH  52  71
BRANCH  64  77
ATOM     77  C   UNL A   1      44.257  28.712  34.416  1.00  0.00    -0.014 A 
ATOM     78  C   UNL A   1      45.571  29.180  34.262  1.00  0.00     0.009 A 
ATOM     79  C   UNL A   1      44.002  27.688  35.341  1.00  0.00     0.009 A 
ATOM     80  C   UNL A   1      46.612  28.616  35.003  1.00  0.00     0.001 A 
ATOM     81  C   UNL A   1      45.040  27.144  36.098  1.00  0.00     0.001 A 
ATOM     82  C   UNL A   1      46.346  27.603  35.923  1.00  0.00     0.000 A 
ENDBRANCH  64  77
ENDBRANCH  38  39
ENDBRANCH  31  33
ENDBRANCH  30  31
ENDBRANCH  29  30
ENDBRANCH  28  29
ENDBRANCH  27  28
ENDBRANCH   1  27
TORSDOF 18
ENDMDL
MODEL 3
REMARK VINA RESULT:     -10.5      3.438      7.692
REMARK SMILES [NH3+]Cc1ccc(C(=O)N2[C@@H](C(=O)OCCOCCOC(=O)c3ccc(-c4c5nc(c(-c6ccccc6)c6ccc([nH]6)c(-c6ccccc6)c6nc(c(-c7ccccc7)c7ccc4[nH]7)C=C6)C=C5)cc3)C[C@H]3CCCC[C@@H]32)o1
REMARK SMILES IDX 15 1 14 2 13 3 11 4 12 5 10 6 9 7 76 8 70 9 71 10 75 11
REMARK SMILES IDX 72 12 74 13 73 14 7 15 8 16 6 17 3 18 4 19 77 20 5 21 2 22
REMARK SMILES IDX 1 23 16 27 17 28 18 29 19 30 20 31 21 32 22 33 23 34 69 35
REMARK SMILES IDX 24 36 68 37 25 38 26 39 27 40 62 41 28 42 67 43 61 44 63 45
REMARK SMILES IDX 29 46 66 47 60 48 59 49 30 51 52 52 37 53 51 54 38 55 41 56
REMARK SMILES IDX 50 57 64 58 39 59 40 60 49 62 65 63 42 64 31 65 32 66 36 67
REMARK SMILES IDX 33 68 35 69 34 70 53 71 54 72 58 73 55 74 57 75 56 76 43 77
REMARK SMILES IDX 44 78 48 79 45 80 47 81 46 82
REMARK H PARENT 1 24 1 25 1 26 63 50 41 61
REMARK Flexibility Score: inf
ROOT
ATOM      1  C   UNL A   1      30.899  25.890  26.110  1.00  0.00     0.202 C 
ENDROOT
BRANCH   1   2
ATOM      2  C   UNL A   1      31.171  24.392  25.974  1.00  0.00     0.261 C 
BRANCH   2   3
ATOM      3  O   UNL A   1      31.858  23.864  27.123  1.00  0.00    -0.462 OA
BRANCH   3   4
ATOM      4  C   UNL A   1      33.013  23.200  26.830  1.00  0.00     0.328 C 
ATOM      5  O   UNL A   1      33.572  22.420  27.591  1.00  0.00    -0.250 OA
BRANCH   4   6
ATOM      6  C   UNL A   1      33.564  23.623  25.447  1.00  0.00     0.196 C 
ATOM      7  N   UNL A   1      34.201  22.502  24.739  1.00  0.00    -0.319 N 
ATOM      8  C   UNL A   1      35.508  22.297  25.303  1.00  0.00     0.089 C 
ATOM      9  C   UNL A   1      34.741  24.575  25.727  1.00  0.00     0.043 C 
ATOM     10  C   UNL A   1      35.988  23.750  25.368  1.00  0.00     0.014 C 
ATOM     11  C   UNL A   1      36.546  21.456  24.578  1.00  0.00     0.025 C 
ATOM     12  C   UNL A   1      37.198  23.846  26.274  1.00  0.00     0.006 C 
ATOM     13  C   UNL A   1      37.855  21.519  25.385  1.00  0.00     0.002 C 
ATOM     14  C   UNL A   1      38.312  22.952  25.708  1.00  0.00     0.000 C 
BRANCH   7  15
ATOM     15  C   UNL A   1      33.549  21.570  23.964  1.00  0.00     0.290 C 
ATOM     16  O   UNL A   1      33.034  21.873  22.891  1.00  0.00    -0.265 OA
BRANCH  15  17
ATOM     17  C   UNL A   1      33.377  20.277  24.613  1.00  0.00     0.192 A 
ATOM     18  C   UNL A   1      33.730  18.104  24.837  1.00  0.00     0.159 A 
ATOM     19  C   UNL A   1      32.664  18.407  25.654  1.00  0.00     0.052 A 
ATOM     20  O   UNL A   1      34.193  19.239  24.234  1.00  0.00    -0.450 OA
ATOM     21  C   UNL A   1      32.432  19.795  25.506  1.00  0.00     0.057 A 
BRANCH  18  22
ATOM     22  C   UNL A   1      34.399  16.824  24.479  1.00  0.00     0.335 C 
BRANCH  22  23
ATOM     23  N   UNL A   1      35.475  16.503  25.410  1.00  0.00    -0.351 N 
ATOM     24  H   UNL A   1      35.200  15.709  25.988  1.00  0.00     0.344 HD
ATOM     25  H   UNL A   1      35.660  17.310  26.006  1.00  0.00     0.344 HD
ATOM     26  H   UNL A   1      36.318  16.267  24.888  1.00  0.00     0.344 HD
ENDBRANCH  22  23
ENDBRANCH  18  22
ENDBRANCH  15  17
ENDBRANCH   7  15
ENDBRANCH   4   6
ENDBRANCH   3   4
ENDBRANCH   2   3
ENDBRANCH   1   2
BRANCH   1  27
ATOM     27  O   UNL A   1      32.027  26.756  26.158  1.00  0.00    -0.374 OA
BRANCH  27  28
ATOM     28  C   UNL A   1      31.828  28.110  26.563  1.00  0.00     0.202 C 
BRANCH  28  29
ATOM     29  C   UNL A   1      33.026  29.061  26.449  1.00  0.00     0.261 C 
BRANCH  29  30
ATOM     30  O   UNL A   1      33.865  29.048  27.619  1.00  0.00    -0.460 OA
BRANCH  30  31
ATOM     31  C   UNL A   1      34.502  30.217  27.874  1.00  0.00     0.338 C 
ATOM     32  O   UNL A   1      34.013  31.338  27.921  1.00  0.00    -0.246 OA
BRANCH  31  33
ATOM     33  C   UNL A   1      35.895  29.958  28.277  1.00  0.00     0.060 A 
ATOM     34  C   UNL A   1      36.892  30.095  27.303  1.00  0.00     0.016 A 
ATOM     35  C   UNL A   1      36.213  29.517  29.562  1.00  0.00     0.016 A 
ATOM     36  C   UNL A   1      38.213  29.768  27.603  1.00  0.00     0.010 A 
ATOM     37  C   UNL A   1      37.537  29.173  29.857  1.00  0.00     0.010 A 
ATOM     38  C   UNL A   1      38.537  29.275  28.873  1.00  0.00    -0.014 A 
BRANCH  38  39
ATOM     39  C   UNL A   1      39.903  28.767  29.138  1.00  0.00     0.031 A 
ATOM     40  C   UNL A   1      40.899  29.654  29.829  1.00  0.00     0.074 A 
ATOM     41  C   UNL A   1      40.247  27.519  28.778  1.00  0.00     0.049 A 
ATOM     42  N   UNL A   1      42.151  29.416  30.129  1.00  0.00    -0.248 NA
ATOM     43  C   UNL A   1      40.419  30.983  30.241  1.00  0.00     0.031 C 
ATOM     44  C   UNL A   1      39.357  26.545  28.148  1.00  0.00     0.029 A 
ATOM     45  N   UNL A   1      41.446  26.860  28.891  1.00  0.00    -0.354 N 
ATOM     46  C   UNL A   1      42.610  30.565  30.762  1.00  0.00     0.074 A 
ATOM     47  C   UNL A   1      41.511  31.507  30.779  1.00  0.00     0.031 C 
ATOM     48  C   UNL A   1      40.044  25.411  27.924  1.00  0.00     0.029 A 
ATOM     49  C   UNL A   1      41.426  25.594  28.362  1.00  0.00     0.049 A 
ATOM     50  H   UNL A   1      42.242  27.259  29.310  1.00  0.00     0.167 HD
ATOM     51  C   UNL A   1      43.835  30.811  31.285  1.00  0.00     0.031 A 
ATOM     52  C   UNL A   1      42.417  24.693  28.225  1.00  0.00     0.031 A 
ATOM     53  C   UNL A   1      44.935  29.885  31.246  1.00  0.00     0.049 A 
ATOM     54  C   UNL A   1      43.799  25.033  28.709  1.00  0.00     0.074 A 
ATOM     55  C   UNL A   1      46.207  30.032  31.770  1.00  0.00     0.029 A 
ATOM     56  N   UNL A   1      44.897  28.643  30.631  1.00  0.00    -0.354 N 
ATOM     57  N   UNL A   1      44.215  26.111  29.331  1.00  0.00    -0.248 NA
ATOM     58  C   UNL A   1      44.850  24.034  28.468  1.00  0.00     0.031 C 
ATOM     59  C   UNL A   1      46.957  28.904  31.419  1.00  0.00     0.029 A 
ATOM     60  C   UNL A   1      46.136  28.032  30.722  1.00  0.00     0.049 A 
ATOM     61  H   UNL A   1      44.106  28.253  30.194  1.00  0.00     0.167 HD
ATOM     62  C   UNL A   1      45.570  25.915  29.565  1.00  0.00     0.074 A 
ATOM     63  C   UNL A   1      45.902  24.609  29.034  1.00  0.00     0.031 C 
ATOM     64  C   UNL A   1      46.458  26.743  30.168  1.00  0.00     0.031 A 
BRANCH  51  65
ATOM     65  C   UNL A   1      44.055  32.161  31.906  1.00  0.00    -0.014 A 
ATOM     66  C   UNL A   1      44.518  33.247  31.147  1.00  0.00     0.009 A 
ATOM     67  C   UNL A   1      43.781  32.352  33.270  1.00  0.00     0.009 A 
ATOM     68  C   UNL A   1      44.738  34.487  31.751  1.00  0.00     0.001 A 
ATOM     69  C   UNL A   1      43.978  33.599  33.864  1.00  0.00     0.001 A 
ATOM     70  C   UNL A   1      44.466  34.662  33.107  1.00  0.00     0.000 A 
ENDBRANCH  51  65
BRANCH  52  71
ATOM     71  C   UNL A   1      42.143  23.388  27.573  1.00  0.00    -0.014 A 
ATOM     72  C   UNL A   1      41.573  22.332  28.299  1.00  0.00     0.009 A 
ATOM     73  C   UNL A   1      42.447  23.195  26.216  1.00  0.00     0.009 A 
ATOM     74  C   UNL A   1      41.325  21.105  27.681  1.00  0.00     0.001 A 
ATOM     75  C   UNL A   1      42.175  21.975  25.595  1.00  0.00     0.001 A 
ATOM     76  C   UNL A   1      41.620  20.928  26.329  1.00  0.00     0.000 A 
ENDBRANCH  52  71
BRANCH  64  77
ATOM     77  C   UNL A   1      47.876  26.259  30.285  1.00  0.00    -0.014 A 
ATOM     78  C   UNL A   1      48.771  26.379  29.212  1.00  0.00     0.009 A 
ATOM     79  C   UNL A   1      48.332  25.715  31.496  1.00  0.00     0.009 A 
ATOM     80  C   UNL A   1      50.091  25.939  29.341  1.00  0.00     0.001 A 
ATOM     81  C   UNL A   1      49.657  25.300  31.630  1.00  0.00     0.001 A 
ATOM     82  C   UNL A   1      50.533  25.405  30.551  1.00  0.00     0.000 A 
ENDBRANCH  64  77
ENDBRANCH  38  39
ENDBRANCH  31  33
ENDBRANCH  30  31
ENDBRANCH  29  30
ENDBRANCH  28  29
ENDBRANCH  27  28
ENDBRANCH   1  27
TORSDOF 18
ENDMDL
