MODEL 1
REMARK VINA RESULT:     -10.5      0.000      0.000
REMARK SMILES COc1ccc(-c2nc(NCC(=O)OCCOCCOC(=O)c3ccc(-c4c5nc(c(-c6ccccc6)c6ccc([nH]6)c(-c6ccccc6)c6nc(c(-c7ccccc7)c7ccc4[nH]7)C=C6)C=C5)cc3)sc2-c2ccc(OC)cc2)cc1
REMARK SMILES IDX 16 1 15 2 14 3 12 4 13 5 11 6 10 7 9 9 7 10 8 11 72 12 71 13
REMARK SMILES IDX 6 14 3 15 4 16 82 17 5 18 81 19 2 20 1 21 73 22 74 23 80 24
REMARK SMILES IDX 75 25 79 26 76 27 77 28 78 29 17 30 18 31 19 32 20 33 21 34
REMARK SMILES IDX 22 35 23 36 24 37 70 38 25 39 69 40 26 41 27 42 28 43 63 44
REMARK SMILES IDX 29 45 68 46 62 47 64 48 30 49 67 50 61 51 60 52 31 54 53 55
REMARK SMILES IDX 38 56 52 57 39 58 42 59 51 60 65 61 40 62 41 63 50 65 66 66
REMARK SMILES IDX 43 67 32 68 33 69 37 70 34 71 36 72 35 73 54 74 55 75 59 76
REMARK SMILES IDX 56 77 58 78 57 79 44 80 45 81 49 82 46 83 48 84 47 85
REMARK H PARENT 10 8 64 53 42 64
REMARK Flexibility Score: inf
ROOT
ATOM      1  C   UNL A   1      33.297  35.287  30.073  1.00  0.00     0.202 C 
ENDROOT
BRANCH   1   2
ATOM      2  C   UNL A   1      34.229  34.921  28.914  1.00  0.00     0.261 C 
BRANCH   2   3
ATOM      3  O   UNL A   1      33.913  33.604  28.436  1.00  0.00    -0.462 OA
BRANCH   3   4
ATOM      4  C   UNL A   1      34.957  32.879  27.952  1.00  0.00     0.325 C 
ATOM      5  O   UNL A   1      36.059  33.345  27.676  1.00  0.00    -0.250 OA
BRANCH   4   6
ATOM      6  C   UNL A   1      34.672  31.380  27.928  1.00  0.00     0.238 C 
BRANCH   6   7
ATOM      7  N   UNL A   1      33.260  31.020  27.869  1.00  0.00    -0.351 N 
ATOM      8  H   UNL A   1      32.662  31.405  28.550  1.00  0.00     0.163 HD
BRANCH   7   9
ATOM      9  C   UNL A   1      32.715  30.198  26.951  1.00  0.00     0.184 A 
ATOM     10  C   UNL A   1      31.466  29.618  25.214  1.00  0.00     0.091 A 
ATOM     11  N   UNL A   1      31.981  30.663  25.965  1.00  0.00    -0.220 NA
ATOM     12  C   UNL A   1      31.902  28.355  25.584  1.00  0.00     0.064 A 
ATOM     13  S   UNL A   1      32.921  28.492  26.950  1.00  0.00    -0.096 S 
BRANCH  10  14
ATOM     14  C   UNL A   1      30.564  29.851  24.095  1.00  0.00     0.002 A 
ATOM     15  C   UNL A   1      28.993  30.504  21.864  1.00  0.00     0.118 A 
ATOM     16  C   UNL A   1      29.992  29.539  21.756  1.00  0.00     0.047 A 
ATOM     17  C   UNL A   1      28.729  31.094  23.103  1.00  0.00     0.047 A 
ATOM     18  C   UNL A   1      30.780  29.217  22.864  1.00  0.00     0.014 A 
ATOM     19  C   UNL A   1      29.510  30.763  24.217  1.00  0.00     0.014 A 
BRANCH  15  20
ATOM     20  O   UNL A   1      28.299  30.777  20.717  1.00  0.00    -0.497 OA
ATOM     21  C   UNL A   1      27.952  32.149  20.557  1.00  0.00     0.278 C 
ENDBRANCH  15  20
ENDBRANCH  10  14
BRANCH  12  22
ATOM     22  C   UNL A   1      31.677  27.042  24.985  1.00  0.00    -0.006 A 
ATOM     23  C   UNL A   1      30.452  26.384  25.126  1.00  0.00     0.013 A 
ATOM     24  C   UNL A   1      32.700  26.424  24.255  1.00  0.00     0.013 A 
ATOM     25  C   UNL A   1      30.262  25.125  24.553  1.00  0.00     0.047 A 
ATOM     26  C   UNL A   1      32.506  25.165  23.682  1.00  0.00     0.047 A 
ATOM     27  C   UNL A   1      31.285  24.508  23.832  1.00  0.00     0.118 A 
BRANCH  27  28
ATOM     28  O   UNL A   1      30.971  23.275  23.331  1.00  0.00    -0.497 OA
ATOM     29  C   UNL A   1      32.031  22.330  23.254  1.00  0.00     0.278 C 
ENDBRANCH  27  28
ENDBRANCH  12  22
ENDBRANCH   7   9
ENDBRANCH   6   7
ENDBRANCH   4   6
ENDBRANCH   3   4
ENDBRANCH   2   3
ENDBRANCH   1   2
BRANCH   1  30
ATOM     30  O   UNL A   1      33.923  35.403  31.354  1.00  0.00    -0.374 OA
BRANCH  30  31
ATOM     31  C   UNL A   1      33.328  34.705  32.446  1.00  0.00     0.202 C 
BRANCH  31  32
ATOM     32  C   UNL A   1      34.054  33.445  32.931  1.00  0.00     0.261 C 
BRANCH  32  33
ATOM     33  O   UNL A   1      35.162  33.085  32.085  1.00  0.00    -0.460 OA
BRANCH  33  34
ATOM     34  C   UNL A   1      36.331  32.910  32.743  1.00  0.00     0.338 C 
ATOM     35  O   UNL A   1      36.590  33.248  33.893  1.00  0.00    -0.246 OA
BRANCH  34  36
ATOM     36  C   UNL A   1      37.270  32.095  31.950  1.00  0.00     0.060 A 
ATOM     37  C   UNL A   1      38.266  31.412  32.658  1.00  0.00     0.016 A 
ATOM     38  C   UNL A   1      37.257  32.077  30.554  1.00  0.00     0.016 A 
ATOM     39  C   UNL A   1      39.290  30.764  31.973  1.00  0.00     0.010 A 
ATOM     40  C   UNL A   1      38.292  31.427  29.865  1.00  0.00     0.010 A 
ATOM     41  C   UNL A   1      39.336  30.805  30.573  1.00  0.00    -0.014 A 
BRANCH  41  42
ATOM     42  C   UNL A   1      40.562  30.317  29.891  1.00  0.00     0.031 A 
ATOM     43  C   UNL A   1      40.571  28.934  29.292  1.00  0.00     0.074 A 
ATOM     44  C   UNL A   1      41.616  31.132  29.707  1.00  0.00     0.049 A 
ATOM     45  N   UNL A   1      41.486  28.358  28.554  1.00  0.00    -0.248 NA
ATOM     46  C   UNL A   1      39.387  28.097  29.550  1.00  0.00     0.031 C 
ATOM     47  C   UNL A   1      41.720  32.506  30.197  1.00  0.00     0.029 A 
ATOM     48  N   UNL A   1      42.794  30.923  29.034  1.00  0.00    -0.354 N 
ATOM     49  C   UNL A   1      40.982  27.100  28.244  1.00  0.00     0.074 A 
ATOM     50  C   UNL A   1      39.703  26.980  28.909  1.00  0.00     0.031 C 
ATOM     51  C   UNL A   1      42.893  33.025  29.790  1.00  0.00     0.029 A 
ATOM     52  C   UNL A   1      43.625  32.017  29.028  1.00  0.00     0.049 A 
ATOM     53  H   UNL A   1      43.021  30.071  28.596  1.00  0.00     0.167 HD
ATOM     54  C   UNL A   1      41.523  26.136  27.460  1.00  0.00     0.031 A 
ATOM     55  C   UNL A   1      44.837  32.187  28.466  1.00  0.00     0.031 A 
ATOM     56  C   UNL A   1      42.802  26.235  26.810  1.00  0.00     0.049 A 
ATOM     57  C   UNL A   1      45.448  31.070  27.664  1.00  0.00     0.074 A 
ATOM     58  C   UNL A   1      43.442  25.297  26.016  1.00  0.00     0.029 A 
ATOM     59  N   UNL A   1      43.638  27.337  26.881  1.00  0.00    -0.354 N 
ATOM     60  N   UNL A   1      44.951  29.894  27.366  1.00  0.00    -0.248 NA
ATOM     61  C   UNL A   1      46.786  31.316  27.104  1.00  0.00     0.031 C 
ATOM     62  C   UNL A   1      44.683  25.820  25.635  1.00  0.00     0.029 A 
ATOM     63  C   UNL A   1      44.793  27.099  26.154  1.00  0.00     0.049 A 
ATOM     64  H   UNL A   1      43.440  28.165  27.373  1.00  0.00     0.167 HD
ATOM     65  C   UNL A   1      45.900  29.274  26.562  1.00  0.00     0.074 A 
ATOM     66  C   UNL A   1      46.993  30.211  26.402  1.00  0.00     0.031 C 
ATOM     67  C   UNL A   1      45.870  28.040  26.003  1.00  0.00     0.031 A 
BRANCH  54  68
ATOM     68  C   UNL A   1      40.726  24.877  27.270  1.00  0.00    -0.014 A 
ATOM     69  C   UNL A   1      39.498  24.897  26.590  1.00  0.00     0.009 A 
ATOM     70  C   UNL A   1      41.228  23.651  27.734  1.00  0.00     0.009 A 
ATOM     71  C   UNL A   1      38.776  23.718  26.401  1.00  0.00     0.001 A 
ATOM     72  C   UNL A   1      40.514  22.470  27.524  1.00  0.00     0.001 A 
ATOM     73  C   UNL A   1      39.286  22.504  26.864  1.00  0.00     0.000 A 
ENDBRANCH  54  68
BRANCH  55  74
ATOM     74  C   UNL A   1      45.570  33.470  28.631  1.00  0.00    -0.014 A 
ATOM     75  C   UNL A   1      46.383  33.692  29.752  1.00  0.00     0.009 A 
ATOM     76  C   UNL A   1      45.412  34.500  27.691  1.00  0.00     0.009 A 
ATOM     77  C   UNL A   1      46.994  34.933  29.948  1.00  0.00     0.001 A 
ATOM     78  C   UNL A   1      46.046  35.729  27.874  1.00  0.00     0.001 A 
ATOM     79  C   UNL A   1      46.827  35.949  29.008  1.00  0.00     0.000 A 
ENDBRANCH  55  74
BRANCH  67  80
ATOM     80  C   UNL A   1      47.036  27.654  25.136  1.00  0.00    -0.014 A 
ATOM     81  C   UNL A   1      48.171  27.032  25.677  1.00  0.00     0.009 A 
ATOM     82  C   UNL A   1      46.992  27.909  23.757  1.00  0.00     0.009 A 
ATOM     83  C   UNL A   1      49.258  26.713  24.859  1.00  0.00     0.001 A 
ATOM     84  C   UNL A   1      48.067  27.564  22.937  1.00  0.00     0.001 A 
ATOM     85  C   UNL A   1      49.205  26.978  23.491  1.00  0.00     0.000 A 
ENDBRANCH  67  80
ENDBRANCH  41  42
ENDBRANCH  34  36
ENDBRANCH  33  34
ENDBRANCH  32  33
ENDBRANCH  31  32
ENDBRANCH  30  31
ENDBRANCH   1  30
TORSDOF 20
ENDMDL
MODEL 2
REMARK VINA RESULT:     -10.4      4.113      8.461
REMARK SMILES COc1ccc(-c2nc(NCC(=O)OCCOCCOC(=O)c3ccc(-c4c5nc(c(-c6ccccc6)c6ccc([nH]6)c(-c6ccccc6)c6nc(c(-c7ccccc7)c7ccc4[nH]7)C=C6)C=C5)cc3)sc2-c2ccc(OC)cc2)cc1
REMARK SMILES IDX 16 1 15 2 14 3 12 4 13 5 11 6 10 7 9 9 7 10 8 11 72 12 71 13
REMARK SMILES IDX 6 14 3 15 4 16 82 17 5 18 81 19 2 20 1 21 73 22 74 23 80 24
REMARK SMILES IDX 75 25 79 26 76 27 77 28 78 29 17 30 18 31 19 32 20 33 21 34
REMARK SMILES IDX 22 35 23 36 24 37 70 38 25 39 69 40 26 41 27 42 28 43 63 44
REMARK SMILES IDX 29 45 68 46 62 47 64 48 30 49 67 50 61 51 60 52 31 54 53 55
REMARK SMILES IDX 38 56 52 57 39 58 42 59 51 60 65 61 40 62 41 63 50 65 66 66
REMARK SMILES IDX 43 67 32 68 33 69 37 70 34 71 36 72 35 73 54 74 55 75 59 76
REMARK SMILES IDX 56 77 58 78 57 79 44 80 45 81 49 82 46 83 48 84 47 85
REMARK H PARENT 10 8 64 53 42 64
REMARK Flexibility Score: inf
ROOT
ATOM      1  C   UNL A   1      33.073  30.037  25.939  1.00  0.00     0.202 C 
ENDROOT
BRANCH   1   2
ATOM      2  C   UNL A   1      32.767  28.543  25.796  1.00  0.00     0.261 C 
BRANCH   2   3
ATOM      3  O   UNL A   1      31.375  28.361  25.492  1.00  0.00    -0.462 OA
BRANCH   3   4
ATOM      4  C   UNL A   1      30.998  28.665  24.221  1.00  0.00     0.325 C 
ATOM      5  O   UNL A   1      30.282  29.615  23.916  1.00  0.00    -0.250 OA
BRANCH   4   6
ATOM      6  C   UNL A   1      31.685  27.788  23.178  1.00  0.00     0.238 C 
BRANCH   6   7
ATOM      7  N   UNL A   1      31.110  26.458  23.013  1.00  0.00    -0.351 N 
ATOM      8  H   UNL A   1      30.202  26.396  22.637  1.00  0.00     0.163 HD
BRANCH   7   9
ATOM      9  C   UNL A   1      31.732  25.308  23.339  1.00  0.00     0.184 A 
ATOM     10  C   UNL A   1      33.411  23.997  23.952  1.00  0.00     0.091 A 
ATOM     11  N   UNL A   1      32.973  25.300  23.772  1.00  0.00    -0.220 NA
ATOM     12  C   UNL A   1      32.450  23.018  23.748  1.00  0.00     0.064 A 
ATOM     13  S   UNL A   1      30.992  23.759  23.248  1.00  0.00    -0.096 S 
BRANCH  10  14
ATOM     14  C   UNL A   1      34.775  23.698  24.366  1.00  0.00     0.002 A 
ATOM     15  C   UNL A   1      37.307  22.882  25.254  1.00  0.00     0.118 A 
ATOM     16  C   UNL A   1      36.915  22.633  23.941  1.00  0.00     0.047 A 
ATOM     17  C   UNL A   1      36.466  23.602  26.105  1.00  0.00     0.047 A 
ATOM     18  C   UNL A   1      35.651  23.032  23.498  1.00  0.00     0.014 A 
ATOM     19  C   UNL A   1      35.204  24.014  25.660  1.00  0.00     0.014 A 
BRANCH  15  20
ATOM     20  O   UNL A   1      38.547  22.421  25.604  1.00  0.00    -0.497 OA
ATOM     21  C   UNL A   1      38.637  21.003  25.699  1.00  0.00     0.278 C 
ENDBRANCH  15  20
ENDBRANCH  10  14
BRANCH  12  22
ATOM     22  C   UNL A   1      32.490  21.571  23.940  1.00  0.00    -0.006 A 
ATOM     23  C   UNL A   1      32.159  20.695  22.902  1.00  0.00     0.013 A 
ATOM     24  C   UNL A   1      32.865  21.042  25.181  1.00  0.00     0.013 A 
ATOM     25  C   UNL A   1      32.195  19.315  23.110  1.00  0.00     0.047 A 
ATOM     26  C   UNL A   1      32.901  19.661  25.386  1.00  0.00     0.047 A 
ATOM     27  C   UNL A   1      32.562  18.790  24.350  1.00  0.00     0.118 A 
BRANCH  27  28
ATOM     28  O   UNL A   1      32.548  17.425  24.423  1.00  0.00    -0.497 OA
ATOM     29  C   UNL A   1      33.691  16.748  23.916  1.00  0.00     0.278 C 
ENDBRANCH  27  28
ENDBRANCH  12  22
ENDBRANCH   7   9
ENDBRANCH   6   7
ENDBRANCH   4   6
ENDBRANCH   3   4
ENDBRANCH   2   3
ENDBRANCH   1   2
BRANCH   1  30
ATOM     30  O   UNL A   1      32.446  30.691  27.046  1.00  0.00    -0.374 OA
BRANCH  30  31
ATOM     31  C   UNL A   1      31.442  31.662  26.758  1.00  0.00     0.202 C 
BRANCH  31  32
ATOM     32  C   UNL A   1      31.881  33.130  26.787  1.00  0.00     0.261 C 
BRANCH  32  33
ATOM     33  O   UNL A   1      32.412  33.523  28.066  1.00  0.00    -0.460 OA
BRANCH  33  34
ATOM     34  C   UNL A   1      33.583  34.198  28.000  1.00  0.00     0.338 C 
ATOM     35  O   UNL A   1      33.798  35.247  27.401  1.00  0.00    -0.246 OA
BRANCH  34  36
ATOM     36  C   UNL A   1      34.594  33.599  28.889  1.00  0.00     0.060 A 
ATOM     37  C   UNL A   1      35.820  34.267  28.993  1.00  0.00     0.016 A 
ATOM     38  C   UNL A   1      34.404  32.368  29.522  1.00  0.00     0.016 A 
ATOM     39  C   UNL A   1      36.881  33.678  29.673  1.00  0.00     0.010 A 
ATOM     40  C   UNL A   1      35.476  31.773  30.203  1.00  0.00     0.010 A 
ATOM     41  C   UNL A   1      36.732  32.406  30.243  1.00  0.00    -0.014 A 
BRANCH  41  42
ATOM     42  C   UNL A   1      37.944  31.709  30.744  1.00  0.00     0.031 A 
ATOM     43  C   UNL A   1      38.384  31.927  32.169  1.00  0.00     0.074 A 
ATOM     44  C   UNL A   1      38.582  30.806  29.978  1.00  0.00     0.049 A 
ATOM     45  N   UNL A   1      39.336  31.332  32.841  1.00  0.00    -0.248 NA
ATOM     46  C   UNL A   1      37.646  32.943  32.938  1.00  0.00     0.031 C 
ATOM     47  C   UNL A   1      38.234  30.468  28.599  1.00  0.00     0.029 A 
ATOM     48  N   UNL A   1      39.648  29.989  30.267  1.00  0.00    -0.354 N 
ATOM     49  C   UNL A   1      39.300  31.885  34.116  1.00  0.00     0.074 A 
ATOM     50  C   UNL A   1      38.263  32.894  34.111  1.00  0.00     0.031 C 
ATOM     51  C   UNL A   1      39.060  29.498  28.167  1.00  0.00     0.029 A 
ATOM     52  C   UNL A   1      40.002  29.161  29.231  1.00  0.00     0.049 A 
ATOM     53  H   UNL A   1      40.112  29.997  31.135  1.00  0.00     0.167 HD
ATOM     54  C   UNL A   1      40.047  31.571  35.202  1.00  0.00     0.031 A 
ATOM     55  C   UNL A   1      40.972  28.230  29.153  1.00  0.00     0.031 A 
ATOM     56  C   UNL A   1      41.094  30.585  35.216  1.00  0.00     0.049 A 
ATOM     57  C   UNL A   1      41.839  27.956  30.353  1.00  0.00     0.074 A 
ATOM     58  C   UNL A   1      41.920  30.216  36.264  1.00  0.00     0.029 A 
ATOM     59  N   UNL A   1      41.460  29.811  34.127  1.00  0.00    -0.354 N 
ATOM     60  N   UNL A   1      41.779  28.476  31.555  1.00  0.00    -0.248 NA
ATOM     61  C   UNL A   1      42.897  26.949  30.185  1.00  0.00     0.031 C 
ATOM     62  C   UNL A   1      42.811  29.243  35.799  1.00  0.00     0.029 A 
ATOM     63  C   UNL A   1      42.508  28.974  34.475  1.00  0.00     0.049 A 
ATOM     64  H   UNL A   1      41.038  29.849  33.239  1.00  0.00     0.167 HD
ATOM     65  C   UNL A   1      42.770  27.837  32.292  1.00  0.00     0.074 A 
ATOM     66  C   UNL A   1      43.401  26.880  31.409  1.00  0.00     0.031 C 
ATOM     67  C   UNL A   1      43.124  28.025  33.587  1.00  0.00     0.031 A 
BRANCH  54  68
ATOM     68  C   UNL A   1      39.759  32.316  36.474  1.00  0.00    -0.014 A 
ATOM     69  C   UNL A   1      40.592  33.364  36.900  1.00  0.00     0.009 A 
ATOM     70  C   UNL A   1      38.619  32.001  37.230  1.00  0.00     0.009 A 
ATOM     71  C   UNL A   1      40.302  34.064  38.072  1.00  0.00     0.001 A 
ATOM     72  C   UNL A   1      38.321  32.718  38.391  1.00  0.00     0.001 A 
ATOM     73  C   UNL A   1      39.165  33.744  38.814  1.00  0.00     0.000 A 
ENDBRANCH  54  68
BRANCH  55  74
ATOM     74  C   UNL A   1      41.190  27.474  27.892  1.00  0.00    -0.014 A 
ATOM     75  C   UNL A   1      42.036  27.975  26.892  1.00  0.00     0.009 A 
ATOM     76  C   UNL A   1      40.504  26.271  27.662  1.00  0.00     0.009 A 
ATOM     77  C   UNL A   1      42.164  27.306  25.672  1.00  0.00     0.001 A 
ATOM     78  C   UNL A   1      40.655  25.590  26.453  1.00  0.00     0.001 A 
ATOM     79  C   UNL A   1      41.475  26.114  25.454  1.00  0.00     0.000 A 
ENDBRANCH  55  74
BRANCH  67  80
ATOM     80  C   UNL A   1      44.218  27.149  34.130  1.00  0.00    -0.014 A 
ATOM     81  C   UNL A   1      43.933  25.908  34.718  1.00  0.00     0.009 A 
ATOM     82  C   UNL A   1      45.554  27.570  34.041  1.00  0.00     0.009 A 
ATOM     83  C   UNL A   1      44.962  25.125  35.248  1.00  0.00     0.001 A 
ATOM     84  C   UNL A   1      46.583  26.773  34.545  1.00  0.00     0.001 A 
ATOM     85  C   UNL A   1      46.285  25.557  35.160  1.00  0.00     0.000 A 
ENDBRANCH  67  80
ENDBRANCH  41  42
ENDBRANCH  34  36
ENDBRANCH  33  34
ENDBRANCH  32  33
ENDBRANCH  31  32
ENDBRANCH  30  31
ENDBRANCH   1  30
TORSDOF 20
ENDMDL
MODEL 3
REMARK VINA RESULT:      -9.8      4.192      7.222
REMARK SMILES COc1ccc(-c2nc(NCC(=O)OCCOCCOC(=O)c3ccc(-c4c5nc(c(-c6ccccc6)c6ccc([nH]6)c(-c6ccccc6)c6nc(c(-c7ccccc7)c7ccc4[nH]7)C=C6)C=C5)cc3)sc2-c2ccc(OC)cc2)cc1
REMARK SMILES IDX 16 1 15 2 14 3 12 4 13 5 11 6 10 7 9 9 7 10 8 11 72 12 71 13
REMARK SMILES IDX 6 14 3 15 4 16 82 17 5 18 81 19 2 20 1 21 73 22 74 23 80 24
REMARK SMILES IDX 75 25 79 26 76 27 77 28 78 29 17 30 18 31 19 32 20 33 21 34
REMARK SMILES IDX 22 35 23 36 24 37 70 38 25 39 69 40 26 41 27 42 28 43 63 44
REMARK SMILES IDX 29 45 68 46 62 47 64 48 30 49 67 50 61 51 60 52 31 54 53 55
REMARK SMILES IDX 38 56 52 57 39 58 42 59 51 60 65 61 40 62 41 63 50 65 66 66
REMARK SMILES IDX 43 67 32 68 33 69 37 70 34 71 36 72 35 73 54 74 55 75 59 76
REMARK SMILES IDX 56 77 58 78 57 79 44 80 45 81 49 82 46 83 48 84 47 85
REMARK H PARENT 10 8 64 53 42 64
REMARK Flexibility Score: inf
ROOT
ATOM      1  C   UNL A   1      32.911  29.734  25.747  1.00  0.00     0.202 C 
ENDROOT
BRANCH   1   2
ATOM      2  C   UNL A   1      32.833  28.247  26.108  1.00  0.00     0.261 C 
BRANCH   2   3
ATOM      3  O   UNL A   1      31.604  27.693  25.613  1.00  0.00    -0.462 OA
BRANCH   3   4
ATOM      4  C   UNL A   1      31.234  28.087  24.365  1.00  0.00     0.325 C 
ATOM      5  O   UNL A   1      30.505  29.045  24.125  1.00  0.00    -0.250 OA
BRANCH   4   6
ATOM      6  C   UNL A   1      31.945  27.303  23.265  1.00  0.00     0.238 C 
BRANCH   6   7
ATOM      7  N   UNL A   1      31.407  25.972  23.007  1.00  0.00    -0.351 N 
ATOM      8  H   UNL A   1      30.561  25.910  22.507  1.00  0.00     0.163 HD
BRANCH   7   9
ATOM      9  C   UNL A   1      31.984  24.822  23.405  1.00  0.00     0.184 A 
ATOM     10  C   UNL A   1      33.604  23.492  24.129  1.00  0.00     0.091 A 
ATOM     11  N   UNL A   1      33.211  24.798  23.876  1.00  0.00    -0.220 NA
ATOM     12  C   UNL A   1      32.621  22.533  23.941  1.00  0.00     0.064 A 
ATOM     13  S   UNL A   1      31.201  23.292  23.361  1.00  0.00    -0.096 S 
BRANCH  10  14
ATOM     14  C   UNL A   1      34.945  23.174  24.599  1.00  0.00     0.002 A 
ATOM     15  C   UNL A   1      37.618  22.764  25.343  1.00  0.00     0.118 A 
ATOM     16  C   UNL A   1      36.805  23.607  26.098  1.00  0.00     0.047 A 
ATOM     17  C   UNL A   1      37.080  22.068  24.259  1.00  0.00     0.047 A 
ATOM     18  C   UNL A   1      35.476  23.818  25.725  1.00  0.00     0.014 A 
ATOM     19  C   UNL A   1      35.744  22.270  23.891  1.00  0.00     0.014 A 
BRANCH  15  20
ATOM     20  O   UNL A   1      38.915  22.649  25.767  1.00  0.00    -0.497 OA
ATOM     21  C   UNL A   1      39.320  21.314  26.050  1.00  0.00     0.278 C 
ENDBRANCH  15  20
ENDBRANCH  10  14
BRANCH  12  22
ATOM     22  C   UNL A   1      32.612  21.096  24.200  1.00  0.00    -0.006 A 
ATOM     23  C   UNL A   1      32.446  20.176  23.160  1.00  0.00     0.013 A 
ATOM     24  C   UNL A   1      32.770  20.622  25.508  1.00  0.00     0.013 A 
ATOM     25  C   UNL A   1      32.431  18.806  23.432  1.00  0.00     0.047 A 
ATOM     26  C   UNL A   1      32.756  19.251  25.776  1.00  0.00     0.047 A 
ATOM     27  C   UNL A   1      32.583  18.337  24.737  1.00  0.00     0.118 A 
BRANCH  27  28
ATOM     28  O   UNL A   1      32.541  16.976  24.866  1.00  0.00    -0.497 OA
ATOM     29  C   UNL A   1      33.725  16.344  25.335  1.00  0.00     0.278 C 
ENDBRANCH  27  28
ENDBRANCH  12  22
ENDBRANCH   7   9
ENDBRANCH   6   7
ENDBRANCH   4   6
ENDBRANCH   3   4
ENDBRANCH   2   3
ENDBRANCH   1   2
BRANCH   1  30
ATOM     30  O   UNL A   1      32.675  30.643  26.826  1.00  0.00    -0.374 OA
BRANCH  30  31
ATOM     31  C   UNL A   1      31.634  31.605  26.663  1.00  0.00     0.202 C 
BRANCH  31  32
ATOM     32  C   UNL A   1      31.973  33.051  27.043  1.00  0.00     0.261 C 
BRANCH  32  33
ATOM     33  O   UNL A   1      32.552  33.156  28.356  1.00  0.00    -0.460 OA
BRANCH  33  34
ATOM     34  C   UNL A   1      33.331  34.248  28.537  1.00  0.00     0.338 C 
ATOM     35  O   UNL A   1      33.089  35.395  28.177  1.00  0.00    -0.246 OA
BRANCH  34  36
ATOM     36  C   UNL A   1      34.495  33.938  29.386  1.00  0.00     0.060 A 
ATOM     37  C   UNL A   1      35.758  34.229  28.857  1.00  0.00     0.016 A 
ATOM     38  C   UNL A   1      34.377  33.284  30.615  1.00  0.00     0.016 A 
ATOM     39  C   UNL A   1      36.908  33.809  29.521  1.00  0.00     0.010 A 
ATOM     40  C   UNL A   1      35.536  32.858  31.280  1.00  0.00     0.010 A 
ATOM     41  C   UNL A   1      36.804  33.080  30.714  1.00  0.00    -0.014 A 
BRANCH  41  42
ATOM     42  C   UNL A   1      38.029  32.444  31.261  1.00  0.00     0.031 A 
ATOM     43  C   UNL A   1      38.561  31.191  30.615  1.00  0.00     0.074 A 
ATOM     44  C   UNL A   1      38.726  33.034  32.250  1.00  0.00     0.049 A 
ATOM     45  N   UNL A   1      39.674  30.544  30.855  1.00  0.00    -0.248 NA
ATOM     46  C   UNL A   1      37.735  30.597  29.551  1.00  0.00     0.031 C 
ATOM     47  C   UNL A   1      38.346  34.270  32.933  1.00  0.00     0.029 A 
ATOM     48  N   UNL A   1      39.916  32.677  32.834  1.00  0.00    -0.354 N 
ATOM     49  C   UNL A   1      39.690  29.479  29.961  1.00  0.00     0.074 A 
ATOM     50  C   UNL A   1      38.458  29.541  29.205  1.00  0.00     0.031 C 
ATOM     51  C   UNL A   1      39.297  34.579  33.832  1.00  0.00     0.029 A 
ATOM     52  C   UNL A   1      40.340  33.558  33.798  1.00  0.00     0.049 A 
ATOM     53  H   UNL A   1      40.417  31.867  32.584  1.00  0.00     0.167 HD
ATOM     54  C   UNL A   1      40.652  28.544  29.769  1.00  0.00     0.031 A 
ATOM     55  C   UNL A   1      41.449  33.544  34.562  1.00  0.00     0.031 A 
ATOM     56  C   UNL A   1      41.871  28.459  30.527  1.00  0.00     0.049 A 
ATOM     57  C   UNL A   1      42.465  32.448  34.380  1.00  0.00     0.074 A 
ATOM     58  C   UNL A   1      42.893  27.530  30.419  1.00  0.00     0.029 A 
ATOM     59  N   UNL A   1      42.233  29.337  31.536  1.00  0.00    -0.354 N 
ATOM     60  N   UNL A   1      42.473  31.460  33.519  1.00  0.00    -0.248 NA
ATOM     61  C   UNL A   1      43.636  32.480  35.271  1.00  0.00     0.031 C 
ATOM     62  C   UNL A   1      43.858  27.825  31.389  1.00  0.00     0.029 A 
ATOM     63  C   UNL A   1      43.458  28.965  32.067  1.00  0.00     0.049 A 
ATOM     64  H   UNL A   1      41.701  30.109  31.831  1.00  0.00     0.167 HD
ATOM     65  C   UNL A   1      43.661  30.773  33.743  1.00  0.00     0.074 A 
ATOM     66  C   UNL A   1      44.355  31.468  34.807  1.00  0.00     0.031 C 
ATOM     67  C   UNL A   1      44.136  29.666  33.123  1.00  0.00     0.031 A 
BRANCH  54  68
ATOM     68  C   UNL A   1      40.414  27.524  28.693  1.00  0.00    -0.014 A 
ATOM     69  C   UNL A   1      40.916  27.715  27.395  1.00  0.00     0.009 A 
ATOM     70  C   UNL A   1      39.721  26.340  28.988  1.00  0.00     0.009 A 
ATOM     71  C   UNL A   1      40.707  26.750  26.408  1.00  0.00     0.001 A 
ATOM     72  C   UNL A   1      39.533  25.367  28.004  1.00  0.00     0.001 A 
ATOM     73  C   UNL A   1      40.019  25.575  26.714  1.00  0.00     0.000 A 
ENDBRANCH  54  68
BRANCH  55  74
ATOM     74  C   UNL A   1      41.675  34.604  35.580  1.00  0.00    -0.014 A 
ATOM     75  C   UNL A   1      42.422  35.750  35.268  1.00  0.00     0.009 A 
ATOM     76  C   UNL A   1      41.190  34.445  36.886  1.00  0.00     0.009 A 
ATOM     77  C   UNL A   1      42.710  36.697  36.253  1.00  0.00     0.001 A 
ATOM     78  C   UNL A   1      41.455  35.406  37.863  1.00  0.00     0.001 A 
ATOM     79  C   UNL A   1      42.225  36.525  37.549  1.00  0.00     0.000 A 
ENDBRANCH  55  74
BRANCH  67  80
ATOM     80  C   UNL A   1      45.487  29.168  33.555  1.00  0.00    -0.014 A 
ATOM     81  C   UNL A   1      45.621  28.232  34.591  1.00  0.00     0.009 A 
ATOM     82  C   UNL A   1      46.641  29.636  32.907  1.00  0.00     0.009 A 
ATOM     83  C   UNL A   1      46.889  27.808  35.000  1.00  0.00     0.001 A 
ATOM     84  C   UNL A   1      47.904  29.190  33.298  1.00  0.00     0.001 A 
ATOM     85  C   UNL A   1      48.028  28.287  34.353  1.00  0.00     0.000 A 
ENDBRANCH  67  80
ENDBRANCH  41  42
ENDBRANCH  34  36
ENDBRANCH  33  34
ENDBRANCH  32  33
ENDBRANCH  31  32
ENDBRANCH  30  31
ENDBRANCH   1  30
TORSDOF 20
ENDMDL
