MODEL 1
REMARK VINA RESULT:     -10.1      0.000      0.000
REMARK SMILES C[C@H](C(=O)OCCOCCOC(=O)c1ccc(-c2c3nc(c(-c4ccccc4)c4ccc([nH]4)c(-c4ccccc4)c4nc(c(-c5ccccc5)c5ccc2[nH]5)C=C4)C=C3)cc1)c1ccc2c(c1)OCCO2
REMARK SMILES IDX 9 1 8 2 7 3 6 4 5 5 3 6 4 7 2 8 1 9 62 10 63 11 67 12 64 13
REMARK SMILES IDX 66 14 65 15 68 16 71 17 69 18 70 19 10 20 11 21 12 22 13 23
REMARK SMILES IDX 14 24 15 25 61 26 16 27 60 28 17 29 18 30 19 31 54 32 20 33
REMARK SMILES IDX 59 34 53 35 55 36 21 37 58 38 52 39 51 40 22 42 44 43 29 44
REMARK SMILES IDX 43 45 30 46 33 47 42 48 56 49 31 50 32 51 41 53 57 54 34 55
REMARK SMILES IDX 23 56 24 57 28 58 25 59 27 60 26 61 45 62 46 63 50 64 47 65
REMARK SMILES IDX 49 66 48 67 35 68 36 69 40 70 37 71 39 72 38 73
REMARK H PARENT 55 41 33 52
REMARK Flexibility Score: inf
ROOT
ATOM      1  C   UNL A   1      46.076  22.966  25.988  1.00  0.00     0.202 C 
ENDROOT
BRANCH   1   2
ATOM      2  O   UNL A   1      45.559  21.640  26.100  1.00  0.00    -0.374 OA
BRANCH   2   3
ATOM      3  C   UNL A   1      45.587  20.834  24.917  1.00  0.00     0.202 C 
BRANCH   3   4
ATOM      4  C   UNL A   1      44.538  19.721  24.875  1.00  0.00     0.261 C 
BRANCH   4   5
ATOM      5  O   UNL A   1      43.256  20.201  25.330  1.00  0.00    -0.463 OA
BRANCH   5   6
ATOM      6  C   UNL A   1      42.433  19.256  25.850  1.00  0.00     0.313 C 
ATOM      7  O   UNL A   1      42.640  18.048  25.759  1.00  0.00    -0.252 OA
BRANCH   6   8
ATOM      8  C   UNL A   1      41.241  19.792  26.626  1.00  0.00     0.126 C 
ATOM      9  C   UNL A   1      41.750  20.887  27.579  1.00  0.00     0.025 C 
BRANCH   8  10
ATOM     10  C   UNL A   1      40.020  20.347  25.896  1.00  0.00    -0.030 A 
ATOM     11  C   UNL A   1      39.088  19.454  25.336  1.00  0.00     0.009 A 
ATOM     12  C   UNL A   1      39.649  21.691  26.021  1.00  0.00     0.055 A 
ATOM     13  C   UNL A   1      37.791  19.876  25.025  1.00  0.00     0.051 A 
ATOM     14  C   UNL A   1      38.348  22.106  25.761  1.00  0.00     0.161 A 
ATOM     15  C   UNL A   1      37.409  21.182  25.311  1.00  0.00     0.161 A 
ATOM     16  O   UNL A   1      38.051  23.400  26.097  1.00  0.00    -0.486 OA
ATOM     17  O   UNL A   1      36.073  21.488  25.232  1.00  0.00    -0.486 OA
ATOM     18  C   UNL A   1      36.653  23.703  26.004  1.00  0.00     0.271 C 
ATOM     19  C   UNL A   1      35.782  22.477  26.232  1.00  0.00     0.271 C 
ENDBRANCH   8  10
ENDBRANCH   6   8
ENDBRANCH   5   6
ENDBRANCH   4   5
ENDBRANCH   3   4
ENDBRANCH   2   3
ENDBRANCH   1   2
BRANCH   1  20
ATOM     20  C   UNL A   1      45.777  23.650  24.646  1.00  0.00     0.261 C 
BRANCH  20  21
ATOM     21  O   UNL A   1      44.788  24.684  24.797  1.00  0.00    -0.460 OA
BRANCH  21  22
ATOM     22  C   UNL A   1      43.520  24.249  24.944  1.00  0.00     0.338 C 
ATOM     23  O   UNL A   1      43.043  23.189  24.555  1.00  0.00    -0.246 OA
BRANCH  22  24
ATOM     24  C   UNL A   1      42.773  25.171  25.815  1.00  0.00     0.060 A 
ATOM     25  C   UNL A   1      43.306  26.450  26.014  1.00  0.00     0.016 A 
ATOM     26  C   UNL A   1      41.640  24.758  26.517  1.00  0.00     0.016 A 
ATOM     27  C   UNL A   1      42.740  27.301  26.963  1.00  0.00     0.010 A 
ATOM     28  C   UNL A   1      41.076  25.612  27.474  1.00  0.00     0.010 A 
ATOM     29  C   UNL A   1      41.649  26.872  27.732  1.00  0.00    -0.014 A 
BRANCH  29  30
ATOM     30  C   UNL A   1      41.223  27.688  28.900  1.00  0.00     0.031 A 
ATOM     31  C   UNL A   1      42.008  27.605  30.183  1.00  0.00     0.074 A 
ATOM     32  C   UNL A   1      40.191  28.547  28.809  1.00  0.00     0.049 A 
ATOM     33  N   UNL A   1      41.851  28.276  31.297  1.00  0.00    -0.248 NA
ATOM     34  C   UNL A   1      43.122  26.644  30.211  1.00  0.00     0.031 C 
ATOM     35  C   UNL A   1      39.368  28.760  27.621  1.00  0.00     0.029 A 
ATOM     36  N   UNL A   1      39.670  29.412  29.741  1.00  0.00    -0.354 N 
ATOM     37  C   UNL A   1      42.842  27.820  32.156  1.00  0.00     0.074 A 
ATOM     38  C   UNL A   1      43.577  26.794  31.447  1.00  0.00     0.031 C 
ATOM     39  C   UNL A   1      38.449  29.704  27.892  1.00  0.00     0.029 A 
ATOM     40  C   UNL A   1      38.605  30.143  29.278  1.00  0.00     0.049 A 
ATOM     41  H   UNL A   1      40.027  29.500  30.654  1.00  0.00     0.167 HD
ATOM     42  C   UNL A   1      43.128  28.223  33.417  1.00  0.00     0.031 A 
ATOM     43  C   UNL A   1      37.837  31.059  29.901  1.00  0.00     0.031 A 
ATOM     44  C   UNL A   1      42.403  29.234  34.138  1.00  0.00     0.049 A 
ATOM     45  C   UNL A   1      38.126  31.434  31.330  1.00  0.00     0.074 A 
ATOM     46  C   UNL A   1      42.641  29.722  35.412  1.00  0.00     0.029 A 
ATOM     47  N   UNL A   1      41.294  29.905  33.652  1.00  0.00    -0.354 N 
ATOM     48  N   UNL A   1      39.093  31.024  32.114  1.00  0.00    -0.248 NA
ATOM     49  C   UNL A   1      37.216  32.406  31.956  1.00  0.00     0.031 C 
ATOM     50  C   UNL A   1      41.642  30.654  35.717  1.00  0.00     0.029 A 
ATOM     51  C   UNL A   1      40.815  30.781  34.613  1.00  0.00     0.049 A 
ATOM     52  H   UNL A   1      40.902  29.779  32.758  1.00  0.00     0.167 HD
ATOM     53  C   UNL A   1      38.925  31.707  33.312  1.00  0.00     0.074 A 
ATOM     54  C   UNL A   1      37.771  32.565  33.151  1.00  0.00     0.031 C 
ATOM     55  C   UNL A   1      39.665  31.630  34.445  1.00  0.00     0.031 A 
BRANCH  42  56
ATOM     56  C   UNL A   1      44.269  27.539  34.117  1.00  0.00    -0.014 A 
ATOM     57  C   UNL A   1      45.539  28.131  34.187  1.00  0.00     0.009 A 
ATOM     58  C   UNL A   1      44.058  26.303  34.746  1.00  0.00     0.009 A 
ATOM     59  C   UNL A   1      46.584  27.484  34.849  1.00  0.00     0.001 A 
ATOM     60  C   UNL A   1      45.098  25.669  35.428  1.00  0.00     0.001 A 
ATOM     61  C   UNL A   1      46.361  26.256  35.472  1.00  0.00     0.000 A 
ENDBRANCH  42  56
BRANCH  43  62
ATOM     62  C   UNL A   1      36.701  31.690  29.180  1.00  0.00    -0.014 A 
ATOM     63  C   UNL A   1      36.819  32.986  28.653  1.00  0.00     0.009 A 
ATOM     64  C   UNL A   1      35.482  31.009  29.043  1.00  0.00     0.009 A 
ATOM     65  C   UNL A   1      35.730  33.593  28.022  1.00  0.00     0.001 A 
ATOM     66  C   UNL A   1      34.404  31.609  28.390  1.00  0.00     0.001 A 
ATOM     67  C   UNL A   1      34.526  32.904  27.888  1.00  0.00     0.000 A 
ENDBRANCH  43  62
BRANCH  55  68
ATOM     68  C   UNL A   1      39.271  32.519  35.591  1.00  0.00    -0.014 A 
ATOM     69  C   UNL A   1      38.436  32.055  36.619  1.00  0.00     0.009 A 
ATOM     70  C   UNL A   1      39.779  33.826  35.664  1.00  0.00     0.009 A 
ATOM     71  C   UNL A   1      38.093  32.893  37.683  1.00  0.00     0.001 A 
ATOM     72  C   UNL A   1      39.455  34.653  36.742  1.00  0.00     0.001 A 
ATOM     73  C   UNL A   1      38.607  34.189  37.745  1.00  0.00     0.000 A 
ENDBRANCH  55  68
ENDBRANCH  29  30
ENDBRANCH  22  24
ENDBRANCH  21  22
ENDBRANCH  20  21
ENDBRANCH   1  20
TORSDOF 15
ENDMDL
MODEL 2
REMARK VINA RESULT:     -10.0      0.401      6.053
REMARK SMILES C[C@H](C(=O)OCCOCCOC(=O)c1ccc(-c2c3nc(c(-c4ccccc4)c4ccc([nH]4)c(-c4ccccc4)c4nc(c(-c5ccccc5)c5ccc2[nH]5)C=C4)C=C3)cc1)c1ccc2c(c1)OCCO2
REMARK SMILES IDX 9 1 8 2 7 3 6 4 5 5 3 6 4 7 2 8 1 9 62 10 63 11 67 12 64 13
REMARK SMILES IDX 66 14 65 15 68 16 71 17 69 18 70 19 10 20 11 21 12 22 13 23
REMARK SMILES IDX 14 24 15 25 61 26 16 27 60 28 17 29 18 30 19 31 54 32 20 33
REMARK SMILES IDX 59 34 53 35 55 36 21 37 58 38 52 39 51 40 22 42 44 43 29 44
REMARK SMILES IDX 43 45 30 46 33 47 42 48 56 49 31 50 32 51 41 53 57 54 34 55
REMARK SMILES IDX 23 56 24 57 28 58 25 59 27 60 26 61 45 62 46 63 50 64 47 65
REMARK SMILES IDX 49 66 48 67 35 68 36 69 40 70 37 71 39 72 38 73
REMARK H PARENT 55 41 33 52
REMARK Flexibility Score: inf
ROOT
ATOM      1  C   UNL A   1      46.015  23.184  26.121  1.00  0.00     0.202 C 
ENDROOT
BRANCH   1   2
ATOM      2  O   UNL A   1      45.482  21.864  26.236  1.00  0.00    -0.374 OA
BRANCH   2   3
ATOM      3  C   UNL A   1      45.586  21.024  25.082  1.00  0.00     0.202 C 
BRANCH   3   4
ATOM      4  C   UNL A   1      44.525  19.925  24.992  1.00  0.00     0.261 C 
BRANCH   4   5
ATOM      5  O   UNL A   1      43.244  20.403  25.451  1.00  0.00    -0.463 OA
BRANCH   5   6
ATOM      6  C   UNL A   1      42.388  19.445  25.887  1.00  0.00     0.313 C 
ATOM      7  O   UNL A   1      42.580  18.241  25.737  1.00  0.00    -0.252 OA
BRANCH   6   8
ATOM      8  C   UNL A   1      41.176  19.957  26.647  1.00  0.00     0.126 C 
ATOM      9  C   UNL A   1      41.648  21.075  27.593  1.00  0.00     0.025 C 
BRANCH   8  10
ATOM     10  C   UNL A   1      39.948  20.474  25.901  1.00  0.00    -0.030 A 
ATOM     11  C   UNL A   1      39.058  19.552  25.319  1.00  0.00     0.009 A 
ATOM     12  C   UNL A   1      39.526  21.802  26.029  1.00  0.00     0.055 A 
ATOM     13  C   UNL A   1      37.751  19.928  24.990  1.00  0.00     0.051 A 
ATOM     14  C   UNL A   1      38.216  22.172  25.751  1.00  0.00     0.161 A 
ATOM     15  C   UNL A   1      37.318  21.218  25.279  1.00  0.00     0.161 A 
ATOM     16  O   UNL A   1      37.866  23.451  26.091  1.00  0.00    -0.486 OA
ATOM     17  O   UNL A   1      35.974  21.476  25.180  1.00  0.00    -0.486 OA
ATOM     18  C   UNL A   1      36.460  23.704  25.977  1.00  0.00     0.271 C 
ATOM     19  C   UNL A   1      35.630  22.445  26.181  1.00  0.00     0.271 C 
ENDBRANCH   8  10
ENDBRANCH   6   8
ENDBRANCH   5   6
ENDBRANCH   4   5
ENDBRANCH   3   4
ENDBRANCH   2   3
ENDBRANCH   1   2
BRANCH   1  20
ATOM     20  C   UNL A   1      45.795  23.837  24.748  1.00  0.00     0.261 C 
BRANCH  20  21
ATOM     21  O   UNL A   1      44.789  24.864  24.815  1.00  0.00    -0.460 OA
BRANCH  21  22
ATOM     22  C   UNL A   1      43.527  24.421  24.990  1.00  0.00     0.338 C 
ATOM     23  O   UNL A   1      43.035  23.380  24.570  1.00  0.00    -0.246 OA
BRANCH  22  24
ATOM     24  C   UNL A   1      42.815  25.300  25.932  1.00  0.00     0.060 A 
ATOM     25  C   UNL A   1      43.261  26.622  26.050  1.00  0.00     0.016 A 
ATOM     26  C   UNL A   1      41.810  24.813  26.770  1.00  0.00     0.016 A 
ATOM     27  C   UNL A   1      42.744  27.446  27.049  1.00  0.00     0.010 A 
ATOM     28  C   UNL A   1      41.296  25.642  27.777  1.00  0.00     0.010 A 
ATOM     29  C   UNL A   1      41.790  26.948  27.948  1.00  0.00    -0.014 A 
BRANCH  29  30
ATOM     30  C   UNL A   1      41.439  27.754  29.148  1.00  0.00     0.031 A 
ATOM     31  C   UNL A   1      40.230  28.651  29.106  1.00  0.00     0.074 A 
ATOM     32  C   UNL A   1      42.143  27.644  30.290  1.00  0.00     0.049 A 
ATOM     33  N   UNL A   1      39.709  29.387  30.057  1.00  0.00    -0.248 NA
ATOM     34  C   UNL A   1      39.509  28.724  27.825  1.00  0.00     0.031 C 
ATOM     35  C   UNL A   1      43.309  26.786  30.487  1.00  0.00     0.029 A 
ATOM     36  N   UNL A   1      41.963  28.254  31.507  1.00  0.00    -0.354 N 
ATOM     37  C   UNL A   1      38.603  30.007  29.491  1.00  0.00     0.074 A 
ATOM     38  C   UNL A   1      38.544  29.588  28.106  1.00  0.00     0.031 C 
ATOM     39  C   UNL A   1      43.737  26.918  31.755  1.00  0.00     0.029 A 
ATOM     40  C   UNL A   1      42.889  27.886  32.450  1.00  0.00     0.049 A 
ATOM     41  H   UNL A   1      41.238  28.896  31.686  1.00  0.00     0.167 HD
ATOM     42  C   UNL A   1      37.706  30.843  30.068  1.00  0.00     0.031 A 
ATOM     43  C   UNL A   1      43.043  28.286  33.729  1.00  0.00     0.031 A 
ATOM     44  C   UNL A   1      37.755  31.275  31.439  1.00  0.00     0.049 A 
ATOM     45  C   UNL A   1      42.078  29.276  34.325  1.00  0.00     0.074 A 
ATOM     46  C   UNL A   1      36.872  32.101  32.114  1.00  0.00     0.029 A 
ATOM     47  N   UNL A   1      38.746  30.925  32.341  1.00  0.00    -0.354 N 
ATOM     48  N   UNL A   1      41.014  29.821  33.789  1.00  0.00    -0.248 NA
ATOM     49  C   UNL A   1      42.337  29.700  35.710  1.00  0.00     0.031 C 
ATOM     50  C   UNL A   1      37.358  32.292  33.412  1.00  0.00     0.029 A 
ATOM     51  C   UNL A   1      38.514  31.544  33.558  1.00  0.00     0.049 A 
ATOM     52  H   UNL A   1      39.502  30.326  32.147  1.00  0.00     0.167 HD
ATOM     53  C   UNL A   1      40.462  30.627  34.777  1.00  0.00     0.074 A 
ATOM     54  C   UNL A   1      41.302  30.494  35.949  1.00  0.00     0.031 C 
ATOM     55  C   UNL A   1      39.355  31.408  34.718  1.00  0.00     0.031 A 
BRANCH  42  56
ATOM     56  C   UNL A   1      36.600  31.373  29.200  1.00  0.00    -0.014 A 
ATOM     57  C   UNL A   1      35.514  30.564  28.832  1.00  0.00     0.009 A 
ATOM     58  C   UNL A   1      36.628  32.710  28.778  1.00  0.00     0.009 A 
ATOM     59  C   UNL A   1      34.492  31.078  28.032  1.00  0.00     0.001 A 
ATOM     60  C   UNL A   1      35.593  33.228  27.998  1.00  0.00     0.001 A 
ATOM     61  C   UNL A   1      34.530  32.410  27.620  1.00  0.00     0.000 A 
ENDBRANCH  42  56
BRANCH  43  62
ATOM     62  C   UNL A   1      44.167  27.757  34.543  1.00  0.00    -0.014 A 
ATOM     63  C   UNL A   1      45.423  28.384  34.523  1.00  0.00     0.009 A 
ATOM     64  C   UNL A   1      43.998  26.601  35.320  1.00  0.00     0.009 A 
ATOM     65  C   UNL A   1      46.490  27.851  35.249  1.00  0.00     0.001 A 
ATOM     66  C   UNL A   1      45.059  26.084  36.064  1.00  0.00     0.001 A 
ATOM     67  C   UNL A   1      46.307  26.705  36.022  1.00  0.00     0.000 A 
ENDBRANCH  43  62
BRANCH  55  68
ATOM     68  C   UNL A   1      38.967  32.154  35.963  1.00  0.00    -0.014 A 
ATOM     69  C   UNL A   1      38.085  31.596  36.902  1.00  0.00     0.009 A 
ATOM     70  C   UNL A   1      39.527  33.415  36.222  1.00  0.00     0.009 A 
ATOM     71  C   UNL A   1      37.748  32.299  38.060  1.00  0.00     0.001 A 
ATOM     72  C   UNL A   1      39.207  34.105  37.393  1.00  0.00     0.001 A 
ATOM     73  C   UNL A   1      38.313  33.551  38.306  1.00  0.00     0.000 A 
ENDBRANCH  55  68
ENDBRANCH  29  30
ENDBRANCH  22  24
ENDBRANCH  21  22
ENDBRANCH  20  21
ENDBRANCH   1  20
TORSDOF 15
ENDMDL
MODEL 3
REMARK VINA RESULT:      -9.8      4.678     10.057
REMARK SMILES C[C@H](C(=O)OCCOCCOC(=O)c1ccc(-c2c3nc(c(-c4ccccc4)c4ccc([nH]4)c(-c4ccccc4)c4nc(c(-c5ccccc5)c5ccc2[nH]5)C=C4)C=C3)cc1)c1ccc2c(c1)OCCO2
REMARK SMILES IDX 9 1 8 2 7 3 6 4 5 5 3 6 4 7 2 8 1 9 62 10 63 11 67 12 64 13
REMARK SMILES IDX 66 14 65 15 68 16 71 17 69 18 70 19 10 20 11 21 12 22 13 23
REMARK SMILES IDX 14 24 15 25 61 26 16 27 60 28 17 29 18 30 19 31 54 32 20 33
REMARK SMILES IDX 59 34 53 35 55 36 21 37 58 38 52 39 51 40 22 42 44 43 29 44
REMARK SMILES IDX 43 45 30 46 33 47 42 48 56 49 31 50 32 51 41 53 57 54 34 55
REMARK SMILES IDX 23 56 24 57 28 58 25 59 27 60 26 61 45 62 46 63 50 64 47 65
REMARK SMILES IDX 49 66 48 67 35 68 36 69 40 70 37 71 39 72 38 73
REMARK H PARENT 55 41 33 52
REMARK Flexibility Score: inf
ROOT
ATOM      1  C   UNL A   1      31.245  31.852  26.794  1.00  0.00     0.202 C 
ENDROOT
BRANCH   1   2
ATOM      2  O   UNL A   1      31.879  30.689  26.259  1.00  0.00    -0.374 OA
BRANCH   2   3
ATOM      3  C   UNL A   1      32.611  29.873  27.179  1.00  0.00     0.202 C 
BRANCH   3   4
ATOM      4  C   UNL A   1      32.128  28.424  27.275  1.00  0.00     0.261 C 
BRANCH   4   5
ATOM      5  O   UNL A   1      31.490  28.009  26.049  1.00  0.00    -0.463 OA
BRANCH   5   6
ATOM      6  C   UNL A   1      31.390  26.668  25.870  1.00  0.00     0.313 C 
ATOM      7  O   UNL A   1      31.505  25.850  26.780  1.00  0.00    -0.252 OA
BRANCH   6   8
ATOM      8  C   UNL A   1      31.055  26.227  24.455  1.00  0.00     0.126 C 
ATOM      9  C   UNL A   1      30.690  24.732  24.501  1.00  0.00     0.025 C 
BRANCH   8  10
ATOM     10  C   UNL A   1      29.972  26.941  23.650  1.00  0.00    -0.030 A 
ATOM     11  C   UNL A   1      28.622  26.769  24.007  1.00  0.00     0.009 A 
ATOM     12  C   UNL A   1      30.291  27.978  22.766  1.00  0.00     0.055 A 
ATOM     13  C   UNL A   1      27.649  27.681  23.586  1.00  0.00     0.051 A 
ATOM     14  C   UNL A   1      29.339  28.916  22.384  1.00  0.00     0.161 A 
ATOM     15  C   UNL A   1      28.029  28.791  22.839  1.00  0.00     0.161 A 
ATOM     16  O   UNL A   1      29.804  29.990  21.673  1.00  0.00    -0.486 OA
ATOM     17  O   UNL A   1      27.103  29.788  22.661  1.00  0.00    -0.486 OA
ATOM     18  C   UNL A   1      28.823  31.019  21.492  1.00  0.00     0.271 C 
ATOM     19  C   UNL A   1      27.799  31.043  22.619  1.00  0.00     0.271 C 
ENDBRANCH   8  10
ENDBRANCH   6   8
ENDBRANCH   5   6
ENDBRANCH   4   5
ENDBRANCH   3   4
ENDBRANCH   2   3
ENDBRANCH   1   2
BRANCH   1  20
ATOM     20  C   UNL A   1      32.143  33.097  26.837  1.00  0.00     0.261 C 
BRANCH  20  21
ATOM     21  O   UNL A   1      32.177  33.669  28.157  1.00  0.00    -0.460 OA
BRANCH  21  22
ATOM     22  C   UNL A   1      33.242  34.455  28.416  1.00  0.00     0.338 C 
ATOM     23  O   UNL A   1      33.249  35.668  28.598  1.00  0.00    -0.246 OA
BRANCH  22  24
ATOM     24  C   UNL A   1      34.438  33.624  28.628  1.00  0.00     0.060 A 
ATOM     25  C   UNL A   1      34.263  32.383  29.250  1.00  0.00     0.016 A 
ATOM     26  C   UNL A   1      35.718  34.097  28.336  1.00  0.00     0.016 A 
ATOM     27  C   UNL A   1      35.375  31.634  29.636  1.00  0.00     0.010 A 
ATOM     28  C   UNL A   1      36.834  33.345  28.729  1.00  0.00     0.010 A 
ATOM     29  C   UNL A   1      36.668  32.130  29.419  1.00  0.00    -0.014 A 
BRANCH  29  30
ATOM     30  C   UNL A   1      37.823  31.442  30.056  1.00  0.00     0.031 A 
ATOM     31  C   UNL A   1      38.144  31.726  31.500  1.00  0.00     0.074 A 
ATOM     32  C   UNL A   1      38.540  30.522  29.386  1.00  0.00     0.049 A 
ATOM     33  N   UNL A   1      39.061  31.189  32.267  1.00  0.00    -0.248 NA
ATOM     34  C   UNL A   1      37.319  32.743  32.170  1.00  0.00     0.031 C 
ATOM     35  C   UNL A   1      38.317  30.118  28.000  1.00  0.00     0.029 A 
ATOM     36  N   UNL A   1      39.600  29.751  29.796  1.00  0.00    -0.354 N 
ATOM     37  C   UNL A   1      38.924  31.803  33.505  1.00  0.00     0.074 A 
ATOM     38  C   UNL A   1      37.857  32.773  33.381  1.00  0.00     0.031 C 
ATOM     39  C   UNL A   1      39.209  29.165  27.675  1.00  0.00     0.029 A 
ATOM     40  C   UNL A   1      40.079  28.909  28.822  1.00  0.00     0.049 A 
ATOM     41  H   UNL A   1      39.981  29.796  30.703  1.00  0.00     0.167 HD
ATOM     42  C   UNL A   1      39.613  31.575  34.650  1.00  0.00     0.031 A 
ATOM     43  C   UNL A   1      41.105  28.036  28.849  1.00  0.00     0.031 A 
ATOM     44  C   UNL A   1      40.680  30.621  34.787  1.00  0.00     0.049 A 
ATOM     45  C   UNL A   1      41.905  27.857  30.110  1.00  0.00     0.074 A 
ATOM     46  C   UNL A   1      41.415  30.308  35.918  1.00  0.00     0.029 A 
ATOM     47  N   UNL A   1      41.170  29.835  33.759  1.00  0.00    -0.354 N 
ATOM     48  N   UNL A   1      41.736  28.414  31.284  1.00  0.00    -0.248 NA
ATOM     49  C   UNL A   1      43.038  26.920  30.048  1.00  0.00     0.031 C 
ATOM     50  C   UNL A   1      42.387  29.367  35.560  1.00  0.00     0.029 A 
ATOM     51  C   UNL A   1      42.222  29.059  34.220  1.00  0.00     0.049 A 
ATOM     52  H   UNL A   1      40.826  29.828  32.837  1.00  0.00     0.167 HD
ATOM     53  C   UNL A   1      42.719  27.876  32.105  1.00  0.00     0.074 A 
ATOM     54  C   UNL A   1      43.476  26.940  31.300  1.00  0.00     0.031 C 
ATOM     55  C   UNL A   1      42.970  28.133  33.413  1.00  0.00     0.031 A 
BRANCH  42  56
ATOM     56  C   UNL A   1      39.246  32.403  35.850  1.00  0.00    -0.014 A 
ATOM     57  C   UNL A   1      38.284  31.962  36.771  1.00  0.00     0.009 A 
ATOM     58  C   UNL A   1      39.903  33.621  36.080  1.00  0.00     0.009 A 
ATOM     59  C   UNL A   1      37.964  32.742  37.884  1.00  0.00     0.001 A 
ATOM     60  C   UNL A   1      39.598  34.388  37.206  1.00  0.00     0.001 A 
ATOM     61  C   UNL A   1      38.625  33.951  38.103  1.00  0.00     0.000 A 
ENDBRANCH  42  56
BRANCH  43  62
ATOM     62  C   UNL A   1      41.449  27.258  27.630  1.00  0.00    -0.014 A 
ATOM     63  C   UNL A   1      40.825  26.029  27.364  1.00  0.00     0.009 A 
ATOM     64  C   UNL A   1      42.428  27.728  26.742  1.00  0.00     0.009 A 
ATOM     65  C   UNL A   1      41.191  25.278  26.245  1.00  0.00     0.001 A 
ATOM     66  C   UNL A   1      42.774  26.988  25.611  1.00  0.00     0.001 A 
ATOM     67  C   UNL A   1      42.162  25.759  25.368  1.00  0.00     0.000 A 
ENDBRANCH  43  62
BRANCH  55  68
ATOM     68  C   UNL A   1      44.089  27.371  34.065  1.00  0.00    -0.014 A 
ATOM     69  C   UNL A   1      43.869  26.114  34.651  1.00  0.00     0.009 A 
ATOM     70  C   UNL A   1      45.390  27.899  34.056  1.00  0.00     0.009 A 
ATOM     71  C   UNL A   1      44.925  25.415  35.240  1.00  0.00     0.001 A 
ATOM     72  C   UNL A   1      46.448  27.186  34.623  1.00  0.00     0.001 A 
ATOM     73  C   UNL A   1      46.214  25.950  35.221  1.00  0.00     0.000 A 
ENDBRANCH  55  68
ENDBRANCH  29  30
ENDBRANCH  22  24
ENDBRANCH  21  22
ENDBRANCH  20  21
ENDBRANCH   1  20
TORSDOF 15
ENDMDL
