MODEL 1
REMARK VINA RESULT:      -8.4      0.000      0.000
REMARK SMILES CCOc1cc(C(=O)OCCOCCOC(=O)c2ccc(-c3c4nc(c(-c5ccccc5)c5ccc([nH]5)c(-c5ccccc5)c5nc(c(-c6ccccc6)c6ccc3[nH]6)C=C5)C=C4)cc2)ccc1OCc1ccc(Cl)c(Cl)c1
REMARK SMILES IDX 11 1 10 2 9 3 7 4 8 5 6 6 4 7 5 8 68 9 67 10 66 11 3 12 2 13
REMARK SMILES IDX 1 14 69 15 70 16 71 17 72 18 78 19 73 20 76 21 74 22 77 23
REMARK SMILES IDX 75 24 12 25 13 26 14 27 15 28 16 29 17 30 18 31 19 32 65 33
REMARK SMILES IDX 20 34 64 35 21 36 22 37 23 38 58 39 24 40 63 41 57 42 59 43
REMARK SMILES IDX 25 44 62 45 56 46 55 47 26 49 48 50 33 51 47 52 34 53 37 54
REMARK SMILES IDX 46 55 60 56 35 57 36 58 45 60 61 61 38 62 27 63 28 64 32 65
REMARK SMILES IDX 29 66 31 67 30 68 49 69 50 70 54 71 51 72 53 73 52 74 39 75
REMARK SMILES IDX 40 76 44 77 41 78 43 79 42 80
REMARK H PARENT 59 48 37 59
REMARK Flexibility Score: inf
ROOT
ATOM      1  C   UNL A   1      32.881  35.846  29.313  1.00  0.00     0.202 C 
ENDROOT
BRANCH   1   2
ATOM      2  C   UNL A   1      32.911  36.196  30.805  1.00  0.00     0.261 C 
BRANCH   2   3
ATOM      3  O   UNL A   1      33.680  35.228  31.534  1.00  0.00    -0.460 OA
BRANCH   3   4
ATOM      4  C   UNL A   1      34.423  35.688  32.570  1.00  0.00     0.338 C 
ATOM      5  O   UNL A   1      34.342  36.777  33.115  1.00  0.00    -0.246 OA
BRANCH   4   6
ATOM      6  C   UNL A   1      35.272  34.576  33.062  1.00  0.00     0.064 A 
ATOM      7  C   UNL A   1      36.534  33.501  34.832  1.00  0.00     0.162 A 
ATOM      8  C   UNL A   1      35.577  34.440  34.438  1.00  0.00     0.066 A 
ATOM      9  C   UNL A   1      37.236  32.820  33.826  1.00  0.00     0.161 A 
ATOM     10  C   UNL A   1      36.767  32.789  32.515  1.00  0.00     0.051 A 
ATOM     11  C   UNL A   1      35.782  33.671  32.126  1.00  0.00     0.020 A 
BRANCH   7  12
ATOM     12  O   UNL A   1      36.827  33.141  36.113  1.00  0.00    -0.490 OA
BRANCH  12  13
ATOM     13  C   UNL A   1      38.025  33.585  36.748  1.00  0.00     0.226 C 
ATOM     14  C   UNL A   1      38.262  32.638  37.927  1.00  0.00     0.049 C 
ENDBRANCH  12  13
ENDBRANCH   7  12
BRANCH   9  15
ATOM     15  O   UNL A   1      38.476  32.266  33.935  1.00  0.00    -0.485 OA
BRANCH  15  16
ATOM     16  C   UNL A   1      38.633  30.850  33.805  1.00  0.00     0.265 C 
BRANCH  16  17
ATOM     17  C   UNL A   1      39.838  30.035  34.318  1.00  0.00    -0.009 A 
ATOM     18  C   UNL A   1      40.505  30.536  35.450  1.00  0.00     0.009 A 
ATOM     19  C   UNL A   1      40.460  28.968  33.654  1.00  0.00     0.029 A 
ATOM     20  C   UNL A   1      41.766  30.059  35.835  1.00  0.00     0.022 A 
ATOM     21  C   UNL A   1      41.756  28.534  33.983  1.00  0.00     0.060 A 
ATOM     22  C   UNL A   1      42.415  29.088  35.075  1.00  0.00     0.059 A 
ATOM     23  Cl  UNL A   1      42.508  27.377  32.938  1.00  0.00    -0.083 Cl
ATOM     24  Cl  UNL A   1      44.025  28.650  35.517  1.00  0.00    -0.083 Cl
ENDBRANCH  16  17
ENDBRANCH  15  16
ENDBRANCH   9  15
ENDBRANCH   4   6
ENDBRANCH   3   4
ENDBRANCH   2   3
ENDBRANCH   1   2
BRANCH   1  25
ATOM     25  O   UNL A   1      34.119  35.867  28.603  1.00  0.00    -0.374 OA
BRANCH  25  26
ATOM     26  C   UNL A   1      34.607  34.649  28.052  1.00  0.00     0.202 C 
BRANCH  26  27
ATOM     27  C   UNL A   1      33.866  33.347  28.369  1.00  0.00     0.261 C 
BRANCH  27  28
ATOM     28  O   UNL A   1      34.685  32.360  29.005  1.00  0.00    -0.460 OA
BRANCH  28  29
ATOM     29  C   UNL A   1      34.614  31.142  28.419  1.00  0.00     0.338 C 
ATOM     30  O   UNL A   1      33.698  30.687  27.755  1.00  0.00    -0.246 OA
BRANCH  29  31
ATOM     31  C   UNL A   1      35.895  30.435  28.571  1.00  0.00     0.060 A 
ATOM     32  C   UNL A   1      36.234  29.983  29.851  1.00  0.00     0.016 A 
ATOM     33  C   UNL A   1      36.792  30.314  27.508  1.00  0.00     0.016 A 
ATOM     34  C   UNL A   1      37.499  29.459  30.089  1.00  0.00     0.010 A 
ATOM     35  C   UNL A   1      38.063  29.789  27.749  1.00  0.00     0.010 A 
ATOM     36  C   UNL A   1      38.435  29.397  29.049  1.00  0.00    -0.014 A 
BRANCH  36  37
ATOM     37  C   UNL A   1      39.841  29.041  29.351  1.00  0.00     0.031 A 
ATOM     38  C   UNL A   1      40.379  27.713  28.899  1.00  0.00     0.074 A 
ATOM     39  C   UNL A   1      40.634  29.903  30.008  1.00  0.00     0.049 A 
ATOM     40  N   UNL A   1      41.566  27.193  29.083  1.00  0.00    -0.248 NA
ATOM     41  C   UNL A   1      39.453  26.854  28.145  1.00  0.00     0.031 C 
ATOM     42  C   UNL A   1      40.238  31.231  30.469  1.00  0.00     0.029 A 
ATOM     43  N   UNL A   1      41.940  29.777  30.408  1.00  0.00    -0.354 N 
ATOM     44  C   UNL A   1      41.524  25.940  28.484  1.00  0.00     0.074 A 
ATOM     45  C   UNL A   1      40.184  25.766  27.963  1.00  0.00     0.031 C 
ATOM     46  C   UNL A   1      41.279  31.799  31.100  1.00  0.00     0.029 A 
ATOM     47  C   UNL A   1      42.398  30.858  31.118  1.00  0.00     0.049 A 
ATOM     48  H   UNL A   1      42.494  28.989  30.206  1.00  0.00     0.167 HD
ATOM     49  C   UNL A   1      42.511  25.019  28.375  1.00  0.00     0.031 A 
ATOM     50  C   UNL A   1      43.576  31.058  31.739  1.00  0.00     0.031 A 
ATOM     51  C   UNL A   1      43.836  25.187  28.914  1.00  0.00     0.049 A 
ATOM     52  C   UNL A   1      44.639  29.996  31.665  1.00  0.00     0.074 A 
ATOM     53  C   UNL A   1      44.918  24.329  28.832  1.00  0.00     0.029 A 
ATOM     54  N   UNL A   1      44.252  26.284  29.655  1.00  0.00    -0.354 N 
ATOM     55  N   UNL A   1      44.604  28.832  31.062  1.00  0.00    -0.248 NA
ATOM     56  C   UNL A   1      45.906  30.282  32.350  1.00  0.00     0.031 C 
ATOM     57  C   UNL A   1      45.965  24.872  29.585  1.00  0.00     0.029 A 
ATOM     58  C   UNL A   1      45.563  26.105  30.071  1.00  0.00     0.049 A 
ATOM     59  H   UNL A   1      43.700  27.074  29.855  1.00  0.00     0.167 HD
ATOM     60  C   UNL A   1      45.851  28.257  31.274  1.00  0.00     0.074 A 
ATOM     61  C   UNL A   1      46.623  29.207  32.048  1.00  0.00     0.031 C 
ATOM     62  C   UNL A   1      46.315  27.051  30.858  1.00  0.00     0.031 A 
BRANCH  49  63
ATOM     63  C   UNL A   1      42.167  23.721  27.693  1.00  0.00    -0.014 A 
ATOM     64  C   UNL A   1      41.585  22.650  28.393  1.00  0.00     0.009 A 
ATOM     65  C   UNL A   1      42.440  23.564  26.325  1.00  0.00     0.009 A 
ATOM     66  C   UNL A   1      41.338  21.435  27.749  1.00  0.00     0.001 A 
ATOM     67  C   UNL A   1      42.157  22.361  25.676  1.00  0.00     0.001 A 
ATOM     68  C   UNL A   1      41.622  21.291  26.392  1.00  0.00     0.000 A 
ENDBRANCH  49  63
BRANCH  50  69
ATOM     69  C   UNL A   1      43.793  32.315  32.497  1.00  0.00    -0.014 A 
ATOM     70  C   UNL A   1      44.541  33.367  31.947  1.00  0.00     0.009 A 
ATOM     71  C   UNL A   1      43.217  32.484  33.768  1.00  0.00     0.009 A 
ATOM     72  C   UNL A   1      44.716  34.556  32.658  1.00  0.00     0.001 A 
ATOM     73  C   UNL A   1      43.369  33.684  34.463  1.00  0.00     0.001 A 
ATOM     74  C   UNL A   1      44.121  34.717  33.910  1.00  0.00     0.000 A 
ENDBRANCH  50  69
BRANCH  62  75
ATOM     75  C   UNL A   1      47.737  26.701  31.209  1.00  0.00    -0.014 A 
ATOM     76  C   UNL A   1      48.816  27.130  30.420  1.00  0.00     0.009 A 
ATOM     77  C   UNL A   1      48.002  25.962  32.374  1.00  0.00     0.009 A 
ATOM     78  C   UNL A   1      50.126  26.796  30.773  1.00  0.00     0.001 A 
ATOM     79  C   UNL A   1      49.313  25.659  32.743  1.00  0.00     0.001 A 
ATOM     80  C   UNL A   1      50.374  26.067  31.936  1.00  0.00     0.000 A 
ENDBRANCH  62  75
ENDBRANCH  36  37
ENDBRANCH  29  31
ENDBRANCH  28  29
ENDBRANCH  27  28
ENDBRANCH  26  27
ENDBRANCH  25  26
ENDBRANCH   1  25
TORSDOF 19
ENDMDL
MODEL 2
REMARK VINA RESULT:      -8.3      2.118      6.803
REMARK SMILES CCOc1cc(C(=O)OCCOCCOC(=O)c2ccc(-c3c4nc(c(-c5ccccc5)c5ccc([nH]5)c(-c5ccccc5)c5nc(c(-c6ccccc6)c6ccc3[nH]6)C=C5)C=C4)cc2)ccc1OCc1ccc(Cl)c(Cl)c1
REMARK SMILES IDX 11 1 10 2 9 3 7 4 8 5 6 6 4 7 5 8 68 9 67 10 66 11 3 12 2 13
REMARK SMILES IDX 1 14 69 15 70 16 71 17 72 18 78 19 73 20 76 21 74 22 77 23
REMARK SMILES IDX 75 24 12 25 13 26 14 27 15 28 16 29 17 30 18 31 19 32 65 33
REMARK SMILES IDX 20 34 64 35 21 36 22 37 23 38 58 39 24 40 63 41 57 42 59 43
REMARK SMILES IDX 25 44 62 45 56 46 55 47 26 49 48 50 33 51 47 52 34 53 37 54
REMARK SMILES IDX 46 55 60 56 35 57 36 58 45 60 61 61 38 62 27 63 28 64 32 65
REMARK SMILES IDX 29 66 31 67 30 68 49 69 50 70 54 71 51 72 53 73 52 74 39 75
REMARK SMILES IDX 40 76 44 77 41 78 43 79 42 80
REMARK H PARENT 59 48 37 59
REMARK Flexibility Score: inf
ROOT
ATOM      1  C   UNL A   1      33.801  35.776  32.472  1.00  0.00     0.202 C 
ENDROOT
BRANCH   1   2
ATOM      2  C   UNL A   1      35.158  35.419  33.089  1.00  0.00     0.261 C 
BRANCH   2   3
ATOM      3  O   UNL A   1      35.136  34.085  33.619  1.00  0.00    -0.460 OA
BRANCH   3   4
ATOM      4  C   UNL A   1      35.828  33.867  34.763  1.00  0.00     0.338 C 
ATOM      5  O   UNL A   1      35.441  34.038  35.908  1.00  0.00    -0.246 OA
BRANCH   4   6
ATOM      6  C   UNL A   1      37.114  33.219  34.411  1.00  0.00     0.064 A 
ATOM      7  C   UNL A   1      38.380  31.274  33.705  1.00  0.00     0.162 A 
ATOM      8  C   UNL A   1      37.150  31.924  33.839  1.00  0.00     0.066 A 
ATOM      9  C   UNL A   1      39.511  31.895  34.258  1.00  0.00     0.161 A 
ATOM     10  C   UNL A   1      39.500  33.246  34.593  1.00  0.00     0.051 A 
ATOM     11  C   UNL A   1      38.298  33.916  34.674  1.00  0.00     0.020 A 
BRANCH   7  12
ATOM     12  O   UNL A   1      38.604  30.105  33.043  1.00  0.00    -0.490 OA
BRANCH  12  13
ATOM     13  C   UNL A   1      37.527  29.361  32.477  1.00  0.00     0.226 C 
ATOM     14  C   UNL A   1      38.083  27.968  32.170  1.00  0.00     0.049 C 
ENDBRANCH  12  13
ENDBRANCH   7  12
BRANCH   9  15
ATOM     15  O   UNL A   1      40.654  31.278  34.672  1.00  0.00    -0.485 OA
BRANCH  15  16
ATOM     16  C   UNL A   1      41.762  32.064  35.119  1.00  0.00     0.265 C 
BRANCH  16  17
ATOM     17  C   UNL A   1      43.012  31.517  35.836  1.00  0.00    -0.009 A 
ATOM     18  C   UNL A   1      43.746  30.525  35.161  1.00  0.00     0.009 A 
ATOM     19  C   UNL A   1      43.371  31.752  37.171  1.00  0.00     0.029 A 
ATOM     20  C   UNL A   1      44.716  29.752  35.813  1.00  0.00     0.022 A 
ATOM     21  C   UNL A   1      44.286  30.933  37.856  1.00  0.00     0.060 A 
ATOM     22  C   UNL A   1      44.956  29.923  37.176  1.00  0.00     0.059 A 
ATOM     23  Cl  UNL A   1      44.463  31.175  39.561  1.00  0.00    -0.083 Cl
ATOM     24  Cl  UNL A   1      46.056  28.842  37.951  1.00  0.00    -0.083 Cl
ENDBRANCH  16  17
ENDBRANCH  15  16
ENDBRANCH   9  15
ENDBRANCH   4   6
ENDBRANCH   3   4
ENDBRANCH   2   3
ENDBRANCH   1   2
BRANCH   1  25
ATOM     25  O   UNL A   1      33.762  36.856  31.539  1.00  0.00    -0.374 OA
BRANCH  25  26
ATOM     26  C   UNL A   1      32.787  36.822  30.502  1.00  0.00     0.202 C 
BRANCH  26  27
ATOM     27  C   UNL A   1      33.057  35.961  29.264  1.00  0.00     0.261 C 
BRANCH  27  28
ATOM     28  O   UNL A   1      32.583  34.615  29.387  1.00  0.00    -0.460 OA
BRANCH  28  29
ATOM     29  C   UNL A   1      33.192  33.751  28.540  1.00  0.00     0.338 C 
ATOM     30  O   UNL A   1      32.761  33.313  27.487  1.00  0.00    -0.246 OA
BRANCH  29  31
ATOM     31  C   UNL A   1      34.565  33.485  28.994  1.00  0.00     0.060 A 
ATOM     32  C   UNL A   1      35.600  33.708  28.079  1.00  0.00     0.016 A 
ATOM     33  C   UNL A   1      34.824  32.929  30.248  1.00  0.00     0.016 A 
ATOM     34  C   UNL A   1      36.898  33.318  28.392  1.00  0.00     0.010 A 
ATOM     35  C   UNL A   1      36.128  32.538  30.560  1.00  0.00     0.010 A 
ATOM     36  C   UNL A   1      37.161  32.694  29.618  1.00  0.00    -0.014 A 
BRANCH  36  37
ATOM     37  C   UNL A   1      38.493  32.090  29.859  1.00  0.00     0.031 A 
ATOM     38  C   UNL A   1      39.544  32.887  30.579  1.00  0.00     0.074 A 
ATOM     39  C   UNL A   1      38.755  30.838  29.452  1.00  0.00     0.049 A 
ATOM     40  N   UNL A   1      40.778  32.561  30.868  1.00  0.00    -0.248 NA
ATOM     41  C   UNL A   1      39.152  34.231  31.028  1.00  0.00     0.031 C 
ATOM     42  C   UNL A   1      37.810  29.955  28.773  1.00  0.00     0.029 A 
ATOM     43  N   UNL A   1      39.906  30.097  29.548  1.00  0.00    -0.354 N 
ATOM     44  C   UNL A   1      41.317  33.667  31.516  1.00  0.00     0.074 A 
ATOM     45  C   UNL A   1      40.285  34.682  31.546  1.00  0.00     0.031 C 
ATOM     46  C   UNL A   1      38.421  28.790  28.503  1.00  0.00     0.029 A 
ATOM     47  C   UNL A   1      39.810  28.864  28.956  1.00  0.00     0.049 A 
ATOM     48  H   UNL A   1      40.721  30.419  29.996  1.00  0.00     0.167 HD
ATOM     49  C   UNL A   1      42.556  33.821  32.040  1.00  0.00     0.031 A 
ATOM     50  C   UNL A   1      40.741  27.909  28.774  1.00  0.00     0.031 A 
ATOM     51  C   UNL A   1      43.586  32.816  31.987  1.00  0.00     0.049 A 
ATOM     52  C   UNL A   1      42.132  28.124  29.304  1.00  0.00     0.074 A 
ATOM     53  C   UNL A   1      44.864  32.862  32.515  1.00  0.00     0.029 A 
ATOM     54  N   UNL A   1      43.460  31.590  31.352  1.00  0.00    -0.354 N 
ATOM     55  N   UNL A   1      42.620  29.155  29.951  1.00  0.00    -0.248 NA
ATOM     56  C   UNL A   1      43.098  27.038  29.086  1.00  0.00     0.031 C 
ATOM     57  C   UNL A   1      45.535  31.694  32.135  1.00  0.00     0.029 A 
ATOM     58  C   UNL A   1      44.651  30.886  31.438  1.00  0.00     0.049 A 
ATOM     59  H   UNL A   1      42.645  31.265  30.906  1.00  0.00     0.167 HD
ATOM     60  C   UNL A   1      43.941  28.834  30.239  1.00  0.00     0.074 A 
ATOM     61  C   UNL A   1      44.172  27.505  29.708  1.00  0.00     0.031 C 
ATOM     62  C   UNL A   1      44.876  29.571  30.890  1.00  0.00     0.031 A 
BRANCH  49  63
ATOM     63  C   UNL A   1      42.876  35.154  32.663  1.00  0.00    -0.014 A 
ATOM     64  C   UNL A   1      43.559  36.157  31.953  1.00  0.00     0.009 A 
ATOM     65  C   UNL A   1      42.494  35.408  33.990  1.00  0.00     0.009 A 
ATOM     66  C   UNL A   1      43.901  37.359  32.578  1.00  0.00     0.001 A 
ATOM     67  C   UNL A   1      42.805  36.625  34.599  1.00  0.00     0.001 A 
ATOM     68  C   UNL A   1      43.523  37.593  33.899  1.00  0.00     0.000 A 
ENDBRANCH  49  63
BRANCH  50  69
ATOM     69  C   UNL A   1      40.379  26.671  28.039  1.00  0.00    -0.014 A 
ATOM     70  C   UNL A   1      39.600  25.675  28.646  1.00  0.00     0.009 A 
ATOM     71  C   UNL A   1      40.783  26.497  26.704  1.00  0.00     0.009 A 
ATOM     72  C   UNL A   1      39.242  24.527  27.935  1.00  0.00     0.001 A 
ATOM     73  C   UNL A   1      40.399  25.364  25.987  1.00  0.00     0.001 A 
ATOM     74  C   UNL A   1      39.633  24.377  26.604  1.00  0.00     0.000 A 
ENDBRANCH  50  69
BRANCH  62  75
ATOM     75  C   UNL A   1      46.231  28.947  31.090  1.00  0.00    -0.014 A 
ATOM     76  C   UNL A   1      47.293  29.195  30.205  1.00  0.00     0.009 A 
ATOM     77  C   UNL A   1      46.459  28.128  32.207  1.00  0.00     0.009 A 
ATOM     78  C   UNL A   1      48.542  28.608  30.419  1.00  0.00     0.001 A 
ATOM     79  C   UNL A   1      47.718  27.570  32.437  1.00  0.00     0.001 A 
ATOM     80  C   UNL A   1      48.755  27.801  31.536  1.00  0.00     0.000 A 
ENDBRANCH  62  75
ENDBRANCH  36  37
ENDBRANCH  29  31
ENDBRANCH  28  29
ENDBRANCH  27  28
ENDBRANCH  26  27
ENDBRANCH  25  26
ENDBRANCH   1  25
TORSDOF 19
ENDMDL
MODEL 3
REMARK VINA RESULT:      -8.0      2.905      7.135
REMARK SMILES CCOc1cc(C(=O)OCCOCCOC(=O)c2ccc(-c3c4nc(c(-c5ccccc5)c5ccc([nH]5)c(-c5ccccc5)c5nc(c(-c6ccccc6)c6ccc3[nH]6)C=C5)C=C4)cc2)ccc1OCc1ccc(Cl)c(Cl)c1
REMARK SMILES IDX 11 1 10 2 9 3 7 4 8 5 6 6 4 7 5 8 68 9 67 10 66 11 3 12 2 13
REMARK SMILES IDX 1 14 69 15 70 16 71 17 72 18 78 19 73 20 76 21 74 22 77 23
REMARK SMILES IDX 75 24 12 25 13 26 14 27 15 28 16 29 17 30 18 31 19 32 65 33
REMARK SMILES IDX 20 34 64 35 21 36 22 37 23 38 58 39 24 40 63 41 57 42 59 43
REMARK SMILES IDX 25 44 62 45 56 46 55 47 26 49 48 50 33 51 47 52 34 53 37 54
REMARK SMILES IDX 46 55 60 56 35 57 36 58 45 60 61 61 38 62 27 63 28 64 32 65
REMARK SMILES IDX 29 66 31 67 30 68 49 69 50 70 54 71 51 72 53 73 52 74 39 75
REMARK SMILES IDX 40 76 44 77 41 78 43 79 42 80
REMARK H PARENT 59 48 37 59
REMARK Flexibility Score: inf
ROOT
ATOM      1  C   UNL A   1      32.651  36.375  30.470  1.00  0.00     0.202 C 
ENDROOT
BRANCH   1   2
ATOM      2  C   UNL A   1      33.086  35.475  29.308  1.00  0.00     0.261 C 
BRANCH   2   3
ATOM      3  O   UNL A   1      33.598  34.228  29.801  1.00  0.00    -0.460 OA
BRANCH   3   4
ATOM      4  C   UNL A   1      34.945  34.092  29.848  1.00  0.00     0.338 C 
ATOM      5  O   UNL A   1      35.732  34.732  30.528  1.00  0.00    -0.246 OA
BRANCH   4   6
ATOM      6  C   UNL A   1      35.320  32.907  29.040  1.00  0.00     0.064 A 
ATOM      7  C   UNL A   1      34.737  30.825  27.942  1.00  0.00     0.162 A 
ATOM      8  C   UNL A   1      34.335  32.028  28.528  1.00  0.00     0.066 A 
ATOM      9  C   UNL A   1      36.099  30.491  28.002  1.00  0.00     0.161 A 
ATOM     10  C   UNL A   1      37.065  31.453  28.286  1.00  0.00     0.051 A 
ATOM     11  C   UNL A   1      36.678  32.668  28.810  1.00  0.00     0.020 A 
BRANCH   7  12
ATOM     12  O   UNL A   1      33.937  29.950  27.270  1.00  0.00    -0.490 OA
BRANCH  12  13
ATOM     13  C   UNL A   1      32.547  30.217  27.085  1.00  0.00     0.226 C 
ATOM     14  C   UNL A   1      32.247  29.919  25.613  1.00  0.00     0.049 C 
ENDBRANCH  12  13
ENDBRANCH   7  12
BRANCH   9  15
ATOM     15  O   UNL A   1      36.630  29.237  27.955  1.00  0.00    -0.485 OA
BRANCH  15  16
ATOM     16  C   UNL A   1      37.786  28.926  28.738  1.00  0.00     0.265 C 
BRANCH  16  17
ATOM     17  C   UNL A   1      39.045  28.202  28.221  1.00  0.00    -0.009 A 
ATOM     18  C   UNL A   1      39.585  27.201  29.047  1.00  0.00     0.009 A 
ATOM     19  C   UNL A   1      39.824  28.581  27.118  1.00  0.00     0.029 A 
ATOM     20  C   UNL A   1      40.868  26.679  28.834  1.00  0.00     0.022 A 
ATOM     21  C   UNL A   1      41.141  28.122  26.938  1.00  0.00     0.060 A 
ATOM     22  C   UNL A   1      41.668  27.173  27.805  1.00  0.00     0.059 A 
ATOM     23  Cl  UNL A   1      42.081  28.847  25.677  1.00  0.00    -0.083 Cl
ATOM     24  Cl  UNL A   1      43.290  26.594  27.686  1.00  0.00    -0.083 Cl
ENDBRANCH  16  17
ENDBRANCH  15  16
ENDBRANCH   9  15
ENDBRANCH   4   6
ENDBRANCH   3   4
ENDBRANCH   2   3
ENDBRANCH   1   2
BRANCH   1  25
ATOM     25  O   UNL A   1      32.401  35.753  31.731  1.00  0.00    -0.374 OA
BRANCH  25  26
ATOM     26  C   UNL A   1      33.065  36.262  32.882  1.00  0.00     0.202 C 
BRANCH  26  27
ATOM     27  C   UNL A   1      34.487  35.782  33.186  1.00  0.00     0.261 C 
BRANCH  27  28
ATOM     28  O   UNL A   1      34.540  34.695  34.117  1.00  0.00    -0.460 OA
BRANCH  28  29
ATOM     29  C   UNL A   1      34.489  33.477  33.527  1.00  0.00     0.338 C 
ATOM     30  O   UNL A   1      33.520  32.934  33.024  1.00  0.00    -0.246 OA
BRANCH  29  31
ATOM     31  C   UNL A   1      35.840  32.904  33.439  1.00  0.00     0.060 A 
ATOM     32  C   UNL A   1      36.831  33.461  34.256  1.00  0.00     0.016 A 
ATOM     33  C   UNL A   1      36.155  31.918  32.503  1.00  0.00     0.016 A 
ATOM     34  C   UNL A   1      38.157  33.076  34.098  1.00  0.00     0.010 A 
ATOM     35  C   UNL A   1      37.487  31.533  32.344  1.00  0.00     0.010 A 
ATOM     36  C   UNL A   1      38.498  32.140  33.113  1.00  0.00    -0.014 A 
BRANCH  36  37
ATOM     37  C   UNL A   1      39.926  31.892  32.803  1.00  0.00     0.031 A 
ATOM     38  C   UNL A   1      40.631  32.779  31.817  1.00  0.00     0.074 A 
ATOM     39  C   UNL A   1      40.590  30.895  33.410  1.00  0.00     0.049 A 
ATOM     40  N   UNL A   1      41.865  32.720  31.383  1.00  0.00    -0.248 NA
ATOM     41  C   UNL A   1      39.838  33.874  31.237  1.00  0.00     0.031 C 
ATOM     42  C   UNL A   1      40.025  29.988  34.407  1.00  0.00     0.029 A 
ATOM     43  N   UNL A   1      41.888  30.476  33.264  1.00  0.00    -0.354 N 
ATOM     44  C   UNL A   1      41.991  33.758  30.467  1.00  0.00     0.074 A 
ATOM     45  C   UNL A   1      40.699  34.406  30.383  1.00  0.00     0.031 C 
ATOM     46  C   UNL A   1      40.970  29.110  34.779  1.00  0.00     0.029 A 
ATOM     47  C   UNL A   1      42.191  29.371  34.018  1.00  0.00     0.049 A 
ATOM     48  H   UNL A   1      42.537  30.924  32.675  1.00  0.00     0.167 HD
ATOM     49  C   UNL A   1      43.083  34.138  29.762  1.00  0.00     0.031 A 
ATOM     50  C   UNL A   1      43.316  28.634  34.071  1.00  0.00     0.031 A 
ATOM     51  C   UNL A   1      44.361  33.476  29.832  1.00  0.00     0.049 A 
ATOM     52  C   UNL A   1      44.499  29.030  33.231  1.00  0.00     0.074 A 
ATOM     53  C   UNL A   1      45.538  33.801  29.183  1.00  0.00     0.029 A 
ATOM     54  N   UNL A   1      44.620  32.340  30.585  1.00  0.00    -0.354 N 
ATOM     55  N   UNL A   1      44.622  30.036  32.399  1.00  0.00    -0.248 NA
ATOM     56  C   UNL A   1      45.701  28.193  33.345  1.00  0.00     0.031 C 
ATOM     57  C   UNL A   1      46.488  32.819  29.485  1.00  0.00     0.029 A 
ATOM     58  C   UNL A   1      45.928  31.927  30.385  1.00  0.00     0.049 A 
ATOM     59  H   UNL A   1      43.972  31.893  31.177  1.00  0.00     0.167 HD
ATOM     60  C   UNL A   1      45.920  29.969  31.909  1.00  0.00     0.074 A 
ATOM     61  C   UNL A   1      46.549  28.831  32.550  1.00  0.00     0.031 C 
ATOM     62  C   UNL A   1      46.537  30.781  31.014  1.00  0.00     0.031 A 
BRANCH  49  63
ATOM     63  C   UNL A   1      42.918  35.291  28.808  1.00  0.00    -0.014 A 
ATOM     64  C   UNL A   1      42.563  35.094  27.463  1.00  0.00     0.009 A 
ATOM     65  C   UNL A   1      43.129  36.602  29.265  1.00  0.00     0.009 A 
ATOM     66  C   UNL A   1      42.481  36.178  26.585  1.00  0.00     0.001 A 
ATOM     67  C   UNL A   1      43.010  37.687  28.393  1.00  0.00     0.001 A 
ATOM     68  C   UNL A   1      42.703  37.473  27.051  1.00  0.00     0.000 A 
ENDBRANCH  49  63
BRANCH  50  69
ATOM     69  C   UNL A   1      43.359  27.435  34.946  1.00  0.00    -0.014 A 
ATOM     70  C   UNL A   1      43.753  27.537  36.288  1.00  0.00     0.009 A 
ATOM     71  C   UNL A   1      42.966  26.181  34.447  1.00  0.00     0.009 A 
ATOM     72  C   UNL A   1      43.762  26.407  37.109  1.00  0.00     0.001 A 
ATOM     73  C   UNL A   1      42.948  25.060  35.277  1.00  0.00     0.001 A 
ATOM     74  C   UNL A   1      43.350  25.172  36.606  1.00  0.00     0.000 A 
ENDBRANCH  50  69
BRANCH  62  75
ATOM     75  C   UNL A   1      47.978  30.485  30.692  1.00  0.00    -0.014 A 
ATOM     76  C   UNL A   1      49.027  31.010  31.464  1.00  0.00     0.009 A 
ATOM     77  C   UNL A   1      48.288  29.631  29.621  1.00  0.00     0.009 A 
ATOM     78  C   UNL A   1      50.355  30.714  31.147  1.00  0.00     0.001 A 
ATOM     79  C   UNL A   1      49.614  29.309  29.327  1.00  0.00     0.001 A 
ATOM     80  C   UNL A   1      50.647  29.860  30.084  1.00  0.00     0.000 A 
ENDBRANCH  62  75
ENDBRANCH  36  37
ENDBRANCH  29  31
ENDBRANCH  28  29
ENDBRANCH  27  28
ENDBRANCH  26  27
ENDBRANCH  25  26
ENDBRANCH   1  25
TORSDOF 19
ENDMDL
