MODEL 1
REMARK VINA RESULT:      -9.7      0.000      0.000
REMARK SMILES COc1ccccc1-n1c(C)nnc1SCC(=O)OCCOCCOC(=O)c1ccc(-c2c3nc(c(-c4ccccc4)c4ccc([nH]4)c(-c4ccccc4)c4nc(c(-c5ccccc5)c5ccc2[nH]5)C=C4)C=C3)cc1
REMARK SMILES IDX 21 1 20 2 19 3 17 4 18 5 16 6 15 7 14 8 9 9 10 10 11 11
REMARK SMILES IDX 12 12 13 13 8 14 3 15 4 16 5 17 7 18 6 19 2 20 1 21 22 22
REMARK SMILES IDX 23 23 24 24 25 25 26 26 27 27 28 28 29 29 75 30 30 31 74 32
REMARK SMILES IDX 31 33 32 34 33 35 68 36 34 37 73 38 67 39 69 40 35 41 72 42
REMARK SMILES IDX 66 43 65 44 36 46 58 47 43 48 57 49 44 50 47 51 56 52 70 53
REMARK SMILES IDX 45 54 46 55 55 57 71 58 48 59 37 60 38 61 42 62 39 63 41 64
REMARK SMILES IDX 40 65 59 66 60 67 64 68 61 69 63 70 62 71 49 72 50 73 54 74
REMARK SMILES IDX 51 75 53 76 52 77
REMARK H PARENT 69 45 47 56
REMARK Flexibility Score: inf
ROOT
ATOM      1  C   UNL A   1      34.611  33.275  28.309  1.00  0.00     0.202 C 
ENDROOT
BRANCH   1   2
ATOM      2  C   UNL A   1      33.946  31.859  28.178  1.00  0.00     0.261 C 
BRANCH   2   3
ATOM      3  O   UNL A   1      34.747  30.821  27.484  1.00  0.00    -0.463 OA
BRANCH   3   4
ATOM      4  C   UNL A   1      34.015  29.762  27.011  1.00  0.00     0.316 C 
ATOM      5  O   UNL A   1      34.558  28.675  26.789  1.00  0.00    -0.251 OA
BRANCH   4   6
ATOM      6  C   UNL A   1      32.471  29.846  26.879  1.00  0.00     0.200 C 
BRANCH   6   7
ATOM      7  S   UNL A   1      31.559  30.453  25.462  1.00  0.00    -0.074 SA
BRANCH   7   8
ATOM      8  C   UNL A   1      30.817  29.244  24.397  1.00  0.00     0.196 A 
ATOM      9  N   UNL A   1      31.053  27.884  24.159  1.00  0.00    -0.270 N 
ATOM     10  C   UNL A   1      29.887  27.411  23.551  1.00  0.00     0.135 A 
ATOM     11  C   UNL A   1      29.457  25.978  23.496  1.00  0.00     0.090 C 
ATOM     12  N   UNL A   1      29.116  28.434  23.257  1.00  0.00    -0.134 NA
ATOM     13  N   UNL A   1      29.695  29.566  23.773  1.00  0.00    -0.123 NA
BRANCH   9  14
ATOM     14  C   UNL A   1      32.039  27.029  24.665  1.00  0.00     0.091 A 
ATOM     15  C   UNL A   1      33.188  26.813  23.947  1.00  0.00     0.142 A 
ATOM     16  C   UNL A   1      34.061  25.790  24.330  1.00  0.00     0.048 A 
ATOM     17  C   UNL A   1      33.890  25.132  25.537  1.00  0.00     0.004 A 
ATOM     18  C   UNL A   1      31.892  26.438  25.925  1.00  0.00     0.031 A 
ATOM     19  C   UNL A   1      32.833  25.500  26.363  1.00  0.00     0.002 A 
BRANCH  15  20
ATOM     20  O   UNL A   1      33.601  27.517  22.881  1.00  0.00    -0.495 OA
ATOM     21  C   UNL A   1      34.273  28.757  22.907  1.00  0.00     0.278 C 
ENDBRANCH  15  20
ENDBRANCH   9  14
ENDBRANCH   7   8
ENDBRANCH   6   7
ENDBRANCH   4   6
ENDBRANCH   3   4
ENDBRANCH   2   3
ENDBRANCH   1   2
BRANCH   1  22
ATOM     22  O   UNL A   1      33.835  34.457  28.028  1.00  0.00    -0.374 OA
BRANCH  22  23
ATOM     23  C   UNL A   1      33.964  35.671  28.757  1.00  0.00     0.202 C 
BRANCH  23  24
ATOM     24  C   UNL A   1      32.970  36.075  29.862  1.00  0.00     0.261 C 
BRANCH  24  25
ATOM     25  O   UNL A   1      33.512  36.227  31.163  1.00  0.00    -0.460 OA
BRANCH  25  26
ATOM     26  C   UNL A   1      33.135  35.324  32.080  1.00  0.00     0.338 C 
ATOM     27  O   UNL A   1      32.098  35.323  32.737  1.00  0.00    -0.246 OA
BRANCH  26  28
ATOM     28  C   UNL A   1      34.275  34.420  32.292  1.00  0.00     0.060 A 
ATOM     29  C   UNL A   1      35.501  35.021  32.542  1.00  0.00     0.016 A 
ATOM     30  C   UNL A   1      34.186  33.030  32.086  1.00  0.00     0.016 A 
ATOM     31  C   UNL A   1      36.638  34.251  32.425  1.00  0.00     0.010 A 
ATOM     32  C   UNL A   1      35.315  32.251  31.988  1.00  0.00     0.010 A 
ATOM     33  C   UNL A   1      36.532  32.889  32.090  1.00  0.00    -0.014 A 
BRANCH  33  34
ATOM     34  C   UNL A   1      37.755  32.137  31.974  1.00  0.00     0.031 A 
ATOM     35  C   UNL A   1      38.519  32.093  33.229  1.00  0.00     0.074 A 
ATOM     36  C   UNL A   1      38.201  31.567  30.846  1.00  0.00     0.049 A 
ATOM     37  N   UNL A   1      39.510  32.858  33.534  1.00  0.00    -0.248 NA
ATOM     38  C   UNL A   1      38.021  31.256  34.325  1.00  0.00     0.031 C 
ATOM     39  C   UNL A   1      37.492  31.267  29.604  1.00  0.00     0.029 A 
ATOM     40  N   UNL A   1      39.448  31.079  30.625  1.00  0.00    -0.354 N 
ATOM     41  C   UNL A   1      39.891  32.484  34.810  1.00  0.00     0.074 A 
ATOM     42  C   UNL A   1      38.852  31.612  35.307  1.00  0.00     0.031 C 
ATOM     43  C   UNL A   1      38.272  30.468  28.836  1.00  0.00     0.029 A 
ATOM     44  C   UNL A   1      39.577  30.338  29.467  1.00  0.00     0.049 A 
ATOM     45  H   UNL A   1      40.199  31.240  31.241  1.00  0.00     0.167 HD
ATOM     46  C   UNL A   1      41.148  32.736  35.257  1.00  0.00     0.031 A 
ATOM     47  C   UNL A   1      40.675  29.635  29.105  1.00  0.00     0.031 A 
ATOM     48  C   UNL A   1      41.829  33.707  34.434  1.00  0.00     0.049 A 
ATOM     49  C   UNL A   1      41.839  30.215  29.823  1.00  0.00     0.074 A 
ATOM     50  C   UNL A   1      41.591  35.022  34.083  1.00  0.00     0.029 A 
ATOM     51  N   UNL A   1      42.727  33.226  33.509  1.00  0.00    -0.354 N 
ATOM     52  N   UNL A   1      42.328  31.392  29.559  1.00  0.00    -0.248 NA
ATOM     53  C   UNL A   1      42.204  29.672  31.123  1.00  0.00     0.031 C 
ATOM     54  C   UNL A   1      41.988  35.120  32.716  1.00  0.00     0.029 A 
ATOM     55  C   UNL A   1      42.492  33.878  32.325  1.00  0.00     0.049 A 
ATOM     56  H   UNL A   1      43.412  32.538  33.667  1.00  0.00     0.167 HD
ATOM     57  C   UNL A   1      42.673  31.921  30.795  1.00  0.00     0.074 A 
ATOM     58  C   UNL A   1      42.683  30.776  31.703  1.00  0.00     0.031 C 
ATOM     59  C   UNL A   1      42.642  33.268  31.021  1.00  0.00     0.031 A 
BRANCH  46  60
ATOM     60  C   UNL A   1      41.886  31.788  36.158  1.00  0.00    -0.014 A 
ATOM     61  C   UNL A   1      42.492  32.295  37.318  1.00  0.00     0.009 A 
ATOM     62  C   UNL A   1      42.251  30.485  35.762  1.00  0.00     0.009 A 
ATOM     63  C   UNL A   1      43.468  31.563  38.002  1.00  0.00     0.001 A 
ATOM     64  C   UNL A   1      43.193  29.736  36.466  1.00  0.00     0.001 A 
ATOM     65  C   UNL A   1      43.823  30.288  37.570  1.00  0.00     0.000 A 
ENDBRANCH  46  60
BRANCH  47  66
ATOM     66  C   UNL A   1      40.743  28.338  28.407  1.00  0.00    -0.014 A 
ATOM     67  C   UNL A   1      40.030  27.230  28.892  1.00  0.00     0.009 A 
ATOM     68  C   UNL A   1      41.273  28.259  27.107  1.00  0.00     0.009 A 
ATOM     69  C   UNL A   1      39.811  26.108  28.084  1.00  0.00     0.001 A 
ATOM     70  C   UNL A   1      41.061  27.137  26.303  1.00  0.00     0.001 A 
ATOM     71  C   UNL A   1      40.313  26.069  26.785  1.00  0.00     0.000 A 
ENDBRANCH  47  66
BRANCH  59  72
ATOM     72  C   UNL A   1      42.486  34.177  29.824  1.00  0.00    -0.014 A 
ATOM     73  C   UNL A   1      41.254  34.735  29.437  1.00  0.00     0.009 A 
ATOM     74  C   UNL A   1      43.642  34.581  29.138  1.00  0.00     0.009 A 
ATOM     75  C   UNL A   1      41.179  35.636  28.369  1.00  0.00     0.001 A 
ATOM     76  C   UNL A   1      43.570  35.499  28.088  1.00  0.00     0.001 A 
ATOM     77  C   UNL A   1      42.338  36.019  27.697  1.00  0.00     0.000 A 
ENDBRANCH  59  72
ENDBRANCH  33  34
ENDBRANCH  26  28
ENDBRANCH  25  26
ENDBRANCH  24  25
ENDBRANCH  23  24
ENDBRANCH  22  23
ENDBRANCH   1  22
TORSDOF 18
ENDMDL
MODEL 2
REMARK VINA RESULT:      -9.7      1.312      2.245
REMARK SMILES COc1ccccc1-n1c(C)nnc1SCC(=O)OCCOCCOC(=O)c1ccc(-c2c3nc(c(-c4ccccc4)c4ccc([nH]4)c(-c4ccccc4)c4nc(c(-c5ccccc5)c5ccc2[nH]5)C=C4)C=C3)cc1
REMARK SMILES IDX 21 1 20 2 19 3 17 4 18 5 16 6 15 7 14 8 9 9 10 10 11 11
REMARK SMILES IDX 12 12 13 13 8 14 3 15 4 16 5 17 7 18 6 19 2 20 1 21 22 22
REMARK SMILES IDX 23 23 24 24 25 25 26 26 27 27 28 28 29 29 75 30 30 31 74 32
REMARK SMILES IDX 31 33 32 34 33 35 68 36 34 37 73 38 67 39 69 40 35 41 72 42
REMARK SMILES IDX 66 43 65 44 36 46 58 47 43 48 57 49 44 50 47 51 56 52 70 53
REMARK SMILES IDX 45 54 46 55 55 57 71 58 48 59 37 60 38 61 42 62 39 63 41 64
REMARK SMILES IDX 40 65 59 66 60 67 64 68 61 69 63 70 62 71 49 72 50 73 54 74
REMARK SMILES IDX 51 75 53 76 52 77
REMARK H PARENT 69 45 47 56
REMARK Flexibility Score: inf
ROOT
ATOM      1  C   UNL A   1      34.511  32.979  28.330  1.00  0.00     0.202 C 
ENDROOT
BRANCH   1   2
ATOM      2  C   UNL A   1      33.972  31.520  28.114  1.00  0.00     0.261 C 
BRANCH   2   3
ATOM      3  O   UNL A   1      33.178  31.292  26.882  1.00  0.00    -0.463 OA
BRANCH   3   4
ATOM      4  C   UNL A   1      32.770  29.995  26.702  1.00  0.00     0.316 C 
ATOM      5  O   UNL A   1      31.795  29.554  27.320  1.00  0.00    -0.251 OA
BRANCH   4   6
ATOM      6  C   UNL A   1      33.420  29.089  25.623  1.00  0.00     0.200 C 
BRANCH   6   7
ATOM      7  S   UNL A   1      33.760  27.337  25.773  1.00  0.00    -0.074 SA
BRANCH   7   8
ATOM      8  C   UNL A   1      33.399  26.318  24.367  1.00  0.00     0.196 A 
ATOM      9  N   UNL A   1      32.417  26.353  23.368  1.00  0.00    -0.270 N 
ATOM     10  C   UNL A   1      32.918  25.557  22.334  1.00  0.00     0.135 A 
ATOM     11  C   UNL A   1      32.479  25.616  20.904  1.00  0.00     0.090 C 
ATOM     12  N   UNL A   1      33.992  24.932  22.761  1.00  0.00    -0.134 NA
ATOM     13  N   UNL A   1      34.284  25.397  24.019  1.00  0.00    -0.123 NA
BRANCH   9  14
ATOM     14  C   UNL A   1      31.322  27.208  23.197  1.00  0.00     0.091 A 
ATOM     15  C   UNL A   1      30.081  26.822  23.640  1.00  0.00     0.142 A 
ATOM     16  C   UNL A   1      28.955  27.561  23.266  1.00  0.00     0.048 A 
ATOM     17  C   UNL A   1      29.091  28.785  22.634  1.00  0.00     0.004 A 
ATOM     18  C   UNL A   1      31.490  28.478  22.635  1.00  0.00     0.031 A 
ATOM     19  C   UNL A   1      30.368  29.271  22.371  1.00  0.00     0.002 A 
BRANCH  15  20
ATOM     20  O   UNL A   1      29.814  25.782  24.445  1.00  0.00    -0.495 OA
ATOM     21  C   UNL A   1      29.902  25.769  25.852  1.00  0.00     0.278 C 
ENDBRANCH  15  20
ENDBRANCH   9  14
ENDBRANCH   7   8
ENDBRANCH   6   7
ENDBRANCH   4   6
ENDBRANCH   3   4
ENDBRANCH   2   3
ENDBRANCH   1   2
BRANCH   1  22
ATOM     22  O   UNL A   1      33.584  34.083  28.377  1.00  0.00    -0.374 OA
BRANCH  22  23
ATOM     23  C   UNL A   1      33.888  35.336  28.975  1.00  0.00     0.202 C 
BRANCH  23  24
ATOM     24  C   UNL A   1      32.929  36.031  29.959  1.00  0.00     0.261 C 
BRANCH  24  25
ATOM     25  O   UNL A   1      33.442  36.284  31.257  1.00  0.00    -0.460 OA
BRANCH  25  26
ATOM     26  C   UNL A   1      33.101  35.413  32.217  1.00  0.00     0.338 C 
ATOM     27  O   UNL A   1      32.081  35.423  32.899  1.00  0.00    -0.246 OA
BRANCH  26  28
ATOM     28  C   UNL A   1      34.260  34.535  32.436  1.00  0.00     0.060 A 
ATOM     29  C   UNL A   1      35.484  35.162  32.621  1.00  0.00     0.016 A 
ATOM     30  C   UNL A   1      34.184  33.135  32.297  1.00  0.00     0.016 A 
ATOM     31  C   UNL A   1      36.628  34.402  32.505  1.00  0.00     0.010 A 
ATOM     32  C   UNL A   1      35.321  32.367  32.200  1.00  0.00     0.010 A 
ATOM     33  C   UNL A   1      36.531  33.025  32.236  1.00  0.00    -0.014 A 
BRANCH  33  34
ATOM     34  C   UNL A   1      37.761  32.285  32.118  1.00  0.00     0.031 A 
ATOM     35  C   UNL A   1      38.517  32.230  33.378  1.00  0.00     0.074 A 
ATOM     36  C   UNL A   1      38.219  31.733  30.985  1.00  0.00     0.049 A 
ATOM     37  N   UNL A   1      39.500  32.998  33.700  1.00  0.00    -0.248 NA
ATOM     38  C   UNL A   1      38.019  31.373  34.459  1.00  0.00     0.031 C 
ATOM     39  C   UNL A   1      37.520  31.444  29.735  1.00  0.00     0.029 A 
ATOM     40  N   UNL A   1      39.471  31.258  30.766  1.00  0.00    -0.354 N 
ATOM     41  C   UNL A   1      39.876  32.610  34.972  1.00  0.00     0.074 A 
ATOM     42  C   UNL A   1      38.841  31.723  35.451  1.00  0.00     0.031 C 
ATOM     43  C   UNL A   1      38.312  30.662  28.961  1.00  0.00     0.029 A 
ATOM     44  C   UNL A   1      39.614  30.534  29.599  1.00  0.00     0.049 A 
ATOM     45  H   UNL A   1      40.217  31.417  31.390  1.00  0.00     0.167 HD
ATOM     46  C   UNL A   1      41.128  32.865  35.431  1.00  0.00     0.031 A 
ATOM     47  C   UNL A   1      40.720  29.845  29.235  1.00  0.00     0.031 A 
ATOM     48  C   UNL A   1      41.806  33.853  34.626  1.00  0.00     0.049 A 
ATOM     49  C   UNL A   1      41.875  30.424  29.968  1.00  0.00     0.074 A 
ATOM     50  C   UNL A   1      41.560  35.170  34.292  1.00  0.00     0.029 A 
ATOM     51  N   UNL A   1      42.714  33.392  33.701  1.00  0.00    -0.354 N 
ATOM     52  N   UNL A   1      42.355  31.609  29.723  1.00  0.00    -0.248 NA
ATOM     53  C   UNL A   1      42.235  29.867  31.263  1.00  0.00     0.031 C 
ATOM     54  C   UNL A   1      41.966  35.291  32.929  1.00  0.00     0.029 A 
ATOM     55  C   UNL A   1      42.482  34.058  32.525  1.00  0.00     0.049 A 
ATOM     56  H   UNL A   1      43.404  32.707  33.854  1.00  0.00     0.167 HD
ATOM     57  C   UNL A   1      42.688  32.123  30.969  1.00  0.00     0.074 A 
ATOM     58  C   UNL A   1      42.702  30.966  31.861  1.00  0.00     0.031 C 
ATOM     59  C   UNL A   1      42.645  33.467  31.213  1.00  0.00     0.031 A 
BRANCH  46  60
ATOM     60  C   UNL A   1      41.868  31.910  36.324  1.00  0.00    -0.014 A 
ATOM     61  C   UNL A   1      42.456  32.405  37.499  1.00  0.00     0.009 A 
ATOM     62  C   UNL A   1      42.251  30.619  35.911  1.00  0.00     0.009 A 
ATOM     63  C   UNL A   1      43.433  31.673  38.181  1.00  0.00     0.001 A 
ATOM     64  C   UNL A   1      43.195  29.869  36.612  1.00  0.00     0.001 A 
ATOM     65  C   UNL A   1      43.808  30.410  37.731  1.00  0.00     0.000 A 
ENDBRANCH  46  60
BRANCH  47  66
ATOM     66  C   UNL A   1      40.802  28.558  28.520  1.00  0.00    -0.014 A 
ATOM     67  C   UNL A   1      40.204  27.407  29.055  1.00  0.00     0.009 A 
ATOM     68  C   UNL A   1      41.217  28.519  27.177  1.00  0.00     0.009 A 
ATOM     69  C   UNL A   1      39.981  26.277  28.258  1.00  0.00     0.001 A 
ATOM     70  C   UNL A   1      41.001  27.390  26.382  1.00  0.00     0.001 A 
ATOM     71  C   UNL A   1      40.365  26.276  26.919  1.00  0.00     0.000 A 
ENDBRANCH  47  66
BRANCH  59  72
ATOM     72  C   UNL A   1      42.489  34.391  30.028  1.00  0.00    -0.014 A 
ATOM     73  C   UNL A   1      43.578  34.861  29.271  1.00  0.00     0.009 A 
ATOM     74  C   UNL A   1      41.193  34.696  29.585  1.00  0.00     0.009 A 
ATOM     75  C   UNL A   1      43.373  35.649  28.133  1.00  0.00     0.001 A 
ATOM     76  C   UNL A   1      40.988  35.462  28.435  1.00  0.00     0.001 A 
ATOM     77  C   UNL A   1      42.078  35.946  27.715  1.00  0.00     0.000 A 
ENDBRANCH  59  72
ENDBRANCH  33  34
ENDBRANCH  26  28
ENDBRANCH  25  26
ENDBRANCH  24  25
ENDBRANCH  23  24
ENDBRANCH  22  23
ENDBRANCH   1  22
TORSDOF 18
ENDMDL
MODEL 3
REMARK VINA RESULT:      -9.5      3.382      8.672
REMARK SMILES COc1ccccc1-n1c(C)nnc1SCC(=O)OCCOCCOC(=O)c1ccc(-c2c3nc(c(-c4ccccc4)c4ccc([nH]4)c(-c4ccccc4)c4nc(c(-c5ccccc5)c5ccc2[nH]5)C=C4)C=C3)cc1
REMARK SMILES IDX 21 1 20 2 19 3 17 4 18 5 16 6 15 7 14 8 9 9 10 10 11 11
REMARK SMILES IDX 12 12 13 13 8 14 3 15 4 16 5 17 7 18 6 19 2 20 1 21 22 22
REMARK SMILES IDX 23 23 24 24 25 25 26 26 27 27 28 28 29 29 75 30 30 31 74 32
REMARK SMILES IDX 31 33 32 34 33 35 68 36 34 37 73 38 67 39 69 40 35 41 72 42
REMARK SMILES IDX 66 43 65 44 36 46 58 47 43 48 57 49 44 50 47 51 56 52 70 53
REMARK SMILES IDX 45 54 46 55 55 57 71 58 48 59 37 60 38 61 42 62 39 63 41 64
REMARK SMILES IDX 40 65 59 66 60 67 64 68 61 69 63 70 62 71 49 72 50 73 54 74
REMARK SMILES IDX 51 75 53 76 52 77
REMARK H PARENT 69 45 47 56
REMARK Flexibility Score: inf
ROOT
ATOM      1  C   UNL A   1      38.919  22.386  26.152  1.00  0.00     0.202 C 
ENDROOT
BRANCH   1   2
ATOM      2  C   UNL A   1      37.427  22.087  25.764  1.00  0.00     0.261 C 
BRANCH   2   3
ATOM      3  O   UNL A   1      37.176  21.746  24.342  1.00  0.00    -0.463 OA
BRANCH   3   4
ATOM      4  C   UNL A   1      36.206  22.506  23.740  1.00  0.00     0.316 C 
ATOM      5  O   UNL A   1      36.506  23.326  22.866  1.00  0.00    -0.251 OA
BRANCH   4   6
ATOM      6  C   UNL A   1      34.700  22.264  24.027  1.00  0.00     0.200 C 
BRANCH   6   7
ATOM      7  S   UNL A   1      33.493  23.508  24.477  1.00  0.00    -0.074 SA
BRANCH   7   8
ATOM      8  C   UNL A   1      33.282  24.873  23.365  1.00  0.00     0.196 A 
ATOM      9  N   UNL A   1      33.021  26.239  23.541  1.00  0.00    -0.270 N 
ATOM     10  C   UNL A   1      33.394  26.841  22.337  1.00  0.00     0.135 A 
ATOM     11  C   UNL A   1      33.722  28.290  22.157  1.00  0.00     0.090 C 
ATOM     12  N   UNL A   1      33.648  25.903  21.452  1.00  0.00    -0.134 NA
ATOM     13  N   UNL A   1      33.571  24.688  22.087  1.00  0.00    -0.123 NA
BRANCH   9  14
ATOM     14  C   UNL A   1      32.768  26.974  24.704  1.00  0.00     0.091 A 
ATOM     15  C   UNL A   1      31.568  27.625  24.852  1.00  0.00     0.142 A 
ATOM     16  C   UNL A   1      31.404  28.543  25.893  1.00  0.00     0.048 A 
ATOM     17  C   UNL A   1      32.353  28.650  26.896  1.00  0.00     0.004 A 
ATOM     18  C   UNL A   1      33.701  27.004  25.747  1.00  0.00     0.031 A 
ATOM     19  C   UNL A   1      33.478  27.834  26.852  1.00  0.00     0.002 A 
BRANCH  15  20
ATOM     20  O   UNL A   1      30.477  27.459  24.088  1.00  0.00    -0.495 OA
ATOM     21  C   UNL A   1      29.673  28.483  23.545  1.00  0.00     0.278 C 
ENDBRANCH  15  20
ENDBRANCH   9  14
ENDBRANCH   7   8
ENDBRANCH   6   7
ENDBRANCH   4   6
ENDBRANCH   3   4
ENDBRANCH   2   3
ENDBRANCH   1   2
BRANCH   1  22
ATOM     22  O   UNL A   1      39.701  21.374  26.817  1.00  0.00    -0.374 OA
BRANCH  22  23
ATOM     23  C   UNL A   1      40.643  20.546  26.148  1.00  0.00     0.202 C 
BRANCH  23  24
ATOM     24  C   UNL A   1      42.159  20.663  26.392  1.00  0.00     0.261 C 
BRANCH  24  25
ATOM     25  O   UNL A   1      42.616  21.911  26.887  1.00  0.00    -0.460 OA
BRANCH  25  26
ATOM     26  C   UNL A   1      42.570  22.947  26.036  1.00  0.00     0.338 C 
ATOM     27  O   UNL A   1      43.017  22.989  24.894  1.00  0.00    -0.246 OA
BRANCH  26  28
ATOM     28  C   UNL A   1      42.041  24.097  26.783  1.00  0.00     0.060 A 
ATOM     29  C   UNL A   1      41.265  24.997  26.064  1.00  0.00     0.016 A 
ATOM     30  C   UNL A   1      42.426  24.380  28.108  1.00  0.00     0.016 A 
ATOM     31  C   UNL A   1      41.022  26.234  26.620  1.00  0.00     0.010 A 
ATOM     32  C   UNL A   1      42.169  25.606  28.677  1.00  0.00     0.010 A 
ATOM     33  C   UNL A   1      41.530  26.543  27.895  1.00  0.00    -0.014 A 
BRANCH  33  34
ATOM     34  C   UNL A   1      41.249  27.854  28.421  1.00  0.00     0.031 A 
ATOM     35  C   UNL A   1      42.240  28.859  28.006  1.00  0.00     0.074 A 
ATOM     36  C   UNL A   1      40.231  28.151  29.240  1.00  0.00     0.049 A 
ATOM     37  N   UNL A   1      43.249  29.254  28.703  1.00  0.00    -0.248 NA
ATOM     38  C   UNL A   1      42.223  29.330  26.618  1.00  0.00     0.031 C 
ATOM     39  C   UNL A   1      39.020  27.391  29.542  1.00  0.00     0.029 A 
ATOM     40  N   UNL A   1      40.076  29.293  29.956  1.00  0.00    -0.354 N 
ATOM     41  C   UNL A   1      43.914  30.170  27.911  1.00  0.00     0.074 A 
ATOM     42  C   UNL A   1      43.338  30.063  26.591  1.00  0.00     0.031 C 
ATOM     43  C   UNL A   1      38.163  28.188  30.227  1.00  0.00     0.029 A 
ATOM     44  C   UNL A   1      38.832  29.443  30.536  1.00  0.00     0.049 A 
ATOM     45  H   UNL A   1      40.794  29.961  30.054  1.00  0.00     0.167 HD
ATOM     46  C   UNL A   1      44.722  31.108  28.469  1.00  0.00     0.031 A 
ATOM     47  C   UNL A   1      38.393  30.552  31.173  1.00  0.00     0.031 A 
ATOM     48  C   UNL A   1      45.060  30.785  29.834  1.00  0.00     0.049 A 
ATOM     49  C   UNL A   1      39.585  31.319  31.619  1.00  0.00     0.074 A 
ATOM     50  C   UNL A   1      45.703  29.730  30.453  1.00  0.00     0.029 A 
ATOM     51  N   UNL A   1      44.359  31.433  30.825  1.00  0.00    -0.354 N 
ATOM     52  N   UNL A   1      40.381  30.914  32.566  1.00  0.00    -0.248 NA
ATOM     53  C   UNL A   1      40.142  32.329  30.732  1.00  0.00     0.031 C 
ATOM     54  C   UNL A   1      44.992  29.525  31.673  1.00  0.00     0.029 A 
ATOM     55  C   UNL A   1      43.990  30.495  31.754  1.00  0.00     0.049 A 
ATOM     56  H   UNL A   1      44.158  32.396  30.860  1.00  0.00     0.167 HD
ATOM     57  C   UNL A   1      41.653  31.267  32.137  1.00  0.00     0.074 A 
ATOM     58  C   UNL A   1      41.432  32.235  31.065  1.00  0.00     0.031 C 
ATOM     59  C   UNL A   1      42.749  30.535  32.499  1.00  0.00     0.031 A 
BRANCH  46  60
ATOM     60  C   UNL A   1      44.832  32.503  27.922  1.00  0.00    -0.014 A 
ATOM     61  C   UNL A   1      43.766  33.393  28.128  1.00  0.00     0.009 A 
ATOM     62  C   UNL A   1      45.804  32.878  26.974  1.00  0.00     0.009 A 
ATOM     63  C   UNL A   1      43.643  34.561  27.369  1.00  0.00     0.001 A 
ATOM     64  C   UNL A   1      45.707  34.063  26.245  1.00  0.00     0.001 A 
ATOM     65  C   UNL A   1      44.609  34.890  26.422  1.00  0.00     0.000 A 
ENDBRANCH  46  60
BRANCH  47  66
ATOM     66  C   UNL A   1      37.035  31.129  31.177  1.00  0.00    -0.014 A 
ATOM     67  C   UNL A   1      36.439  31.539  32.379  1.00  0.00     0.009 A 
ATOM     68  C   UNL A   1      36.438  31.542  29.973  1.00  0.00     0.009 A 
ATOM     69  C   UNL A   1      35.318  32.378  32.375  1.00  0.00     0.001 A 
ATOM     70  C   UNL A   1      35.316  32.374  29.967  1.00  0.00     0.001 A 
ATOM     71  C   UNL A   1      34.767  32.807  31.169  1.00  0.00     0.000 A 
ENDBRANCH  47  66
BRANCH  59  72
ATOM     72  C   UNL A   1      42.575  29.502  33.587  1.00  0.00    -0.014 A 
ATOM     73  C   UNL A   1      42.114  28.196  33.341  1.00  0.00     0.009 A 
ATOM     74  C   UNL A   1      43.009  29.820  34.883  1.00  0.00     0.009 A 
ATOM     75  C   UNL A   1      42.049  27.253  34.373  1.00  0.00     0.001 A 
ATOM     76  C   UNL A   1      42.966  28.870  35.907  1.00  0.00     0.001 A 
ATOM     77  C   UNL A   1      42.478  27.590  35.654  1.00  0.00     0.000 A 
ENDBRANCH  59  72
ENDBRANCH  33  34
ENDBRANCH  26  28
ENDBRANCH  25  26
ENDBRANCH  24  25
ENDBRANCH  23  24
ENDBRANCH  22  23
ENDBRANCH   1  22
TORSDOF 18
ENDMDL
