MODEL 1
REMARK VINA RESULT:     -11.7      0.000      0.000
REMARK SMILES CC1=Nc2ncnn2[C@H](c2ccc(F)cc2)[C@@H]1C(=O)OCCOCCOC(=O)c1ccc(-c2c3nc(c(-c4ccccc4)c4ccc([nH]4)c(-c4ccccc4)c4nc(c(-c5ccccc5)c5ccc2[nH]5)C=C4)C=C3)cc1
REMARK SMILES IDX 24 1 23 2 22 3 21 4 20 5 18 6 19 7 17 8 1 9 2 10 3 11 4 12
REMARK SMILES IDX 9 13 5 14 8 15 6 16 7 17 10 18 11 19 16 20 12 21 15 22 13 23
REMARK SMILES IDX 14 24 25 25 26 26 27 27 28 28 29 29 30 30 76 31 31 32 75 33
REMARK SMILES IDX 32 34 33 35 34 36 69 37 35 38 74 39 68 40 70 41 36 42 73 43
REMARK SMILES IDX 67 44 66 45 37 47 59 48 44 49 58 50 45 51 48 52 57 53 71 54
REMARK SMILES IDX 46 55 47 56 56 58 72 59 49 60 38 61 39 62 43 63 40 64 42 65
REMARK SMILES IDX 41 66 60 67 61 68 65 69 62 70 64 71 63 72 50 73 51 74 55 75
REMARK SMILES IDX 52 76 54 77 53 78
REMARK H PARENT 70 46 48 57
REMARK Flexibility Score: inf
ROOT
ATOM      1  C   UNL A   1      33.732  31.793  27.616  1.00  0.00     0.202 C 
ENDROOT
BRANCH   1   2
ATOM      2  O   UNL A   1      33.777  30.380  27.521  1.00  0.00    -0.374 OA
BRANCH   2   3
ATOM      3  C   UNL A   1      33.100  29.672  26.492  1.00  0.00     0.202 C 
BRANCH   3   4
ATOM      4  C   UNL A   1      33.165  28.146  26.395  1.00  0.00     0.261 C 
BRANCH   4   5
ATOM      5  O   UNL A   1      32.425  27.465  25.368  1.00  0.00    -0.463 OA
BRANCH   5   6
ATOM      6  C   UNL A   1      31.423  26.650  25.784  1.00  0.00     0.317 C 
ATOM      7  O   UNL A   1      30.704  26.807  26.759  1.00  0.00    -0.251 OA
BRANCH   6   8
ATOM      8  C   UNL A   1      31.223  25.469  24.916  1.00  0.00     0.173 C 
ATOM      9  C   UNL A   1      33.149  24.222  26.175  1.00  0.00     0.063 C 
ATOM     10  C   UNL A   1      32.568  24.741  24.871  1.00  0.00     0.036 C 
ATOM     11  N   UNL A   1      33.326  24.631  23.830  1.00  0.00    -0.220 NA
ATOM     12  C   UNL A   1      32.925  25.189  22.669  1.00  0.00     0.248 A 
ATOM     13  C   UNL A   1      30.691  25.930  23.524  1.00  0.00     0.161 C 
ATOM     14  N   UNL A   1      33.538  25.167  21.505  1.00  0.00    -0.198 NA
ATOM     15  N   UNL A   1      31.737  25.860  22.508  1.00  0.00    -0.221 N 
ATOM     16  C   UNL A   1      32.648  25.752  20.655  1.00  0.00     0.248 A 
ATOM     17  N   UNL A   1      31.501  26.140  21.210  1.00  0.00    -0.157 NA
BRANCH  13  18
ATOM     18  C   UNL A   1      29.813  27.207  23.349  1.00  0.00    -0.022 A 
ATOM     19  C   UNL A   1      28.428  27.113  23.578  1.00  0.00     0.009 A 
ATOM     20  C   UNL A   1      30.255  28.459  22.875  1.00  0.00     0.009 A 
ATOM     21  C   UNL A   1      27.580  28.227  23.451  1.00  0.00     0.039 A 
ATOM     22  C   UNL A   1      29.441  29.597  22.842  1.00  0.00     0.039 A 
ATOM     23  C   UNL A   1      28.103  29.470  23.132  1.00  0.00     0.123 A 
ATOM     24  F   UNL A   1      27.308  30.544  23.063  1.00  0.00    -0.207 F 
ENDBRANCH  13  18
ENDBRANCH   6   8
ENDBRANCH   5   6
ENDBRANCH   4   5
ENDBRANCH   3   4
ENDBRANCH   2   3
ENDBRANCH   1   2
BRANCH   1  25
ATOM     25  C   UNL A   1      34.545  32.546  28.642  1.00  0.00     0.261 C 
BRANCH  25  26
ATOM     26  O   UNL A   1      35.106  31.666  29.594  1.00  0.00    -0.460 OA
BRANCH  26  27
ATOM     27  C   UNL A   1      36.287  32.124  30.063  1.00  0.00     0.338 C 
ATOM     28  O   UNL A   1      36.498  33.155  30.667  1.00  0.00    -0.246 OA
BRANCH  27  29
ATOM     29  C   UNL A   1      37.335  31.265  29.520  1.00  0.00     0.060 A 
ATOM     30  C   UNL A   1      36.965  29.929  29.402  1.00  0.00     0.016 A 
ATOM     31  C   UNL A   1      38.674  31.691  29.529  1.00  0.00     0.016 A 
ATOM     32  C   UNL A   1      37.944  28.988  29.563  1.00  0.00     0.010 A 
ATOM     33  C   UNL A   1      39.653  30.746  29.695  1.00  0.00     0.010 A 
ATOM     34  C   UNL A   1      39.261  29.415  29.789  1.00  0.00    -0.014 A 
BRANCH  34  35
ATOM     35  C   UNL A   1      40.265  28.382  29.860  1.00  0.00     0.031 A 
ATOM     36  C   UNL A   1      40.741  28.262  31.253  1.00  0.00     0.074 A 
ATOM     37  C   UNL A   1      40.638  27.630  28.812  1.00  0.00     0.049 A 
ATOM     38  N   UNL A   1      41.859  28.705  31.720  1.00  0.00    -0.248 NA
ATOM     39  C   UNL A   1      39.762  27.883  32.292  1.00  0.00     0.031 C 
ATOM     40  C   UNL A   1      40.004  27.568  27.492  1.00  0.00     0.029 A 
ATOM     41  N   UNL A   1      41.603  26.673  28.734  1.00  0.00    -0.354 N 
ATOM     42  C   UNL A   1      41.833  28.371  33.068  1.00  0.00     0.074 A 
ATOM     43  C   UNL A   1      40.455  28.140  33.402  1.00  0.00     0.031 C 
ATOM     44  C   UNL A   1      40.427  26.453  26.852  1.00  0.00     0.029 A 
ATOM     45  C   UNL A   1      41.449  25.806  27.659  1.00  0.00     0.049 A 
ATOM     46  H   UNL A   1      42.341  26.601  29.381  1.00  0.00     0.167 HD
ATOM     47  C   UNL A   1      42.959  27.858  33.632  1.00  0.00     0.031 A 
ATOM     48  C   UNL A   1      42.070  24.611  27.493  1.00  0.00     0.031 A 
ATOM     49  C   UNL A   1      44.119  28.170  32.830  1.00  0.00     0.049 A 
ATOM     50  C   UNL A   1      43.271  24.609  28.358  1.00  0.00     0.074 A 
ATOM     51  C   UNL A   1      44.849  29.290  32.499  1.00  0.00     0.029 A 
ATOM     52  N   UNL A   1      44.376  27.220  31.877  1.00  0.00    -0.354 N 
ATOM     53  N   UNL A   1      44.310  25.359  28.129  1.00  0.00    -0.248 NA
ATOM     54  C   UNL A   1      43.186  24.052  29.703  1.00  0.00     0.031 C 
ATOM     55  C   UNL A   1      45.451  29.012  31.234  1.00  0.00     0.029 A 
ATOM     56  C   UNL A   1      45.125  27.713  30.849  1.00  0.00     0.049 A 
ATOM     57  H   UNL A   1      44.056  26.291  31.928  1.00  0.00     0.167 HD
ATOM     58  C   UNL A   1      44.736  25.739  29.388  1.00  0.00     0.074 A 
ATOM     59  C   UNL A   1      44.142  24.769  30.301  1.00  0.00     0.031 C 
ATOM     60  C   UNL A   1      45.239  26.991  29.599  1.00  0.00     0.031 A 
BRANCH  47  61
ATOM     61  C   UNL A   1      42.921  26.572  34.445  1.00  0.00    -0.014 A 
ATOM     62  C   UNL A   1      43.713  25.496  34.007  1.00  0.00     0.009 A 
ATOM     63  C   UNL A   1      41.919  26.264  35.389  1.00  0.00     0.009 A 
ATOM     64  C   UNL A   1      43.462  24.185  34.429  1.00  0.00     0.001 A 
ATOM     65  C   UNL A   1      41.683  24.962  35.836  1.00  0.00     0.001 A 
ATOM     66  C   UNL A   1      42.441  23.917  35.336  1.00  0.00     0.000 A 
ENDBRANCH  47  61
BRANCH  48  67
ATOM     67  C   UNL A   1      41.584  23.375  26.841  1.00  0.00    -0.014 A 
ATOM     68  C   UNL A   1      42.491  22.391  26.407  1.00  0.00     0.009 A 
ATOM     69  C   UNL A   1      40.224  23.025  26.899  1.00  0.00     0.009 A 
ATOM     70  C   UNL A   1      42.059  21.093  26.103  1.00  0.00     0.001 A 
ATOM     71  C   UNL A   1      39.791  21.730  26.590  1.00  0.00     0.001 A 
ATOM     72  C   UNL A   1      40.712  20.758  26.211  1.00  0.00     0.000 A 
ENDBRANCH  48  67
BRANCH  60  73
ATOM     73  C   UNL A   1      45.821  27.714  28.419  1.00  0.00    -0.014 A 
ATOM     74  C   UNL A   1      47.148  27.578  27.982  1.00  0.00     0.009 A 
ATOM     75  C   UNL A   1      44.954  28.537  27.685  1.00  0.00     0.009 A 
ATOM     76  C   UNL A   1      47.599  28.279  26.858  1.00  0.00     0.001 A 
ATOM     77  C   UNL A   1      45.396  29.216  26.552  1.00  0.00     0.001 A 
ATOM     78  C   UNL A   1      46.721  29.095  26.143  1.00  0.00     0.000 A 
ENDBRANCH  60  73
ENDBRANCH  34  35
ENDBRANCH  27  29
ENDBRANCH  26  27
ENDBRANCH  25  26
ENDBRANCH   1  25
TORSDOF 15
ENDMDL
MODEL 2
REMARK VINA RESULT:     -11.6      2.029      3.405
REMARK SMILES CC1=Nc2ncnn2[C@H](c2ccc(F)cc2)[C@@H]1C(=O)OCCOCCOC(=O)c1ccc(-c2c3nc(c(-c4ccccc4)c4ccc([nH]4)c(-c4ccccc4)c4nc(c(-c5ccccc5)c5ccc2[nH]5)C=C4)C=C3)cc1
REMARK SMILES IDX 24 1 23 2 22 3 21 4 20 5 18 6 19 7 17 8 1 9 2 10 3 11 4 12
REMARK SMILES IDX 9 13 5 14 8 15 6 16 7 17 10 18 11 19 16 20 12 21 15 22 13 23
REMARK SMILES IDX 14 24 25 25 26 26 27 27 28 28 29 29 30 30 76 31 31 32 75 33
REMARK SMILES IDX 32 34 33 35 34 36 69 37 35 38 74 39 68 40 70 41 36 42 73 43
REMARK SMILES IDX 67 44 66 45 37 47 59 48 44 49 58 50 45 51 48 52 57 53 71 54
REMARK SMILES IDX 46 55 47 56 56 58 72 59 49 60 38 61 39 62 43 63 40 64 42 65
REMARK SMILES IDX 41 66 60 67 61 68 65 69 62 70 64 71 63 72 50 73 51 74 55 75
REMARK SMILES IDX 52 76 54 77 53 78
REMARK H PARENT 70 46 48 57
REMARK Flexibility Score: inf
ROOT
ATOM      1  C   UNL A   1      33.654  30.931  27.702  1.00  0.00     0.202 C 
ENDROOT
BRANCH   1   2
ATOM      2  O   UNL A   1      34.059  30.310  26.495  1.00  0.00    -0.374 OA
BRANCH   2   3
ATOM      3  C   UNL A   1      33.161  29.541  25.706  1.00  0.00     0.202 C 
BRANCH   3   4
ATOM      4  C   UNL A   1      33.663  28.630  24.583  1.00  0.00     0.261 C 
BRANCH   4   5
ATOM      5  O   UNL A   1      33.167  27.284  24.482  1.00  0.00    -0.463 OA
BRANCH   5   6
ATOM      6  C   UNL A   1      33.177  26.728  23.244  1.00  0.00     0.317 C 
ATOM      7  O   UNL A   1      33.932  26.998  22.322  1.00  0.00    -0.251 OA
BRANCH   6   8
ATOM      8  C   UNL A   1      32.147  25.682  23.058  1.00  0.00     0.173 C 
ATOM      9  C   UNL A   1      30.347  27.535  22.645  1.00  0.00     0.063 C 
ATOM     10  C   UNL A   1      30.813  26.327  23.438  1.00  0.00     0.036 C 
ATOM     11  N   UNL A   1      30.093  26.010  24.465  1.00  0.00    -0.220 NA
ATOM     12  C   UNL A   1      30.523  25.030  25.286  1.00  0.00     0.248 A 
ATOM     13  C   UNL A   1      32.522  24.426  23.904  1.00  0.00     0.161 C 
ATOM     14  N   UNL A   1      29.928  24.552  26.358  1.00  0.00    -0.198 NA
ATOM     15  N   UNL A   1      31.683  24.320  25.094  1.00  0.00    -0.221 N 
ATOM     16  C   UNL A   1      30.711  23.500  26.726  1.00  0.00     0.248 A 
ATOM     17  N   UNL A   1      31.769  23.277  25.946  1.00  0.00    -0.157 NA
BRANCH  13  18
ATOM     18  C   UNL A   1      34.001  24.043  24.217  1.00  0.00    -0.022 A 
ATOM     19  C   UNL A   1      34.713  23.271  23.279  1.00  0.00     0.009 A 
ATOM     20  C   UNL A   1      34.691  24.309  25.417  1.00  0.00     0.009 A 
ATOM     21  C   UNL A   1      36.053  22.902  23.491  1.00  0.00     0.039 A 
ATOM     22  C   UNL A   1      36.052  24.034  25.596  1.00  0.00     0.039 A 
ATOM     23  C   UNL A   1      36.725  23.329  24.625  1.00  0.00     0.123 A 
ATOM     24  F   UNL A   1      38.015  23.025  24.805  1.00  0.00    -0.207 F 
ENDBRANCH  13  18
ENDBRANCH   6   8
ENDBRANCH   5   6
ENDBRANCH   4   5
ENDBRANCH   3   4
ENDBRANCH   2   3
ENDBRANCH   1   2
BRANCH   1  25
ATOM     25  C   UNL A   1      34.164  32.296  28.102  1.00  0.00     0.261 C 
BRANCH  25  26
ATOM     26  O   UNL A   1      35.572  32.304  28.206  1.00  0.00    -0.460 OA
BRANCH  26  27
ATOM     27  C   UNL A   1      35.997  31.617  29.289  1.00  0.00     0.338 C 
ATOM     28  O   UNL A   1      35.599  31.711  30.431  1.00  0.00    -0.246 OA
BRANCH  27  29
ATOM     29  C   UNL A   1      37.194  30.880  28.897  1.00  0.00     0.060 A 
ATOM     30  C   UNL A   1      36.962  29.540  28.604  1.00  0.00     0.016 A 
ATOM     31  C   UNL A   1      38.468  31.388  29.203  1.00  0.00     0.016 A 
ATOM     32  C   UNL A   1      37.965  28.652  28.880  1.00  0.00     0.010 A 
ATOM     33  C   UNL A   1      39.470  30.496  29.484  1.00  0.00     0.010 A 
ATOM     34  C   UNL A   1      39.176  29.139  29.394  1.00  0.00    -0.014 A 
BRANCH  34  35
ATOM     35  C   UNL A   1      40.227  28.169  29.580  1.00  0.00     0.031 A 
ATOM     36  C   UNL A   1      40.638  28.164  30.998  1.00  0.00     0.074 A 
ATOM     37  C   UNL A   1      40.692  27.375  28.601  1.00  0.00     0.049 A 
ATOM     38  N   UNL A   1      41.706  28.696  31.487  1.00  0.00    -0.248 NA
ATOM     39  C   UNL A   1      39.629  27.798  32.013  1.00  0.00     0.031 C 
ATOM     40  C   UNL A   1      40.129  27.195  27.260  1.00  0.00     0.029 A 
ATOM     41  N   UNL A   1      41.708  26.470  28.632  1.00  0.00    -0.354 N 
ATOM     42  C   UNL A   1      41.630  28.447  32.851  1.00  0.00     0.074 A 
ATOM     43  C   UNL A   1      40.250  28.161  33.135  1.00  0.00     0.031 C 
ATOM     44  C   UNL A   1      40.641  26.067  26.715  1.00  0.00     0.029 A 
ATOM     45  C   UNL A   1      41.654  25.529  27.610  1.00  0.00     0.049 A 
ATOM     46  H   UNL A   1      42.415  26.479  29.316  1.00  0.00     0.167 HD
ATOM     47  C   UNL A   1      42.751  28.034  33.500  1.00  0.00     0.031 A 
ATOM     48  C   UNL A   1      42.344  24.363  27.553  1.00  0.00     0.031 A 
ATOM     49  C   UNL A   1      43.932  28.359  32.735  1.00  0.00     0.049 A 
ATOM     50  C   UNL A   1      43.498  24.482  28.471  1.00  0.00     0.074 A 
ATOM     51  C   UNL A   1      44.618  29.494  32.366  1.00  0.00     0.029 A 
ATOM     52  N   UNL A   1      44.286  27.366  31.859  1.00  0.00    -0.354 N 
ATOM     53  N   UNL A   1      44.507  25.272  28.243  1.00  0.00    -0.248 NA
ATOM     54  C   UNL A   1      43.375  24.007  29.844  1.00  0.00     0.031 C 
ATOM     55  C   UNL A   1      45.298  29.170  31.152  1.00  0.00     0.029 A 
ATOM     56  C   UNL A   1      45.059  27.833  30.837  1.00  0.00     0.049 A 
ATOM     57  H   UNL A   1      44.013  26.426  31.956  1.00  0.00     0.167 HD
ATOM     58  C   UNL A   1      44.848  25.754  29.492  1.00  0.00     0.074 A 
ATOM     59  C   UNL A   1      44.260  24.811  30.438  1.00  0.00     0.031 C 
ATOM     60  C   UNL A   1      45.273  27.042  29.645  1.00  0.00     0.031 A 
BRANCH  47  61
ATOM     61  C   UNL A   1      42.739  26.801  34.393  1.00  0.00    -0.014 A 
ATOM     62  C   UNL A   1      43.578  25.729  34.041  1.00  0.00     0.009 A 
ATOM     63  C   UNL A   1      41.727  26.518  35.335  1.00  0.00     0.009 A 
ATOM     64  C   UNL A   1      43.362  24.439  34.541  1.00  0.00     0.001 A 
ATOM     65  C   UNL A   1      41.527  25.239  35.859  1.00  0.00     0.001 A 
ATOM     66  C   UNL A   1      42.331  24.192  35.442  1.00  0.00     0.000 A 
ENDBRANCH  47  61
BRANCH  48  67
ATOM     67  C   UNL A   1      41.956  23.063  26.960  1.00  0.00    -0.014 A 
ATOM     68  C   UNL A   1      42.848  22.362  26.129  1.00  0.00     0.009 A 
ATOM     69  C   UNL A   1      40.829  22.371  27.435  1.00  0.00     0.009 A 
ATOM     70  C   UNL A   1      42.650  21.006  25.835  1.00  0.00     0.001 A 
ATOM     71  C   UNL A   1      40.627  21.018  27.137  1.00  0.00     0.001 A 
ATOM     72  C   UNL A   1      41.549  20.330  26.353  1.00  0.00     0.000 A 
ENDBRANCH  48  67
BRANCH  60  73
ATOM     73  C   UNL A   1      45.876  27.721  28.448  1.00  0.00    -0.014 A 
ATOM     74  C   UNL A   1      45.158  28.523  27.547  1.00  0.00     0.009 A 
ATOM     75  C   UNL A   1      47.258  27.576  28.263  1.00  0.00     0.009 A 
ATOM     76  C   UNL A   1      45.808  29.131  26.468  1.00  0.00     0.001 A 
ATOM     77  C   UNL A   1      47.910  28.202  27.202  1.00  0.00     0.001 A 
ATOM     78  C   UNL A   1      47.183  28.971  26.298  1.00  0.00     0.000 A 
ENDBRANCH  60  73
ENDBRANCH  34  35
ENDBRANCH  27  29
ENDBRANCH  26  27
ENDBRANCH  25  26
ENDBRANCH   1  25
TORSDOF 15
ENDMDL
MODEL 3
REMARK VINA RESULT:     -11.6      4.207      8.525
REMARK SMILES CC1=Nc2ncnn2[C@H](c2ccc(F)cc2)[C@@H]1C(=O)OCCOCCOC(=O)c1ccc(-c2c3nc(c(-c4ccccc4)c4ccc([nH]4)c(-c4ccccc4)c4nc(c(-c5ccccc5)c5ccc2[nH]5)C=C4)C=C3)cc1
REMARK SMILES IDX 24 1 23 2 22 3 21 4 20 5 18 6 19 7 17 8 1 9 2 10 3 11 4 12
REMARK SMILES IDX 9 13 5 14 8 15 6 16 7 17 10 18 11 19 16 20 12 21 15 22 13 23
REMARK SMILES IDX 14 24 25 25 26 26 27 27 28 28 29 29 30 30 76 31 31 32 75 33
REMARK SMILES IDX 32 34 33 35 34 36 69 37 35 38 74 39 68 40 70 41 36 42 73 43
REMARK SMILES IDX 67 44 66 45 37 47 59 48 44 49 58 50 45 51 48 52 57 53 71 54
REMARK SMILES IDX 46 55 47 56 56 58 72 59 49 60 38 61 39 62 43 63 40 64 42 65
REMARK SMILES IDX 41 66 60 67 61 68 65 69 62 70 64 71 63 72 50 73 51 74 55 75
REMARK SMILES IDX 52 76 54 77 53 78
REMARK H PARENT 70 46 48 57
REMARK Flexibility Score: inf
ROOT
ATOM      1  C   UNL A   1      40.303  19.916  26.280  1.00  0.00     0.202 C 
ENDROOT
BRANCH   1   2
ATOM      2  O   UNL A   1      39.513  19.213  25.337  1.00  0.00    -0.374 OA
BRANCH   2   3
ATOM      3  C   UNL A   1      38.124  19.467  25.179  1.00  0.00     0.202 C 
BRANCH   3   4
ATOM      4  C   UNL A   1      37.589  20.887  24.975  1.00  0.00     0.261 C 
BRANCH   4   5
ATOM      5  O   UNL A   1      36.256  21.081  24.472  1.00  0.00    -0.463 OA
BRANCH   5   6
ATOM      6  C   UNL A   1      35.350  21.590  25.344  1.00  0.00     0.317 C 
ATOM      7  O   UNL A   1      35.312  21.415  26.552  1.00  0.00    -0.251 OA
BRANCH   6   8
ATOM      8  C   UNL A   1      34.330  22.449  24.702  1.00  0.00     0.173 C 
ATOM      9  C   UNL A   1      35.673  24.576  25.424  1.00  0.00     0.063 C 
ATOM     10  C   UNL A   1      34.375  23.788  25.442  1.00  0.00     0.036 C 
ATOM     11  N   UNL A   1      33.435  24.261  26.193  1.00  0.00    -0.220 NA
ATOM     12  C   UNL A   1      32.306  23.541  26.356  1.00  0.00     0.248 A 
ATOM     13  C   UNL A   1      32.944  21.733  24.745  1.00  0.00     0.161 C 
ATOM     14  N   UNL A   1      31.237  23.859  27.055  1.00  0.00    -0.198 NA
ATOM     15  N   UNL A   1      32.072  22.330  25.753  1.00  0.00    -0.221 N 
ATOM     16  C   UNL A   1      30.353  22.861  26.773  1.00  0.00     0.248 A 
ATOM     17  N   UNL A   1      30.796  21.929  25.929  1.00  0.00    -0.157 NA
BRANCH  13  18
ATOM     18  C   UNL A   1      32.808  20.180  24.723  1.00  0.00    -0.022 A 
ATOM     19  C   UNL A   1      32.559  19.540  23.494  1.00  0.00     0.009 A 
ATOM     20  C   UNL A   1      32.808  19.331  25.848  1.00  0.00     0.009 A 
ATOM     21  C   UNL A   1      32.438  18.143  23.400  1.00  0.00     0.039 A 
ATOM     22  C   UNL A   1      32.789  17.935  25.755  1.00  0.00     0.039 A 
ATOM     23  C   UNL A   1      32.604  17.350  24.524  1.00  0.00     0.123 A 
ATOM     24  F   UNL A   1      32.543  16.016  24.430  1.00  0.00    -0.207 F 
ENDBRANCH  13  18
ENDBRANCH   6   8
ENDBRANCH   5   6
ENDBRANCH   4   5
ENDBRANCH   3   4
ENDBRANCH   2   3
ENDBRANCH   1   2
BRANCH   1  25
ATOM     25  C   UNL A   1      41.812  19.908  26.214  1.00  0.00     0.261 C 
BRANCH  25  26
ATOM     26  O   UNL A   1      42.290  20.898  25.328  1.00  0.00    -0.460 OA
BRANCH  26  27
ATOM     27  C   UNL A   1      43.632  21.028  25.400  1.00  0.00     0.338 C 
ATOM     28  O   UNL A   1      44.461  20.144  25.471  1.00  0.00    -0.246 OA
BRANCH  27  29
ATOM     29  C   UNL A   1      43.924  22.442  25.606  1.00  0.00     0.060 A 
ATOM     30  C   UNL A   1      44.640  22.707  26.770  1.00  0.00     0.016 A 
ATOM     31  C   UNL A   1      43.191  23.423  24.918  1.00  0.00     0.016 A 
ATOM     32  C   UNL A   1      44.403  23.899  27.397  1.00  0.00     0.010 A 
ATOM     33  C   UNL A   1      42.951  24.615  25.551  1.00  0.00     0.010 A 
ATOM     34  C   UNL A   1      43.498  24.800  26.817  1.00  0.00    -0.014 A 
BRANCH  34  35
ATOM     35  C   UNL A   1      43.357  26.076  27.473  1.00  0.00     0.031 A 
ATOM     36  C   UNL A   1      44.498  26.939  27.109  1.00  0.00     0.074 A 
ATOM     37  C   UNL A   1      42.307  26.408  28.242  1.00  0.00     0.049 A 
ATOM     38  N   UNL A   1      45.516  27.217  27.852  1.00  0.00    -0.248 NA
ATOM     39  C   UNL A   1      44.680  27.287  25.685  1.00  0.00     0.031 C 
ATOM     40  C   UNL A   1      41.057  25.661  28.411  1.00  0.00     0.029 A 
ATOM     41  N   UNL A   1      42.083  27.545  28.956  1.00  0.00    -0.354 N 
ATOM     42  C   UNL A   1      46.313  28.035  27.064  1.00  0.00     0.074 A 
ATOM     43  C   UNL A   1      45.906  27.812  25.704  1.00  0.00     0.031 C 
ATOM     44  C   UNL A   1      40.124  26.479  28.952  1.00  0.00     0.029 A 
ATOM     45  C   UNL A   1      40.748  27.750  29.284  1.00  0.00     0.049 A 
ATOM     46  H   UNL A   1      42.801  28.166  29.216  1.00  0.00     0.167 HD
ATOM     47  C   UNL A   1      46.873  29.138  27.630  1.00  0.00     0.031 A 
ATOM     48  C   UNL A   1      40.196  28.908  29.725  1.00  0.00     0.031 A 
ATOM     49  C   UNL A   1      46.897  29.016  29.068  1.00  0.00     0.049 A 
ATOM     50  C   UNL A   1      41.290  29.746  30.264  1.00  0.00     0.074 A 
ATOM     51  C   UNL A   1      47.555  28.254  30.008  1.00  0.00     0.029 A 
ATOM     52  N   UNL A   1      45.762  29.502  29.662  1.00  0.00    -0.354 N 
ATOM     53  N   UNL A   1      41.935  29.453  31.355  1.00  0.00    -0.248 NA
ATOM     54  C   UNL A   1      41.939  30.723  29.397  1.00  0.00     0.031 C 
ATOM     55  C   UNL A   1      46.697  28.201  31.149  1.00  0.00     0.029 A 
ATOM     56  C   UNL A   1      45.564  28.975  30.904  1.00  0.00     0.049 A 
ATOM     57  H   UNL A   1      45.159  30.156  29.240  1.00  0.00     0.167 HD
ATOM     58  C   UNL A   1      43.238  29.832  31.090  1.00  0.00     0.074 A 
ATOM     59  C   UNL A   1      43.144  30.765  29.972  1.00  0.00     0.031 C 
ATOM     60  C   UNL A   1      44.284  29.095  31.568  1.00  0.00     0.031 A 
BRANCH  47  61
ATOM     61  C   UNL A   1      46.740  30.511  26.986  1.00  0.00    -0.014 A 
ATOM     62  C   UNL A   1      47.847  31.375  27.051  1.00  0.00     0.009 A 
ATOM     63  C   UNL A   1      45.508  31.102  26.633  1.00  0.00     0.009 A 
ATOM     64  C   UNL A   1      47.709  32.754  26.853  1.00  0.00     0.001 A 
ATOM     65  C   UNL A   1      45.371  32.473  26.405  1.00  0.00     0.001 A 
ATOM     66  C   UNL A   1      46.470  33.304  26.540  1.00  0.00     0.000 A 
ENDBRANCH  47  61
BRANCH  48  67
ATOM     67  C   UNL A   1      38.840  29.455  29.499  1.00  0.00    -0.014 A 
ATOM     68  C   UNL A   1      38.465  29.934  28.230  1.00  0.00     0.009 A 
ATOM     69  C   UNL A   1      37.819  29.246  30.442  1.00  0.00     0.009 A 
ATOM     70  C   UNL A   1      37.118  30.138  27.902  1.00  0.00     0.001 A 
ATOM     71  C   UNL A   1      36.473  29.456  30.117  1.00  0.00     0.001 A 
ATOM     72  C   UNL A   1      36.122  29.883  28.841  1.00  0.00     0.000 A 
ENDBRANCH  48  67
BRANCH  60  73
ATOM     73  C   UNL A   1      44.038  28.249  32.784  1.00  0.00    -0.014 A 
ATOM     74  C   UNL A   1      43.648  26.901  32.746  1.00  0.00     0.009 A 
ATOM     75  C   UNL A   1      44.269  28.846  34.032  1.00  0.00     0.009 A 
ATOM     76  C   UNL A   1      43.459  26.185  33.933  1.00  0.00     0.001 A 
ATOM     77  C   UNL A   1      44.105  28.126  35.213  1.00  0.00     0.001 A 
ATOM     78  C   UNL A   1      43.690  26.798  35.165  1.00  0.00     0.000 A 
ENDBRANCH  60  73
ENDBRANCH  34  35
ENDBRANCH  27  29
ENDBRANCH  26  27
ENDBRANCH  25  26
ENDBRANCH   1  25
TORSDOF 15
ENDMDL
