MODEL 1
REMARK VINA RESULT:     -10.3      0.000      0.000
REMARK SMILES Cc1cc(N(C)[C@H]2CC[C@@H](C)CC2)cc(C(=O)OCCOCCOC(=O)c2ccc(-c3c4nc(c(-c5ccccc5)c5ccc([nH]5)c(-c5ccccc5)c5nc(c(-c6ccccc6)c6ccc3[nH]6)C=C5)C=C4)cc2)c1N
REMARK SMILES IDX 21 1 20 2 19 3 18 4 16 5 17 6 15 7 1 8 2 9 3 10 75 11 4 12
REMARK SMILES IDX 14 13 76 14 5 17 6 18 7 19 8 20 13 21 9 22 12 23 10 24 11 25
REMARK SMILES IDX 22 26 23 27 24 28 25 29 26 30 27 31 28 32 74 33 29 34 73 35
REMARK SMILES IDX 30 36 31 37 32 38 67 39 33 40 72 41 66 42 68 43 34 44 71 45
REMARK SMILES IDX 65 46 64 47 35 49 57 50 42 51 56 52 43 53 46 54 55 55 69 56
REMARK SMILES IDX 44 57 45 58 54 60 70 61 47 62 36 63 37 64 41 65 38 66 40 67
REMARK SMILES IDX 39 68 58 69 59 70 63 71 60 72 62 73 61 74 48 75 49 76 53 77
REMARK SMILES IDX 50 78 52 79 51 80
REMARK H PARENT 76 15 76 16 68 48 46 59
REMARK Flexibility Score: inf
ROOT
ATOM      1  O   UNL A   1      41.289  20.843  26.303  1.00  0.00    -0.374 OA
ENDROOT
BRANCH   1   2
ATOM      2  C   UNL A   1      39.879  20.864  26.091  1.00  0.00     0.202 C 
BRANCH   2   3
ATOM      3  C   UNL A   1      39.178  22.221  26.171  1.00  0.00     0.261 C 
BRANCH   3   4
ATOM      4  O   UNL A   1      37.916  22.197  25.488  1.00  0.00    -0.460 OA
BRANCH   4   5
ATOM      5  C   UNL A   1      37.164  23.293  25.751  1.00  0.00     0.340 C 
ATOM      6  O   UNL A   1      37.554  24.286  26.353  1.00  0.00    -0.246 OA
BRANCH   5   7
ATOM      7  C   UNL A   1      35.817  23.235  25.130  1.00  0.00     0.085 A 
ATOM      8  C   UNL A   1      33.292  20.541  24.306  1.00  0.00     0.047 C 
ATOM      9  C   UNL A   1      34.118  21.794  24.307  1.00  0.00    -0.025 A 
ATOM     10  C   UNL A   1      33.762  22.835  23.443  1.00  0.00     0.031 A 
ATOM     11  C   UNL A   1      35.162  21.994  25.193  1.00  0.00     0.049 A 
ATOM     12  C   UNL A   1      34.027  24.168  23.736  1.00  0.00     0.038 A 
ATOM     13  C   UNL A   1      35.199  24.338  24.493  1.00  0.00     0.043 A 
BRANCH  11  14
ATOM     14  N   UNL A   1      35.414  21.080  26.218  1.00  0.00    -0.398 N 
ATOM     15  H   UNL A   1      35.093  21.263  27.131  1.00  0.00     0.156 HD
ATOM     16  H   UNL A   1      35.913  20.253  26.027  1.00  0.00     0.156 HD
ENDBRANCH  11  14
BRANCH  12  17
ATOM     17  N   UNL A   1      33.137  25.195  23.379  1.00  0.00    -0.372 N 
ATOM     18  C   UNL A   1      33.621  26.150  22.371  1.00  0.00     0.144 C 
BRANCH  17  19
ATOM     19  C   UNL A   1      31.634  25.224  23.651  1.00  0.00     0.082 C 
ATOM     20  C   UNL A   1      30.976  26.632  23.519  1.00  0.00     0.025 C 
ATOM     21  C   UNL A   1      31.102  24.735  25.011  1.00  0.00     0.025 C 
ATOM     22  C   UNL A   1      31.047  27.573  24.745  1.00  0.00     0.005 C 
ATOM     23  C   UNL A   1      31.693  25.555  26.147  1.00  0.00     0.005 C 
ATOM     24  C   UNL A   1      31.050  26.931  26.149  1.00  0.00    -0.014 C 
ATOM     25  C   UNL A   1      31.748  27.828  27.176  1.00  0.00     0.007 C 
ENDBRANCH  17  19
ENDBRANCH  12  17
ENDBRANCH   5   7
ENDBRANCH   4   5
ENDBRANCH   3   4
ENDBRANCH   2   3
ENDBRANCH   1   2
BRANCH   1  26
ATOM     26  C   UNL A   1      41.843  19.672  26.915  1.00  0.00     0.202 C 
BRANCH  26  27
ATOM     27  C   UNL A   1      42.740  18.790  26.036  1.00  0.00     0.261 C 
BRANCH  27  28
ATOM     28  O   UNL A   1      43.054  19.431  24.784  1.00  0.00    -0.460 OA
BRANCH  28  29
ATOM     29  C   UNL A   1      44.372  19.596  24.534  1.00  0.00     0.338 C 
ATOM     30  O   UNL A   1      45.132  18.802  23.987  1.00  0.00    -0.246 OA
BRANCH  29  31
ATOM     31  C   UNL A   1      44.755  20.991  24.810  1.00  0.00     0.060 A 
ATOM     32  C   UNL A   1      45.325  21.276  26.060  1.00  0.00     0.016 A 
ATOM     33  C   UNL A   1      44.524  22.012  23.887  1.00  0.00     0.016 A 
ATOM     34  C   UNL A   1      45.621  22.589  26.411  1.00  0.00     0.010 A 
ATOM     35  C   UNL A   1      44.807  23.333  24.246  1.00  0.00     0.010 A 
ATOM     36  C   UNL A   1      45.321  23.629  25.523  1.00  0.00    -0.014 A 
BRANCH  36  37
ATOM     37  C   UNL A   1      45.393  25.032  25.993  1.00  0.00     0.031 A 
ATOM     38  C   UNL A   1      46.721  25.737  25.964  1.00  0.00     0.074 A 
ATOM     39  C   UNL A   1      44.291  25.679  26.408  1.00  0.00     0.049 A 
ATOM     40  N   UNL A   1      47.028  26.945  26.360  1.00  0.00    -0.248 NA
ATOM     41  C   UNL A   1      47.856  24.976  25.414  1.00  0.00     0.031 C 
ATOM     42  C   UNL A   1      42.940  25.121  26.433  1.00  0.00     0.029 A 
ATOM     43  N   UNL A   1      44.140  26.954  26.893  1.00  0.00    -0.354 N 
ATOM     44  C   UNL A   1      48.388  27.087  26.117  1.00  0.00     0.074 A 
ATOM     45  C   UNL A   1      48.856  25.832  25.569  1.00  0.00     0.031 C 
ATOM     46  C   UNL A   1      42.096  26.048  26.919  1.00  0.00     0.029 A 
ATOM     47  C   UNL A   1      42.854  27.247  27.271  1.00  0.00     0.049 A 
ATOM     48  H   UNL A   1      44.883  27.596  26.962  1.00  0.00     0.167 HD
ATOM     49  C   UNL A   1      49.177  28.166  26.326  1.00  0.00     0.031 A 
ATOM     50  C   UNL A   1      42.351  28.350  27.857  1.00  0.00     0.031 A 
ATOM     51  C   UNL A   1      48.715  29.409  26.883  1.00  0.00     0.049 A 
ATOM     52  C   UNL A   1      43.266  29.508  28.157  1.00  0.00     0.074 A 
ATOM     53  C   UNL A   1      49.435  30.565  27.127  1.00  0.00     0.029 A 
ATOM     54  N   UNL A   1      47.413  29.652  27.291  1.00  0.00    -0.354 N 
ATOM     55  N   UNL A   1      44.547  29.637  27.907  1.00  0.00    -0.248 NA
ATOM     56  C   UNL A   1      42.662  30.676  28.815  1.00  0.00     0.031 C 
ATOM     57  C   UNL A   1      48.581  31.489  27.738  1.00  0.00     0.029 A 
ATOM     58  C   UNL A   1      47.314  30.932  27.812  1.00  0.00     0.049 A 
ATOM     59  H   UNL A   1      46.669  29.012  27.221  1.00  0.00     0.167 HD
ATOM     60  C   UNL A   1      44.894  30.909  28.348  1.00  0.00     0.074 A 
ATOM     61  C   UNL A   1      43.686  31.517  28.865  1.00  0.00     0.031 C 
ATOM     62  C   UNL A   1      46.104  31.521  28.324  1.00  0.00     0.031 A 
BRANCH  49  63
ATOM     63  C   UNL A   1      50.635  28.037  25.978  1.00  0.00    -0.014 A 
ATOM     64  C   UNL A   1      51.132  28.470  24.739  1.00  0.00     0.009 A 
ATOM     65  C   UNL A   1      51.529  27.504  26.920  1.00  0.00     0.009 A 
ATOM     66  C   UNL A   1      52.490  28.342  24.438  1.00  0.00     0.001 A 
ATOM     67  C   UNL A   1      52.891  27.404  26.628  1.00  0.00     0.001 A 
ATOM     68  C   UNL A   1      53.369  27.814  25.384  1.00  0.00     0.000 A 
ENDBRANCH  49  63
BRANCH  50  69
ATOM     69  C   UNL A   1      40.912  28.408  28.228  1.00  0.00    -0.014 A 
ATOM     70  C   UNL A   1      39.975  29.016  27.379  1.00  0.00     0.009 A 
ATOM     71  C   UNL A   1      40.473  27.875  29.450  1.00  0.00     0.009 A 
ATOM     72  C   UNL A   1      38.634  29.112  27.760  1.00  0.00     0.001 A 
ATOM     73  C   UNL A   1      39.127  27.945  29.814  1.00  0.00     0.001 A 
ATOM     74  C   UNL A   1      38.211  28.573  28.973  1.00  0.00     0.000 A 
ENDBRANCH  50  69
BRANCH  62  75
ATOM     75  C   UNL A   1      46.174  32.934  28.836  1.00  0.00    -0.014 A 
ATOM     76  C   UNL A   1      45.942  34.031  27.993  1.00  0.00     0.009 A 
ATOM     77  C   UNL A   1      46.434  33.165  30.197  1.00  0.00     0.009 A 
ATOM     78  C   UNL A   1      46.005  35.333  28.495  1.00  0.00     0.001 A 
ATOM     79  C   UNL A   1      46.464  34.465  30.703  1.00  0.00     0.001 A 
ATOM     80  C   UNL A   1      46.260  35.548  29.850  1.00  0.00     0.000 A 
ENDBRANCH  62  75
ENDBRANCH  36  37
ENDBRANCH  29  31
ENDBRANCH  28  29
ENDBRANCH  27  28
ENDBRANCH  26  27
ENDBRANCH   1  26
TORSDOF 17
ENDMDL
MODEL 2
REMARK VINA RESULT:     -10.2      4.365      6.599
REMARK SMILES Cc1cc(N(C)[C@H]2CC[C@@H](C)CC2)cc(C(=O)OCCOCCOC(=O)c2ccc(-c3c4nc(c(-c5ccccc5)c5ccc([nH]5)c(-c5ccccc5)c5nc(c(-c6ccccc6)c6ccc3[nH]6)C=C5)C=C4)cc2)c1N
REMARK SMILES IDX 21 1 20 2 19 3 18 4 16 5 17 6 15 7 1 8 2 9 3 10 75 11 4 12
REMARK SMILES IDX 14 13 76 14 5 17 6 18 7 19 8 20 13 21 9 22 12 23 10 24 11 25
REMARK SMILES IDX 22 26 23 27 24 28 25 29 26 30 27 31 28 32 74 33 29 34 73 35
REMARK SMILES IDX 30 36 31 37 32 38 67 39 33 40 72 41 66 42 68 43 34 44 71 45
REMARK SMILES IDX 65 46 64 47 35 49 57 50 42 51 56 52 43 53 46 54 55 55 69 56
REMARK SMILES IDX 44 57 45 58 54 60 70 61 47 62 36 63 37 64 41 65 38 66 40 67
REMARK SMILES IDX 39 68 58 69 59 70 63 71 60 72 62 73 61 74 48 75 49 76 53 77
REMARK SMILES IDX 50 78 52 79 51 80
REMARK H PARENT 76 15 76 16 68 48 46 59
REMARK Flexibility Score: inf
ROOT
ATOM      1  O   UNL A   1      41.417  20.497  25.675  1.00  0.00    -0.374 OA
ENDROOT
BRANCH   1   2
ATOM      2  C   UNL A   1      40.176  20.676  26.354  1.00  0.00     0.202 C 
BRANCH   2   3
ATOM      3  C   UNL A   1      39.566  22.079  26.340  1.00  0.00     0.261 C 
BRANCH   3   4
ATOM      4  O   UNL A   1      38.216  22.055  25.852  1.00  0.00    -0.460 OA
BRANCH   4   5
ATOM      5  C   UNL A   1      37.651  23.286  25.831  1.00  0.00     0.340 C 
ATOM      6  O   UNL A   1      38.235  24.332  26.087  1.00  0.00    -0.246 OA
BRANCH   5   7
ATOM      7  C   UNL A   1      36.249  23.273  25.348  1.00  0.00     0.085 A 
ATOM      8  C   UNL A   1      33.700  20.642  24.399  1.00  0.00     0.047 C 
ATOM      9  C   UNL A   1      34.499  21.909  24.500  1.00  0.00    -0.025 A 
ATOM     10  C   UNL A   1      34.036  23.050  23.836  1.00  0.00     0.031 A 
ATOM     11  C   UNL A   1      35.626  22.015  25.296  1.00  0.00     0.049 A 
ATOM     12  C   UNL A   1      34.306  24.335  24.291  1.00  0.00     0.038 A 
ATOM     13  C   UNL A   1      35.547  24.434  24.942  1.00  0.00     0.043 A 
BRANCH  11  14
ATOM     14  N   UNL A   1      36.000  20.972  26.146  1.00  0.00    -0.398 N 
ATOM     15  H   UNL A   1      35.527  20.110  26.106  1.00  0.00     0.156 HD
ATOM     16  H   UNL A   1      36.737  21.101  26.787  1.00  0.00     0.156 HD
ENDBRANCH  11  14
BRANCH  12  17
ATOM     17  N   UNL A   1      33.364  25.372  24.179  1.00  0.00    -0.372 N 
ATOM     18  C   UNL A   1      33.428  26.173  22.947  1.00  0.00     0.144 C 
BRANCH  17  19
ATOM     19  C   UNL A   1      32.091  25.532  25.007  1.00  0.00     0.082 C 
ATOM     20  C   UNL A   1      30.984  26.402  24.338  1.00  0.00     0.025 C 
ATOM     21  C   UNL A   1      32.180  26.137  26.420  1.00  0.00     0.025 C 
ATOM     22  C   UNL A   1      31.084  27.938  24.502  1.00  0.00     0.005 C 
ATOM     23  C   UNL A   1      32.760  27.542  26.370  1.00  0.00     0.005 C 
ATOM     24  C   UNL A   1      31.716  28.486  25.799  1.00  0.00    -0.014 C 
ATOM     25  C   UNL A   1      32.333  29.871  25.583  1.00  0.00     0.007 C 
ENDBRANCH  17  19
ENDBRANCH  12  17
ENDBRANCH   5   7
ENDBRANCH   4   5
ENDBRANCH   3   4
ENDBRANCH   2   3
ENDBRANCH   1   2
BRANCH   1  26
ATOM     26  C   UNL A   1      42.552  21.207  26.184  1.00  0.00     0.202 C 
BRANCH  26  27
ATOM     27  C   UNL A   1      43.511  21.813  25.151  1.00  0.00     0.261 C 
BRANCH  27  28
ATOM     28  O   UNL A   1      43.055  23.101  24.692  1.00  0.00    -0.460 OA
BRANCH  28  29
ATOM     29  C   UNL A   1      43.846  24.146  25.020  1.00  0.00     0.338 C 
ATOM     30  O   UNL A   1      44.927  24.447  24.523  1.00  0.00    -0.246 OA
BRANCH  29  31
ATOM     31  C   UNL A   1      43.123  25.045  25.936  1.00  0.00     0.060 A 
ATOM     32  C   UNL A   1      43.577  26.367  26.047  1.00  0.00     0.016 A 
ATOM     33  C   UNL A   1      42.048  24.597  26.705  1.00  0.00     0.016 A 
ATOM     34  C   UNL A   1      42.991  27.233  26.963  1.00  0.00     0.010 A 
ATOM     35  C   UNL A   1      41.469  25.465  27.637  1.00  0.00     0.010 A 
ATOM     36  C   UNL A   1      41.964  26.773  27.795  1.00  0.00    -0.014 A 
BRANCH  36  37
ATOM     37  C   UNL A   1      41.521  27.607  28.937  1.00  0.00     0.031 A 
ATOM     38  C   UNL A   1      42.278  27.519  30.233  1.00  0.00     0.074 A 
ATOM     39  C   UNL A   1      40.484  28.452  28.813  1.00  0.00     0.049 A 
ATOM     40  N   UNL A   1      42.049  28.123  31.370  1.00  0.00    -0.248 NA
ATOM     41  C   UNL A   1      43.451  26.629  30.248  1.00  0.00     0.031 C 
ATOM     42  C   UNL A   1      39.704  28.665  27.595  1.00  0.00     0.029 A 
ATOM     43  N   UNL A   1      39.906  29.289  29.735  1.00  0.00    -0.354 N 
ATOM     44  C   UNL A   1      43.040  27.681  32.237  1.00  0.00     0.074 A 
ATOM     45  C   UNL A   1      43.855  26.734  31.506  1.00  0.00     0.031 C 
ATOM     46  C   UNL A   1      38.741  29.570  27.848  1.00  0.00     0.029 A 
ATOM     47  C   UNL A   1      38.817  29.968  29.252  1.00  0.00     0.049 A 
ATOM     48  H   UNL A   1      40.242  29.392  30.655  1.00  0.00     0.167 HD
ATOM     49  C   UNL A   1      43.258  28.036  33.525  1.00  0.00     0.031 A 
ATOM     50  C   UNL A   1      37.963  30.799  29.879  1.00  0.00     0.031 A 
ATOM     51  C   UNL A   1      42.441  28.965  34.256  1.00  0.00     0.049 A 
ATOM     52  C   UNL A   1      38.176  31.114  31.336  1.00  0.00     0.074 A 
ATOM     53  C   UNL A   1      42.582  29.397  35.563  1.00  0.00     0.029 A 
ATOM     54  N   UNL A   1      41.321  29.602  33.742  1.00  0.00    -0.354 N 
ATOM     55  N   UNL A   1      39.127  30.704  32.141  1.00  0.00    -0.248 NA
ATOM     56  C   UNL A   1      37.199  32.012  31.970  1.00  0.00     0.031 C 
ATOM     57  C   UNL A   1      41.514  30.249  35.859  1.00  0.00     0.029 A 
ATOM     58  C   UNL A   1      40.746  30.402  34.715  1.00  0.00     0.049 A 
ATOM     59  H   UNL A   1      40.986  29.502  32.822  1.00  0.00     0.167 HD
ATOM     60  C   UNL A   1      38.881  31.318  33.363  1.00  0.00     0.074 A 
ATOM     61  C   UNL A   1      37.702  32.140  33.190  1.00  0.00     0.031 C 
ATOM     62  C   UNL A   1      39.571  31.213  34.526  1.00  0.00     0.031 A 
BRANCH  49  63
ATOM     63  C   UNL A   1      44.412  27.385  34.237  1.00  0.00    -0.014 A 
ATOM     64  C   UNL A   1      44.270  26.144  34.877  1.00  0.00     0.009 A 
ATOM     65  C   UNL A   1      45.669  28.010  34.238  1.00  0.00     0.009 A 
ATOM     66  C   UNL A   1      45.356  25.557  35.531  1.00  0.00     0.001 A 
ATOM     67  C   UNL A   1      46.760  27.407  34.867  1.00  0.00     0.001 A 
ATOM     68  C   UNL A   1      46.601  26.186  35.521  1.00  0.00     0.000 A 
ENDBRANCH  49  63
BRANCH  50  69
ATOM     69  C   UNL A   1      36.806  31.376  29.143  1.00  0.00    -0.014 A 
ATOM     70  C   UNL A   1      35.664  30.604  28.881  1.00  0.00     0.009 A 
ATOM     71  C   UNL A   1      36.851  32.699  28.676  1.00  0.00     0.009 A 
ATOM     72  C   UNL A   1      34.604  31.138  28.143  1.00  0.00     0.001 A 
ATOM     73  C   UNL A   1      35.777  33.240  27.966  1.00  0.00     0.001 A 
ATOM     74  C   UNL A   1      34.659  32.455  27.691  1.00  0.00     0.000 A 
ENDBRANCH  50  69
BRANCH  62  75
ATOM     75  C   UNL A   1      39.093  32.037  35.690  1.00  0.00    -0.014 A 
ATOM     76  C   UNL A   1      38.270  31.491  36.686  1.00  0.00     0.009 A 
ATOM     77  C   UNL A   1      39.510  33.373  35.810  1.00  0.00     0.009 A 
ATOM     78  C   UNL A   1      37.846  32.276  37.761  1.00  0.00     0.001 A 
ATOM     79  C   UNL A   1      39.112  34.146  36.902  1.00  0.00     0.001 A 
ATOM     80  C   UNL A   1      38.272  33.600  37.871  1.00  0.00     0.000 A 
ENDBRANCH  62  75
ENDBRANCH  36  37
ENDBRANCH  29  31
ENDBRANCH  28  29
ENDBRANCH  27  28
ENDBRANCH  26  27
ENDBRANCH   1  26
TORSDOF 17
ENDMDL
MODEL 3
REMARK VINA RESULT:     -10.2      2.022      6.546
REMARK SMILES Cc1cc(N(C)[C@H]2CC[C@@H](C)CC2)cc(C(=O)OCCOCCOC(=O)c2ccc(-c3c4nc(c(-c5ccccc5)c5ccc([nH]5)c(-c5ccccc5)c5nc(c(-c6ccccc6)c6ccc3[nH]6)C=C5)C=C4)cc2)c1N
REMARK SMILES IDX 21 1 20 2 19 3 18 4 16 5 17 6 15 7 1 8 2 9 3 10 75 11 4 12
REMARK SMILES IDX 14 13 76 14 5 17 6 18 7 19 8 20 13 21 9 22 12 23 10 24 11 25
REMARK SMILES IDX 22 26 23 27 24 28 25 29 26 30 27 31 28 32 74 33 29 34 73 35
REMARK SMILES IDX 30 36 31 37 32 38 67 39 33 40 72 41 66 42 68 43 34 44 71 45
REMARK SMILES IDX 65 46 64 47 35 49 57 50 42 51 56 52 43 53 46 54 55 55 69 56
REMARK SMILES IDX 44 57 45 58 54 60 70 61 47 62 36 63 37 64 41 65 38 66 40 67
REMARK SMILES IDX 39 68 58 69 59 70 63 71 60 72 62 73 61 74 48 75 49 76 53 77
REMARK SMILES IDX 50 78 52 79 51 80
REMARK H PARENT 76 15 76 16 68 48 46 59
REMARK Flexibility Score: inf
ROOT
ATOM      1  O   UNL A   1      37.751  22.373  25.471  1.00  0.00    -0.374 OA
ENDROOT
BRANCH   1   2
ATOM      2  C   UNL A   1      37.103  21.510  24.539  1.00  0.00     0.202 C 
BRANCH   2   3
ATOM      3  C   UNL A   1      35.729  20.963  24.929  1.00  0.00     0.261 C 
BRANCH   3   4
ATOM      4  O   UNL A   1      34.907  21.985  25.512  1.00  0.00    -0.460 OA
BRANCH   4   5
ATOM      5  C   UNL A   1      33.775  22.206  24.803  1.00  0.00     0.340 C 
ATOM      6  O   UNL A   1      32.971  21.342  24.473  1.00  0.00    -0.246 OA
BRANCH   5   7
ATOM      7  C   UNL A   1      33.521  23.645  24.547  1.00  0.00     0.085 A 
ATOM      8  C   UNL A   1      33.019  25.842  21.508  1.00  0.00     0.047 C 
ATOM      9  C   UNL A   1      33.366  25.323  22.873  1.00  0.00    -0.025 A 
ATOM     10  C   UNL A   1      33.769  26.232  23.856  1.00  0.00     0.031 A 
ATOM     11  C   UNL A   1      33.217  23.991  23.221  1.00  0.00     0.049 A 
ATOM     12  C   UNL A   1      33.551  26.007  25.210  1.00  0.00     0.038 A 
ATOM     13  C   UNL A   1      33.584  24.644  25.550  1.00  0.00     0.043 A 
BRANCH  11  14
ATOM     14  N   UNL A   1      32.612  23.088  22.344  1.00  0.00    -0.398 N 
ATOM     15  H   UNL A   1      31.679  22.809  22.492  1.00  0.00     0.156 HD
ATOM     16  H   UNL A   1      33.118  22.730  21.580  1.00  0.00     0.156 HD
ENDBRANCH  11  14
BRANCH  12  17
ATOM     17  N   UNL A   1      33.237  27.055  26.093  1.00  0.00    -0.372 N 
ATOM     18  C   UNL A   1      34.341  27.963  26.438  1.00  0.00     0.144 C 
BRANCH  17  19
ATOM     19  C   UNL A   1      31.836  27.551  26.446  1.00  0.00     0.082 C 
ATOM     20  C   UNL A   1      30.676  26.660  25.906  1.00  0.00     0.025 C 
ATOM     21  C   UNL A   1      31.402  28.961  26.009  1.00  0.00     0.025 C 
ATOM     22  C   UNL A   1      30.211  26.895  24.449  1.00  0.00     0.005 C 
ATOM     23  C   UNL A   1      31.468  29.102  24.496  1.00  0.00     0.005 C 
ATOM     24  C   UNL A   1      30.319  28.325  23.879  1.00  0.00    -0.014 C 
ATOM     25  C   UNL A   1      30.462  28.313  22.354  1.00  0.00     0.007 C 
ENDBRANCH  17  19
ENDBRANCH  12  17
ENDBRANCH   5   7
ENDBRANCH   4   5
ENDBRANCH   3   4
ENDBRANCH   2   3
ENDBRANCH   1   2
BRANCH   1  26
ATOM     26  C   UNL A   1      38.951  21.890  26.087  1.00  0.00     0.202 C 
BRANCH  26  27
ATOM     27  C   UNL A   1      39.435  20.497  25.665  1.00  0.00     0.261 C 
BRANCH  27  28
ATOM     28  O   UNL A   1      40.436  19.985  26.568  1.00  0.00    -0.460 OA
BRANCH  28  29
ATOM     29  C   UNL A   1      41.702  20.001  26.097  1.00  0.00     0.338 C 
ATOM     30  O   UNL A   1      42.199  19.243  25.269  1.00  0.00    -0.246 OA
BRANCH  29  31
ATOM     31  C   UNL A   1      42.381  21.227  26.551  1.00  0.00     0.060 A 
ATOM     32  C   UNL A   1      42.426  21.475  27.931  1.00  0.00     0.016 A 
ATOM     33  C   UNL A   1      42.927  22.141  25.648  1.00  0.00     0.016 A 
ATOM     34  C   UNL A   1      42.972  22.661  28.411  1.00  0.00     0.010 A 
ATOM     35  C   UNL A   1      43.462  23.339  26.131  1.00  0.00     0.010 A 
ATOM     36  C   UNL A   1      43.452  23.619  27.510  1.00  0.00    -0.014 A 
BRANCH  36  37
ATOM     37  C   UNL A   1      43.790  24.975  28.000  1.00  0.00     0.031 A 
ATOM     38  C   UNL A   1      42.675  25.951  28.255  1.00  0.00     0.074 A 
ATOM     39  C   UNL A   1      45.065  25.323  28.246  1.00  0.00     0.049 A 
ATOM     40  N   UNL A   1      42.737  27.198  28.646  1.00  0.00    -0.248 NA
ATOM     41  C   UNL A   1      41.306  25.454  28.039  1.00  0.00     0.031 C 
ATOM     42  C   UNL A   1      46.227  24.449  28.088  1.00  0.00     0.029 A 
ATOM     43  N   UNL A   1      45.593  26.513  28.679  1.00  0.00    -0.354 N 
ATOM     44  C   UNL A   1      41.421  27.636  28.714  1.00  0.00     0.074 A 
ATOM     45  C   UNL A   1      40.582  26.534  28.294  1.00  0.00     0.031 C 
ATOM     46  C   UNL A   1      47.336  25.139  28.412  1.00  0.00     0.029 A 
ATOM     47  C   UNL A   1      46.963  26.507  28.763  1.00  0.00     0.049 A 
ATOM     48  H   UNL A   1      45.041  27.296  28.908  1.00  0.00     0.167 HD
ATOM     49  C   UNL A   1      40.951  28.846  29.098  1.00  0.00     0.031 A 
ATOM     50  C   UNL A   1      47.818  27.502  29.066  1.00  0.00     0.031 A 
ATOM     51  C   UNL A   1      41.784  29.945  29.503  1.00  0.00     0.049 A 
ATOM     52  C   UNL A   1      47.275  28.864  29.408  1.00  0.00     0.074 A 
ATOM     53  C   UNL A   1      41.404  31.210  29.917  1.00  0.00     0.029 A 
ATOM     54  N   UNL A   1      43.170  29.912  29.535  1.00  0.00    -0.354 N 
ATOM     55  N   UNL A   1      46.028  29.262  29.486  1.00  0.00    -0.248 NA
ATOM     56  C   UNL A   1      48.260  29.912  29.711  1.00  0.00     0.031 C 
ATOM     57  C   UNL A   1      42.562  31.960  30.144  1.00  0.00     0.029 A 
ATOM     58  C   UNL A   1      43.662  31.143  29.936  1.00  0.00     0.049 A 
ATOM     59  H   UNL A   1      43.723  29.129  29.308  1.00  0.00     0.167 HD
ATOM     60  C   UNL A   1      46.079  30.595  29.876  1.00  0.00     0.074 A 
ATOM     61  C   UNL A   1      47.477  30.933  30.034  1.00  0.00     0.031 C 
ATOM     62  C   UNL A   1      45.058  31.463  30.087  1.00  0.00     0.031 A 
BRANCH  49  63
ATOM     63  C   UNL A   1      39.462  29.053  29.066  1.00  0.00    -0.014 A 
ATOM     64  C   UNL A   1      38.668  28.834  30.203  1.00  0.00     0.009 A 
ATOM     65  C   UNL A   1      38.849  29.506  27.887  1.00  0.00     0.009 A 
ATOM     66  C   UNL A   1      37.286  29.034  30.150  1.00  0.00     0.001 A 
ATOM     67  C   UNL A   1      37.472  29.733  27.845  1.00  0.00     0.001 A 
ATOM     68  C   UNL A   1      36.691  29.489  28.974  1.00  0.00     0.000 A 
ENDBRANCH  49  63
BRANCH  50  69
ATOM     69  C   UNL A   1      49.286  27.259  29.033  1.00  0.00    -0.014 A 
ATOM     70  C   UNL A   1      50.013  27.412  27.843  1.00  0.00     0.009 A 
ATOM     71  C   UNL A   1      49.962  26.848  30.193  1.00  0.00     0.009 A 
ATOM     72  C   UNL A   1      51.382  27.131  27.811  1.00  0.00     0.001 A 
ATOM     73  C   UNL A   1      51.335  26.599  30.164  1.00  0.00     0.001 A 
ATOM     74  C   UNL A   1      52.042  26.731  28.971  1.00  0.00     0.000 A 
ENDBRANCH  50  69
BRANCH  62  75
ATOM     75  C   UNL A   1      45.414  32.848  30.551  1.00  0.00    -0.014 A 
ATOM     76  C   UNL A   1      45.563  33.150  31.913  1.00  0.00     0.009 A 
ATOM     77  C   UNL A   1      45.646  33.858  29.602  1.00  0.00     0.009 A 
ATOM     78  C   UNL A   1      45.902  34.443  32.317  1.00  0.00     0.001 A 
ATOM     79  C   UNL A   1      46.017  35.141  30.007  1.00  0.00     0.001 A 
ATOM     80  C   UNL A   1      46.134  35.435  31.364  1.00  0.00     0.000 A 
ENDBRANCH  62  75
ENDBRANCH  36  37
ENDBRANCH  29  31
ENDBRANCH  28  29
ENDBRANCH  27  28
ENDBRANCH  26  27
ENDBRANCH   1  26
TORSDOF 17
ENDMDL
