MODEL 1
REMARK VINA RESULT:     -10.1      0.000      0.000
REMARK SMILES C[C@@H](C(=O)OCCOCCOC(=O)c1ccc(-c2c3nc(c(-c4ccccc4)c4ccc([nH]4)c(-c4ccccc4)c4nc(c(-c5ccccc5)c5ccc2[nH]5)C=C4)C=C3)cc1)c1ccc(N[C@H]2CCC[C@@H]2O)cc1F
REMARK SMILES IDX 7 1 6 2 5 3 3 4 4 5 2 6 1 7 62 8 63 9 74 10 64 11 73 12
REMARK SMILES IDX 75 13 65 14 66 15 67 17 68 18 71 19 69 20 70 21 72 22 8 24
REMARK SMILES IDX 9 25 10 26 11 27 12 28 13 29 14 30 15 31 61 32 16 33 60 34
REMARK SMILES IDX 17 35 18 36 19 37 54 38 20 39 59 40 53 41 55 42 21 43 58 44
REMARK SMILES IDX 52 45 51 46 22 48 44 49 29 50 43 51 30 52 33 53 42 54 56 55
REMARK SMILES IDX 31 56 32 57 41 59 57 60 34 61 23 62 24 63 28 64 25 65 27 66
REMARK SMILES IDX 26 67 45 68 46 69 50 70 47 71 49 72 48 73 35 74 36 75 40 76
REMARK SMILES IDX 37 77 39 78 38 79
REMARK H PARENT 66 16 72 23 55 47 33 58
REMARK Flexibility Score: inf
ROOT
ATOM      1  C   UNL A   1      36.539  22.268  23.847  1.00  0.00     0.202 C 
ENDROOT
BRANCH   1   2
ATOM      2  C   UNL A   1      35.905  23.647  24.072  1.00  0.00     0.261 C 
BRANCH   2   3
ATOM      3  O   UNL A   1      35.020  23.970  22.981  1.00  0.00    -0.463 OA
BRANCH   3   4
ATOM      4  C   UNL A   1      33.957  24.762  23.293  1.00  0.00     0.313 C 
ATOM      5  O   UNL A   1      34.061  25.923  23.674  1.00  0.00    -0.252 OA
BRANCH   4   6
ATOM      6  C   UNL A   1      32.609  24.062  23.069  1.00  0.00     0.129 C 
ATOM      7  C   UNL A   1      31.374  24.947  23.281  1.00  0.00     0.025 C 
BRANCH   6   8
ATOM      8  C   UNL A   1      32.555  22.786  23.894  1.00  0.00     0.002 A 
ATOM      9  C   UNL A   1      32.745  22.785  25.278  1.00  0.00     0.010 A 
ATOM     10  C   UNL A   1      32.435  21.546  23.271  1.00  0.00     0.129 A 
ATOM     11  C   UNL A   1      32.884  21.589  25.992  1.00  0.00     0.026 A 
ATOM     12  C   UNL A   1      32.521  20.352  23.994  1.00  0.00     0.065 A 
ATOM     13  F   UNL A   1      32.242  21.481  21.946  1.00  0.00    -0.207 F 
ATOM     14  C   UNL A   1      32.763  20.346  25.375  1.00  0.00     0.037 A 
BRANCH  14  15
ATOM     15  N   UNL A   1      32.891  19.138  26.025  1.00  0.00    -0.380 N 
ATOM     16  H   UNL A   1      32.462  19.093  26.910  1.00  0.00     0.160 HD
BRANCH  15  17
ATOM     17  C   UNL A   1      33.564  17.915  25.601  1.00  0.00     0.107 C 
ATOM     18  C   UNL A   1      32.609  16.820  25.111  1.00  0.00     0.027 C 
ATOM     19  C   UNL A   1      34.637  18.074  24.506  1.00  0.00     0.136 C 
ATOM     20  C   UNL A   1      33.282  16.190  23.891  1.00  0.00     0.005 C 
ATOM     21  C   UNL A   1      34.728  16.667  23.926  1.00  0.00     0.034 C 
BRANCH  19  22
ATOM     22  O   UNL A   1      35.905  18.498  24.994  1.00  0.00    -0.391 OA
ATOM     23  H   UNL A   1      35.811  18.811  25.908  1.00  0.00     0.211 HD
ENDBRANCH  19  22
ENDBRANCH  15  17
ENDBRANCH  14  15
ENDBRANCH   6   8
ENDBRANCH   4   6
ENDBRANCH   3   4
ENDBRANCH   2   3
ENDBRANCH   1   2
BRANCH   1  24
ATOM     24  O   UNL A   1      36.779  21.493  25.026  1.00  0.00    -0.374 OA
BRANCH  24  25
ATOM     25  C   UNL A   1      38.119  21.471  25.509  1.00  0.00     0.202 C 
BRANCH  25  26
ATOM     26  C   UNL A   1      38.925  20.202  25.216  1.00  0.00     0.261 C 
BRANCH  26  27
ATOM     27  O   UNL A   1      39.697  19.788  26.352  1.00  0.00    -0.460 OA
BRANCH  27  28
ATOM     28  C   UNL A   1      41.030  19.748  26.130  1.00  0.00     0.338 C 
ATOM     29  O   UNL A   1      41.659  18.887  25.530  1.00  0.00    -0.246 OA
BRANCH  28  30
ATOM     30  C   UNL A   1      41.651  21.007  26.572  1.00  0.00     0.060 A 
ATOM     31  C   UNL A   1      41.610  21.289  27.944  1.00  0.00     0.016 A 
ATOM     32  C   UNL A   1      42.208  21.920  25.672  1.00  0.00     0.016 A 
ATOM     33  C   UNL A   1      42.074  22.512  28.416  1.00  0.00     0.010 A 
ATOM     34  C   UNL A   1      42.665  23.153  26.148  1.00  0.00     0.010 A 
ATOM     35  C   UNL A   1      42.562  23.467  27.515  1.00  0.00    -0.014 A 
BRANCH  35  36
ATOM     36  C   UNL A   1      42.807  24.847  27.995  1.00  0.00     0.031 A 
ATOM     37  C   UNL A   1      44.221  25.279  28.265  1.00  0.00     0.074 A 
ATOM     38  C   UNL A   1      41.793  25.718  28.137  1.00  0.00     0.049 A 
ATOM     39  N   UNL A   1      44.671  26.440  28.670  1.00  0.00    -0.248 NA
ATOM     40  C   UNL A   1      45.271  24.270  28.045  1.00  0.00     0.031 C 
ATOM     41  C   UNL A   1      40.386  25.433  27.858  1.00  0.00     0.029 A 
ATOM     42  N   UNL A   1      41.799  27.027  28.546  1.00  0.00    -0.354 N 
ATOM     43  C   UNL A   1      46.049  26.300  28.758  1.00  0.00     0.074 A 
ATOM     44  C   UNL A   1      46.363  24.935  28.392  1.00  0.00     0.031 C 
ATOM     45  C   UNL A   1      39.662  26.538  28.104  1.00  0.00     0.029 A 
ATOM     46  C   UNL A   1      40.551  27.596  28.584  1.00  0.00     0.049 A 
ATOM     47  H   UNL A   1      42.620  27.512  28.789  1.00  0.00     0.167 HD
ATOM     48  C   UNL A   1      46.975  27.225  29.106  1.00  0.00     0.031 A 
ATOM     49  C   UNL A   1      40.168  28.827  28.974  1.00  0.00     0.031 A 
ATOM     50  C   UNL A   1      46.664  28.578  29.481  1.00  0.00     0.049 A 
ATOM     51  C   UNL A   1      41.208  29.812  29.435  1.00  0.00     0.074 A 
ATOM     52  C   UNL A   1      47.533  29.595  29.835  1.00  0.00     0.029 A 
ATOM     53  N   UNL A   1      45.383  29.098  29.558  1.00  0.00    -0.354 N 
ATOM     54  N   UNL A   1      42.511  29.675  29.487  1.00  0.00    -0.248 NA
ATOM     55  C   UNL A   1      40.722  31.124  29.887  1.00  0.00     0.031 C 
ATOM     56  C   UNL A   1      46.772  30.717  30.179  1.00  0.00     0.029 A 
ATOM     57  C   UNL A   1      45.434  30.414  29.985  1.00  0.00     0.049 A 
ATOM     58  H   UNL A   1      44.558  28.605  29.344  1.00  0.00     0.167 HD
ATOM     59  C   UNL A   1      43.001  30.891  29.948  1.00  0.00     0.074 A 
ATOM     60  C   UNL A   1      41.857  31.756  30.150  1.00  0.00     0.031 C 
ATOM     61  C   UNL A   1      44.286  31.260  30.181  1.00  0.00     0.031 A 
BRANCH  48  62
ATOM     62  C   UNL A   1      48.411  26.787  29.134  1.00  0.00    -0.014 A 
ATOM     63  C   UNL A   1      49.323  27.214  28.156  1.00  0.00     0.009 A 
ATOM     64  C   UNL A   1      48.864  25.959  30.172  1.00  0.00     0.009 A 
ATOM     65  C   UNL A   1      50.655  26.793  28.201  1.00  0.00     0.001 A 
ATOM     66  C   UNL A   1      50.201  25.560  30.229  1.00  0.00     0.001 A 
ATOM     67  C   UNL A   1      51.093  25.971  29.240  1.00  0.00     0.000 A 
ENDBRANCH  48  62
BRANCH  49  68
ATOM     68  C   UNL A   1      38.729  29.199  28.964  1.00  0.00    -0.014 A 
ATOM     69  C   UNL A   1      37.934  29.019  30.106  1.00  0.00     0.009 A 
ATOM     70  C   UNL A   1      38.139  29.718  27.801  1.00  0.00     0.009 A 
ATOM     71  C   UNL A   1      36.572  29.327  30.074  1.00  0.00     0.001 A 
ATOM     72  C   UNL A   1      36.783  30.051  27.781  1.00  0.00     0.001 A 
ATOM     73  C   UNL A   1      35.999  29.847  28.914  1.00  0.00     0.000 A 
ENDBRANCH  49  68
BRANCH  61  74
ATOM     74  C   UNL A   1      44.523  32.669  30.646  1.00  0.00    -0.014 A 
ATOM     75  C   UNL A   1      44.465  33.006  32.007  1.00  0.00     0.009 A 
ATOM     76  C   UNL A   1      44.854  33.661  29.711  1.00  0.00     0.009 A 
ATOM     77  C   UNL A   1      44.702  34.320  32.418  1.00  0.00     0.001 A 
ATOM     78  C   UNL A   1      45.118  34.967  30.127  1.00  0.00     0.001 A 
ATOM     79  C   UNL A   1      45.033  35.297  31.478  1.00  0.00     0.000 A 
ENDBRANCH  61  74
ENDBRANCH  35  36
ENDBRANCH  28  30
ENDBRANCH  27  28
ENDBRANCH  26  27
ENDBRANCH  25  26
ENDBRANCH  24  25
ENDBRANCH   1  24
TORSDOF 18
ENDMDL
MODEL 2
REMARK VINA RESULT:     -10.0      2.472      4.766
REMARK SMILES C[C@@H](C(=O)OCCOCCOC(=O)c1ccc(-c2c3nc(c(-c4ccccc4)c4ccc([nH]4)c(-c4ccccc4)c4nc(c(-c5ccccc5)c5ccc2[nH]5)C=C4)C=C3)cc1)c1ccc(N[C@H]2CCC[C@@H]2O)cc1F
REMARK SMILES IDX 7 1 6 2 5 3 3 4 4 5 2 6 1 7 62 8 63 9 74 10 64 11 73 12
REMARK SMILES IDX 75 13 65 14 66 15 67 17 68 18 71 19 69 20 70 21 72 22 8 24
REMARK SMILES IDX 9 25 10 26 11 27 12 28 13 29 14 30 15 31 61 32 16 33 60 34
REMARK SMILES IDX 17 35 18 36 19 37 54 38 20 39 59 40 53 41 55 42 21 43 58 44
REMARK SMILES IDX 52 45 51 46 22 48 44 49 29 50 43 51 30 52 33 53 42 54 56 55
REMARK SMILES IDX 31 56 32 57 41 59 57 60 34 61 23 62 24 63 28 64 25 65 27 66
REMARK SMILES IDX 26 67 45 68 46 69 50 70 47 71 49 72 48 73 35 74 36 75 40 76
REMARK SMILES IDX 37 77 39 78 38 79
REMARK H PARENT 66 16 72 23 55 47 33 58
REMARK Flexibility Score: inf
ROOT
ATOM      1  C   UNL A   1      37.323  22.389  24.899  1.00  0.00     0.202 C 
ENDROOT
BRANCH   1   2
ATOM      2  C   UNL A   1      36.647  23.326  23.890  1.00  0.00     0.261 C 
BRANCH   2   3
ATOM      3  O   UNL A   1      35.263  22.959  23.723  1.00  0.00    -0.463 OA
BRANCH   3   4
ATOM      4  C   UNL A   1      34.416  23.974  23.394  1.00  0.00     0.313 C 
ATOM      5  O   UNL A   1      33.919  24.113  22.281  1.00  0.00    -0.252 OA
BRANCH   4   6
ATOM      6  C   UNL A   1      34.106  24.897  24.581  1.00  0.00     0.129 C 
ATOM      7  C   UNL A   1      33.898  24.183  25.922  1.00  0.00     0.025 C 
BRANCH   6   8
ATOM      8  C   UNL A   1      32.944  25.811  24.225  1.00  0.00     0.002 A 
ATOM      9  C   UNL A   1      31.614  25.447  24.452  1.00  0.00     0.010 A 
ATOM     10  C   UNL A   1      33.165  27.002  23.539  1.00  0.00     0.129 A 
ATOM     11  C   UNL A   1      30.555  26.211  23.945  1.00  0.00     0.026 A 
ATOM     12  C   UNL A   1      32.107  27.791  23.079  1.00  0.00     0.065 A 
ATOM     13  F   UNL A   1      34.420  27.409  23.297  1.00  0.00    -0.207 F 
ATOM     14  C   UNL A   1      30.771  27.404  23.260  1.00  0.00     0.037 A 
BRANCH  14  15
ATOM     15  N   UNL A   1      29.770  28.195  22.739  1.00  0.00    -0.380 N 
ATOM     16  H   UNL A   1      29.588  28.060  21.781  1.00  0.00     0.160 HD
BRANCH  15  17
ATOM     17  C   UNL A   1      28.941  29.202  23.391  1.00  0.00     0.107 C 
ATOM     18  C   UNL A   1      29.701  30.477  23.775  1.00  0.00     0.027 C 
ATOM     19  C   UNL A   1      27.691  29.663  22.613  1.00  0.00     0.136 C 
ATOM     20  C   UNL A   1      28.762  31.640  23.453  1.00  0.00     0.005 C 
ATOM     21  C   UNL A   1      27.389  31.016  23.246  1.00  0.00     0.034 C 
BRANCH  19  22
ATOM     22  O   UNL A   1      26.576  28.789  22.740  1.00  0.00    -0.391 OA
ATOM     23  H   UNL A   1      26.478  28.521  23.668  1.00  0.00     0.211 HD
ENDBRANCH  19  22
ENDBRANCH  15  17
ENDBRANCH  14  15
ENDBRANCH   6   8
ENDBRANCH   4   6
ENDBRANCH   3   4
ENDBRANCH   2   3
ENDBRANCH   1   2
BRANCH   1  24
ATOM     24  O   UNL A   1      37.078  20.991  24.711  1.00  0.00    -0.374 OA
BRANCH  24  25
ATOM     25  C   UNL A   1      38.140  20.108  25.059  1.00  0.00     0.202 C 
BRANCH  25  26
ATOM     26  C   UNL A   1      39.369  20.747  25.712  1.00  0.00     0.261 C 
BRANCH  26  27
ATOM     27  O   UNL A   1      40.201  19.769  26.351  1.00  0.00    -0.460 OA
BRANCH  27  28
ATOM     28  C   UNL A   1      41.508  19.846  26.009  1.00  0.00     0.338 C 
ATOM     29  O   UNL A   1      42.132  19.087  25.280  1.00  0.00    -0.246 OA
BRANCH  28  30
ATOM     30  C   UNL A   1      42.083  21.106  26.506  1.00  0.00     0.060 A 
ATOM     31  C   UNL A   1      42.035  21.326  27.888  1.00  0.00     0.016 A 
ATOM     32  C   UNL A   1      42.606  22.076  25.646  1.00  0.00     0.016 A 
ATOM     33  C   UNL A   1      42.455  22.543  28.414  1.00  0.00     0.010 A 
ATOM     34  C   UNL A   1      43.019  23.303  26.175  1.00  0.00     0.010 A 
ATOM     35  C   UNL A   1      42.907  23.554  27.555  1.00  0.00    -0.014 A 
BRANCH  35  36
ATOM     36  C   UNL A   1      43.103  24.919  28.095  1.00  0.00     0.031 A 
ATOM     37  C   UNL A   1      44.495  25.365  28.447  1.00  0.00     0.074 A 
ATOM     38  C   UNL A   1      42.067  25.767  28.219  1.00  0.00     0.049 A 
ATOM     39  N   UNL A   1      44.903  26.518  28.914  1.00  0.00    -0.248 NA
ATOM     40  C   UNL A   1      45.572  24.383  28.241  1.00  0.00     0.031 C 
ATOM     41  C   UNL A   1      40.681  25.468  27.864  1.00  0.00     0.029 A 
ATOM     42  N   UNL A   1      42.029  27.060  28.674  1.00  0.00    -0.354 N 
ATOM     43  C   UNL A   1      46.278  26.398  29.062  1.00  0.00     0.074 A 
ATOM     44  C   UNL A   1      46.634  25.054  28.663  1.00  0.00     0.031 C 
ATOM     45  C   UNL A   1      39.925  26.550  28.115  1.00  0.00     0.029 A 
ATOM     46  C   UNL A   1      40.770  27.605  28.674  1.00  0.00     0.049 A 
ATOM     47  H   UNL A   1      42.829  27.549  28.974  1.00  0.00     0.167 HD
ATOM     48  C   UNL A   1      47.169  27.326  29.486  1.00  0.00     0.031 A 
ATOM     49  C   UNL A   1      40.346  28.814  29.089  1.00  0.00     0.031 A 
ATOM     50  C   UNL A   1      46.815  28.659  29.894  1.00  0.00     0.049 A 
ATOM     51  C   UNL A   1      41.345  29.800  29.634  1.00  0.00     0.074 A 
ATOM     52  C   UNL A   1      47.648  29.677  30.325  1.00  0.00     0.029 A 
ATOM     53  N   UNL A   1      45.522  29.154  29.929  1.00  0.00    -0.354 N 
ATOM     54  N   UNL A   1      42.647  29.684  29.742  1.00  0.00    -0.248 NA
ATOM     55  C   UNL A   1      40.814  31.086  30.108  1.00  0.00     0.031 C 
ATOM     56  C   UNL A   1      46.850  30.773  30.672  1.00  0.00     0.029 A 
ATOM     57  C   UNL A   1      45.529  30.454  30.405  1.00  0.00     0.049 A 
ATOM     58  H   UNL A   1      44.718  28.655  29.658  1.00  0.00     0.167 HD
ATOM     59  C   UNL A   1      43.092  30.890  30.269  1.00  0.00     0.074 A 
ATOM     60  C   UNL A   1      41.924  31.727  30.447  1.00  0.00     0.031 C 
ATOM     61  C   UNL A   1      44.357  31.272  30.575  1.00  0.00     0.031 A 
BRANCH  48  62
ATOM     62  C   UNL A   1      48.610  26.912  29.567  1.00  0.00    -0.014 A 
ATOM     63  C   UNL A   1      49.115  26.244  30.694  1.00  0.00     0.009 A 
ATOM     64  C   UNL A   1      49.468  27.171  28.488  1.00  0.00     0.009 A 
ATOM     65  C   UNL A   1      50.460  25.870  30.749  1.00  0.00     0.001 A 
ATOM     66  C   UNL A   1      50.806  26.774  28.535  1.00  0.00     0.001 A 
ATOM     67  C   UNL A   1      51.302  26.131  29.669  1.00  0.00     0.000 A 
ENDBRANCH  48  62
BRANCH  49  68
ATOM     68  C   UNL A   1      38.903  29.162  29.024  1.00  0.00    -0.014 A 
ATOM     69  C   UNL A   1      38.350  29.712  27.859  1.00  0.00     0.009 A 
ATOM     70  C   UNL A   1      38.075  28.963  30.141  1.00  0.00     0.009 A 
ATOM     71  C   UNL A   1      37.003  30.080  27.821  1.00  0.00     0.001 A 
ATOM     72  C   UNL A   1      36.722  29.306  30.091  1.00  0.00     0.001 A 
ATOM     73  C   UNL A   1      36.189  29.873  28.935  1.00  0.00     0.000 A 
ENDBRANCH  49  68
BRANCH  61  74
ATOM     74  C   UNL A   1      44.545  32.667  31.101  1.00  0.00    -0.014 A 
ATOM     75  C   UNL A   1      44.663  33.763  30.233  1.00  0.00     0.009 A 
ATOM     76  C   UNL A   1      44.561  32.890  32.487  1.00  0.00     0.009 A 
ATOM     77  C   UNL A   1      44.824  35.053  30.745  1.00  0.00     0.001 A 
ATOM     78  C   UNL A   1      44.694  34.183  32.995  1.00  0.00     0.001 A 
ATOM     79  C   UNL A   1      44.835  35.261  32.124  1.00  0.00     0.000 A 
ENDBRANCH  61  74
ENDBRANCH  35  36
ENDBRANCH  28  30
ENDBRANCH  27  28
ENDBRANCH  26  27
ENDBRANCH  25  26
ENDBRANCH  24  25
ENDBRANCH   1  24
TORSDOF 18
ENDMDL
MODEL 3
REMARK VINA RESULT:     -10.0      2.009      3.240
REMARK SMILES C[C@@H](C(=O)OCCOCCOC(=O)c1ccc(-c2c3nc(c(-c4ccccc4)c4ccc([nH]4)c(-c4ccccc4)c4nc(c(-c5ccccc5)c5ccc2[nH]5)C=C4)C=C3)cc1)c1ccc(N[C@H]2CCC[C@@H]2O)cc1F
REMARK SMILES IDX 7 1 6 2 5 3 3 4 4 5 2 6 1 7 62 8 63 9 74 10 64 11 73 12
REMARK SMILES IDX 75 13 65 14 66 15 67 17 68 18 71 19 69 20 70 21 72 22 8 24
REMARK SMILES IDX 9 25 10 26 11 27 12 28 13 29 14 30 15 31 61 32 16 33 60 34
REMARK SMILES IDX 17 35 18 36 19 37 54 38 20 39 59 40 53 41 55 42 21 43 58 44
REMARK SMILES IDX 52 45 51 46 22 48 44 49 29 50 43 51 30 52 33 53 42 54 56 55
REMARK SMILES IDX 31 56 32 57 41 59 57 60 34 61 23 62 24 63 28 64 25 65 27 66
REMARK SMILES IDX 26 67 45 68 46 69 50 70 47 71 49 72 48 73 35 74 36 75 40 76
REMARK SMILES IDX 37 77 39 78 38 79
REMARK H PARENT 66 16 72 23 55 47 33 58
REMARK Flexibility Score: inf
ROOT
ATOM      1  C   UNL A   1      40.840  19.772  26.511  1.00  0.00     0.202 C 
ENDROOT
BRANCH   1   2
ATOM      2  C   UNL A   1      40.991  21.298  26.483  1.00  0.00     0.261 C 
BRANCH   2   3
ATOM      3  O   UNL A   1      39.727  21.928  26.772  1.00  0.00    -0.463 OA
BRANCH   3   4
ATOM      4  C   UNL A   1      38.754  21.765  25.833  1.00  0.00     0.313 C 
ATOM      5  O   UNL A   1      38.549  20.712  25.239  1.00  0.00    -0.252 OA
BRANCH   4   6
ATOM      6  C   UNL A   1      37.906  23.029  25.631  1.00  0.00     0.129 C 
ATOM      7  C   UNL A   1      38.088  24.111  26.703  1.00  0.00     0.025 C 
BRANCH   6   8
ATOM      8  C   UNL A   1      36.448  22.638  25.445  1.00  0.00     0.002 A 
ATOM      9  C   UNL A   1      35.617  22.325  26.523  1.00  0.00     0.010 A 
ATOM     10  C   UNL A   1      35.922  22.459  24.168  1.00  0.00     0.129 A 
ATOM     11  C   UNL A   1      34.341  21.784  26.325  1.00  0.00     0.026 A 
ATOM     12  C   UNL A   1      34.628  21.968  23.971  1.00  0.00     0.065 A 
ATOM     13  F   UNL A   1      36.667  22.750  23.093  1.00  0.00    -0.207 F 
ATOM     14  C   UNL A   1      33.809  21.604  25.050  1.00  0.00     0.037 A 
BRANCH  14  15
ATOM     15  N   UNL A   1      32.562  21.077  24.793  1.00  0.00    -0.380 N 
ATOM     16  H   UNL A   1      31.821  21.725  24.820  1.00  0.00     0.160 HD
BRANCH  15  17
ATOM     17  C   UNL A   1      32.173  19.705  24.488  1.00  0.00     0.107 C 
ATOM     18  C   UNL A   1      32.201  19.371  22.992  1.00  0.00     0.027 C 
ATOM     19  C   UNL A   1      32.979  18.595  25.193  1.00  0.00     0.136 C 
ATOM     20  C   UNL A   1      32.784  17.961  22.886  1.00  0.00     0.005 C 
ATOM     21  C   UNL A   1      32.733  17.388  24.296  1.00  0.00     0.034 C 
BRANCH  19  22
ATOM     22  O   UNL A   1      32.553  18.327  26.524  1.00  0.00    -0.391 OA
ATOM     23  H   UNL A   1      32.963  17.503  26.835  1.00  0.00     0.211 HD
ENDBRANCH  19  22
ENDBRANCH  15  17
ENDBRANCH  14  15
ENDBRANCH   6   8
ENDBRANCH   4   6
ENDBRANCH   3   4
ENDBRANCH   2   3
ENDBRANCH   1   2
BRANCH   1  24
ATOM     24  O   UNL A   1      41.695  19.044  25.624  1.00  0.00    -0.374 OA
BRANCH  24  25
ATOM     25  C   UNL A   1      43.011  18.769  26.095  1.00  0.00     0.202 C 
BRANCH  25  26
ATOM     26  C   UNL A   1      44.147  18.963  25.086  1.00  0.00     0.261 C 
BRANCH  26  27
ATOM     27  O   UNL A   1      44.900  20.154  25.357  1.00  0.00    -0.460 OA
BRANCH  27  28
ATOM     28  C   UNL A   1      44.647  21.174  24.505  1.00  0.00     0.338 C 
ATOM     29  O   UNL A   1      44.557  21.120  23.286  1.00  0.00    -0.246 OA
BRANCH  28  30
ATOM     30  C   UNL A   1      44.310  22.390  25.263  1.00  0.00     0.060 A 
ATOM     31  C   UNL A   1      43.967  23.527  24.521  1.00  0.00     0.016 A 
ATOM     32  C   UNL A   1      44.381  22.441  26.658  1.00  0.00     0.016 A 
ATOM     33  C   UNL A   1      43.750  24.739  25.167  1.00  0.00     0.010 A 
ATOM     34  C   UNL A   1      44.172  23.663  27.305  1.00  0.00     0.010 A 
ATOM     35  C   UNL A   1      43.895  24.823  26.559  1.00  0.00    -0.014 A 
BRANCH  35  36
ATOM     36  C   UNL A   1      43.916  26.158  27.198  1.00  0.00     0.031 A 
ATOM     37  C   UNL A   1      45.239  26.842  27.403  1.00  0.00     0.074 A 
ATOM     38  C   UNL A   1      42.772  26.776  27.542  1.00  0.00     0.049 A 
ATOM     39  N   UNL A   1      45.494  28.016  27.922  1.00  0.00    -0.248 NA
ATOM     40  C   UNL A   1      46.435  26.106  26.961  1.00  0.00     0.031 C 
ATOM     41  C   UNL A   1      41.427  26.238  27.348  1.00  0.00     0.029 A 
ATOM     42  N   UNL A   1      42.567  28.001  28.123  1.00  0.00    -0.354 N 
ATOM     43  C   UNL A   1      46.874  28.158  27.873  1.00  0.00     0.074 A 
ATOM     44  C   UNL A   1      47.407  26.940  27.300  1.00  0.00     0.031 C 
ATOM     45  C   UNL A   1      40.532  27.132  27.802  1.00  0.00     0.029 A 
ATOM     46  C   UNL A   1      41.243  28.289  28.343  1.00  0.00     0.049 A 
ATOM     47  H   UNL A   1      43.299  28.616  28.359  1.00  0.00     0.167 HD
ATOM     48  C   UNL A   1      47.633  29.209  28.263  1.00  0.00     0.031 A 
ATOM     49  C   UNL A   1      40.672  29.360  28.928  1.00  0.00     0.031 A 
ATOM     50  C   UNL A   1      47.106  30.415  28.843  1.00  0.00     0.049 A 
ATOM     51  C   UNL A   1      41.543  30.481  29.428  1.00  0.00     0.074 A 
ATOM     52  C   UNL A   1      47.793  31.543  29.256  1.00  0.00     0.029 A 
ATOM     53  N   UNL A   1      45.764  30.644  29.098  1.00  0.00    -0.354 N 
ATOM     54  N   UNL A   1      42.846  30.614  29.349  1.00  0.00    -0.248 NA
ATOM     55  C   UNL A   1      40.863  31.601  30.093  1.00  0.00     0.031 C 
ATOM     56  C   UNL A   1      46.869  32.435  29.812  1.00  0.00     0.029 A 
ATOM     57  C   UNL A   1      45.604  31.884  29.694  1.00  0.00     0.049 A 
ATOM     58  H   UNL A   1      45.034  30.018  28.890  1.00  0.00     0.167 HD
ATOM     59  C   UNL A   1      43.136  31.844  29.928  1.00  0.00     0.074 A 
ATOM     60  C   UNL A   1      41.874  32.422  30.341  1.00  0.00     0.031 C 
ATOM     61  C   UNL A   1      44.341  32.443  30.099  1.00  0.00     0.031 A 
BRANCH  48  62
ATOM     62  C   UNL A   1      49.122  29.080  28.110  1.00  0.00    -0.014 A 
ATOM     63  C   UNL A   1      49.772  29.491  26.936  1.00  0.00     0.009 A 
ATOM     64  C   UNL A   1      49.886  28.566  29.168  1.00  0.00     0.009 A 
ATOM     65  C   UNL A   1      51.158  29.361  26.814  1.00  0.00     0.001 A 
ATOM     66  C   UNL A   1      51.274  28.460  29.054  1.00  0.00     0.001 A 
ATOM     67  C   UNL A   1      51.907  28.851  27.875  1.00  0.00     0.000 A 
ENDBRANCH  48  62
BRANCH  49  68
ATOM     68  C   UNL A   1      39.196  29.422  29.091  1.00  0.00    -0.014 A 
ATOM     69  C   UNL A   1      38.593  29.055  30.302  1.00  0.00     0.009 A 
ATOM     70  C   UNL A   1      38.382  29.831  28.022  1.00  0.00     0.009 A 
ATOM     71  C   UNL A   1      37.202  29.072  30.432  1.00  0.00     0.001 A 
ATOM     72  C   UNL A   1      36.993  29.873  28.164  1.00  0.00     0.001 A 
ATOM     73  C   UNL A   1      36.404  29.485  29.366  1.00  0.00     0.000 A 
ENDBRANCH  49  68
BRANCH  61  74
ATOM     74  C   UNL A   1      44.347  33.807  30.728  1.00  0.00    -0.014 A 
ATOM     75  C   UNL A   1      44.013  34.952  29.989  1.00  0.00     0.009 A 
ATOM     76  C   UNL A   1      44.649  33.940  32.092  1.00  0.00     0.009 A 
ATOM     77  C   UNL A   1      44.013  36.209  30.599  1.00  0.00     0.001 A 
ATOM     78  C   UNL A   1      44.621  35.193  32.705  1.00  0.00     0.001 A 
ATOM     79  C   UNL A   1      44.312  36.327  31.956  1.00  0.00     0.000 A 
ENDBRANCH  61  74
ENDBRANCH  35  36
ENDBRANCH  28  30
ENDBRANCH  27  28
ENDBRANCH  26  27
ENDBRANCH  25  26
ENDBRANCH  24  25
ENDBRANCH   1  24
TORSDOF 18
ENDMDL
