MODEL 1
REMARK VINA RESULT:     -11.1      0.000      0.000
REMARK SMILES Cc1nc2scc(C)n2c1CNc1ccc(C(=O)OCCOCCOC(=O)c2ccc(-c3c4nc(c(-c5ccccc5)c5ccc([nH]5)c(-c5ccccc5)c5nc(c(-c6ccccc6)c6ccc3[nH]6)C=C5)C=C4)cc2)cc1
REMARK SMILES IDX 21 1 20 2 19 3 17 4 18 5 16 6 13 7 14 8 77 9 15 10 76 11
REMARK SMILES IDX 12 12 11 14 10 15 1 16 2 17 3 18 4 19 9 20 5 21 7 22 6 23
REMARK SMILES IDX 8 24 22 25 23 26 24 27 25 28 26 29 27 30 28 31 29 32 75 33
REMARK SMILES IDX 30 34 74 35 31 36 32 37 33 38 68 39 34 40 73 41 67 42 69 43
REMARK SMILES IDX 35 44 72 45 66 46 65 47 36 49 58 50 43 51 57 52 44 53 47 54
REMARK SMILES IDX 56 55 70 56 45 57 46 58 55 60 71 61 48 62 37 63 38 64 42 65
REMARK SMILES IDX 39 66 41 67 40 68 59 69 60 70 64 71 61 72 63 73 62 74 49 75
REMARK SMILES IDX 50 76 54 77 51 78 53 79 52 80
REMARK H PARENT 12 13 69 48 47 59
REMARK Flexibility Score: inf
ROOT
ATOM      1  C   UNL A   1      41.441  20.513  26.527  1.00  0.00     0.202 C 
ENDROOT
BRANCH   1   2
ATOM      2  C   UNL A   1      40.547  21.537  25.825  1.00  0.00     0.261 C 
BRANCH   2   3
ATOM      3  O   UNL A   1      39.190  21.501  26.295  1.00  0.00    -0.460 OA
BRANCH   3   4
ATOM      4  C   UNL A   1      38.329  20.893  25.444  1.00  0.00     0.338 C 
ATOM      5  O   UNL A   1      38.449  19.790  24.937  1.00  0.00    -0.246 OA
BRANCH   4   6
ATOM      6  C   UNL A   1      37.085  21.675  25.318  1.00  0.00     0.060 A 
ATOM      7  C   UNL A   1      34.734  23.169  25.566  1.00  0.00     0.034 A 
ATOM      8  C   UNL A   1      35.979  23.785  25.726  1.00  0.00     0.026 A 
ATOM      9  C   UNL A   1      34.695  21.833  25.135  1.00  0.00     0.026 A 
ATOM     10  C   UNL A   1      37.148  23.037  25.632  1.00  0.00     0.018 A 
ATOM     11  C   UNL A   1      35.866  21.083  24.998  1.00  0.00     0.018 A 
BRANCH   7  12
ATOM     12  N   UNL A   1      33.603  23.825  26.031  1.00  0.00    -0.379 N 
ATOM     13  H   UNL A   1      33.503  24.031  26.988  1.00  0.00     0.160 HD
BRANCH  12  14
ATOM     14  C   UNL A   1      32.566  24.202  25.083  1.00  0.00     0.169 C 
BRANCH  14  15
ATOM     15  C   UNL A   1      33.049  25.022  23.942  1.00  0.00     0.066 A 
ATOM     16  C   UNL A   1      33.244  23.294  22.005  1.00  0.00     0.069 C 
ATOM     17  C   UNL A   1      33.331  24.635  22.630  1.00  0.00     0.062 A 
ATOM     18  N   UNL A   1      33.696  25.711  21.850  1.00  0.00    -0.224 NA
ATOM     19  C   UNL A   1      33.632  26.716  22.673  1.00  0.00     0.194 A 
ATOM     20  N   UNL A   1      33.244  26.391  23.947  1.00  0.00    -0.290 N 
ATOM     21  S   UNL A   1      33.902  28.417  22.480  1.00  0.00    -0.105 S 
ATOM     22  C   UNL A   1      33.151  27.487  24.804  1.00  0.00     0.032 A 
ATOM     23  C   UNL A   1      33.467  28.635  24.168  1.00  0.00     0.090 A 
ATOM     24  C   UNL A   1      32.741  27.448  26.230  1.00  0.00     0.066 C 
ENDBRANCH  14  15
ENDBRANCH  12  14
ENDBRANCH   7  12
ENDBRANCH   4   6
ENDBRANCH   3   4
ENDBRANCH   2   3
ENDBRANCH   1   2
BRANCH   1  25
ATOM     25  O   UNL A   1      41.877  19.366  25.798  1.00  0.00    -0.374 OA
BRANCH  25  26
ATOM     26  C   UNL A   1      42.909  18.535  26.312  1.00  0.00     0.202 C 
BRANCH  26  27
ATOM     27  C   UNL A   1      44.132  18.264  25.449  1.00  0.00     0.261 C 
BRANCH  27  28
ATOM     28  O   UNL A   1      44.951  19.411  25.299  1.00  0.00    -0.460 OA
BRANCH  28  29
ATOM     29  C   UNL A   1      44.721  20.091  24.152  1.00  0.00     0.338 C 
ATOM     30  O   UNL A   1      44.475  19.629  23.054  1.00  0.00    -0.246 OA
BRANCH  29  31
ATOM     31  C   UNL A   1      44.999  21.509  24.395  1.00  0.00     0.060 A 
ATOM     32  C   UNL A   1      45.936  21.773  25.394  1.00  0.00     0.016 A 
ATOM     33  C   UNL A   1      44.095  22.478  23.934  1.00  0.00     0.016 A 
ATOM     34  C   UNL A   1      45.779  22.923  26.126  1.00  0.00     0.010 A 
ATOM     35  C   UNL A   1      43.929  23.616  24.678  1.00  0.00     0.010 A 
ATOM     36  C   UNL A   1      44.706  23.768  25.821  1.00  0.00    -0.014 A 
BRANCH  36  37
ATOM     37  C   UNL A   1      44.484  24.902  26.682  1.00  0.00     0.031 A 
ATOM     38  C   UNL A   1      45.582  25.881  26.586  1.00  0.00     0.074 A 
ATOM     39  C   UNL A   1      43.369  25.064  27.414  1.00  0.00     0.049 A 
ATOM     40  N   UNL A   1      46.500  26.110  27.461  1.00  0.00    -0.248 NA
ATOM     41  C   UNL A   1      45.808  26.519  25.279  1.00  0.00     0.031 C 
ATOM     42  C   UNL A   1      42.116  24.308  27.366  1.00  0.00     0.029 A 
ATOM     43  N   UNL A   1      43.097  26.047  28.306  1.00  0.00    -0.354 N 
ATOM     44  C   UNL A   1      47.306  27.084  26.893  1.00  0.00     0.074 A 
ATOM     45  C   UNL A   1      46.974  27.127  25.492  1.00  0.00     0.031 C 
ATOM     46  C   UNL A   1      41.151  25.014  28.004  1.00  0.00     0.029 A 
ATOM     47  C   UNL A   1      41.753  26.191  28.613  1.00  0.00     0.049 A 
ATOM     48  H   UNL A   1      43.797  26.613  28.706  1.00  0.00     0.167 HD
ATOM     49  C   UNL A   1      47.952  27.993  27.669  1.00  0.00     0.031 A 
ATOM     50  C   UNL A   1      41.194  27.252  29.250  1.00  0.00     0.031 A 
ATOM     51  C   UNL A   1      48.044  27.558  29.039  1.00  0.00     0.049 A 
ATOM     52  C   UNL A   1      42.287  27.977  29.948  1.00  0.00     0.074 A 
ATOM     53  C   UNL A   1      48.585  26.451  29.666  1.00  0.00     0.029 A 
ATOM     54  N   UNL A   1      47.148  28.097  29.934  1.00  0.00    -0.354 N 
ATOM     55  N   UNL A   1      42.934  27.483  30.965  1.00  0.00    -0.248 NA
ATOM     56  C   UNL A   1      42.979  29.029  29.219  1.00  0.00     0.031 C 
ATOM     57  C   UNL A   1      47.647  26.108  30.683  1.00  0.00     0.029 A 
ATOM     58  C   UNL A   1      46.630  27.064  30.675  1.00  0.00     0.049 A 
ATOM     59  H   UNL A   1      46.920  29.050  30.026  1.00  0.00     0.167 HD
ATOM     60  C   UNL A   1      44.260  27.827  30.739  1.00  0.00     0.074 A 
ATOM     61  C   UNL A   1      44.215  28.852  29.697  1.00  0.00     0.031 C 
ATOM     62  C   UNL A   1      45.281  27.043  31.198  1.00  0.00     0.031 A 
BRANCH  49  63
ATOM     63  C   UNL A   1      48.073  29.439  27.262  1.00  0.00    -0.014 A 
ATOM     64  C   UNL A   1      49.325  30.064  27.357  1.00  0.00     0.009 A 
ATOM     65  C   UNL A   1      46.958  30.280  27.056  1.00  0.00     0.009 A 
ATOM     66  C   UNL A   1      49.442  31.458  27.310  1.00  0.00     0.001 A 
ATOM     67  C   UNL A   1      47.076  31.666  26.964  1.00  0.00     0.001 A 
ATOM     68  C   UNL A   1      48.319  32.257  27.118  1.00  0.00     0.000 A 
ENDBRANCH  49  63
BRANCH  50  69
ATOM     69  C   UNL A   1      39.870  27.875  29.019  1.00  0.00    -0.014 A 
ATOM     70  C   UNL A   1      38.945  28.003  30.070  1.00  0.00     0.009 A 
ATOM     71  C   UNL A   1      39.622  28.603  27.840  1.00  0.00     0.009 A 
ATOM     72  C   UNL A   1      37.840  28.861  29.959  1.00  0.00     0.001 A 
ATOM     73  C   UNL A   1      38.518  29.456  27.729  1.00  0.00     0.001 A 
ATOM     74  C   UNL A   1      37.636  29.597  28.796  1.00  0.00     0.000 A 
ENDBRANCH  50  69
BRANCH  62  75
ATOM     75  C   UNL A   1      44.938  25.911  32.139  1.00  0.00    -0.014 A 
ATOM     76  C   UNL A   1      44.612  24.613  31.703  1.00  0.00     0.009 A 
ATOM     77  C   UNL A   1      45.096  26.126  33.515  1.00  0.00     0.009 A 
ATOM     78  C   UNL A   1      44.422  23.573  32.622  1.00  0.00     0.001 A 
ATOM     79  C   UNL A   1      44.927  25.085  34.430  1.00  0.00     0.001 A 
ATOM     80  C   UNL A   1      44.584  23.811  33.986  1.00  0.00     0.000 A 
ENDBRANCH  62  75
ENDBRANCH  36  37
ENDBRANCH  29  31
ENDBRANCH  28  29
ENDBRANCH  27  28
ENDBRANCH  26  27
ENDBRANCH  25  26
ENDBRANCH   1  25
TORSDOF 17
ENDMDL
MODEL 2
REMARK VINA RESULT:     -10.8      5.912     10.730
REMARK SMILES Cc1nc2scc(C)n2c1CNc1ccc(C(=O)OCCOCCOC(=O)c2ccc(-c3c4nc(c(-c5ccccc5)c5ccc([nH]5)c(-c5ccccc5)c5nc(c(-c6ccccc6)c6ccc3[nH]6)C=C5)C=C4)cc2)cc1
REMARK SMILES IDX 21 1 20 2 19 3 17 4 18 5 16 6 13 7 14 8 77 9 15 10 76 11
REMARK SMILES IDX 12 12 11 14 10 15 1 16 2 17 3 18 4 19 9 20 5 21 7 22 6 23
REMARK SMILES IDX 8 24 22 25 23 26 24 27 25 28 26 29 27 30 28 31 29 32 75 33
REMARK SMILES IDX 30 34 74 35 31 36 32 37 33 38 68 39 34 40 73 41 67 42 69 43
REMARK SMILES IDX 35 44 72 45 66 46 65 47 36 49 58 50 43 51 57 52 44 53 47 54
REMARK SMILES IDX 56 55 70 56 45 57 46 58 55 60 71 61 48 62 37 63 38 64 42 65
REMARK SMILES IDX 39 66 41 67 40 68 59 69 60 70 64 71 61 72 63 73 62 74 49 75
REMARK SMILES IDX 50 76 54 77 51 78 53 79 52 80
REMARK H PARENT 12 13 69 48 47 59
REMARK Flexibility Score: inf
ROOT
ATOM      1  C   UNL A   1      35.075  33.349  28.052  1.00  0.00     0.202 C 
ENDROOT
BRANCH   1   2
ATOM      2  C   UNL A   1      34.379  32.030  28.392  1.00  0.00     0.261 C 
BRANCH   2   3
ATOM      3  O   UNL A   1      34.289  31.145  27.265  1.00  0.00    -0.460 OA
BRANCH   3   4
ATOM      4  C   UNL A   1      34.615  29.861  27.545  1.00  0.00     0.338 C 
ATOM      5  O   UNL A   1      35.508  29.470  28.278  1.00  0.00    -0.246 OA
BRANCH   4   6
ATOM      6  C   UNL A   1      33.621  28.936  26.969  1.00  0.00     0.060 A 
ATOM      7  C   UNL A   1      31.684  27.020  26.336  1.00  0.00     0.034 A 
ATOM      8  C   UNL A   1      31.309  28.231  26.925  1.00  0.00     0.026 A 
ATOM      9  C   UNL A   1      33.020  26.851  25.938  1.00  0.00     0.026 A 
ATOM     10  C   UNL A   1      32.275  29.173  27.267  1.00  0.00     0.018 A 
ATOM     11  C   UNL A   1      33.992  27.809  26.240  1.00  0.00     0.018 A 
BRANCH   7  12
ATOM     12  N   UNL A   1      30.783  25.965  26.354  1.00  0.00    -0.379 N 
ATOM     13  H   UNL A   1      30.792  25.314  27.093  1.00  0.00     0.160 HD
BRANCH  12  14
ATOM     14  C   UNL A   1      29.828  25.832  25.265  1.00  0.00     0.169 C 
BRANCH  14  15
ATOM     15  C   UNL A   1      30.362  26.221  23.934  1.00  0.00     0.066 A 
ATOM     16  C   UNL A   1      29.287  28.556  23.519  1.00  0.00     0.069 C 
ATOM     17  C   UNL A   1      30.136  27.384  23.195  1.00  0.00     0.062 A 
ATOM     18  N   UNL A   1      30.871  27.396  22.029  1.00  0.00    -0.224 NA
ATOM     19  C   UNL A   1      31.522  26.271  22.071  1.00  0.00     0.194 A 
ATOM     20  N   UNL A   1      31.279  25.509  23.184  1.00  0.00    -0.290 N 
ATOM     21  S   UNL A   1      32.681  25.540  21.010  1.00  0.00    -0.105 S 
ATOM     22  C   UNL A   1      32.011  24.323  23.224  1.00  0.00     0.032 A 
ATOM     23  C   UNL A   1      32.804  24.199  22.139  1.00  0.00     0.090 A 
ATOM     24  C   UNL A   1      31.972  23.309  24.307  1.00  0.00     0.066 C 
ENDBRANCH  14  15
ENDBRANCH  12  14
ENDBRANCH   7  12
ENDBRANCH   4   6
ENDBRANCH   3   4
ENDBRANCH   2   3
ENDBRANCH   1   2
BRANCH   1  25
ATOM     25  O   UNL A   1      34.674  34.535  28.738  1.00  0.00    -0.374 OA
BRANCH  25  26
ATOM     26  C   UNL A   1      33.335  34.686  29.193  1.00  0.00     0.202 C 
BRANCH  26  27
ATOM     27  C   UNL A   1      32.966  35.931  29.984  1.00  0.00     0.261 C 
BRANCH  27  28
ATOM     28  O   UNL A   1      33.665  36.014  31.214  1.00  0.00    -0.460 OA
BRANCH  28  29
ATOM     29  C   UNL A   1      33.204  35.158  32.156  1.00  0.00     0.338 C 
ATOM     30  O   UNL A   1      32.064  35.055  32.568  1.00  0.00    -0.246 OA
BRANCH  29  31
ATOM     31  C   UNL A   1      34.352  34.473  32.756  1.00  0.00     0.060 A 
ATOM     32  C   UNL A   1      35.471  35.272  32.991  1.00  0.00     0.016 A 
ATOM     33  C   UNL A   1      34.422  33.073  32.705  1.00  0.00     0.016 A 
ATOM     34  C   UNL A   1      36.706  34.682  32.895  1.00  0.00     0.010 A 
ATOM     35  C   UNL A   1      35.657  32.489  32.592  1.00  0.00     0.010 A 
ATOM     36  C   UNL A   1      36.773  33.319  32.586  1.00  0.00    -0.014 A 
BRANCH  36  37
ATOM     37  C   UNL A   1      38.077  32.749  32.365  1.00  0.00     0.031 A 
ATOM     38  C   UNL A   1      38.904  32.792  33.584  1.00  0.00     0.074 A 
ATOM     39  C   UNL A   1      38.445  32.179  31.204  1.00  0.00     0.049 A 
ATOM     40  N   UNL A   1      39.905  33.570  33.818  1.00  0.00    -0.248 NA
ATOM     41  C   UNL A   1      38.426  32.038  34.754  1.00  0.00     0.031 C 
ATOM     42  C   UNL A   1      37.622  31.834  30.044  1.00  0.00     0.029 A 
ATOM     43  N   UNL A   1      39.662  31.687  30.870  1.00  0.00    -0.354 N 
ATOM     44  C   UNL A   1      40.317  33.251  35.103  1.00  0.00     0.074 A 
ATOM     45  C   UNL A   1      39.253  32.485  35.698  1.00  0.00     0.031 C 
ATOM     46  C   UNL A   1      38.310  30.973  29.256  1.00  0.00     0.029 A 
ATOM     47  C   UNL A   1      39.656  30.823  29.786  1.00  0.00     0.049 A 
ATOM     48  H   UNL A   1      40.485  31.924  31.356  1.00  0.00     0.167 HD
ATOM     49  C   UNL A   1      41.622  33.367  35.464  1.00  0.00     0.031 A 
ATOM     50  C   UNL A   1      40.672  29.995  29.426  1.00  0.00     0.031 A 
ATOM     51  C   UNL A   1      42.353  34.220  34.562  1.00  0.00     0.049 A 
ATOM     52  C   UNL A   1      41.907  30.497  30.081  1.00  0.00     0.074 A 
ATOM     53  C   UNL A   1      42.219  35.535  34.155  1.00  0.00     0.029 A 
ATOM     54  N   UNL A   1      43.135  33.609  33.609  1.00  0.00    -0.354 N 
ATOM     55  N   UNL A   1      42.477  31.623  29.760  1.00  0.00    -0.248 NA
ATOM     56  C   UNL A   1      42.227  29.992  31.408  1.00  0.00     0.031 C 
ATOM     57  C   UNL A   1      42.507  35.520  32.759  1.00  0.00     0.029 A 
ATOM     58  C   UNL A   1      42.878  34.221  32.407  1.00  0.00     0.049 A 
ATOM     59  H   UNL A   1      43.765  32.869  33.762  1.00  0.00     0.167 HD
ATOM     60  C   UNL A   1      42.853  32.186  30.972  1.00  0.00     0.074 A 
ATOM     61  C   UNL A   1      42.753  31.098  31.945  1.00  0.00     0.031 C 
ATOM     62  C   UNL A   1      42.921  33.542  31.130  1.00  0.00     0.031 A 
BRANCH  49  63
ATOM     63  C   UNL A   1      42.294  32.347  36.347  1.00  0.00    -0.014 A 
ATOM     64  C   UNL A   1      43.115  32.796  37.391  1.00  0.00     0.009 A 
ATOM     65  C   UNL A   1      42.373  30.976  36.023  1.00  0.00     0.009 A 
ATOM     66  C   UNL A   1      44.010  31.929  38.031  1.00  0.00     0.001 A 
ATOM     67  C   UNL A   1      43.230  30.100  36.687  1.00  0.00     0.001 A 
ATOM     68  C   UNL A   1      44.070  30.585  37.676  1.00  0.00     0.000 A 
ENDBRANCH  49  63
BRANCH  50  69
ATOM     69  C   UNL A   1      40.592  28.631  28.856  1.00  0.00    -0.014 A 
ATOM     70  C   UNL A   1      39.905  27.609  29.533  1.00  0.00     0.009 A 
ATOM     71  C   UNL A   1      40.941  28.400  27.512  1.00  0.00     0.009 A 
ATOM     72  C   UNL A   1      39.544  26.422  28.877  1.00  0.00     0.001 A 
ATOM     73  C   UNL A   1      40.584  27.215  26.859  1.00  0.00     0.001 A 
ATOM     74  C   UNL A   1      39.871  26.233  27.537  1.00  0.00     0.000 A 
ENDBRANCH  50  69
BRANCH  62  75
ATOM     75  C   UNL A   1      42.785  34.407  29.899  1.00  0.00    -0.014 A 
ATOM     76  C   UNL A   1      43.853  34.684  29.025  1.00  0.00     0.009 A 
ATOM     77  C   UNL A   1      41.501  34.833  29.531  1.00  0.00     0.009 A 
ATOM     78  C   UNL A   1      43.642  35.392  27.835  1.00  0.00     0.001 A 
ATOM     79  C   UNL A   1      41.287  35.521  28.334  1.00  0.00     0.001 A 
ATOM     80  C   UNL A   1      42.357  35.806  27.489  1.00  0.00     0.000 A 
ENDBRANCH  62  75
ENDBRANCH  36  37
ENDBRANCH  29  31
ENDBRANCH  28  29
ENDBRANCH  27  28
ENDBRANCH  26  27
ENDBRANCH  25  26
ENDBRANCH   1  25
TORSDOF 17
ENDMDL
MODEL 3
REMARK VINA RESULT:     -10.7      1.838      2.674
REMARK SMILES Cc1nc2scc(C)n2c1CNc1ccc(C(=O)OCCOCCOC(=O)c2ccc(-c3c4nc(c(-c5ccccc5)c5ccc([nH]5)c(-c5ccccc5)c5nc(c(-c6ccccc6)c6ccc3[nH]6)C=C5)C=C4)cc2)cc1
REMARK SMILES IDX 21 1 20 2 19 3 17 4 18 5 16 6 13 7 14 8 77 9 15 10 76 11
REMARK SMILES IDX 12 12 11 14 10 15 1 16 2 17 3 18 4 19 9 20 5 21 7 22 6 23
REMARK SMILES IDX 8 24 22 25 23 26 24 27 25 28 26 29 27 30 28 31 29 32 75 33
REMARK SMILES IDX 30 34 74 35 31 36 32 37 33 38 68 39 34 40 73 41 67 42 69 43
REMARK SMILES IDX 35 44 72 45 66 46 65 47 36 49 58 50 43 51 57 52 44 53 47 54
REMARK SMILES IDX 56 55 70 56 45 57 46 58 55 60 71 61 48 62 37 63 38 64 42 65
REMARK SMILES IDX 39 66 41 67 40 68 59 69 60 70 64 71 61 72 63 73 62 74 49 75
REMARK SMILES IDX 50 76 54 77 51 78 53 79 52 80
REMARK H PARENT 12 13 69 48 47 59
REMARK Flexibility Score: inf
ROOT
ATOM      1  C   UNL A   1      43.369  18.488  26.136  1.00  0.00     0.202 C 
ENDROOT
BRANCH   1   2
ATOM      2  C   UNL A   1      42.644  19.822  25.944  1.00  0.00     0.261 C 
BRANCH   2   3
ATOM      3  O   UNL A   1      41.216  19.680  25.940  1.00  0.00    -0.460 OA
BRANCH   3   4
ATOM      4  C   UNL A   1      40.588  20.395  26.904  1.00  0.00     0.338 C 
ATOM      5  O   UNL A   1      40.838  20.402  28.098  1.00  0.00    -0.246 OA
BRANCH   4   6
ATOM      6  C   UNL A   1      39.628  21.342  26.306  1.00  0.00     0.060 A 
ATOM      7  C   UNL A   1      37.589  23.123  25.607  1.00  0.00     0.034 A 
ATOM      8  C   UNL A   1      38.667  23.559  26.382  1.00  0.00     0.026 A 
ATOM      9  C   UNL A   1      37.627  21.827  25.068  1.00  0.00     0.026 A 
ATOM     10  C   UNL A   1      39.668  22.666  26.755  1.00  0.00     0.018 A 
ATOM     11  C   UNL A   1      38.649  20.934  25.404  1.00  0.00     0.018 A 
BRANCH   7  12
ATOM     12  N   UNL A   1      36.440  23.901  25.568  1.00  0.00    -0.379 N 
ATOM     13  H   UNL A   1      36.267  24.570  26.270  1.00  0.00     0.160 HD
BRANCH  12  14
ATOM     14  C   UNL A   1      35.496  23.713  24.478  1.00  0.00     0.169 C 
BRANCH  14  15
ATOM     15  C   UNL A   1      34.136  23.302  24.912  1.00  0.00     0.066 A 
ATOM     16  C   UNL A   1      34.148  20.723  24.555  1.00  0.00     0.069 C 
ATOM     17  C   UNL A   1      33.565  22.028  24.951  1.00  0.00     0.062 A 
ATOM     18  N   UNL A   1      32.294  22.055  25.482  1.00  0.00    -0.224 NA
ATOM     19  C   UNL A   1      32.109  23.313  25.758  1.00  0.00     0.194 A 
ATOM     20  N   UNL A   1      33.168  24.128  25.453  1.00  0.00    -0.290 N 
ATOM     21  S   UNL A   1      30.793  24.181  26.477  1.00  0.00    -0.105 S 
ATOM     22  C   UNL A   1      32.961  25.467  25.785  1.00  0.00     0.032 A 
ATOM     23  C   UNL A   1      31.745  25.652  26.342  1.00  0.00     0.090 A 
ATOM     24  C   UNL A   1      33.930  26.575  25.591  1.00  0.00     0.066 C 
ENDBRANCH  14  15
ENDBRANCH  12  14
ENDBRANCH   7  12
ENDBRANCH   4   6
ENDBRANCH   3   4
ENDBRANCH   2   3
ENDBRANCH   1   2
BRANCH   1  25
ATOM     25  O   UNL A   1      44.355  18.098  25.181  1.00  0.00    -0.374 OA
BRANCH  25  26
ATOM     26  C   UNL A   1      45.640  18.707  25.183  1.00  0.00     0.202 C 
BRANCH  26  27
ATOM     27  C   UNL A   1      45.906  19.863  24.232  1.00  0.00     0.261 C 
BRANCH  27  28
ATOM     28  O   UNL A   1      45.844  21.121  24.882  1.00  0.00    -0.460 OA
BRANCH  28  29
ATOM     29  C   UNL A   1      44.899  21.945  24.373  1.00  0.00     0.338 C 
ATOM     30  O   UNL A   1      44.693  22.203  23.203  1.00  0.00    -0.246 OA
BRANCH  29  31
ATOM     31  C   UNL A   1      44.253  22.646  25.486  1.00  0.00     0.060 A 
ATOM     32  C   UNL A   1      43.091  23.346  25.160  1.00  0.00     0.016 A 
ATOM     33  C   UNL A   1      44.982  22.900  26.657  1.00  0.00     0.016 A 
ATOM     34  C   UNL A   1      42.818  24.490  25.867  1.00  0.00     0.010 A 
ATOM     35  C   UNL A   1      44.718  24.053  27.350  1.00  0.00     0.010 A 
ATOM     36  C   UNL A   1      43.704  24.879  26.878  1.00  0.00    -0.014 A 
BRANCH  36  37
ATOM     37  C   UNL A   1      43.469  26.147  27.519  1.00  0.00     0.031 A 
ATOM     38  C   UNL A   1      44.530  27.121  27.204  1.00  0.00     0.074 A 
ATOM     39  C   UNL A   1      42.370  26.413  28.246  1.00  0.00     0.049 A 
ATOM     40  N   UNL A   1      45.464  27.535  27.989  1.00  0.00    -0.248 NA
ATOM     41  C   UNL A   1      44.696  27.508  25.794  1.00  0.00     0.031 C 
ATOM     42  C   UNL A   1      41.143  25.628  28.384  1.00  0.00     0.029 A 
ATOM     43  N   UNL A   1      42.092  27.538  28.949  1.00  0.00    -0.354 N 
ATOM     44  C   UNL A   1      46.221  28.407  27.221  1.00  0.00     0.074 A 
ATOM     45  C   UNL A   1      45.847  28.177  25.849  1.00  0.00     0.031 C 
ATOM     46  C   UNL A   1      40.173  26.414  28.912  1.00  0.00     0.029 A 
ATOM     47  C   UNL A   1      40.752  27.700  29.270  1.00  0.00     0.049 A 
ATOM     48  H   UNL A   1      42.783  28.188  29.211  1.00  0.00     0.167 HD
ATOM     49  C   UNL A   1      46.858  29.464  27.790  1.00  0.00     0.031 A 
ATOM     50  C   UNL A   1      40.177  28.846  29.716  1.00  0.00     0.031 A 
ATOM     51  C   UNL A   1      47.004  29.296  29.215  1.00  0.00     0.049 A 
ATOM     52  C   UNL A   1      41.265  29.719  30.229  1.00  0.00     0.074 A 
ATOM     53  C   UNL A   1      47.600  28.342  30.018  1.00  0.00     0.029 A 
ATOM     54  N   UNL A   1      46.116  29.968  30.023  1.00  0.00    -0.354 N 
ATOM     55  N   UNL A   1      41.957  29.443  31.296  1.00  0.00    -0.248 NA
ATOM     56  C   UNL A   1      41.900  30.634  29.292  1.00  0.00     0.031 C 
ATOM     57  C   UNL A   1      46.703  28.170  31.113  1.00  0.00     0.029 A 
ATOM     58  C   UNL A   1      45.655  29.079  30.962  1.00  0.00     0.049 A 
ATOM     59  H   UNL A   1      45.860  30.915  29.943  1.00  0.00     0.167 HD
ATOM     60  C   UNL A   1      43.264  29.774  30.964  1.00  0.00     0.074 A 
ATOM     61  C   UNL A   1      43.155  30.584  29.751  1.00  0.00     0.031 C 
ATOM     62  C   UNL A   1      44.323  29.119  31.526  1.00  0.00     0.031 A 
BRANCH  49  63
ATOM     63  C   UNL A   1      46.918  30.810  27.117  1.00  0.00    -0.014 A 
ATOM     64  C   UNL A   1      48.148  31.481  27.059  1.00  0.00     0.009 A 
ATOM     65  C   UNL A   1      45.770  31.562  26.788  1.00  0.00     0.009 A 
ATOM     66  C   UNL A   1      48.215  32.844  26.749  1.00  0.00     0.001 A 
ATOM     67  C   UNL A   1      45.836  32.909  26.435  1.00  0.00     0.001 A 
ATOM     68  C   UNL A   1      47.059  33.557  26.442  1.00  0.00     0.000 A 
ENDBRANCH  49  63
BRANCH  50  69
ATOM     69  C   UNL A   1      38.827  29.377  29.419  1.00  0.00    -0.014 A 
ATOM     70  C   UNL A   1      38.425  29.616  28.094  1.00  0.00     0.009 A 
ATOM     71  C   UNL A   1      37.829  29.379  30.412  1.00  0.00     0.009 A 
ATOM     72  C   UNL A   1      37.073  29.805  27.771  1.00  0.00     0.001 A 
ATOM     73  C   UNL A   1      36.480  29.571  30.090  1.00  0.00     0.001 A 
ATOM     74  C   UNL A   1      36.101  29.767  28.767  1.00  0.00     0.000 A 
ENDBRANCH  50  69
BRANCH  62  75
ATOM     75  C   UNL A   1      44.046  28.175  32.673  1.00  0.00    -0.014 A 
ATOM     76  C   UNL A   1      43.780  26.803  32.501  1.00  0.00     0.009 A 
ATOM     77  C   UNL A   1      44.207  28.658  33.979  1.00  0.00     0.009 A 
ATOM     78  C   UNL A   1      43.650  25.952  33.605  1.00  0.00     0.001 A 
ATOM     79  C   UNL A   1      44.099  27.806  35.080  1.00  0.00     0.001 A 
ATOM     80  C   UNL A   1      43.814  26.455  34.895  1.00  0.00     0.000 A 
ENDBRANCH  62  75
ENDBRANCH  36  37
ENDBRANCH  29  31
ENDBRANCH  28  29
ENDBRANCH  27  28
ENDBRANCH  26  27
ENDBRANCH  25  26
ENDBRANCH   1  25
TORSDOF 17
ENDMDL
