MODEL 1
REMARK VINA RESULT:      -8.1      0.000      0.000
REMARK SMILES O=C(OCCOCCOC(=O)[C@]1(CCCCO)CCc2ccccc2C1)c1ccc(-c2c3nc(c(-c4ccccc4)c4ccc([nH]4)c(-c4ccccc4)c4nc(c(-c5ccccc5)c5ccc2[nH]5)C=C4)C=C3)cc1
REMARK SMILES IDX 7 1 6 2 5 3 4 4 3 5 2 6 1 7 27 8 28 9 74 10 29 11 73 12
REMARK SMILES IDX 30 13 31 14 32 15 67 16 33 17 72 18 66 19 68 20 34 21 71 22
REMARK SMILES IDX 65 23 64 24 35 26 57 27 42 28 56 29 43 30 46 31 55 32 69 33
REMARK SMILES IDX 44 34 45 35 54 37 70 38 47 39 36 40 37 41 41 42 38 43 40 44
REMARK SMILES IDX 39 45 58 46 59 47 63 48 60 49 62 50 61 51 48 52 49 53 53 54
REMARK SMILES IDX 50 55 52 56 51 57 8 58 9 59 10 60 11 61 12 62 18 63 26 64
REMARK SMILES IDX 19 65 25 66 20 67 24 68 21 69 23 70 22 71 13 72 14 73 15 74
REMARK SMILES IDX 16 75 17 76
REMARK H PARENT 68 25 46 36 17 77
REMARK Flexibility Score: inf
ROOT
ATOM      1  C   UNL A   1      46.361  21.683  24.542  1.00  0.00     0.202 C 
ENDROOT
BRANCH   1   2
ATOM      2  O   UNL A   1      45.114  21.126  24.117  1.00  0.00    -0.374 OA
BRANCH   2   3
ATOM      3  C   UNL A   1      45.068  19.753  23.710  1.00  0.00     0.202 C 
BRANCH   3   4
ATOM      4  C   UNL A   1      44.141  18.765  24.457  1.00  0.00     0.261 C 
BRANCH   4   5
ATOM      5  O   UNL A   1      43.612  19.305  25.690  1.00  0.00    -0.460 OA
BRANCH   5   6
ATOM      6  C   UNL A   1      42.452  19.990  25.877  1.00  0.00     0.338 C 
ATOM      7  O   UNL A   1      41.419  19.603  25.342  1.00  0.00    -0.246 OA
BRANCH   6   8
ATOM      8  C   UNL A   1      42.413  21.242  26.681  1.00  0.00     0.060 A 
ATOM      9  C   UNL A   1      42.699  22.474  26.120  1.00  0.00     0.016 A 
ATOM     10  C   UNL A   1      42.026  21.218  28.028  1.00  0.00     0.016 A 
ATOM     11  C   UNL A   1      42.717  23.637  26.828  1.00  0.00     0.010 A 
ATOM     12  C   UNL A   1      41.979  22.411  28.767  1.00  0.00     0.010 A 
ATOM     13  C   UNL A   1      42.339  23.617  28.156  1.00  0.00    -0.014 A 
BRANCH  13  14
ATOM     14  C   UNL A   1      42.532  24.904  28.825  1.00  0.00     0.031 A 
ATOM     15  C   UNL A   1      43.934  25.293  29.157  1.00  0.00     0.074 A 
ATOM     16  C   UNL A   1      41.525  25.798  28.779  1.00  0.00     0.049 A 
ATOM     17  N   UNL A   1      44.372  26.381  29.720  1.00  0.00    -0.248 NA
ATOM     18  C   UNL A   1      44.995  24.342  28.768  1.00  0.00     0.031 C 
ATOM     19  C   UNL A   1      40.199  25.549  28.190  1.00  0.00     0.029 A 
ATOM     20  N   UNL A   1      41.484  27.115  29.132  1.00  0.00    -0.354 N 
ATOM     21  C   UNL A   1      45.747  26.220  29.810  1.00  0.00     0.074 A 
ATOM     22  C   UNL A   1      46.082  24.950  29.213  1.00  0.00     0.031 C 
ATOM     23  C   UNL A   1      39.500  26.694  28.181  1.00  0.00     0.029 A 
ATOM     24  C   UNL A   1      40.278  27.716  28.864  1.00  0.00     0.049 A 
ATOM     25  H   UNL A   1      42.245  27.589  29.540  1.00  0.00     0.167 HD
ATOM     26  C   UNL A   1      46.634  27.063  30.381  1.00  0.00     0.031 A 
ATOM     27  C   UNL A   1      39.845  28.943  29.198  1.00  0.00     0.031 A 
ATOM     28  C   UNL A   1      46.232  28.310  30.968  1.00  0.00     0.049 A 
ATOM     29  C   UNL A   1      40.804  29.801  29.974  1.00  0.00     0.074 A 
ATOM     30  C   UNL A   1      46.965  29.197  31.728  1.00  0.00     0.029 A 
ATOM     31  N   UNL A   1      44.954  28.843  30.838  1.00  0.00    -0.354 N 
ATOM     32  N   UNL A   1      42.070  29.575  30.248  1.00  0.00    -0.248 NA
ATOM     33  C   UNL A   1      40.278  31.052  30.522  1.00  0.00     0.031 C 
ATOM     34  C   UNL A   1      46.114  30.249  32.093  1.00  0.00     0.029 A 
ATOM     35  C   UNL A   1      44.869  30.043  31.512  1.00  0.00     0.049 A 
ATOM     36  H   UNL A   1      44.216  28.424  30.337  1.00  0.00     0.167 HD
ATOM     37  C   UNL A   1      42.494  30.654  31.005  1.00  0.00     0.074 A 
ATOM     38  C   UNL A   1      41.355  31.550  31.113  1.00  0.00     0.031 C 
ATOM     39  C   UNL A   1      43.702  30.887  31.576  1.00  0.00     0.031 A 
BRANCH  26  40
ATOM     40  C   UNL A   1      48.046  26.573  30.502  1.00  0.00    -0.014 A 
ATOM     41  C   UNL A   1      48.474  25.796  31.591  1.00  0.00     0.009 A 
ATOM     42  C   UNL A   1      48.990  26.978  29.544  1.00  0.00     0.009 A 
ATOM     43  C   UNL A   1      49.827  25.471  31.736  1.00  0.00     0.001 A 
ATOM     44  C   UNL A   1      50.336  26.631  29.680  1.00  0.00     0.001 A 
ATOM     45  C   UNL A   1      50.755  25.888  30.782  1.00  0.00     0.000 A 
ENDBRANCH  26  40
BRANCH  27  46
ATOM     46  C   UNL A   1      38.438  29.355  28.939  1.00  0.00    -0.014 A 
ATOM     47  C   UNL A   1      37.453  29.265  29.932  1.00  0.00     0.009 A 
ATOM     48  C   UNL A   1      38.065  29.831  27.668  1.00  0.00     0.009 A 
ATOM     49  C   UNL A   1      36.128  29.621  29.652  1.00  0.00     0.001 A 
ATOM     50  C   UNL A   1      36.752  30.220  27.401  1.00  0.00     0.001 A 
ATOM     51  C   UNL A   1      35.780  30.102  28.390  1.00  0.00     0.000 A 
ENDBRANCH  27  46
BRANCH  39  52
ATOM     52  C   UNL A   1      43.837  32.174  32.326  1.00  0.00    -0.014 A 
ATOM     53  C   UNL A   1      43.566  32.242  33.700  1.00  0.00     0.009 A 
ATOM     54  C   UNL A   1      44.283  33.319  31.650  1.00  0.00     0.009 A 
ATOM     55  C   UNL A   1      43.709  33.450  34.381  1.00  0.00     0.001 A 
ATOM     56  C   UNL A   1      44.452  34.517  32.339  1.00  0.00     0.001 A 
ATOM     57  C   UNL A   1      44.158  34.583  33.700  1.00  0.00     0.000 A 
ENDBRANCH  39  52
ENDBRANCH  13  14
ENDBRANCH   6   8
ENDBRANCH   5   6
ENDBRANCH   4   5
ENDBRANCH   3   4
ENDBRANCH   2   3
ENDBRANCH   1   2
BRANCH   1  58
ATOM     58  C   UNL A   1      46.193  22.717  25.653  1.00  0.00     0.261 C 
BRANCH  58  59
ATOM     59  O   UNL A   1      46.086  24.028  25.083  1.00  0.00    -0.463 OA
BRANCH  59  60
ATOM     60  C   UNL A   1      46.957  24.931  25.595  1.00  0.00     0.312 C 
ATOM     61  O   UNL A   1      48.006  24.635  26.163  1.00  0.00    -0.252 OA
BRANCH  60  62
ATOM     62  C   UNL A   1      46.488  26.373  25.416  1.00  0.00     0.072 C 
ATOM     63  C   UNL A   1      46.754  27.136  26.739  1.00  0.00     0.024 C 
ATOM     64  C   UNL A   1      44.954  26.182  25.254  1.00  0.00     0.054 C 
ATOM     65  C   UNL A   1      46.061  28.489  26.808  1.00  0.00     0.037 C 
ATOM     66  C   UNL A   1      44.105  27.357  25.656  1.00  0.00    -0.044 A 
ATOM     67  C   UNL A   1      44.611  28.419  26.422  1.00  0.00    -0.045 A 
ATOM     68  C   UNL A   1      42.743  27.330  25.323  1.00  0.00     0.004 A 
ATOM     69  C   UNL A   1      43.752  29.457  26.807  1.00  0.00     0.004 A 
ATOM     70  C   UNL A   1      41.897  28.360  25.723  1.00  0.00     0.000 A 
ATOM     71  C   UNL A   1      42.403  29.425  26.461  1.00  0.00     0.000 A 
BRANCH  62  72
ATOM     72  C   UNL A   1      47.051  27.100  24.141  1.00  0.00     0.019 C 
BRANCH  72  73
ATOM     73  C   UNL A   1      48.362  26.629  23.468  1.00  0.00     0.004 C 
BRANCH  73  74
ATOM     74  C   UNL A   1      48.951  27.460  22.319  1.00  0.00     0.028 C 
BRANCH  74  75
ATOM     75  C   UNL A   1      48.501  27.137  20.903  1.00  0.00     0.156 C 
BRANCH  75  76
ATOM     76  O   UNL A   1      48.506  25.740  20.671  1.00  0.00    -0.396 OA
ATOM     77  H   UNL A   1      47.958  25.298  21.338  1.00  0.00     0.210 HD
ENDBRANCH  75  76
ENDBRANCH  74  75
ENDBRANCH  73  74
ENDBRANCH  72  73
ENDBRANCH  62  72
ENDBRANCH  60  62
ENDBRANCH  59  60
ENDBRANCH  58  59
ENDBRANCH   1  58
TORSDOF 19
ENDMDL
MODEL 2
REMARK VINA RESULT:      -7.9      3.944      7.316
REMARK SMILES O=C(OCCOCCOC(=O)[C@]1(CCCCO)CCc2ccccc2C1)c1ccc(-c2c3nc(c(-c4ccccc4)c4ccc([nH]4)c(-c4ccccc4)c4nc(c(-c5ccccc5)c5ccc2[nH]5)C=C4)C=C3)cc1
REMARK SMILES IDX 7 1 6 2 5 3 4 4 3 5 2 6 1 7 27 8 28 9 74 10 29 11 73 12
REMARK SMILES IDX 30 13 31 14 32 15 67 16 33 17 72 18 66 19 68 20 34 21 71 22
REMARK SMILES IDX 65 23 64 24 35 26 57 27 42 28 56 29 43 30 46 31 55 32 69 33
REMARK SMILES IDX 44 34 45 35 54 37 70 38 47 39 36 40 37 41 41 42 38 43 40 44
REMARK SMILES IDX 39 45 58 46 59 47 63 48 60 49 62 50 61 51 48 52 49 53 53 54
REMARK SMILES IDX 50 55 52 56 51 57 8 58 9 59 10 60 11 61 12 62 18 63 26 64
REMARK SMILES IDX 19 65 25 66 20 67 24 68 21 69 23 70 22 71 13 72 14 73 15 74
REMARK SMILES IDX 16 75 17 76
REMARK H PARENT 68 25 46 36 17 77
REMARK Flexibility Score: inf
ROOT
ATOM      1  C   UNL A   1      37.036  22.504  24.497  1.00  0.00     0.202 C 
ENDROOT
BRANCH   1   2
ATOM      2  O   UNL A   1      37.492  21.150  24.580  1.00  0.00    -0.374 OA
BRANCH   2   3
ATOM      3  C   UNL A   1      38.577  20.834  25.459  1.00  0.00     0.202 C 
BRANCH   3   4
ATOM      4  C   UNL A   1      38.903  19.353  25.769  1.00  0.00     0.261 C 
BRANCH   4   5
ATOM      5  O   UNL A   1      40.244  18.974  25.381  1.00  0.00    -0.460 OA
BRANCH   5   6
ATOM      6  C   UNL A   1      41.417  19.304  25.986  1.00  0.00     0.338 C 
ATOM      7  O   UNL A   1      42.302  18.464  26.107  1.00  0.00    -0.246 OA
BRANCH   6   8
ATOM      8  C   UNL A   1      41.639  20.660  26.558  1.00  0.00     0.060 A 
ATOM      9  C   UNL A   1      41.955  21.743  25.756  1.00  0.00     0.016 A 
ATOM     10  C   UNL A   1      41.478  20.896  27.929  1.00  0.00     0.016 A 
ATOM     11  C   UNL A   1      42.208  22.990  26.240  1.00  0.00     0.010 A 
ATOM     12  C   UNL A   1      41.675  22.186  28.449  1.00  0.00     0.010 A 
ATOM     13  C   UNL A   1      42.053  23.226  27.591  1.00  0.00    -0.014 A 
BRANCH  13  14
ATOM     14  C   UNL A   1      42.484  24.566  27.992  1.00  0.00     0.031 A 
ATOM     15  C   UNL A   1      43.915  24.917  27.756  1.00  0.00     0.074 A 
ATOM     16  C   UNL A   1      41.535  25.499  28.200  1.00  0.00     0.049 A 
ATOM     17  N   UNL A   1      44.536  26.036  27.994  1.00  0.00    -0.248 NA
ATOM     18  C   UNL A   1      44.758  23.877  27.132  1.00  0.00     0.031 C 
ATOM     19  C   UNL A   1      40.084  25.256  28.153  1.00  0.00     0.029 A 
ATOM     20  N   UNL A   1      41.635  26.848  28.386  1.00  0.00    -0.354 N 
ATOM     21  C   UNL A   1      45.850  25.815  27.609  1.00  0.00     0.074 A 
ATOM     22  C   UNL A   1      45.937  24.473  27.088  1.00  0.00     0.031 C 
ATOM     23  C   UNL A   1      39.438  26.427  28.257  1.00  0.00     0.029 A 
ATOM     24  C   UNL A   1      40.419  27.476  28.494  1.00  0.00     0.049 A 
ATOM     25  H   UNL A   1      42.496  27.323  28.438  1.00  0.00     0.167 HD
ATOM     26  C   UNL A   1      46.890  26.669  27.725  1.00  0.00     0.031 A 
ATOM     27  C   UNL A   1      40.144  28.752  28.812  1.00  0.00     0.031 A 
ATOM     28  C   UNL A   1      46.735  27.991  28.265  1.00  0.00     0.049 A 
ATOM     29  C   UNL A   1      41.325  29.639  29.090  1.00  0.00     0.074 A 
ATOM     30  C   UNL A   1      47.700  28.916  28.605  1.00  0.00     0.029 A 
ATOM     31  N   UNL A   1      45.500  28.570  28.534  1.00  0.00    -0.354 N 
ATOM     32  N   UNL A   1      42.603  29.380  28.922  1.00  0.00    -0.248 NA
ATOM     33  C   UNL A   1      41.041  30.967  29.636  1.00  0.00     0.031 C 
ATOM     34  C   UNL A   1      47.045  30.043  29.120  1.00  0.00     0.029 A 
ATOM     35  C   UNL A   1      45.673  29.838  29.047  1.00  0.00     0.049 A 
ATOM     36  H   UNL A   1      44.628  28.138  28.380  1.00  0.00     0.167 HD
ATOM     37  C   UNL A   1      43.279  30.511  29.346  1.00  0.00     0.074 A 
ATOM     38  C   UNL A   1      42.263  31.470  29.744  1.00  0.00     0.031 C 
ATOM     39  C   UNL A   1      44.614  30.742  29.420  1.00  0.00     0.031 A 
BRANCH  26  40
ATOM     40  C   UNL A   1      48.247  26.124  27.394  1.00  0.00    -0.014 A 
ATOM     41  C   UNL A   1      49.035  25.459  28.348  1.00  0.00     0.009 A 
ATOM     42  C   UNL A   1      48.784  26.365  26.120  1.00  0.00     0.009 A 
ATOM     43  C   UNL A   1      50.347  25.083  28.041  1.00  0.00     0.001 A 
ATOM     44  C   UNL A   1      50.086  25.967  25.808  1.00  0.00     0.001 A 
ATOM     45  C   UNL A   1      50.870  25.337  26.773  1.00  0.00     0.000 A 
ENDBRANCH  26  40
BRANCH  27  46
ATOM     46  C   UNL A   1      38.742  29.205  29.021  1.00  0.00    -0.014 A 
ATOM     47  C   UNL A   1      38.102  29.061  30.261  1.00  0.00     0.009 A 
ATOM     48  C   UNL A   1      38.018  29.775  27.957  1.00  0.00     0.009 A 
ATOM     49  C   UNL A   1      36.769  29.458  30.422  1.00  0.00     0.001 A 
ATOM     50  C   UNL A   1      36.701  30.203  28.129  1.00  0.00     0.001 A 
ATOM     51  C   UNL A   1      36.072  30.032  29.359  1.00  0.00     0.000 A 
ENDBRANCH  27  46
BRANCH  39  52
ATOM     52  C   UNL A   1      45.020  32.094  29.915  1.00  0.00    -0.014 A 
ATOM     53  C   UNL A   1      45.265  32.321  31.277  1.00  0.00     0.009 A 
ATOM     54  C   UNL A   1      45.198  33.138  28.996  1.00  0.00     0.009 A 
ATOM     55  C   UNL A   1      45.654  33.586  31.715  1.00  0.00     0.001 A 
ATOM     56  C   UNL A   1      45.613  34.393  29.433  1.00  0.00     0.001 A 
ATOM     57  C   UNL A   1      45.833  34.618  30.791  1.00  0.00     0.000 A 
ENDBRANCH  39  52
ENDBRANCH  13  14
ENDBRANCH   6   8
ENDBRANCH   5   6
ENDBRANCH   4   5
ENDBRANCH   3   4
ENDBRANCH   2   3
ENDBRANCH   1   2
BRANCH   1  58
ATOM     58  C   UNL A   1      35.705  22.630  23.760  1.00  0.00     0.261 C 
BRANCH  58  59
ATOM     59  O   UNL A   1      35.064  23.860  24.125  1.00  0.00    -0.463 OA
BRANCH  59  60
ATOM     60  C   UNL A   1      34.030  24.210  23.321  1.00  0.00     0.312 C 
ATOM     61  O   UNL A   1      33.933  23.885  22.140  1.00  0.00    -0.252 OA
BRANCH  60  62
ATOM     62  C   UNL A   1      32.997  25.080  24.031  1.00  0.00     0.072 C 
ATOM     63  C   UNL A   1      32.355  26.022  22.982  1.00  0.00     0.024 C 
ATOM     64  C   UNL A   1      33.898  25.927  24.972  1.00  0.00     0.054 C 
ATOM     65  C   UNL A   1      31.535  27.148  23.597  1.00  0.00     0.037 C 
ATOM     66  C   UNL A   1      33.347  27.270  25.368  1.00  0.00    -0.044 A 
ATOM     67  C   UNL A   1      32.267  27.863  24.697  1.00  0.00    -0.045 A 
ATOM     68  C   UNL A   1      34.004  27.977  26.385  1.00  0.00     0.004 A 
ATOM     69  C   UNL A   1      31.837  29.139  25.084  1.00  0.00     0.004 A 
ATOM     70  C   UNL A   1      33.576  29.250  26.751  1.00  0.00     0.000 A 
ATOM     71  C   UNL A   1      32.490  29.828  26.104  1.00  0.00     0.000 A 
BRANCH  62  72
ATOM     72  C   UNL A   1      31.950  24.291  24.900  1.00  0.00     0.019 C 
BRANCH  72  73
ATOM     73  C   UNL A   1      32.366  23.606  26.223  1.00  0.00     0.004 C 
BRANCH  73  74
ATOM     74  C   UNL A   1      32.840  22.146  26.191  1.00  0.00     0.028 C 
BRANCH  74  75
ATOM     75  C   UNL A   1      32.443  21.295  24.994  1.00  0.00     0.156 C 
BRANCH  75  76
ATOM     76  O   UNL A   1      31.775  20.117  25.405  1.00  0.00    -0.396 OA
ATOM     77  H   UNL A   1      32.207  19.344  25.010  1.00  0.00     0.210 HD
ENDBRANCH  75  76
ENDBRANCH  74  75
ENDBRANCH  73  74
ENDBRANCH  72  73
ENDBRANCH  62  72
ENDBRANCH  60  62
ENDBRANCH  59  60
ENDBRANCH  58  59
ENDBRANCH   1  58
TORSDOF 19
ENDMDL
MODEL 3
REMARK VINA RESULT:      -7.8      4.208      8.123
REMARK SMILES O=C(OCCOCCOC(=O)[C@]1(CCCCO)CCc2ccccc2C1)c1ccc(-c2c3nc(c(-c4ccccc4)c4ccc([nH]4)c(-c4ccccc4)c4nc(c(-c5ccccc5)c5ccc2[nH]5)C=C4)C=C3)cc1
REMARK SMILES IDX 7 1 6 2 5 3 4 4 3 5 2 6 1 7 27 8 28 9 74 10 29 11 73 12
REMARK SMILES IDX 30 13 31 14 32 15 67 16 33 17 72 18 66 19 68 20 34 21 71 22
REMARK SMILES IDX 65 23 64 24 35 26 57 27 42 28 56 29 43 30 46 31 55 32 69 33
REMARK SMILES IDX 44 34 45 35 54 37 70 38 47 39 36 40 37 41 41 42 38 43 40 44
REMARK SMILES IDX 39 45 58 46 59 47 63 48 60 49 62 50 61 51 48 52 49 53 53 54
REMARK SMILES IDX 50 55 52 56 51 57 8 58 9 59 10 60 11 61 12 62 18 63 26 64
REMARK SMILES IDX 19 65 25 66 20 67 24 68 21 69 23 70 22 71 13 72 14 73 15 74
REMARK SMILES IDX 16 75 17 76
REMARK H PARENT 68 25 46 36 17 77
REMARK Flexibility Score: inf
ROOT
ATOM      1  C   UNL A   1      34.972  23.842  23.725  1.00  0.00     0.202 C 
ENDROOT
BRANCH   1   2
ATOM      2  O   UNL A   1      34.522  22.703  24.467  1.00  0.00    -0.374 OA
BRANCH   2   3
ATOM      3  C   UNL A   1      35.389  21.570  24.594  1.00  0.00     0.202 C 
BRANCH   3   4
ATOM      4  C   UNL A   1      36.922  21.771  24.539  1.00  0.00     0.261 C 
BRANCH   4   5
ATOM      5  O   UNL A   1      37.592  21.367  25.756  1.00  0.00    -0.460 OA
BRANCH   5   6
ATOM      6  C   UNL A   1      38.925  21.395  26.028  1.00  0.00     0.338 C 
ATOM      7  O   UNL A   1      39.617  20.408  25.805  1.00  0.00    -0.246 OA
BRANCH   6   8
ATOM      8  C   UNL A   1      39.564  22.589  26.645  1.00  0.00     0.060 A 
ATOM      9  C   UNL A   1      39.121  23.871  26.372  1.00  0.00     0.016 A 
ATOM     10  C   UNL A   1      40.604  22.448  27.573  1.00  0.00     0.016 A 
ATOM     11  C   UNL A   1      39.704  24.993  26.880  1.00  0.00     0.010 A 
ATOM     12  C   UNL A   1      41.185  23.585  28.158  1.00  0.00     0.010 A 
ATOM     13  C   UNL A   1      40.730  24.858  27.792  1.00  0.00    -0.014 A 
BRANCH  13  14
ATOM     14  C   UNL A   1      41.348  26.134  28.152  1.00  0.00     0.031 A 
ATOM     15  C   UNL A   1      42.644  26.471  27.492  1.00  0.00     0.074 A 
ATOM     16  C   UNL A   1      40.577  27.064  28.747  1.00  0.00     0.049 A 
ATOM     17  N   UNL A   1      43.374  27.541  27.616  1.00  0.00    -0.248 NA
ATOM     18  C   UNL A   1      43.174  25.483  26.531  1.00  0.00     0.031 C 
ATOM     19  C   UNL A   1      39.177  26.866  29.159  1.00  0.00     0.029 A 
ATOM     20  N   UNL A   1      40.813  28.382  29.016  1.00  0.00    -0.354 N 
ATOM     21  C   UNL A   1      44.476  27.329  26.801  1.00  0.00     0.074 A 
ATOM     22  C   UNL A   1      44.309  26.050  26.157  1.00  0.00     0.031 C 
ATOM     23  C   UNL A   1      38.672  28.036  29.579  1.00  0.00     0.029 A 
ATOM     24  C   UNL A   1      39.738  29.026  29.576  1.00  0.00     0.049 A 
ATOM     25  H   UNL A   1      41.671  28.825  28.826  1.00  0.00     0.167 HD
ATOM     26  C   UNL A   1      45.547  28.138  26.648  1.00  0.00     0.031 A 
ATOM     27  C   UNL A   1      39.659  30.268  30.086  1.00  0.00     0.031 A 
ATOM     28  C   UNL A   1      45.656  29.397  27.329  1.00  0.00     0.049 A 
ATOM     29  C   UNL A   1      40.918  31.087  30.041  1.00  0.00     0.074 A 
ATOM     30  C   UNL A   1      46.733  30.254  27.418  1.00  0.00     0.029 A 
ATOM     31  N   UNL A   1      44.613  29.976  28.043  1.00  0.00    -0.354 N 
ATOM     32  N   UNL A   1      42.054  30.815  29.438  1.00  0.00    -0.248 NA
ATOM     33  C   UNL A   1      40.907  32.355  30.772  1.00  0.00     0.031 C 
ATOM     34  C   UNL A   1      46.351  31.335  28.223  1.00  0.00     0.029 A 
ATOM     35  C   UNL A   1      45.020  31.176  28.587  1.00  0.00     0.049 A 
ATOM     36  H   UNL A   1      43.714  29.586  28.145  1.00  0.00     0.167 HD
ATOM     37  C   UNL A   1      42.898  31.875  29.720  1.00  0.00     0.074 A 
ATOM     38  C   UNL A   1      42.125  32.811  30.518  1.00  0.00     0.031 C 
ATOM     39  C   UNL A   1      44.195  32.062  29.371  1.00  0.00     0.031 A 
BRANCH  26  40
ATOM     40  C   UNL A   1      46.688  27.596  25.839  1.00  0.00    -0.014 A 
ATOM     41  C   UNL A   1      46.858  27.918  24.483  1.00  0.00     0.009 A 
ATOM     42  C   UNL A   1      47.559  26.667  26.430  1.00  0.00     0.009 A 
ATOM     43  C   UNL A   1      47.854  27.290  23.728  1.00  0.00     0.001 A 
ATOM     44  C   UNL A   1      48.567  26.059  25.679  1.00  0.00     0.001 A 
ATOM     45  C   UNL A   1      48.706  26.362  24.326  1.00  0.00     0.000 A 
ENDBRANCH  26  40
BRANCH  27  46
ATOM     46  C   UNL A   1      38.431  30.731  30.786  1.00  0.00    -0.014 A 
ATOM     47  C   UNL A   1      38.230  30.488  32.153  1.00  0.00     0.009 A 
ATOM     48  C   UNL A   1      37.427  31.414  30.074  1.00  0.00     0.009 A 
ATOM     49  C   UNL A   1      37.048  30.899  32.781  1.00  0.00     0.001 A 
ATOM     50  C   UNL A   1      36.266  31.856  30.710  1.00  0.00     0.001 A 
ATOM     51  C   UNL A   1      36.071  31.586  32.061  1.00  0.00     0.000 A 
ENDBRANCH  27  46
BRANCH  39  52
ATOM     52  C   UNL A   1      44.821  33.341  29.830  1.00  0.00    -0.014 A 
ATOM     53  C   UNL A   1      44.554  34.551  29.175  1.00  0.00     0.009 A 
ATOM     54  C   UNL A   1      45.654  33.332  30.958  1.00  0.00     0.009 A 
ATOM     55  C   UNL A   1      45.140  35.733  29.627  1.00  0.00     0.001 A 
ATOM     56  C   UNL A   1      46.215  34.518  31.423  1.00  0.00     0.001 A 
ATOM     57  C   UNL A   1      45.964  35.715  30.754  1.00  0.00     0.000 A 
ENDBRANCH  39  52
ENDBRANCH  13  14
ENDBRANCH   6   8
ENDBRANCH   5   6
ENDBRANCH   4   5
ENDBRANCH   3   4
ENDBRANCH   2   3
ENDBRANCH   1   2
BRANCH   1  58
ATOM     58  C   UNL A   1      33.833  24.558  23.004  1.00  0.00     0.261 C 
BRANCH  58  59
ATOM     59  O   UNL A   1      33.755  25.918  23.452  1.00  0.00    -0.463 OA
BRANCH  59  60
ATOM     60  C   UNL A   1      32.532  26.484  23.306  1.00  0.00     0.312 C 
ATOM     61  O   UNL A   1      31.841  26.384  22.295  1.00  0.00    -0.252 OA
BRANCH  60  62
ATOM     62  C   UNL A   1      32.102  27.288  24.530  1.00  0.00     0.072 C 
ATOM     63  C   UNL A   1      31.614  28.678  24.048  1.00  0.00     0.024 C 
ATOM     64  C   UNL A   1      33.454  27.468  25.274  1.00  0.00     0.054 C 
ATOM     65  C   UNL A   1      31.446  29.687  25.176  1.00  0.00     0.037 C 
ATOM     66  C   UNL A   1      33.553  28.677  26.164  1.00  0.00    -0.044 A 
ATOM     67  C   UNL A   1      32.637  29.738  26.090  1.00  0.00    -0.045 A 
ATOM     68  C   UNL A   1      34.653  28.771  27.028  1.00  0.00     0.004 A 
ATOM     69  C   UNL A   1      32.817  30.858  26.912  1.00  0.00     0.004 A 
ATOM     70  C   UNL A   1      34.829  29.895  27.829  1.00  0.00     0.000 A 
ATOM     71  C   UNL A   1      33.909  30.935  27.774  1.00  0.00     0.000 A 
BRANCH  62  72
ATOM     72  C   UNL A   1      31.088  26.555  25.482  1.00  0.00     0.019 C 
BRANCH  72  73
ATOM     73  C   UNL A   1      31.514  25.309  26.294  1.00  0.00     0.004 C 
BRANCH  73  74
ATOM     74  C   UNL A   1      31.273  23.914  25.701  1.00  0.00     0.028 C 
BRANCH  74  75
ATOM     75  C   UNL A   1      31.355  22.718  26.637  1.00  0.00     0.156 C 
BRANCH  75  76
ATOM     76  O   UNL A   1      30.420  22.833  27.694  1.00  0.00    -0.396 OA
ATOM     77  H   UNL A   1      29.649  22.275  27.508  1.00  0.00     0.210 HD
ENDBRANCH  75  76
ENDBRANCH  74  75
ENDBRANCH  73  74
ENDBRANCH  72  73
ENDBRANCH  62  72
ENDBRANCH  60  62
ENDBRANCH  59  60
ENDBRANCH  58  59
ENDBRANCH   1  58
TORSDOF 19
ENDMDL
