MODEL 1
REMARK VINA RESULT:     -11.7      0.000      0.000
REMARK SMILES O=C(OCCOCCOC(=O)c1ccc([C@@H]2CC(O)=Nc3c2ncn3-c2cccc(Cl)c2)cc1)c1ccc(-c2c3nc(c(-c4ccccc4)c4ccc([nH]4)c(-c4ccccc4)c4nc(c(-c5ccccc5)c5ccc2[nH]5)C=C4)C=C3)cc1
REMARK SMILES IDX 6 1 5 2 4 3 3 4 2 5 1 6 35 7 36 8 82 9 37 10 81 11 38 12
REMARK SMILES IDX 39 13 40 14 75 15 41 16 80 17 74 18 76 19 42 20 79 21 73 22
REMARK SMILES IDX 72 23 43 25 65 26 50 27 64 28 51 29 54 30 63 31 77 32 52 33
REMARK SMILES IDX 53 34 62 36 78 37 55 38 44 39 45 40 49 41 46 42 48 43 47 44
REMARK SMILES IDX 66 45 67 46 71 47 68 48 70 49 69 50 56 51 57 52 61 53 58 54
REMARK SMILES IDX 60 55 59 56 7 57 8 58 9 59 10 60 11 61 12 62 13 63 34 64
REMARK SMILES IDX 14 65 33 66 15 67 16 68 17 69 22 70 18 71 21 72 23 73 20 74
REMARK SMILES IDX 25 75 24 76 19 77 26 79 27 80 32 81 28 82 30 83 29 84 31 85
REMARK H PARENT 76 24 54 35 19 78
REMARK Flexibility Score: inf
ROOT
ATOM      1  O   UNL A   1      31.762  29.563  24.890  1.00  0.00    -0.374 OA
ENDROOT
BRANCH   1   2
ATOM      2  C   UNL A   1      31.909  29.634  26.304  1.00  0.00     0.202 C 
BRANCH   2   3
ATOM      3  C   UNL A   1      32.718  30.787  26.894  1.00  0.00     0.261 C 
BRANCH   3   4
ATOM      4  O   UNL A   1      34.062  30.428  27.257  1.00  0.00    -0.460 OA
BRANCH   4   5
ATOM      5  C   UNL A   1      35.019  31.295  27.650  1.00  0.00     0.338 C 
ATOM      6  O   UNL A   1      34.794  32.502  27.667  1.00  0.00    -0.246 OA
BRANCH   5   7
ATOM      7  C   UNL A   1      36.230  30.775  28.333  1.00  0.00     0.060 A 
ATOM      8  C   UNL A   1      37.208  31.554  28.949  1.00  0.00     0.016 A 
ATOM      9  C   UNL A   1      36.440  29.393  28.198  1.00  0.00     0.016 A 
ATOM     10  C   UNL A   1      38.476  31.043  29.124  1.00  0.00     0.010 A 
ATOM     11  C   UNL A   1      37.686  28.855  28.437  1.00  0.00     0.010 A 
ATOM     12  C   UNL A   1      38.719  29.713  28.788  1.00  0.00    -0.014 A 
BRANCH  12  13
ATOM     13  C   UNL A   1      40.067  29.214  28.951  1.00  0.00     0.031 A 
ATOM     14  C   UNL A   1      40.440  29.029  30.373  1.00  0.00     0.074 A 
ATOM     15  C   UNL A   1      40.851  28.890  27.907  1.00  0.00     0.049 A 
ATOM     16  N   UNL A   1      41.296  29.717  31.050  1.00  0.00    -0.248 NA
ATOM     17  C   UNL A   1      39.629  28.107  31.184  1.00  0.00     0.031 C 
ATOM     18  C   UNL A   1      40.493  28.807  26.488  1.00  0.00     0.029 A 
ATOM     19  N   UNL A   1      42.137  28.455  27.915  1.00  0.00    -0.354 N 
ATOM     20  C   UNL A   1      41.286  29.174  32.329  1.00  0.00     0.074 A 
ATOM     21  C   UNL A   1      40.124  28.325  32.403  1.00  0.00     0.031 C 
ATOM     22  C   UNL A   1      41.445  28.102  25.831  1.00  0.00     0.029 A 
ATOM     23  C   UNL A   1      42.536  27.818  26.749  1.00  0.00     0.049 A 
ATOM     24  H   UNL A   1      42.737  28.582  28.686  1.00  0.00     0.167 HD
ATOM     25  C   UNL A   1      42.380  29.252  33.133  1.00  0.00     0.031 A 
ATOM     26  C   UNL A   1      43.650  27.058  26.588  1.00  0.00     0.031 A 
ATOM     27  C   UNL A   1      43.312  30.244  32.662  1.00  0.00     0.049 A 
ATOM     28  C   UNL A   1      44.581  27.401  27.690  1.00  0.00     0.074 A 
ATOM     29  C   UNL A   1      43.263  31.610  32.469  1.00  0.00     0.029 A 
ATOM     30  N   UNL A   1      44.374  29.788  31.917  1.00  0.00    -0.354 N 
ATOM     31  N   UNL A   1      45.168  28.559  27.790  1.00  0.00    -0.248 NA
ATOM     32  C   UNL A   1      44.476  26.644  28.930  1.00  0.00     0.031 C 
ATOM     33  C   UNL A   1      43.988  31.835  31.263  1.00  0.00     0.029 A 
ATOM     34  C   UNL A   1      44.511  30.614  30.832  1.00  0.00     0.049 A 
ATOM     35  H   UNL A   1      44.937  29.009  32.128  1.00  0.00     0.167 HD
ATOM     36  C   UNL A   1      45.085  28.877  29.138  1.00  0.00     0.074 A 
ATOM     37  C   UNL A   1      44.734  27.623  29.805  1.00  0.00     0.031 C 
ATOM     38  C   UNL A   1      45.013  30.178  29.549  1.00  0.00     0.031 A 
BRANCH  25  39
ATOM     39  C   UNL A   1      42.810  28.128  34.040  1.00  0.00    -0.014 A 
ATOM     40  C   UNL A   1      43.358  26.971  33.459  1.00  0.00     0.009 A 
ATOM     41  C   UNL A   1      42.420  28.036  35.390  1.00  0.00     0.009 A 
ATOM     42  C   UNL A   1      43.431  25.767  34.169  1.00  0.00     0.001 A 
ATOM     43  C   UNL A   1      42.527  26.848  36.113  1.00  0.00     0.001 A 
ATOM     44  C   UNL A   1      43.005  25.704  35.492  1.00  0.00     0.000 A 
ENDBRANCH  25  39
BRANCH  26  45
ATOM     45  C   UNL A   1      43.835  25.845  25.759  1.00  0.00    -0.014 A 
ATOM     46  C   UNL A   1      45.116  25.443  25.343  1.00  0.00     0.009 A 
ATOM     47  C   UNL A   1      42.784  24.920  25.615  1.00  0.00     0.009 A 
ATOM     48  C   UNL A   1      45.342  24.152  24.843  1.00  0.00     0.001 A 
ATOM     49  C   UNL A   1      43.009  23.632  25.114  1.00  0.00     0.001 A 
ATOM     50  C   UNL A   1      44.292  23.243  24.742  1.00  0.00     0.000 A 
ENDBRANCH  26  45
BRANCH  38  51
ATOM     51  C   UNL A   1      45.254  31.258  28.523  1.00  0.00    -0.014 A 
ATOM     52  C   UNL A   1      46.524  31.792  28.239  1.00  0.00     0.009 A 
ATOM     53  C   UNL A   1      44.177  31.637  27.709  1.00  0.00     0.009 A 
ATOM     54  C   UNL A   1      46.700  32.700  27.188  1.00  0.00     0.001 A 
ATOM     55  C   UNL A   1      44.356  32.525  26.647  1.00  0.00     0.001 A 
ATOM     56  C   UNL A   1      45.616  33.062  26.390  1.00  0.00     0.000 A 
ENDBRANCH  38  51
ENDBRANCH  12  13
ENDBRANCH   5   7
ENDBRANCH   4   5
ENDBRANCH   3   4
ENDBRANCH   2   3
ENDBRANCH   1   2
BRANCH   1  57
ATOM     57  C   UNL A   1      30.547  30.071  24.323  1.00  0.00     0.202 C 
BRANCH  57  58
ATOM     58  C   UNL A   1      29.755  29.243  23.296  1.00  0.00     0.261 C 
BRANCH  58  59
ATOM     59  O   UNL A   1      30.405  28.016  22.927  1.00  0.00    -0.460 OA
BRANCH  59  60
ATOM     60  C   UNL A   1      29.871  26.911  23.507  1.00  0.00     0.338 C 
ATOM     61  O   UNL A   1      28.715  26.738  23.830  1.00  0.00    -0.246 OA
BRANCH  60  62
ATOM     62  C   UNL A   1      30.858  25.813  23.486  1.00  0.00     0.060 A 
ATOM     63  C   UNL A   1      30.378  24.535  23.184  1.00  0.00     0.016 A 
ATOM     64  C   UNL A   1      32.197  26.012  23.814  1.00  0.00     0.016 A 
ATOM     65  C   UNL A   1      31.220  23.435  23.277  1.00  0.00     0.005 A 
ATOM     66  C   UNL A   1      33.031  24.899  23.952  1.00  0.00     0.005 A 
ATOM     67  C   UNL A   1      32.539  23.597  23.727  1.00  0.00    -0.038 A 
BRANCH  67  68
ATOM     68  C   UNL A   1      33.288  22.347  24.149  1.00  0.00     0.081 C 
ATOM     69  C   UNL A   1      32.791  21.891  25.540  1.00  0.00     0.111 C 
ATOM     70  C   UNL A   1      34.735  22.644  24.151  1.00  0.00     0.093 A 
ATOM     71  C   UNL A   1      33.775  22.123  26.674  1.00  0.00     0.188 C 
ATOM     72  C   UNL A   1      35.471  22.581  25.311  1.00  0.00     0.164 A 
ATOM     73  N   UNL A   1      35.497  23.025  23.082  1.00  0.00    -0.238 NA
ATOM     74  N   UNL A   1      35.039  22.381  26.580  1.00  0.00    -0.198 NA
ATOM     75  N   UNL A   1      36.758  22.910  24.938  1.00  0.00    -0.283 N 
ATOM     76  C   UNL A   1      36.695  23.228  23.595  1.00  0.00     0.206 A 
BRANCH  71  77
ATOM     77  O   UNL A   1      33.240  21.990  27.903  1.00  0.00    -0.496 OA
ATOM     78  H   UNL A   1      33.698  22.317  28.652  1.00  0.00     0.294 HD
ENDBRANCH  71  77
BRANCH  75  79
ATOM     79  C   UNL A   1      37.908  22.902  25.755  1.00  0.00     0.050 A 
ATOM     80  C   UNL A   1      38.692  21.748  25.860  1.00  0.00     0.027 A 
ATOM     81  C   UNL A   1      38.250  24.063  26.460  1.00  0.00     0.047 A 
ATOM     82  C   UNL A   1      39.844  21.775  26.646  1.00  0.00     0.004 A 
ATOM     83  C   UNL A   1      39.372  24.058  27.282  1.00  0.00     0.043 A 
ATOM     84  C   UNL A   1      40.179  22.925  27.366  1.00  0.00     0.020 A 
ATOM     85  Cl  UNL A   1      39.751  25.453  28.215  1.00  0.00    -0.084 Cl
ENDBRANCH  75  79
ENDBRANCH  67  68
ENDBRANCH  60  62
ENDBRANCH  59  60
ENDBRANCH  58  59
ENDBRANCH  57  58
ENDBRANCH   1  57
TORSDOF 17
ENDMDL
MODEL 2
REMARK VINA RESULT:     -11.5      3.339      5.191
REMARK SMILES O=C(OCCOCCOC(=O)c1ccc([C@@H]2CC(O)=Nc3c2ncn3-c2cccc(Cl)c2)cc1)c1ccc(-c2c3nc(c(-c4ccccc4)c4ccc([nH]4)c(-c4ccccc4)c4nc(c(-c5ccccc5)c5ccc2[nH]5)C=C4)C=C3)cc1
REMARK SMILES IDX 6 1 5 2 4 3 3 4 2 5 1 6 35 7 36 8 82 9 37 10 81 11 38 12
REMARK SMILES IDX 39 13 40 14 75 15 41 16 80 17 74 18 76 19 42 20 79 21 73 22
REMARK SMILES IDX 72 23 43 25 65 26 50 27 64 28 51 29 54 30 63 31 77 32 52 33
REMARK SMILES IDX 53 34 62 36 78 37 55 38 44 39 45 40 49 41 46 42 48 43 47 44
REMARK SMILES IDX 66 45 67 46 71 47 68 48 70 49 69 50 56 51 57 52 61 53 58 54
REMARK SMILES IDX 60 55 59 56 7 57 8 58 9 59 10 60 11 61 12 62 13 63 34 64
REMARK SMILES IDX 14 65 33 66 15 67 16 68 17 69 22 70 18 71 21 72 23 73 20 74
REMARK SMILES IDX 25 75 24 76 19 77 26 79 27 80 32 81 28 82 30 83 29 84 31 85
REMARK H PARENT 76 24 54 35 19 78
REMARK Flexibility Score: inf
ROOT
ATOM      1  O   UNL A   1      33.432  34.511  29.533  1.00  0.00    -0.374 OA
ENDROOT
BRANCH   1   2
ATOM      2  C   UNL A   1      33.221  35.919  29.520  1.00  0.00     0.202 C 
BRANCH   2   3
ATOM      3  C   UNL A   1      32.538  36.562  30.724  1.00  0.00     0.261 C 
BRANCH   3   4
ATOM      4  O   UNL A   1      33.217  36.331  31.970  1.00  0.00    -0.460 OA
BRANCH   4   5
ATOM      5  C   UNL A   1      33.204  35.170  32.659  1.00  0.00     0.338 C 
ATOM      6  O   UNL A   1      32.144  34.584  32.868  1.00  0.00    -0.246 OA
BRANCH   5   7
ATOM      7  C   UNL A   1      34.483  34.461  32.906  1.00  0.00     0.060 A 
ATOM      8  C   UNL A   1      35.700  35.070  33.207  1.00  0.00     0.016 A 
ATOM      9  C   UNL A   1      34.452  33.078  32.666  1.00  0.00     0.016 A 
ATOM     10  C   UNL A   1      36.878  34.402  32.954  1.00  0.00     0.010 A 
ATOM     11  C   UNL A   1      35.626  32.380  32.481  1.00  0.00     0.010 A 
ATOM     12  C   UNL A   1      36.823  33.080  32.515  1.00  0.00    -0.014 A 
BRANCH  12  13
ATOM     13  C   UNL A   1      38.074  32.415  32.227  1.00  0.00     0.031 A 
ATOM     14  C   UNL A   1      38.905  32.211  33.436  1.00  0.00     0.074 A 
ATOM     15  C   UNL A   1      38.392  31.972  30.997  1.00  0.00     0.049 A 
ATOM     16  N   UNL A   1      40.019  32.794  33.725  1.00  0.00    -0.248 NA
ATOM     17  C   UNL A   1      38.336  31.416  34.538  1.00  0.00     0.031 C 
ATOM     18  C   UNL A   1      37.546  31.908  29.802  1.00  0.00     0.029 A 
ATOM     19  N   UNL A   1      39.538  31.375  30.582  1.00  0.00    -0.354 N 
ATOM     20  C   UNL A   1      40.402  32.282  34.959  1.00  0.00     0.074 A 
ATOM     21  C   UNL A   1      39.254  31.592  35.489  1.00  0.00     0.031 C 
ATOM     22  C   UNL A   1      38.115  31.074  28.899  1.00  0.00     0.029 A 
ATOM     23  C   UNL A   1      39.420  30.669  29.393  1.00  0.00     0.049 A 
ATOM     24  H   UNL A   1      40.384  31.437  31.084  1.00  0.00     0.167 HD
ATOM     25  C   UNL A   1      41.712  32.233  35.320  1.00  0.00     0.031 A 
ATOM     26  C   UNL A   1      40.310  29.768  28.900  1.00  0.00     0.031 A 
ATOM     27  C   UNL A   1      42.522  33.087  34.490  1.00  0.00     0.049 A 
ATOM     28  C   UNL A   1      41.605  30.008  29.582  1.00  0.00     0.074 A 
ATOM     29  C   UNL A   1      42.564  34.444  34.240  1.00  0.00     0.029 A 
ATOM     30  N   UNL A   1      43.190  32.484  33.451  1.00  0.00    -0.354 N 
ATOM     31  N   UNL A   1      42.317  31.083  29.395  1.00  0.00    -0.248 NA
ATOM     32  C   UNL A   1      41.863  29.296  30.825  1.00  0.00     0.031 C 
ATOM     33  C   UNL A   1      42.833  34.549  32.844  1.00  0.00     0.029 A 
ATOM     34  C   UNL A   1      43.026  33.263  32.337  1.00  0.00     0.049 A 
ATOM     35  H   UNL A   1      43.698  31.642  33.501  1.00  0.00     0.167 HD
ATOM     36  C   UNL A   1      42.757  31.434  30.663  1.00  0.00     0.074 A 
ATOM     37  C   UNL A   1      42.525  30.250  31.490  1.00  0.00     0.031 C 
ATOM     38  C   UNL A   1      42.984  32.742  30.989  1.00  0.00     0.031 A 
BRANCH  25  39
ATOM     39  C   UNL A   1      42.306  31.081  36.089  1.00  0.00    -0.014 A 
ATOM     40  C   UNL A   1      43.407  31.331  36.926  1.00  0.00     0.009 A 
ATOM     41  C   UNL A   1      42.028  29.733  35.791  1.00  0.00     0.009 A 
ATOM     42  C   UNL A   1      44.233  30.290  37.368  1.00  0.00     0.001 A 
ATOM     43  C   UNL A   1      42.826  28.689  36.262  1.00  0.00     0.001 A 
ATOM     44  C   UNL A   1      43.948  28.972  37.027  1.00  0.00     0.000 A 
ENDBRANCH  25  39
BRANCH  26  45
ATOM     45  C   UNL A   1      40.047  28.525  28.138  1.00  0.00    -0.014 A 
ATOM     46  C   UNL A   1      40.775  28.226  26.974  1.00  0.00     0.009 A 
ATOM     47  C   UNL A   1      39.284  27.492  28.711  1.00  0.00     0.009 A 
ATOM     48  C   UNL A   1      40.769  26.933  26.429  1.00  0.00     0.001 A 
ATOM     49  C   UNL A   1      39.276  26.202  28.168  1.00  0.00     0.001 A 
ATOM     50  C   UNL A   1      40.031  25.918  27.035  1.00  0.00     0.000 A 
ENDBRANCH  26  45
BRANCH  38  51
ATOM     51  C   UNL A   1      42.966  33.762  29.878  1.00  0.00    -0.014 A 
ATOM     52  C   UNL A   1      44.022  33.935  28.964  1.00  0.00     0.009 A 
ATOM     53  C   UNL A   1      41.773  34.464  29.656  1.00  0.00     0.009 A 
ATOM     54  C   UNL A   1      43.891  34.809  27.877  1.00  0.00     0.001 A 
ATOM     55  C   UNL A   1      41.635  35.319  28.561  1.00  0.00     0.001 A 
ATOM     56  C   UNL A   1      42.696  35.496  27.675  1.00  0.00     0.000 A 
ENDBRANCH  38  51
ENDBRANCH  12  13
ENDBRANCH   5   7
ENDBRANCH   4   5
ENDBRANCH   3   4
ENDBRANCH   2   3
ENDBRANCH   1   2
BRANCH   1  57
ATOM     57  C   UNL A   1      33.669  33.865  28.274  1.00  0.00     0.202 C 
BRANCH  57  58
ATOM     58  C   UNL A   1      34.215  32.428  28.221  1.00  0.00     0.261 C 
BRANCH  58  59
ATOM     59  O   UNL A   1      33.344  31.511  27.540  1.00  0.00    -0.460 OA
BRANCH  59  60
ATOM     60  C   UNL A   1      33.919  30.317  27.247  1.00  0.00     0.338 C 
ATOM     61  O   UNL A   1      35.023  29.934  27.573  1.00  0.00    -0.246 OA
BRANCH  60  62
ATOM     62  C   UNL A   1      32.912  29.411  26.659  1.00  0.00     0.060 A 
ATOM     63  C   UNL A   1      32.680  28.203  27.323  1.00  0.00     0.016 A 
ATOM     64  C   UNL A   1      32.261  29.703  25.462  1.00  0.00     0.016 A 
ATOM     65  C   UNL A   1      31.848  27.246  26.758  1.00  0.00     0.005 A 
ATOM     66  C   UNL A   1      31.461  28.721  24.872  1.00  0.00     0.005 A 
ATOM     67  C   UNL A   1      31.282  27.468  25.494  1.00  0.00    -0.038 A 
BRANCH  67  68
ATOM     68  C   UNL A   1      30.690  26.268  24.777  1.00  0.00     0.081 C 
ATOM     69  C   UNL A   1      29.681  25.556  25.708  1.00  0.00     0.111 C 
ATOM     70  C   UNL A   1      31.791  25.372  24.370  1.00  0.00     0.093 A 
ATOM     71  C   UNL A   1      30.156  24.222  26.257  1.00  0.00     0.188 C 
ATOM     72  C   UNL A   1      31.887  24.094  24.867  1.00  0.00     0.164 A 
ATOM     73  N   UNL A   1      32.819  25.669  23.520  1.00  0.00    -0.238 NA
ATOM     74  N   UNL A   1      31.142  23.501  25.833  1.00  0.00    -0.198 NA
ATOM     75  N   UNL A   1      33.013  23.561  24.276  1.00  0.00    -0.283 N 
ATOM     76  C   UNL A   1      33.565  24.581  23.524  1.00  0.00     0.206 A 
BRANCH  71  77
ATOM     77  O   UNL A   1      29.409  23.748  27.273  1.00  0.00    -0.496 OA
ATOM     78  H   UNL A   1      29.705  23.841  28.157  1.00  0.00     0.294 HD
ENDBRANCH  71  77
BRANCH  75  79
ATOM     79  C   UNL A   1      33.492  22.239  24.393  1.00  0.00     0.050 A 
ATOM     80  C   UNL A   1      34.746  21.990  24.960  1.00  0.00     0.027 A 
ATOM     81  C   UNL A   1      32.695  21.184  23.931  1.00  0.00     0.047 A 
ATOM     82  C   UNL A   1      35.183  20.671  25.097  1.00  0.00     0.004 A 
ATOM     83  C   UNL A   1      33.166  19.879  24.026  1.00  0.00     0.043 A 
ATOM     84  C   UNL A   1      34.399  19.617  24.620  1.00  0.00     0.020 A 
ATOM     85  Cl  UNL A   1      32.230  18.585  23.385  1.00  0.00    -0.084 Cl
ENDBRANCH  75  79
ENDBRANCH  67  68
ENDBRANCH  60  62
ENDBRANCH  59  60
ENDBRANCH  58  59
ENDBRANCH  57  58
ENDBRANCH   1  57
TORSDOF 17
ENDMDL
MODEL 3
REMARK VINA RESULT:     -11.2      2.787      4.895
REMARK SMILES O=C(OCCOCCOC(=O)c1ccc([C@@H]2CC(O)=Nc3c2ncn3-c2cccc(Cl)c2)cc1)c1ccc(-c2c3nc(c(-c4ccccc4)c4ccc([nH]4)c(-c4ccccc4)c4nc(c(-c5ccccc5)c5ccc2[nH]5)C=C4)C=C3)cc1
REMARK SMILES IDX 6 1 5 2 4 3 3 4 2 5 1 6 35 7 36 8 82 9 37 10 81 11 38 12
REMARK SMILES IDX 39 13 40 14 75 15 41 16 80 17 74 18 76 19 42 20 79 21 73 22
REMARK SMILES IDX 72 23 43 25 65 26 50 27 64 28 51 29 54 30 63 31 77 32 52 33
REMARK SMILES IDX 53 34 62 36 78 37 55 38 44 39 45 40 49 41 46 42 48 43 47 44
REMARK SMILES IDX 66 45 67 46 71 47 68 48 70 49 69 50 56 51 57 52 61 53 58 54
REMARK SMILES IDX 60 55 59 56 7 57 8 58 9 59 10 60 11 61 12 62 13 63 34 64
REMARK SMILES IDX 14 65 33 66 15 67 16 68 17 69 22 70 18 71 21 72 23 73 20 74
REMARK SMILES IDX 25 75 24 76 19 77 26 79 27 80 32 81 28 82 30 83 29 84 31 85
REMARK H PARENT 76 24 54 35 19 78
REMARK Flexibility Score: inf
ROOT
ATOM      1  O   UNL A   1      34.079  32.891  30.518  1.00  0.00    -0.374 OA
ENDROOT
BRANCH   1   2
ATOM      2  C   UNL A   1      35.143  32.355  31.298  1.00  0.00     0.202 C 
BRANCH   2   3
ATOM      3  C   UNL A   1      36.119  33.325  31.959  1.00  0.00     0.261 C 
BRANCH   3   4
ATOM      4  O   UNL A   1      37.493  32.909  31.883  1.00  0.00    -0.460 OA
BRANCH   4   5
ATOM      5  C   UNL A   1      38.296  33.069  30.810  1.00  0.00     0.338 C 
ATOM      6  O   UNL A   1      38.667  34.192  30.474  1.00  0.00    -0.246 OA
BRANCH   5   7
ATOM      7  C   UNL A   1      38.960  31.881  30.220  1.00  0.00     0.060 A 
ATOM      8  C   UNL A   1      38.316  30.717  29.804  1.00  0.00     0.016 A 
ATOM      9  C   UNL A   1      40.364  31.918  30.232  1.00  0.00     0.016 A 
ATOM     10  C   UNL A   1      39.023  29.538  29.723  1.00  0.00     0.010 A 
ATOM     11  C   UNL A   1      41.090  30.756  30.082  1.00  0.00     0.010 A 
ATOM     12  C   UNL A   1      40.399  29.560  29.944  1.00  0.00    -0.014 A 
BRANCH  12  13
ATOM     13  C   UNL A   1      41.110  28.302  29.885  1.00  0.00     0.031 A 
ATOM     14  C   UNL A   1      41.855  28.007  31.130  1.00  0.00     0.074 A 
ATOM     15  C   UNL A   1      41.026  27.472  28.829  1.00  0.00     0.049 A 
ATOM     16  N   UNL A   1      43.136  27.990  31.287  1.00  0.00    -0.248 NA
ATOM     17  C   UNL A   1      41.092  27.914  32.385  1.00  0.00     0.031 C 
ATOM     18  C   UNL A   1      40.134  27.558  27.669  1.00  0.00     0.029 A 
ATOM     19  N   UNL A   1      41.666  26.293  28.626  1.00  0.00    -0.354 N 
ATOM     20  C   UNL A   1      43.347  27.676  32.624  1.00  0.00     0.074 A 
ATOM     21  C   UNL A   1      42.074  27.824  33.283  1.00  0.00     0.031 C 
ATOM     22  C   UNL A   1      40.105  26.358  27.042  1.00  0.00     0.029 A 
ATOM     23  C   UNL A   1      41.079  25.479  27.666  1.00  0.00     0.049 A 
ATOM     24  H   UNL A   1      42.479  26.035  29.119  1.00  0.00     0.167 HD
ATOM     25  C   UNL A   1      44.488  27.056  33.027  1.00  0.00     0.031 A 
ATOM     26  C   UNL A   1      41.340  24.161  27.462  1.00  0.00     0.031 A 
ATOM     27  C   UNL A   1      45.518  27.141  32.024  1.00  0.00     0.049 A 
ATOM     28  C   UNL A   1      42.648  23.865  28.094  1.00  0.00     0.074 A 
ATOM     29  C   UNL A   1      46.204  28.176  31.421  1.00  0.00     0.029 A 
ATOM     30  N   UNL A   1      45.676  26.047  31.206  1.00  0.00    -0.354 N 
ATOM     31  N   UNL A   1      43.775  24.341  27.649  1.00  0.00    -0.248 NA
ATOM     32  C   UNL A   1      42.651  23.453  29.491  1.00  0.00     0.031 C 
ATOM     33  C   UNL A   1      46.333  27.782  30.057  1.00  0.00     0.029 A 
ATOM     34  C   UNL A   1      45.800  26.499  29.919  1.00  0.00     0.049 A 
ATOM     35  H   UNL A   1      45.697  25.106  31.495  1.00  0.00     0.167 HD
ATOM     36  C   UNL A   1      44.470  24.718  28.790  1.00  0.00     0.074 A 
ATOM     37  C   UNL A   1      43.770  24.064  29.896  1.00  0.00     0.031 C 
ATOM     38  C   UNL A   1      45.354  25.759  28.760  1.00  0.00     0.031 A 
BRANCH  25  39
ATOM     39  C   UNL A   1      44.508  25.992  34.094  1.00  0.00    -0.014 A 
ATOM     40  C   UNL A   1      43.968  24.730  33.792  1.00  0.00     0.009 A 
ATOM     41  C   UNL A   1      44.747  26.271  35.454  1.00  0.00     0.009 A 
ATOM     42  C   UNL A   1      43.609  23.833  34.805  1.00  0.00     0.001 A 
ATOM     43  C   UNL A   1      44.428  25.363  36.464  1.00  0.00     0.001 A 
ATOM     44  C   UNL A   1      43.829  24.154  36.140  1.00  0.00     0.000 A 
ENDBRANCH  25  39
BRANCH  26  45
ATOM     45  C   UNL A   1      40.408  23.084  27.053  1.00  0.00    -0.014 A 
ATOM     46  C   UNL A   1      39.103  23.383  26.626  1.00  0.00     0.009 A 
ATOM     47  C   UNL A   1      40.892  21.786  26.806  1.00  0.00     0.009 A 
ATOM     48  C   UNL A   1      38.330  22.432  25.944  1.00  0.00     0.001 A 
ATOM     49  C   UNL A   1      40.120  20.836  26.127  1.00  0.00     0.001 A 
ATOM     50  C   UNL A   1      38.844  21.164  25.682  1.00  0.00     0.000 A 
ENDBRANCH  26  45
BRANCH  38  51
ATOM     51  C   UNL A   1      45.725  26.335  27.416  1.00  0.00    -0.014 A 
ATOM     52  C   UNL A   1      46.957  26.096  26.780  1.00  0.00     0.009 A 
ATOM     53  C   UNL A   1      44.730  27.016  26.701  1.00  0.00     0.009 A 
ATOM     54  C   UNL A   1      47.190  26.553  25.477  1.00  0.00     0.001 A 
ATOM     55  C   UNL A   1      44.955  27.453  25.395  1.00  0.00     0.001 A 
ATOM     56  C   UNL A   1      46.187  27.227  24.785  1.00  0.00     0.000 A 
ENDBRANCH  38  51
ENDBRANCH  12  13
ENDBRANCH   5   7
ENDBRANCH   4   5
ENDBRANCH   3   4
ENDBRANCH   2   3
ENDBRANCH   1   2
BRANCH   1  57
ATOM     57  C   UNL A   1      34.428  33.701  29.387  1.00  0.00     0.202 C 
BRANCH  57  58
ATOM     58  C   UNL A   1      34.601  33.069  27.995  1.00  0.00     0.261 C 
BRANCH  58  59
ATOM     59  O   UNL A   1      33.676  32.003  27.732  1.00  0.00    -0.460 OA
BRANCH  59  60
ATOM     60  C   UNL A   1      34.267  30.806  27.484  1.00  0.00     0.338 C 
ATOM     61  O   UNL A   1      35.368  30.443  27.841  1.00  0.00    -0.246 OA
BRANCH  60  62
ATOM     62  C   UNL A   1      33.279  29.875  26.901  1.00  0.00     0.060 A 
ATOM     63  C   UNL A   1      33.400  28.525  27.246  1.00  0.00     0.016 A 
ATOM     64  C   UNL A   1      32.307  30.295  25.997  1.00  0.00     0.016 A 
ATOM     65  C   UNL A   1      32.593  27.576  26.635  1.00  0.00     0.005 A 
ATOM     66  C   UNL A   1      31.528  29.334  25.348  1.00  0.00     0.005 A 
ATOM     67  C   UNL A   1      31.694  27.962  25.629  1.00  0.00    -0.038 A 
BRANCH  67  68
ATOM     68  C   UNL A   1      31.112  26.865  24.758  1.00  0.00     0.081 C 
ATOM     69  C   UNL A   1      29.925  26.197  25.491  1.00  0.00     0.111 C 
ATOM     70  C   UNL A   1      32.181  25.896  24.444  1.00  0.00     0.093 A 
ATOM     71  C   UNL A   1      30.205  24.796  26.007  1.00  0.00     0.188 C 
ATOM     72  C   UNL A   1      32.099  24.588  24.860  1.00  0.00     0.164 A 
ATOM     73  N   UNL A   1      33.340  26.144  23.764  1.00  0.00    -0.238 NA
ATOM     74  N   UNL A   1      31.178  24.012  25.672  1.00  0.00    -0.198 NA
ATOM     75  N   UNL A   1      33.249  23.989  24.391  1.00  0.00    -0.283 N 
ATOM     76  C   UNL A   1      33.985  24.994  23.794  1.00  0.00     0.206 A 
BRANCH  71  77
ATOM     77  O   UNL A   1      29.285  24.336  26.876  1.00  0.00    -0.496 OA
ATOM     78  H   UNL A   1      28.988  23.449  26.820  1.00  0.00     0.294 HD
ENDBRANCH  71  77
BRANCH  75  79
ATOM     79  C   UNL A   1      33.595  22.623  24.482  1.00  0.00     0.050 A 
ATOM     80  C   UNL A   1      34.745  22.230  25.172  1.00  0.00     0.027 A 
ATOM     81  C   UNL A   1      32.771  21.672  23.867  1.00  0.00     0.047 A 
ATOM     82  C   UNL A   1      35.048  20.872  25.277  1.00  0.00     0.004 A 
ATOM     83  C   UNL A   1      33.114  20.326  23.934  1.00  0.00     0.043 A 
ATOM     84  C   UNL A   1      34.239  19.920  24.650  1.00  0.00     0.020 A 
ATOM     85  Cl  UNL A   1      32.153  19.159  23.111  1.00  0.00    -0.084 Cl
ENDBRANCH  75  79
ENDBRANCH  67  68
ENDBRANCH  60  62
ENDBRANCH  59  60
ENDBRANCH  58  59
ENDBRANCH  57  58
ENDBRANCH   1  57
TORSDOF 17
ENDMDL
