MODEL 1
REMARK VINA RESULT:      -9.9      0.000      0.000
REMARK SMILES O=C(OCCOCCOC(=O)[C@H](CCc1ccccn1)c1ccccc1Br)c1ccc(-c2c3nc(c(-c4ccccc4)c4ccc([nH]4)c(-c4ccccc4)c4nc(c(-c5ccccc5)c5ccc2[nH]5)C=C4)C=C3)cc1
REMARK SMILES IDX 7 1 6 2 5 3 4 4 3 5 2 6 1 7 28 8 29 9 75 10 30 11 74 12
REMARK SMILES IDX 31 13 32 14 33 15 68 16 34 17 73 18 67 19 69 20 35 21 72 22
REMARK SMILES IDX 66 23 65 24 36 26 58 27 43 28 57 29 44 30 47 31 56 32 70 33
REMARK SMILES IDX 45 34 46 35 55 37 71 38 48 39 37 40 38 41 42 42 39 43 41 44
REMARK SMILES IDX 40 45 59 46 60 47 64 48 61 49 63 50 62 51 49 52 50 53 54 54
REMARK SMILES IDX 51 55 53 56 52 57 8 58 9 59 10 60 11 61 12 62 21 63 22 64
REMARK SMILES IDX 26 65 23 66 25 67 27 68 24 69 13 70 14 71 15 72 16 73 20 74
REMARK SMILES IDX 17 75 19 76 18 77
REMARK H PARENT 69 25 47 36
REMARK Flexibility Score: inf
ROOT
ATOM      1  C   UNL A   1      37.146  21.846  24.695  1.00  0.00     0.202 C 
ENDROOT
BRANCH   1   2
ATOM      2  O   UNL A   1      36.821  20.461  24.805  1.00  0.00    -0.374 OA
BRANCH   2   3
ATOM      3  C   UNL A   1      37.904  19.547  24.961  1.00  0.00     0.202 C 
BRANCH   3   4
ATOM      4  C   UNL A   1      39.082  20.098  25.765  1.00  0.00     0.261 C 
BRANCH   4   5
ATOM      5  O   UNL A   1      40.201  19.211  25.672  1.00  0.00    -0.460 OA
BRANCH   5   6
ATOM      6  C   UNL A   1      41.493  19.511  25.933  1.00  0.00     0.338 C 
ATOM      7  O   UNL A   1      42.343  18.633  25.780  1.00  0.00    -0.246 OA
BRANCH   6   8
ATOM      8  C   UNL A   1      41.964  20.863  26.359  1.00  0.00     0.060 A 
ATOM      9  C   UNL A   1      42.270  21.931  25.508  1.00  0.00     0.016 A 
ATOM     10  C   UNL A   1      41.997  21.096  27.742  1.00  0.00     0.016 A 
ATOM     11  C   UNL A   1      42.566  23.191  25.987  1.00  0.00     0.010 A 
ATOM     12  C   UNL A   1      42.316  22.356  28.243  1.00  0.00     0.010 A 
ATOM     13  C   UNL A   1      42.595  23.400  27.356  1.00  0.00    -0.014 A 
BRANCH  13  14
ATOM     14  C   UNL A   1      43.099  24.688  27.826  1.00  0.00     0.031 A 
ATOM     15  C   UNL A   1      42.094  25.676  28.306  1.00  0.00     0.074 A 
ATOM     16  C   UNL A   1      44.421  24.896  27.902  1.00  0.00     0.049 A 
ATOM     17  N   UNL A   1      42.253  26.929  28.621  1.00  0.00    -0.248 NA
ATOM     18  C   UNL A   1      40.714  25.179  28.453  1.00  0.00     0.031 C 
ATOM     19  C   UNL A   1      45.452  23.897  27.607  1.00  0.00     0.029 A 
ATOM     20  N   UNL A   1      45.120  26.015  28.248  1.00  0.00    -0.354 N 
ATOM     21  C   UNL A   1      40.986  27.386  28.949  1.00  0.00     0.074 A 
ATOM     22  C   UNL A   1      40.071  26.277  28.813  1.00  0.00     0.031 C 
ATOM     23  C   UNL A   1      46.659  24.463  27.764  1.00  0.00     0.029 A 
ATOM     24  C   UNL A   1      46.475  25.872  28.090  1.00  0.00     0.049 A 
ATOM     25  H   UNL A   1      44.695  26.841  28.578  1.00  0.00     0.167 HD
ATOM     26  C   UNL A   1      40.631  28.642  29.297  1.00  0.00     0.031 A 
ATOM     27  C   UNL A   1      47.439  26.807  28.141  1.00  0.00     0.031 A 
ATOM     28  C   UNL A   1      41.583  29.713  29.379  1.00  0.00     0.049 A 
ATOM     29  C   UNL A   1      47.016  28.222  28.424  1.00  0.00     0.074 A 
ATOM     30  C   UNL A   1      41.372  31.048  29.654  1.00  0.00     0.029 A 
ATOM     31  N   UNL A   1      42.950  29.552  29.169  1.00  0.00    -0.354 N 
ATOM     32  N   UNL A   1      45.809  28.687  28.659  1.00  0.00    -0.248 NA
ATOM     33  C   UNL A   1      48.070  29.241  28.439  1.00  0.00     0.031 C 
ATOM     34  C   UNL A   1      42.604  31.704  29.555  1.00  0.00     0.029 A 
ATOM     35  C   UNL A   1      43.594  30.766  29.287  1.00  0.00     0.049 A 
ATOM     36  H   UNL A   1      43.393  28.696  28.967  1.00  0.00     0.167 HD
ATOM     37  C   UNL A   1      45.958  30.048  28.873  1.00  0.00     0.074 A 
ATOM     38  C   UNL A   1      47.377  30.331  28.743  1.00  0.00     0.031 C 
ATOM     39  C   UNL A   1      45.016  30.983  29.156  1.00  0.00     0.031 A 
BRANCH  26  40
ATOM     40  C   UNL A   1      39.162  28.903  29.470  1.00  0.00    -0.014 A 
ATOM     41  C   UNL A   1      38.345  29.302  28.400  1.00  0.00     0.009 A 
ATOM     42  C   UNL A   1      38.608  28.840  30.757  1.00  0.00     0.009 A 
ATOM     43  C   UNL A   1      37.022  29.693  28.628  1.00  0.00     0.001 A 
ATOM     44  C   UNL A   1      37.277  29.199  30.977  1.00  0.00     0.001 A 
ATOM     45  C   UNL A   1      36.490  29.642  29.916  1.00  0.00     0.000 A 
ENDBRANCH  26  40
BRANCH  27  46
ATOM     46  C   UNL A   1      48.845  26.433  27.842  1.00  0.00    -0.014 A 
ATOM     47  C   UNL A   1      49.720  26.032  28.862  1.00  0.00     0.009 A 
ATOM     48  C   UNL A   1      49.306  26.417  26.513  1.00  0.00     0.009 A 
ATOM     49  C   UNL A   1      51.025  25.631  28.557  1.00  0.00     0.001 A 
ATOM     50  C   UNL A   1      50.600  25.988  26.210  1.00  0.00     0.001 A 
ATOM     51  C   UNL A   1      51.461  25.600  27.233  1.00  0.00     0.000 A 
ENDBRANCH  27  46
BRANCH  39  52
ATOM     52  C   UNL A   1      45.497  32.382  29.397  1.00  0.00    -0.014 A 
ATOM     53  C   UNL A   1      45.545  33.325  28.362  1.00  0.00     0.009 A 
ATOM     54  C   UNL A   1      45.800  32.780  30.709  1.00  0.00     0.009 A 
ATOM     55  C   UNL A   1      45.900  34.646  28.637  1.00  0.00     0.001 A 
ATOM     56  C   UNL A   1      46.125  34.106  30.984  1.00  0.00     0.001 A 
ATOM     57  C   UNL A   1      46.178  35.037  29.949  1.00  0.00     0.000 A 
ENDBRANCH  39  52
ENDBRANCH  13  14
ENDBRANCH   6   8
ENDBRANCH   5   6
ENDBRANCH   4   5
ENDBRANCH   3   4
ENDBRANCH   2   3
ENDBRANCH   1   2
BRANCH   1  58
ATOM     58  C   UNL A   1      36.398  22.606  25.788  1.00  0.00     0.261 C 
BRANCH  58  59
ATOM     59  O   UNL A   1      35.492  23.508  25.143  1.00  0.00    -0.463 OA
BRANCH  59  60
ATOM     60  C   UNL A   1      34.310  23.737  25.807  1.00  0.00     0.313 C 
ATOM     61  O   UNL A   1      34.028  23.340  26.920  1.00  0.00    -0.252 OA
BRANCH  60  62
ATOM     62  C   UNL A   1      33.447  24.644  24.920  1.00  0.00     0.131 C 
BRANCH  62  63
ATOM     63  C   UNL A   1      33.049  25.855  25.751  1.00  0.00    -0.020 A 
ATOM     64  C   UNL A   1      34.042  26.845  25.932  1.00  0.00     0.006 A 
ATOM     65  C   UNL A   1      31.737  26.156  26.154  1.00  0.00     0.022 A 
ATOM     66  C   UNL A   1      33.734  28.094  26.465  1.00  0.00     0.000 A 
ATOM     67  C   UNL A   1      31.441  27.401  26.719  1.00  0.00     0.016 A 
ATOM     68  Br  UNL A   1      30.254  25.000  25.884  1.00  0.00    -0.051 Br
ATOM     69  C   UNL A   1      32.431  28.372  26.859  1.00  0.00     0.001 A 
ENDBRANCH  62  63
BRANCH  62  70
ATOM     70  C   UNL A   1      34.039  24.873  23.505  1.00  0.00     0.026 C 
BRANCH  70  71
ATOM     71  C   UNL A   1      33.008  25.269  22.425  1.00  0.00     0.057 C 
BRANCH  71  72
ATOM     72  C   UNL A   1      32.336  26.606  22.574  1.00  0.00     0.040 A 
ATOM     73  C   UNL A   1      33.057  27.792  22.624  1.00  0.00     0.024 A 
ATOM     74  N   UNL A   1      30.980  26.580  22.636  1.00  0.00    -0.261 NA
ATOM     75  C   UNL A   1      32.373  28.989  22.798  1.00  0.00     0.003 A 
ATOM     76  C   UNL A   1      30.339  27.762  22.767  1.00  0.00     0.111 A 
ATOM     77  C   UNL A   1      30.986  28.980  22.866  1.00  0.00     0.020 A 
ENDBRANCH  71  72
ENDBRANCH  70  71
ENDBRANCH  62  70
ENDBRANCH  60  62
ENDBRANCH  59  60
ENDBRANCH  58  59
ENDBRANCH   1  58
TORSDOF 18
ENDMDL
MODEL 2
REMARK VINA RESULT:      -9.7      4.012      7.662
REMARK SMILES O=C(OCCOCCOC(=O)[C@H](CCc1ccccn1)c1ccccc1Br)c1ccc(-c2c3nc(c(-c4ccccc4)c4ccc([nH]4)c(-c4ccccc4)c4nc(c(-c5ccccc5)c5ccc2[nH]5)C=C4)C=C3)cc1
REMARK SMILES IDX 7 1 6 2 5 3 4 4 3 5 2 6 1 7 28 8 29 9 75 10 30 11 74 12
REMARK SMILES IDX 31 13 32 14 33 15 68 16 34 17 73 18 67 19 69 20 35 21 72 22
REMARK SMILES IDX 66 23 65 24 36 26 58 27 43 28 57 29 44 30 47 31 56 32 70 33
REMARK SMILES IDX 45 34 46 35 55 37 71 38 48 39 37 40 38 41 42 42 39 43 41 44
REMARK SMILES IDX 40 45 59 46 60 47 64 48 61 49 63 50 62 51 49 52 50 53 54 54
REMARK SMILES IDX 51 55 53 56 52 57 8 58 9 59 10 60 11 61 12 62 21 63 22 64
REMARK SMILES IDX 26 65 23 66 25 67 27 68 24 69 13 70 14 71 15 72 16 73 20 74
REMARK SMILES IDX 17 75 19 76 18 77
REMARK H PARENT 69 25 47 36
REMARK Flexibility Score: inf
ROOT
ATOM      1  C   UNL A   1      38.941  21.879  26.016  1.00  0.00     0.202 C 
ENDROOT
BRANCH   1   2
ATOM      2  O   UNL A   1      39.877  20.807  26.116  1.00  0.00    -0.374 OA
BRANCH   2   3
ATOM      3  C   UNL A   1      41.046  21.033  26.900  1.00  0.00     0.202 C 
BRANCH   3   4
ATOM      4  C   UNL A   1      42.308  21.308  26.083  1.00  0.00     0.261 C 
BRANCH   4   5
ATOM      5  O   UNL A   1      42.129  22.475  25.274  1.00  0.00    -0.460 OA
BRANCH   5   6
ATOM      6  C   UNL A   1      42.726  23.675  25.444  1.00  0.00     0.338 C 
ATOM      7  O   UNL A   1      43.611  24.009  24.656  1.00  0.00    -0.246 OA
BRANCH   6   8
ATOM      8  C   UNL A   1      42.346  24.651  26.510  1.00  0.00     0.060 A 
ATOM      9  C   UNL A   1      41.394  24.441  27.514  1.00  0.00     0.016 A 
ATOM     10  C   UNL A   1      43.097  25.835  26.556  1.00  0.00     0.016 A 
ATOM     11  C   UNL A   1      41.202  25.340  28.544  1.00  0.00     0.010 A 
ATOM     12  C   UNL A   1      42.900  26.763  27.576  1.00  0.00     0.010 A 
ATOM     13  C   UNL A   1      41.950  26.504  28.569  1.00  0.00    -0.014 A 
BRANCH  13  14
ATOM     14  C   UNL A   1      41.586  27.514  29.559  1.00  0.00     0.031 A 
ATOM     15  C   UNL A   1      42.401  27.571  30.803  1.00  0.00     0.074 A 
ATOM     16  C   UNL A   1      40.618  28.398  29.279  1.00  0.00     0.049 A 
ATOM     17  N   UNL A   1      42.196  28.252  31.894  1.00  0.00    -0.248 NA
ATOM     18  C   UNL A   1      43.620  26.743  30.819  1.00  0.00     0.031 C 
ATOM     19  C   UNL A   1      39.905  28.495  28.002  1.00  0.00     0.029 A 
ATOM     20  N   UNL A   1      40.069  29.381  30.051  1.00  0.00    -0.354 N 
ATOM     21  C   UNL A   1      43.228  27.894  32.746  1.00  0.00     0.074 A 
ATOM     22  C   UNL A   1      44.068  26.950  32.046  1.00  0.00     0.031 C 
ATOM     23  C   UNL A   1      38.991  29.474  28.091  1.00  0.00     0.029 A 
ATOM     24  C   UNL A   1      39.009  30.008  29.447  1.00  0.00     0.049 A 
ATOM     25  H   UNL A   1      40.401  29.615  30.948  1.00  0.00     0.167 HD
ATOM     26  C   UNL A   1      43.421  28.302  34.019  1.00  0.00     0.031 A 
ATOM     27  C   UNL A   1      38.119  30.867  29.974  1.00  0.00     0.031 A 
ATOM     28  C   UNL A   1      42.529  29.216  34.675  1.00  0.00     0.049 A 
ATOM     29  C   UNL A   1      38.284  31.230  31.424  1.00  0.00     0.074 A 
ATOM     30  C   UNL A   1      42.552  29.674  35.976  1.00  0.00     0.029 A 
ATOM     31  N   UNL A   1      41.431  29.805  34.054  1.00  0.00    -0.354 N 
ATOM     32  N   UNL A   1      39.210  30.837  32.270  1.00  0.00    -0.248 NA
ATOM     33  C   UNL A   1      37.286  32.137  31.999  1.00  0.00     0.031 C 
ATOM     34  C   UNL A   1      41.434  30.497  36.158  1.00  0.00     0.029 A 
ATOM     35  C   UNL A   1      40.754  30.607  34.950  1.00  0.00     0.049 A 
ATOM     36  H   UNL A   1      41.175  29.671  33.113  1.00  0.00     0.167 HD
ATOM     37  C   UNL A   1      38.924  31.465  33.471  1.00  0.00     0.074 A 
ATOM     38  C   UNL A   1      37.737  32.270  33.240  1.00  0.00     0.031 C 
ATOM     39  C   UNL A   1      39.579  31.394  34.657  1.00  0.00     0.031 A 
BRANCH  26  40
ATOM     40  C   UNL A   1      44.547  27.653  34.771  1.00  0.00    -0.014 A 
ATOM     41  C   UNL A   1      44.368  26.469  35.505  1.00  0.00     0.009 A 
ATOM     42  C   UNL A   1      45.792  28.299  34.823  1.00  0.00     0.009 A 
ATOM     43  C   UNL A   1      45.393  25.982  36.324  1.00  0.00     0.001 A 
ATOM     44  C   UNL A   1      46.824  27.792  35.615  1.00  0.00     0.001 A 
ATOM     45  C   UNL A   1      46.618  26.645  36.379  1.00  0.00     0.000 A 
ENDBRANCH  26  40
BRANCH  27  46
ATOM     46  C   UNL A   1      36.985  31.352  29.147  1.00  0.00    -0.014 A 
ATOM     47  C   UNL A   1      35.872  30.537  28.895  1.00  0.00     0.009 A 
ATOM     48  C   UNL A   1      36.983  32.669  28.651  1.00  0.00     0.009 A 
ATOM     49  C   UNL A   1      34.788  31.028  28.160  1.00  0.00     0.001 A 
ATOM     50  C   UNL A   1      35.886  33.165  27.943  1.00  0.00     0.001 A 
ATOM     51  C   UNL A   1      34.791  32.342  27.693  1.00  0.00     0.000 A 
ENDBRANCH  27  46
BRANCH  39  52
ATOM     52  C   UNL A   1      39.058  32.246  35.775  1.00  0.00    -0.014 A 
ATOM     53  C   UNL A   1      38.265  31.706  36.795  1.00  0.00     0.009 A 
ATOM     54  C   UNL A   1      39.466  33.588  35.853  1.00  0.00     0.009 A 
ATOM     55  C   UNL A   1      37.880  32.501  37.875  1.00  0.00     0.001 A 
ATOM     56  C   UNL A   1      39.104  34.369  36.947  1.00  0.00     0.001 A 
ATOM     57  C   UNL A   1      38.309  33.827  37.955  1.00  0.00     0.000 A 
ENDBRANCH  39  52
ENDBRANCH  13  14
ENDBRANCH   6   8
ENDBRANCH   5   6
ENDBRANCH   4   5
ENDBRANCH   3   4
ENDBRANCH   2   3
ENDBRANCH   1   2
BRANCH   1  58
ATOM     58  C   UNL A   1      37.751  21.407  25.184  1.00  0.00     0.261 C 
BRANCH  58  59
ATOM     59  O   UNL A   1      36.559  21.816  25.863  1.00  0.00    -0.463 OA
BRANCH  59  60
ATOM     60  C   UNL A   1      36.001  22.994  25.426  1.00  0.00     0.313 C 
ATOM     61  O   UNL A   1      36.391  24.112  25.697  1.00  0.00    -0.252 OA
BRANCH  60  62
ATOM     62  C   UNL A   1      34.849  22.639  24.478  1.00  0.00     0.131 C 
BRANCH  62  63
ATOM     63  C   UNL A   1      33.550  22.774  25.261  1.00  0.00    -0.020 A 
ATOM     64  C   UNL A   1      33.338  24.010  25.914  1.00  0.00     0.006 A 
ATOM     65  C   UNL A   1      32.479  21.867  25.202  1.00  0.00     0.022 A 
ATOM     66  C   UNL A   1      32.101  24.340  26.459  1.00  0.00     0.000 A 
ATOM     67  C   UNL A   1      31.248  22.192  25.780  1.00  0.00     0.016 A 
ATOM     68  Br  UNL A   1      32.541  20.212  24.270  1.00  0.00    -0.051 Br
ATOM     69  C   UNL A   1      31.054  23.430  26.391  1.00  0.00     0.001 A 
ENDBRANCH  62  63
BRANCH  62  70
ATOM     70  C   UNL A   1      34.955  23.319  23.089  1.00  0.00     0.026 C 
BRANCH  70  71
ATOM     71  C   UNL A   1      33.622  23.438  22.318  1.00  0.00     0.057 C 
BRANCH  71  72
ATOM     72  C   UNL A   1      32.912  24.763  22.375  1.00  0.00     0.040 A 
ATOM     73  C   UNL A   1      31.606  24.880  22.837  1.00  0.00     0.024 A 
ATOM     74  N   UNL A   1      33.635  25.837  21.968  1.00  0.00    -0.261 NA
ATOM     75  C   UNL A   1      31.000  26.130  22.830  1.00  0.00     0.003 A 
ATOM     76  C   UNL A   1      33.033  27.045  22.007  1.00  0.00     0.111 A 
ATOM     77  C   UNL A   1      31.725  27.239  22.413  1.00  0.00     0.020 A 
ENDBRANCH  71  72
ENDBRANCH  70  71
ENDBRANCH  62  70
ENDBRANCH  60  62
ENDBRANCH  59  60
ENDBRANCH  58  59
ENDBRANCH   1  58
TORSDOF 18
ENDMDL
MODEL 3
REMARK VINA RESULT:      -9.6      4.608      9.241
REMARK SMILES O=C(OCCOCCOC(=O)[C@H](CCc1ccccn1)c1ccccc1Br)c1ccc(-c2c3nc(c(-c4ccccc4)c4ccc([nH]4)c(-c4ccccc4)c4nc(c(-c5ccccc5)c5ccc2[nH]5)C=C4)C=C3)cc1
REMARK SMILES IDX 7 1 6 2 5 3 4 4 3 5 2 6 1 7 28 8 29 9 75 10 30 11 74 12
REMARK SMILES IDX 31 13 32 14 33 15 68 16 34 17 73 18 67 19 69 20 35 21 72 22
REMARK SMILES IDX 66 23 65 24 36 26 58 27 43 28 57 29 44 30 47 31 56 32 70 33
REMARK SMILES IDX 45 34 46 35 55 37 71 38 48 39 37 40 38 41 42 42 39 43 41 44
REMARK SMILES IDX 40 45 59 46 60 47 64 48 61 49 63 50 62 51 49 52 50 53 54 54
REMARK SMILES IDX 51 55 53 56 52 57 8 58 9 59 10 60 11 61 12 62 21 63 22 64
REMARK SMILES IDX 26 65 23 66 25 67 27 68 24 69 13 70 14 71 15 72 16 73 20 74
REMARK SMILES IDX 17 75 19 76 18 77
REMARK H PARENT 69 25 47 36
REMARK Flexibility Score: inf
ROOT
ATOM      1  C   UNL A   1      31.535  28.363  27.258  1.00  0.00     0.202 C 
ENDROOT
BRANCH   1   2
ATOM      2  O   UNL A   1      32.537  29.372  27.371  1.00  0.00    -0.374 OA
BRANCH   2   3
ATOM      3  C   UNL A   1      32.468  30.466  26.459  1.00  0.00     0.202 C 
BRANCH   3   4
ATOM      4  C   UNL A   1      31.622  31.641  26.948  1.00  0.00     0.261 C 
BRANCH   4   5
ATOM      5  O   UNL A   1      32.347  32.866  26.801  1.00  0.00    -0.460 OA
BRANCH   5   6
ATOM      6  C   UNL A   1      32.956  33.567  27.783  1.00  0.00     0.338 C 
ATOM      7  O   UNL A   1      32.386  34.559  28.238  1.00  0.00    -0.246 OA
BRANCH   6   8
ATOM      8  C   UNL A   1      34.268  33.186  28.388  1.00  0.00     0.060 A 
ATOM      9  C   UNL A   1      35.519  33.696  28.022  1.00  0.00     0.016 A 
ATOM     10  C   UNL A   1      34.210  32.318  29.488  1.00  0.00     0.016 A 
ATOM     11  C   UNL A   1      36.669  33.395  28.724  1.00  0.00     0.010 A 
ATOM     12  C   UNL A   1      35.364  31.987  30.194  1.00  0.00     0.010 A 
ATOM     13  C   UNL A   1      36.590  32.534  29.805  1.00  0.00    -0.014 A 
BRANCH  13  14
ATOM     14  C   UNL A   1      37.848  32.089  30.400  1.00  0.00     0.031 A 
ATOM     15  C   UNL A   1      38.561  30.970  29.724  1.00  0.00     0.074 A 
ATOM     16  C   UNL A   1      38.356  32.750  31.450  1.00  0.00     0.049 A 
ATOM     17  N   UNL A   1      39.594  30.288  30.126  1.00  0.00    -0.248 NA
ATOM     18  C   UNL A   1      38.033  30.565  28.410  1.00  0.00     0.031 C 
ATOM     19  C   UNL A   1      37.784  33.962  32.043  1.00  0.00     0.029 A 
ATOM     20  N   UNL A   1      39.466  32.495  32.201  1.00  0.00    -0.354 N 
ATOM     21  C   UNL A   1      39.807  29.337  29.140  1.00  0.00     0.074 A 
ATOM     22  C   UNL A   1      38.810  29.536  28.115  1.00  0.00     0.031 C 
ATOM     23  C   UNL A   1      38.541  34.330  33.088  1.00  0.00     0.029 A 
ATOM     24  C   UNL A   1      39.593  33.338  33.275  1.00  0.00     0.049 A 
ATOM     25  H   UNL A   1      40.109  31.778  31.993  1.00  0.00     0.167 HD
ATOM     26  C   UNL A   1      40.741  28.361  29.129  1.00  0.00     0.031 A 
ATOM     27  C   UNL A   1      40.433  33.259  34.322  1.00  0.00     0.031 A 
ATOM     28  C   UNL A   1      41.683  28.190  30.198  1.00  0.00     0.049 A 
ATOM     29  C   UNL A   1      41.397  32.106  34.349  1.00  0.00     0.074 A 
ATOM     30  C   UNL A   1      42.645  27.215  30.364  1.00  0.00     0.029 A 
ATOM     31  N   UNL A   1      41.764  29.034  31.303  1.00  0.00    -0.354 N 
ATOM     32  N   UNL A   1      41.559  31.148  33.463  1.00  0.00    -0.248 NA
ATOM     33  C   UNL A   1      42.282  32.007  35.513  1.00  0.00     0.031 C 
ATOM     34  C   UNL A   1      43.269  27.437  31.597  1.00  0.00     0.029 A 
ATOM     35  C   UNL A   1      42.744  28.591  32.167  1.00  0.00     0.049 A 
ATOM     36  H   UNL A   1      41.203  29.831  31.446  1.00  0.00     0.167 HD
ATOM     37  C   UNL A   1      42.578  30.345  33.947  1.00  0.00     0.074 A 
ATOM     38  C   UNL A   1      43.000  30.933  35.207  1.00  0.00     0.031 C 
ATOM     39  C   UNL A   1      43.125  29.228  33.406  1.00  0.00     0.031 A 
BRANCH  26  40
ATOM     40  C   UNL A   1      40.668  27.372  28.001  1.00  0.00    -0.014 A 
ATOM     41  C   UNL A   1      39.910  26.193  28.092  1.00  0.00     0.009 A 
ATOM     42  C   UNL A   1      41.457  27.582  26.860  1.00  0.00     0.009 A 
ATOM     43  C   UNL A   1      39.995  25.219  27.092  1.00  0.00     0.001 A 
ATOM     44  C   UNL A   1      41.514  26.623  25.848  1.00  0.00     0.001 A 
ATOM     45  C   UNL A   1      40.797  25.435  25.972  1.00  0.00     0.000 A 
ENDBRANCH  26  40
BRANCH  27  46
ATOM     46  C   UNL A   1      40.327  34.245  35.428  1.00  0.00    -0.014 A 
ATOM     47  C   UNL A   1      41.035  35.454  35.390  1.00  0.00     0.009 A 
ATOM     48  C   UNL A   1      39.459  34.005  36.509  1.00  0.00     0.009 A 
ATOM     49  C   UNL A   1      40.882  36.395  36.413  1.00  0.00     0.001 A 
ATOM     50  C   UNL A   1      39.287  34.960  37.513  1.00  0.00     0.001 A 
ATOM     51  C   UNL A   1      40.003  36.153  37.468  1.00  0.00     0.000 A 
ENDBRANCH  27  46
BRANCH  39  52
ATOM     52  C   UNL A   1      44.270  28.603  34.145  1.00  0.00    -0.014 A 
ATOM     53  C   UNL A   1      45.588  29.035  33.947  1.00  0.00     0.009 A 
ATOM     54  C   UNL A   1      43.998  27.643  35.133  1.00  0.00     0.009 A 
ATOM     55  C   UNL A   1      46.620  28.506  34.723  1.00  0.00     0.001 A 
ATOM     56  C   UNL A   1      45.027  27.139  35.924  1.00  0.00     0.001 A 
ATOM     57  C   UNL A   1      46.337  27.567  35.717  1.00  0.00     0.000 A 
ENDBRANCH  39  52
ENDBRANCH  13  14
ENDBRANCH   6   8
ENDBRANCH   5   6
ENDBRANCH   4   5
ENDBRANCH   3   4
ENDBRANCH   2   3
ENDBRANCH   1   2
BRANCH   1  58
ATOM     58  C   UNL A   1      32.183  27.095  26.709  1.00  0.00     0.261 C 
BRANCH  58  59
ATOM     59  O   UNL A   1      31.136  26.158  26.437  1.00  0.00    -0.463 OA
BRANCH  59  60
ATOM     60  C   UNL A   1      31.505  24.833  26.455  1.00  0.00     0.313 C 
ATOM     61  O   UNL A   1      31.497  24.104  27.426  1.00  0.00    -0.252 OA
BRANCH  60  62
ATOM     62  C   UNL A   1      31.855  24.429  25.018  1.00  0.00     0.131 C 
BRANCH  62  63
ATOM     63  C   UNL A   1      32.578  23.090  25.079  1.00  0.00    -0.020 A 
ATOM     64  C   UNL A   1      31.793  21.942  24.826  1.00  0.00     0.006 A 
ATOM     65  C   UNL A   1      33.973  22.934  25.150  1.00  0.00     0.022 A 
ATOM     66  C   UNL A   1      32.376  20.695  24.622  1.00  0.00     0.000 A 
ATOM     67  C   UNL A   1      34.549  21.671  24.976  1.00  0.00     0.016 A 
ATOM     68  Br  UNL A   1      35.191  24.375  25.366  1.00  0.00    -0.051 Br
ATOM     69  C   UNL A   1      33.757  20.559  24.697  1.00  0.00     0.001 A 
ENDBRANCH  62  63
BRANCH  62  70
ATOM     70  C   UNL A   1      30.678  24.594  24.022  1.00  0.00     0.026 C 
BRANCH  70  71
ATOM     71  C   UNL A   1      31.027  25.349  22.720  1.00  0.00     0.057 C 
BRANCH  71  72
ATOM     72  C   UNL A   1      31.854  26.598  22.852  1.00  0.00     0.040 A 
ATOM     73  C   UNL A   1      33.235  26.589  22.693  1.00  0.00     0.024 A 
ATOM     74  N   UNL A   1      31.164  27.737  23.114  1.00  0.00    -0.261 NA
ATOM     75  C   UNL A   1      33.940  27.775  22.863  1.00  0.00     0.003 A 
ATOM     76  C   UNL A   1      31.870  28.882  23.235  1.00  0.00     0.111 A 
ATOM     77  C   UNL A   1      33.248  28.948  23.134  1.00  0.00     0.020 A 
ENDBRANCH  71  72
ENDBRANCH  70  71
ENDBRANCH  62  70
ENDBRANCH  60  62
ENDBRANCH  59  60
ENDBRANCH  58  59
ENDBRANCH   1  58
TORSDOF 18
ENDMDL
