MODEL 1
REMARK VINA RESULT:      -8.6      0.000      0.000
REMARK SMILES C=Cc1cncc(-c2ccc([C@@H](C)C(=O)OCCOCCOC(=O)c3ccc(-c4c5nc(c(-c6ccccc6)c6ccc([nH]6)c(-c6ccccc6)c6nc(c(-c7ccccc7)c7ccc4[nH]7)C=C6)C=C5)cc3)cc2)c1
REMARK SMILES IDX 18 1 17 2 16 3 14 4 15 5 12 6 13 7 11 8 8 9 9 10 74 11 10 12
REMARK SMILES IDX 73 13 7 14 3 15 4 16 75 17 5 18 6 19 2 20 1 21 19 22 20 23
REMARK SMILES IDX 21 24 22 25 23 26 24 27 25 28 26 29 72 30 27 31 71 32 28 33
REMARK SMILES IDX 29 34 30 35 65 36 31 37 70 38 64 39 66 40 32 41 69 42 63 43
REMARK SMILES IDX 62 44 33 46 55 47 40 48 54 49 41 50 44 51 53 52 67 53 42 54
REMARK SMILES IDX 43 55 52 57 68 58 45 59 34 60 35 61 39 62 36 63 38 64 37 65
REMARK SMILES IDX 56 66 57 67 61 68 58 69 60 70 59 71 46 72 47 73 51 74 48 75
REMARK SMILES IDX 50 76 49 77
REMARK H PARENT 66 45 44 56
REMARK Flexibility Score: inf
ROOT
ATOM      1  C   UNL A   1      45.532  21.496  24.961  1.00  0.00     0.202 C 
ENDROOT
BRANCH   1   2
ATOM      2  C   UNL A   1      45.930  22.932  25.306  1.00  0.00     0.261 C 
BRANCH   2   3
ATOM      3  O   UNL A   1      46.165  23.077  26.718  1.00  0.00    -0.463 OA
BRANCH   3   4
ATOM      4  C   UNL A   1      46.802  24.214  27.102  1.00  0.00     0.313 C 
ATOM      5  O   UNL A   1      48.012  24.394  27.010  1.00  0.00    -0.252 OA
BRANCH   4   6
ATOM      6  C   UNL A   1      45.883  25.259  27.715  1.00  0.00     0.126 C 
ATOM      7  C   UNL A   1      46.453  26.648  27.436  1.00  0.00     0.025 C 
BRANCH   6   8
ATOM      8  C   UNL A   1      45.483  25.092  29.178  1.00  0.00    -0.034 A 
ATOM      9  C   UNL A   1      44.994  24.607  31.945  1.00  0.00    -0.017 A 
ATOM     10  C   UNL A   1      44.232  23.977  30.948  1.00  0.00     0.009 A 
ATOM     11  C   UNL A   1      45.964  25.532  31.533  1.00  0.00     0.009 A 
ATOM     12  C   UNL A   1      44.471  24.214  29.586  1.00  0.00     0.005 A 
ATOM     13  C   UNL A   1      46.205  25.770  30.174  1.00  0.00     0.005 A 
BRANCH   9  14
ATOM     14  C   UNL A   1      44.843  24.247  33.364  1.00  0.00     0.001 A 
ATOM     15  C   UNL A   1      43.597  24.182  35.458  1.00  0.00    -0.007 A 
ATOM     16  C   UNL A   1      44.726  23.618  36.046  1.00  0.00     0.119 A 
ATOM     17  C   UNL A   1      43.674  24.505  34.096  1.00  0.00     0.020 A 
ATOM     18  N   UNL A   1      45.873  23.344  35.386  1.00  0.00    -0.263 NA
ATOM     19  C   UNL A   1      45.900  23.666  34.071  1.00  0.00     0.119 A 
BRANCH  15  20
ATOM     20  C   UNL A   1      42.417  24.464  36.282  1.00  0.00     0.002 C 
ATOM     21  C   UNL A   1      41.324  25.095  35.835  1.00  0.00     0.009 C 
ENDBRANCH  15  20
ENDBRANCH   9  14
ENDBRANCH   6   8
ENDBRANCH   4   6
ENDBRANCH   3   4
ENDBRANCH   2   3
ENDBRANCH   1   2
BRANCH   1  22
ATOM     22  O   UNL A   1      44.150  21.287  24.671  1.00  0.00    -0.374 OA
BRANCH  22  23
ATOM     23  C   UNL A   1      43.260  21.166  25.782  1.00  0.00     0.202 C 
BRANCH  23  24
ATOM     24  C   UNL A   1      42.114  22.182  25.840  1.00  0.00     0.261 C 
BRANCH  24  25
ATOM     25  O   UNL A   1      42.407  23.277  26.726  1.00  0.00    -0.460 OA
BRANCH  25  26
ATOM     26  C   UNL A   1      42.531  24.482  26.123  1.00  0.00     0.338 C 
ATOM     27  O   UNL A   1      42.902  24.706  24.980  1.00  0.00    -0.246 OA
BRANCH  26  28
ATOM     28  C   UNL A   1      41.984  25.540  26.991  1.00  0.00     0.060 A 
ATOM     29  C   UNL A   1      42.640  26.778  26.991  1.00  0.00     0.016 A 
ATOM     30  C   UNL A   1      40.905  25.308  27.848  1.00  0.00     0.016 A 
ATOM     31  C   UNL A   1      42.253  27.774  27.885  1.00  0.00     0.010 A 
ATOM     32  C   UNL A   1      40.524  26.306  28.753  1.00  0.00     0.010 A 
ATOM     33  C   UNL A   1      41.219  27.529  28.798  1.00  0.00    -0.014 A 
BRANCH  33  34
ATOM     34  C   UNL A   1      40.969  28.498  29.893  1.00  0.00     0.031 A 
ATOM     35  C   UNL A   1      41.839  28.454  31.121  1.00  0.00     0.074 A 
ATOM     36  C   UNL A   1      40.008  29.431  29.784  1.00  0.00     0.049 A 
ATOM     37  N   UNL A   1      41.788  29.195  32.198  1.00  0.00    -0.248 NA
ATOM     38  C   UNL A   1      42.907  27.442  31.133  1.00  0.00     0.031 C 
ATOM     39  C   UNL A   1      39.132  29.614  28.628  1.00  0.00     0.029 A 
ATOM     40  N   UNL A   1      39.608  30.402  30.668  1.00  0.00    -0.354 N 
ATOM     41  C   UNL A   1      42.812  28.736  33.018  1.00  0.00     0.074 A 
ATOM     42  C   UNL A   1      43.451  27.638  32.325  1.00  0.00     0.031 C 
ATOM     43  C   UNL A   1      38.292  30.634  28.877  1.00  0.00     0.029 A 
ATOM     44  C   UNL A   1      38.551  31.153  30.219  1.00  0.00     0.049 A 
ATOM     45  H   UNL A   1      40.040  30.547  31.541  1.00  0.00     0.167 HD
ATOM     46  C   UNL A   1      43.192  29.192  34.235  1.00  0.00     0.031 A 
ATOM     47  C   UNL A   1      37.858  32.134  30.828  1.00  0.00     0.031 A 
ATOM     48  C   UNL A   1      42.553  30.273  34.935  1.00  0.00     0.049 A 
ATOM     49  C   UNL A   1      38.243  32.563  32.217  1.00  0.00     0.074 A 
ATOM     50  C   UNL A   1      42.877  30.814  36.167  1.00  0.00     0.029 A 
ATOM     51  N   UNL A   1      41.453  30.972  34.466  1.00  0.00    -0.354 N 
ATOM     52  N   UNL A   1      39.229  32.137  32.971  1.00  0.00    -0.248 NA
ATOM     53  C   UNL A   1      37.419  33.611  32.839  1.00  0.00     0.031 C 
ATOM     54  C   UNL A   1      41.939  31.808  36.468  1.00  0.00     0.029 A 
ATOM     55  C   UNL A   1      41.065  31.919  35.398  1.00  0.00     0.049 A 
ATOM     56  H   UNL A   1      41.011  30.818  33.599  1.00  0.00     0.167 HD
ATOM     57  C   UNL A   1      39.159  32.882  34.143  1.00  0.00     0.074 A 
ATOM     58  C   UNL A   1      38.043  33.793  33.996  1.00  0.00     0.031 C 
ATOM     59  C   UNL A   1      39.950  32.817  35.240  1.00  0.00     0.031 A 
BRANCH  46  60
ATOM     60  C   UNL A   1      44.338  28.489  34.906  1.00  0.00    -0.014 A 
ATOM     61  C   UNL A   1      45.620  28.479  34.334  1.00  0.00     0.009 A 
ATOM     62  C   UNL A   1      44.139  27.857  36.143  1.00  0.00     0.009 A 
ATOM     63  C   UNL A   1      46.673  27.822  34.975  1.00  0.00     0.001 A 
ATOM     64  C   UNL A   1      45.198  27.222  36.792  1.00  0.00     0.001 A 
ATOM     65  C   UNL A   1      46.462  27.198  36.205  1.00  0.00     0.000 A 
ENDBRANCH  46  60
BRANCH  47  66
ATOM     66  C   UNL A   1      36.705  32.767  30.137  1.00  0.00    -0.014 A 
ATOM     67  C   UNL A   1      36.900  33.841  29.255  1.00  0.00     0.009 A 
ATOM     68  C   UNL A   1      35.399  32.312  30.377  1.00  0.00     0.009 A 
ATOM     69  C   UNL A   1      35.806  34.458  28.642  1.00  0.00     0.001 A 
ATOM     70  C   UNL A   1      34.311  32.914  29.742  1.00  0.00     0.001 A 
ATOM     71  C   UNL A   1      34.514  33.992  28.883  1.00  0.00     0.000 A 
ENDBRANCH  47  66
BRANCH  59  72
ATOM     72  C   UNL A   1      39.658  33.776  36.359  1.00  0.00    -0.014 A 
ATOM     73  C   UNL A   1      38.914  33.380  37.480  1.00  0.00     0.009 A 
ATOM     74  C   UNL A   1      40.178  35.079  36.312  1.00  0.00     0.009 A 
ATOM     75  C   UNL A   1      38.673  34.281  38.520  1.00  0.00     0.001 A 
ATOM     76  C   UNL A   1      39.957  35.969  37.364  1.00  0.00     0.001 A 
ATOM     77  C   UNL A   1      39.198  35.571  38.465  1.00  0.00     0.000 A 
ENDBRANCH  59  72
ENDBRANCH  33  34
ENDBRANCH  26  28
ENDBRANCH  25  26
ENDBRANCH  24  25
ENDBRANCH  23  24
ENDBRANCH  22  23
ENDBRANCH   1  22
TORSDOF 17
ENDMDL
MODEL 2
REMARK VINA RESULT:      -8.5      0.425      5.920
REMARK SMILES C=Cc1cncc(-c2ccc([C@@H](C)C(=O)OCCOCCOC(=O)c3ccc(-c4c5nc(c(-c6ccccc6)c6ccc([nH]6)c(-c6ccccc6)c6nc(c(-c7ccccc7)c7ccc4[nH]7)C=C6)C=C5)cc3)cc2)c1
REMARK SMILES IDX 18 1 17 2 16 3 14 4 15 5 12 6 13 7 11 8 8 9 9 10 74 11 10 12
REMARK SMILES IDX 73 13 7 14 3 15 4 16 75 17 5 18 6 19 2 20 1 21 19 22 20 23
REMARK SMILES IDX 21 24 22 25 23 26 24 27 25 28 26 29 72 30 27 31 71 32 28 33
REMARK SMILES IDX 29 34 30 35 65 36 31 37 70 38 64 39 66 40 32 41 69 42 63 43
REMARK SMILES IDX 62 44 33 46 55 47 40 48 54 49 41 50 44 51 53 52 67 53 42 54
REMARK SMILES IDX 43 55 52 57 68 58 45 59 34 60 35 61 39 62 36 63 38 64 37 65
REMARK SMILES IDX 56 66 57 67 61 68 58 69 60 70 59 71 46 72 47 73 51 74 48 75
REMARK SMILES IDX 50 76 49 77
REMARK H PARENT 66 45 44 56
REMARK Flexibility Score: inf
ROOT
ATOM      1  C   UNL A   1      45.372  21.475  25.154  1.00  0.00     0.202 C 
ENDROOT
BRANCH   1   2
ATOM      2  C   UNL A   1      45.729  22.924  25.490  1.00  0.00     0.261 C 
BRANCH   2   3
ATOM      3  O   UNL A   1      46.351  23.014  26.785  1.00  0.00    -0.463 OA
BRANCH   3   4
ATOM      4  C   UNL A   1      46.854  24.231  27.119  1.00  0.00     0.313 C 
ATOM      5  O   UNL A   1      48.038  24.541  27.025  1.00  0.00    -0.252 OA
BRANCH   4   6
ATOM      6  C   UNL A   1      45.819  25.193  27.679  1.00  0.00     0.126 C 
ATOM      7  C   UNL A   1      46.254  26.625  27.377  1.00  0.00     0.025 C 
BRANCH   6   8
ATOM      8  C   UNL A   1      45.396  25.024  29.136  1.00  0.00    -0.034 A 
ATOM      9  C   UNL A   1      44.865  24.534  31.894  1.00  0.00    -0.017 A 
ATOM     10  C   UNL A   1      44.117  23.907  30.885  1.00  0.00     0.009 A 
ATOM     11  C   UNL A   1      45.843  25.457  31.499  1.00  0.00     0.009 A 
ATOM     12  C   UNL A   1      44.377  24.146  29.527  1.00  0.00     0.005 A 
ATOM     13  C   UNL A   1      46.105  25.698  30.145  1.00  0.00     0.005 A 
BRANCH   9  14
ATOM     14  C   UNL A   1      44.693  24.170  33.310  1.00  0.00     0.001 A 
ATOM     15  C   UNL A   1      43.429  24.132  35.394  1.00  0.00    -0.007 A 
ATOM     16  C   UNL A   1      44.536  23.530  35.987  1.00  0.00     0.119 A 
ATOM     17  C   UNL A   1      43.527  24.461  34.035  1.00  0.00     0.020 A 
ATOM     18  N   UNL A   1      45.679  23.225  35.334  1.00  0.00    -0.263 NA
ATOM     19  C   UNL A   1      45.726  23.552  34.021  1.00  0.00     0.119 A 
BRANCH  15  20
ATOM     20  C   UNL A   1      42.253  24.447  36.212  1.00  0.00     0.002 C 
ATOM     21  C   UNL A   1      41.254  25.243  35.811  1.00  0.00     0.009 C 
ENDBRANCH  15  20
ENDBRANCH   9  14
ENDBRANCH   6   8
ENDBRANCH   4   6
ENDBRANCH   3   4
ENDBRANCH   2   3
ENDBRANCH   1   2
BRANCH   1  22
ATOM     22  O   UNL A   1      44.009  21.236  24.800  1.00  0.00    -0.374 OA
BRANCH  22  23
ATOM     23  C   UNL A   1      43.045  21.271  25.854  1.00  0.00     0.202 C 
BRANCH  23  24
ATOM     24  C   UNL A   1      42.013  22.402  25.785  1.00  0.00     0.261 C 
BRANCH  24  25
ATOM     25  O   UNL A   1      42.267  23.427  26.762  1.00  0.00    -0.460 OA
BRANCH  25  26
ATOM     26  C   UNL A   1      42.482  24.661  26.254  1.00  0.00     0.338 C 
ATOM     27  O   UNL A   1      42.922  24.943  25.148  1.00  0.00    -0.246 OA
BRANCH  26  28
ATOM     28  C   UNL A   1      41.947  25.685  27.169  1.00  0.00     0.060 A 
ATOM     29  C   UNL A   1      42.572  26.940  27.169  1.00  0.00     0.016 A 
ATOM     30  C   UNL A   1      40.913  25.407  28.065  1.00  0.00     0.016 A 
ATOM     31  C   UNL A   1      42.199  27.905  28.101  1.00  0.00     0.010 A 
ATOM     32  C   UNL A   1      40.547  26.375  29.008  1.00  0.00     0.010 A 
ATOM     33  C   UNL A   1      41.213  27.614  29.052  1.00  0.00    -0.014 A 
BRANCH  33  34
ATOM     34  C   UNL A   1      40.987  28.553  30.179  1.00  0.00     0.031 A 
ATOM     35  C   UNL A   1      39.870  29.556  30.082  1.00  0.00     0.074 A 
ATOM     36  C   UNL A   1      41.742  28.491  31.289  1.00  0.00     0.049 A 
ATOM     37  N   UNL A   1      39.505  30.474  30.941  1.00  0.00    -0.248 NA
ATOM     38  C   UNL A   1      39.054  29.515  28.858  1.00  0.00     0.031 C 
ATOM     39  C   UNL A   1      42.821  27.534  31.529  1.00  0.00     0.029 A 
ATOM     40  N   UNL A   1      41.710  29.258  32.427  1.00  0.00    -0.354 N 
ATOM     41  C   UNL A   1      38.423  31.123  30.359  1.00  0.00     0.074 A 
ATOM     42  C   UNL A   1      38.206  30.511  29.066  1.00  0.00     0.031 C 
ATOM     43  C   UNL A   1      43.354  27.776  32.740  1.00  0.00     0.029 A 
ATOM     44  C   UNL A   1      42.674  28.921  33.344  1.00  0.00     0.049 A 
ATOM     45  H   UNL A   1      41.057  29.980  32.573  1.00  0.00     0.167 HD
ATOM     46  C   UNL A   1      37.673  32.134  30.859  1.00  0.00     0.031 A 
ATOM     47  C   UNL A   1      42.988  29.484  34.526  1.00  0.00     0.031 A 
ATOM     48  C   UNL A   1      37.892  32.755  32.137  1.00  0.00     0.049 A 
ATOM     49  C   UNL A   1      42.195  30.664  35.020  1.00  0.00     0.074 A 
ATOM     50  C   UNL A   1      37.175  33.777  32.733  1.00  0.00     0.029 A 
ATOM     51  N   UNL A   1      38.912  32.418  33.010  1.00  0.00    -0.354 N 
ATOM     52  N   UNL A   1      41.159  31.252  34.471  1.00  0.00    -0.248 NA
ATOM     53  C   UNL A   1      42.616  31.256  36.299  1.00  0.00     0.031 C 
ATOM     54  C   UNL A   1      37.793  34.094  33.947  1.00  0.00     0.029 A 
ATOM     55  C   UNL A   1      38.863  33.233  34.128  1.00  0.00     0.049 A 
ATOM     56  H   UNL A   1      39.575  31.705  32.859  1.00  0.00     0.167 HD
ATOM     57  C   UNL A   1      40.789  32.265  35.349  1.00  0.00     0.074 A 
ATOM     58  C   UNL A   1      41.703  32.204  36.470  1.00  0.00     0.031 C 
ATOM     59  C   UNL A   1      39.781  33.163  35.235  1.00  0.00     0.031 A 
BRANCH  46  60
ATOM     60  C   UNL A   1      36.560  32.656  29.995  1.00  0.00    -0.014 A 
ATOM     61  C   UNL A   1      35.253  32.158  30.112  1.00  0.00     0.009 A 
ATOM     62  C   UNL A   1      36.818  33.683  29.075  1.00  0.00     0.009 A 
ATOM     63  C   UNL A   1      34.232  32.659  29.301  1.00  0.00     0.001 A 
ATOM     64  C   UNL A   1      35.791  34.199  28.283  1.00  0.00     0.001 A 
ATOM     65  C   UNL A   1      34.501  33.681  28.390  1.00  0.00     0.000 A 
ENDBRANCH  46  60
BRANCH  47  66
ATOM     66  C   UNL A   1      44.125  28.956  35.322  1.00  0.00    -0.014 A 
ATOM     67  C   UNL A   1      43.969  27.820  36.131  1.00  0.00     0.009 A 
ATOM     68  C   UNL A   1      45.371  29.604  35.292  1.00  0.00     0.009 A 
ATOM     69  C   UNL A   1      45.032  27.355  36.909  1.00  0.00     0.001 A 
ATOM     70  C   UNL A   1      46.439  29.120  36.050  1.00  0.00     0.001 A 
ATOM     71  C   UNL A   1      46.267  28.003  36.865  1.00  0.00     0.000 A 
ENDBRANCH  47  66
BRANCH  59  72
ATOM     72  C   UNL A   1      39.593  34.135  36.365  1.00  0.00    -0.014 A 
ATOM     73  C   UNL A   1      38.880  33.779  37.520  1.00  0.00     0.009 A 
ATOM     74  C   UNL A   1      40.178  35.409  36.292  1.00  0.00     0.009 A 
ATOM     75  C   UNL A   1      38.736  34.690  38.568  1.00  0.00     0.001 A 
ATOM     76  C   UNL A   1      40.053  36.308  37.352  1.00  0.00     0.001 A 
ATOM     77  C   UNL A   1      39.326  35.951  38.486  1.00  0.00     0.000 A 
ENDBRANCH  59  72
ENDBRANCH  33  34
ENDBRANCH  26  28
ENDBRANCH  25  26
ENDBRANCH  24  25
ENDBRANCH  23  24
ENDBRANCH  22  23
ENDBRANCH   1  22
TORSDOF 17
ENDMDL
MODEL 3
REMARK VINA RESULT:      -8.5      3.785      6.563
REMARK SMILES C=Cc1cncc(-c2ccc([C@@H](C)C(=O)OCCOCCOC(=O)c3ccc(-c4c5nc(c(-c6ccccc6)c6ccc([nH]6)c(-c6ccccc6)c6nc(c(-c7ccccc7)c7ccc4[nH]7)C=C6)C=C5)cc3)cc2)c1
REMARK SMILES IDX 18 1 17 2 16 3 14 4 15 5 12 6 13 7 11 8 8 9 9 10 74 11 10 12
REMARK SMILES IDX 73 13 7 14 3 15 4 16 75 17 5 18 6 19 2 20 1 21 19 22 20 23
REMARK SMILES IDX 21 24 22 25 23 26 24 27 25 28 26 29 72 30 27 31 71 32 28 33
REMARK SMILES IDX 29 34 30 35 65 36 31 37 70 38 64 39 66 40 32 41 69 42 63 43
REMARK SMILES IDX 62 44 33 46 55 47 40 48 54 49 41 50 44 51 53 52 67 53 42 54
REMARK SMILES IDX 43 55 52 57 68 58 45 59 34 60 35 61 39 62 36 63 38 64 37 65
REMARK SMILES IDX 56 66 57 67 61 68 58 69 60 70 59 71 46 72 47 73 51 74 48 75
REMARK SMILES IDX 50 76 49 77
REMARK H PARENT 66 45 44 56
REMARK Flexibility Score: inf
ROOT
ATOM      1  C   UNL A   1      43.983  18.961  24.922  1.00  0.00     0.202 C 
ENDROOT
BRANCH   1   2
ATOM      2  C   UNL A   1      42.735  19.076  25.800  1.00  0.00     0.261 C 
BRANCH   2   3
ATOM      3  O   UNL A   1      42.176  20.400  25.730  1.00  0.00    -0.463 OA
BRANCH   3   4
ATOM      4  C   UNL A   1      41.253  20.707  26.678  1.00  0.00     0.313 C 
ATOM      5  O   UNL A   1      41.084  20.068  27.712  1.00  0.00    -0.252 OA
BRANCH   4   6
ATOM      6  C   UNL A   1      40.387  21.907  26.330  1.00  0.00     0.126 C 
ATOM      7  C   UNL A   1      40.383  22.877  27.510  1.00  0.00     0.025 C 
BRANCH   6   8
ATOM      8  C   UNL A   1      38.978  21.647  25.804  1.00  0.00    -0.034 A 
ATOM      9  C   UNL A   1      36.257  21.138  25.122  1.00  0.00    -0.017 A 
ATOM     10  C   UNL A   1      37.250  20.164  24.934  1.00  0.00     0.009 A 
ATOM     11  C   UNL A   1      36.660  22.393  25.599  1.00  0.00     0.009 A 
ATOM     12  C   UNL A   1      38.590  20.412  25.270  1.00  0.00     0.005 A 
ATOM     13  C   UNL A   1      37.996  22.644  25.935  1.00  0.00     0.005 A 
BRANCH   9  14
ATOM     14  C   UNL A   1      34.834  20.828  24.911  1.00  0.00     0.001 A 
ATOM     15  C   UNL A   1      33.016  19.320  24.307  1.00  0.00    -0.007 A 
ATOM     16  C   UNL A   1      32.150  20.402  24.443  1.00  0.00     0.119 A 
ATOM     17  C   UNL A   1      34.379  19.554  24.538  1.00  0.00     0.020 A 
ATOM     18  N   UNL A   1      32.536  21.646  24.803  1.00  0.00    -0.263 NA
ATOM     19  C   UNL A   1      33.860  21.824  25.025  1.00  0.00     0.119 A 
BRANCH  15  20
ATOM     20  C   UNL A   1      32.487  18.022  23.877  1.00  0.00     0.002 C 
ATOM     21  C   UNL A   1      33.253  16.977  23.536  1.00  0.00     0.009 C 
ENDBRANCH  15  20
ENDBRANCH   9  14
ENDBRANCH   6   8
ENDBRANCH   4   6
ENDBRANCH   3   4
ENDBRANCH   2   3
ENDBRANCH   1   2
BRANCH   1  22
ATOM     22  O   UNL A   1      45.193  19.459  25.493  1.00  0.00    -0.374 OA
BRANCH  22  23
ATOM     23  C   UNL A   1      45.879  20.487  24.776  1.00  0.00     0.202 C 
BRANCH  23  24
ATOM     24  C   UNL A   1      45.262  21.888  24.854  1.00  0.00     0.261 C 
BRANCH  24  25
ATOM     25  O   UNL A   1      45.076  22.323  26.212  1.00  0.00    -0.460 OA
BRANCH  25  26
ATOM     26  C   UNL A   1      45.719  23.466  26.540  1.00  0.00     0.338 C 
ATOM     27  O   UNL A   1      46.830  23.825  26.174  1.00  0.00    -0.246 OA
BRANCH  26  28
ATOM     28  C   UNL A   1      44.819  24.354  27.298  1.00  0.00     0.060 A 
ATOM     29  C   UNL A   1      45.055  25.733  27.216  1.00  0.00     0.016 A 
ATOM     30  C   UNL A   1      43.819  23.853  28.134  1.00  0.00     0.016 A 
ATOM     31  C   UNL A   1      44.324  26.614  28.009  1.00  0.00     0.010 A 
ATOM     32  C   UNL A   1      43.093  24.739  28.939  1.00  0.00     0.010 A 
ATOM     33  C   UNL A   1      43.367  26.119  28.905  1.00  0.00    -0.014 A 
BRANCH  33  34
ATOM     34  C   UNL A   1      42.764  27.033  29.906  1.00  0.00     0.031 A 
ATOM     35  C   UNL A   1      43.434  27.197  31.243  1.00  0.00     0.074 A 
ATOM     36  C   UNL A   1      41.656  27.736  29.618  1.00  0.00     0.049 A 
ATOM     37  N   UNL A   1      43.074  27.930  32.265  1.00  0.00    -0.248 NA
ATOM     38  C   UNL A   1      44.676  26.436  31.453  1.00  0.00     0.031 C 
ATOM     39  C   UNL A   1      40.940  27.707  28.344  1.00  0.00     0.029 A 
ATOM     40  N   UNL A   1      40.938  28.616  30.390  1.00  0.00    -0.354 N 
ATOM     41  C   UNL A   1      44.040  27.715  33.241  1.00  0.00     0.074 A 
ATOM     42  C   UNL A   1      44.987  26.766  32.698  1.00  0.00     0.031 C 
ATOM     43  C   UNL A   1      39.878  28.529  28.424  1.00  0.00     0.029 A 
ATOM     44  C   UNL A   1      39.825  29.116  29.762  1.00  0.00     0.049 A 
ATOM     45  H   UNL A   1      41.198  28.866  31.307  1.00  0.00     0.167 HD
ATOM     46  C   UNL A   1      44.134  28.263  34.476  1.00  0.00     0.031 A 
ATOM     47  C   UNL A   1      38.861  29.938  30.220  1.00  0.00     0.031 A 
ATOM     48  C   UNL A   1      43.189  29.196  35.026  1.00  0.00     0.049 A 
ATOM     49  C   UNL A   1      38.942  30.465  31.627  1.00  0.00     0.074 A 
ATOM     50  C   UNL A   1      43.209  29.816  36.263  1.00  0.00     0.029 A 
ATOM     51  N   UNL A   1      42.048  29.636  34.375  1.00  0.00    -0.354 N 
ATOM     52  N   UNL A   1      39.873  30.273  32.530  1.00  0.00    -0.248 NA
ATOM     53  C   UNL A   1      37.835  31.324  32.077  1.00  0.00     0.031 C 
ATOM     54  C   UNL A   1      42.051  30.593  36.382  1.00  0.00     0.029 A 
ATOM     55  C   UNL A   1      41.339  30.495  35.197  1.00  0.00     0.049 A 
ATOM     56  H   UNL A   1      41.780  29.375  33.464  1.00  0.00     0.167 HD
ATOM     57  C   UNL A   1      39.479  31.007  33.643  1.00  0.00     0.074 A 
ATOM     58  C   UNL A   1      38.231  31.656  33.299  1.00  0.00     0.031 C 
ATOM     59  C   UNL A   1      40.097  31.132  34.842  1.00  0.00     0.031 A 
BRANCH  46  60
ATOM     60  C   UNL A   1      45.291  27.833  35.332  1.00  0.00    -0.014 A 
ATOM     61  C   UNL A   1      46.533  28.482  35.257  1.00  0.00     0.009 A 
ATOM     62  C   UNL A   1      45.124  26.786  36.251  1.00  0.00     0.009 A 
ATOM     63  C   UNL A   1      47.596  28.069  36.064  1.00  0.00     0.001 A 
ATOM     64  C   UNL A   1      46.180  26.390  37.073  1.00  0.00     0.001 A 
ATOM     65  C   UNL A   1      47.417  27.026  36.974  1.00  0.00     0.000 A 
ENDBRANCH  46  60
BRANCH  47  66
ATOM     66  C   UNL A   1      37.715  30.298  29.346  1.00  0.00    -0.014 A 
ATOM     67  C   UNL A   1      37.587  31.597  28.831  1.00  0.00     0.009 A 
ATOM     68  C   UNL A   1      36.731  29.345  29.041  1.00  0.00     0.009 A 
ATOM     69  C   UNL A   1      36.484  31.939  28.044  1.00  0.00     0.001 A 
ATOM     70  C   UNL A   1      35.644  29.683  28.232  1.00  0.00     0.001 A 
ATOM     71  C   UNL A   1      35.516  30.982  27.743  1.00  0.00     0.000 A 
ENDBRANCH  47  66
BRANCH  59  72
ATOM     72  C   UNL A   1      39.452  32.027  35.861  1.00  0.00    -0.014 A 
ATOM     73  C   UNL A   1      39.766  33.392  35.933  1.00  0.00     0.009 A 
ATOM     74  C   UNL A   1      38.480  31.505  36.729  1.00  0.00     0.009 A 
ATOM     75  C   UNL A   1      39.137  34.212  36.874  1.00  0.00     0.001 A 
ATOM     76  C   UNL A   1      37.835  32.331  37.651  1.00  0.00     0.001 A 
ATOM     77  C   UNL A   1      38.170  33.683  37.728  1.00  0.00     0.000 A 
ENDBRANCH  59  72
ENDBRANCH  33  34
ENDBRANCH  26  28
ENDBRANCH  25  26
ENDBRANCH  24  25
ENDBRANCH  23  24
ENDBRANCH  22  23
ENDBRANCH   1  22
TORSDOF 17
ENDMDL
