MODEL 1
REMARK VINA RESULT:      -9.1      0.000      0.000
REMARK SMILES O=C(COC[C@@H]1CCCCO1)OCCOCCOC(=O)c1ccc(-c2c3nc(c(-c4ccccc4)c4ccc([nH]4)c(-c4ccccc4)c4nc(c(-c5ccccc5)c5ccc2[nH]5)C=C4)C=C3)cc1
REMARK SMILES IDX 14 1 13 2 12 3 2 4 1 5 3 6 4 7 5 8 6 9 7 10 11 11 8 12 10 13
REMARK SMILES IDX 9 14 15 15 16 16 17 17 18 18 19 19 20 20 21 21 22 22 68 23
REMARK SMILES IDX 23 24 67 25 24 26 25 27 26 28 61 29 27 30 66 31 60 32 62 33
REMARK SMILES IDX 28 34 65 35 59 36 58 37 29 39 51 40 36 41 50 42 37 43 40 44
REMARK SMILES IDX 49 45 63 46 38 47 39 48 48 50 64 51 41 52 30 53 31 54 35 55
REMARK SMILES IDX 32 56 34 57 33 58 52 59 53 60 57 61 54 62 56 63 55 64 42 65
REMARK SMILES IDX 43 66 47 67 44 68 46 69 45 70
REMARK H PARENT 62 38 40 49
REMARK Flexibility Score: inf
ROOT
ATOM      1  C   UNL A   1      34.079  23.318  26.798  1.00  0.00     0.202 C 
ENDROOT
BRANCH   1   2
ATOM      2  C   UNL A   1      33.237  24.335  26.014  1.00  0.00     0.261 C 
BRANCH   2   3
ATOM      3  O   UNL A   1      32.656  23.723  24.855  1.00  0.00    -0.462 OA
BRANCH   3   4
ATOM      4  C   UNL A   1      31.804  22.698  25.078  1.00  0.00     0.332 C 
ATOM      5  O   UNL A   1      30.749  22.889  25.674  1.00  0.00    -0.250 OA
BRANCH   4   6
ATOM      6  C   UNL A   1      32.225  21.344  24.480  1.00  0.00     0.282 C 
BRANCH   6   7
ATOM      7  O   UNL A   1      31.885  20.211  25.258  1.00  0.00    -0.367 OA
BRANCH   7   8
ATOM      8  C   UNL A   1      32.848  19.162  25.169  1.00  0.00     0.193 C 
BRANCH   8   9
ATOM      9  C   UNL A   1      32.282  17.868  24.543  1.00  0.00     0.144 C 
ATOM     10  C   UNL A   1      32.502  16.669  25.466  1.00  0.00     0.034 C 
ATOM     11  O   UNL A   1      32.775  17.562  23.232  1.00  0.00    -0.376 OA
ATOM     12  C   UNL A   1      33.964  16.228  25.472  1.00  0.00     0.005 C 
ATOM     13  C   UNL A   1      34.141  17.161  23.165  1.00  0.00     0.160 C 
ATOM     14  C   UNL A   1      34.440  15.968  24.049  1.00  0.00     0.029 C 
ENDBRANCH   8   9
ENDBRANCH   7   8
ENDBRANCH   6   7
ENDBRANCH   4   6
ENDBRANCH   3   4
ENDBRANCH   2   3
ENDBRANCH   1   2
BRANCH   1  15
ATOM     15  O   UNL A   1      35.308  22.912  26.190  1.00  0.00    -0.374 OA
BRANCH  15  16
ATOM     16  C   UNL A   1      35.613  21.515  26.115  1.00  0.00     0.202 C 
BRANCH  16  17
ATOM     17  C   UNL A   1      36.567  20.997  25.031  1.00  0.00     0.261 C 
BRANCH  17  18
ATOM     18  O   UNL A   1      37.778  21.750  24.942  1.00  0.00    -0.460 OA
BRANCH  18  19
ATOM     19  C   UNL A   1      38.732  21.353  25.815  1.00  0.00     0.338 C 
ATOM     20  O   UNL A   1      39.196  20.231  25.950  1.00  0.00    -0.246 OA
BRANCH  19  21
ATOM     21  C   UNL A   1      39.313  22.543  26.452  1.00  0.00     0.060 A 
ATOM     22  C   UNL A   1      38.722  23.782  26.167  1.00  0.00     0.016 A 
ATOM     23  C   UNL A   1      40.421  22.453  27.296  1.00  0.00     0.016 A 
ATOM     24  C   UNL A   1      39.264  24.945  26.689  1.00  0.00     0.010 A 
ATOM     25  C   UNL A   1      40.985  23.624  27.795  1.00  0.00     0.010 A 
ATOM     26  C   UNL A   1      40.431  24.871  27.455  1.00  0.00    -0.014 A 
BRANCH  26  27
ATOM     27  C   UNL A   1      41.199  26.107  27.689  1.00  0.00     0.031 A 
ATOM     28  C   UNL A   1      40.586  27.158  28.569  1.00  0.00     0.074 A 
ATOM     29  C   UNL A   1      42.428  26.259  27.171  1.00  0.00     0.049 A 
ATOM     30  N   UNL A   1      41.045  28.336  28.896  1.00  0.00    -0.248 NA
ATOM     31  C   UNL A   1      39.274  26.836  29.160  1.00  0.00     0.031 C 
ATOM     32  C   UNL A   1      43.135  25.269  26.359  1.00  0.00     0.029 A 
ATOM     33  N   UNL A   1      43.296  27.313  27.257  1.00  0.00    -0.354 N 
ATOM     34  C   UNL A   1      40.076  28.898  29.718  1.00  0.00     0.074 A 
ATOM     35  C   UNL A   1      38.990  27.951  29.813  1.00  0.00     0.031 C 
ATOM     36  C   UNL A   1      44.332  25.771  26.011  1.00  0.00     0.029 A 
ATOM     37  C   UNL A   1      44.453  27.126  26.544  1.00  0.00     0.049 A 
ATOM     38  H   UNL A   1      43.109  28.127  27.778  1.00  0.00     0.167 HD
ATOM     39  C   UNL A   1      40.097  30.097  30.343  1.00  0.00     0.031 A 
ATOM     40  C   UNL A   1      45.479  27.971  26.331  1.00  0.00     0.031 A 
ATOM     41  C   UNL A   1      41.176  31.039  30.222  1.00  0.00     0.049 A 
ATOM     42  C   UNL A   1      45.433  29.338  26.961  1.00  0.00     0.074 A 
ATOM     43  C   UNL A   1      41.305  32.284  30.807  1.00  0.00     0.029 A 
ATOM     44  N   UNL A   1      42.313  30.833  29.453  1.00  0.00    -0.354 N 
ATOM     45  N   UNL A   1      44.521  29.858  27.748  1.00  0.00    -0.248 NA
ATOM     46  C   UNL A   1      46.565  30.230  26.679  1.00  0.00     0.031 C 
ATOM     47  C   UNL A   1      42.492  32.860  30.342  1.00  0.00     0.029 A 
ATOM     48  C   UNL A   1      43.138  31.943  29.527  1.00  0.00     0.049 A 
ATOM     49  H   UNL A   1      42.504  30.020  28.933  1.00  0.00     0.167 HD
ATOM     50  C   UNL A   1      44.986  31.125  28.082  1.00  0.00     0.074 A 
ATOM     51  C   UNL A   1      46.269  31.283  27.426  1.00  0.00     0.031 C 
ATOM     52  C   UNL A   1      44.409  32.073  28.863  1.00  0.00     0.031 A 
BRANCH  39  53
ATOM     53  C   UNL A   1      38.899  30.466  31.173  1.00  0.00    -0.014 A 
ATOM     54  C   UNL A   1      38.837  30.169  32.544  1.00  0.00     0.009 A 
ATOM     55  C   UNL A   1      37.821  31.137  30.576  1.00  0.00     0.009 A 
ATOM     56  C   UNL A   1      37.706  30.504  33.291  1.00  0.00     0.001 A 
ATOM     57  C   UNL A   1      36.704  31.501  31.332  1.00  0.00     0.001 A 
ATOM     58  C   UNL A   1      36.643  31.176  32.686  1.00  0.00     0.000 A 
ENDBRANCH  39  53
BRANCH  40  59
ATOM     59  C   UNL A   1      46.618  27.563  25.469  1.00  0.00    -0.014 A 
ATOM     60  C   UNL A   1      46.655  27.918  24.112  1.00  0.00     0.009 A 
ATOM     61  C   UNL A   1      47.668  26.794  25.997  1.00  0.00     0.009 A 
ATOM     62  C   UNL A   1      47.702  27.483  23.295  1.00  0.00     0.001 A 
ATOM     63  C   UNL A   1      48.731  26.390  25.184  1.00  0.00     0.001 A 
ATOM     64  C   UNL A   1      48.740  26.724  23.832  1.00  0.00     0.000 A 
ENDBRANCH  40  59
BRANCH  52  65
ATOM     65  C   UNL A   1      45.184  33.341  29.085  1.00  0.00    -0.014 A 
ATOM     66  C   UNL A   1      46.105  33.466  30.136  1.00  0.00     0.009 A 
ATOM     67  C   UNL A   1      45.014  34.417  28.198  1.00  0.00     0.009 A 
ATOM     68  C   UNL A   1      46.808  34.658  30.320  1.00  0.00     0.001 A 
ATOM     69  C   UNL A   1      45.745  35.594  28.363  1.00  0.00     0.001 A 
ATOM     70  C   UNL A   1      46.631  35.719  29.431  1.00  0.00     0.000 A 
ENDBRANCH  52  65
ENDBRANCH  26  27
ENDBRANCH  19  21
ENDBRANCH  18  19
ENDBRANCH  17  18
ENDBRANCH  16  17
ENDBRANCH  15  16
ENDBRANCH   1  15
TORSDOF 17
ENDMDL
MODEL 2
REMARK VINA RESULT:      -9.0      3.693      7.888
REMARK SMILES O=C(COC[C@@H]1CCCCO1)OCCOCCOC(=O)c1ccc(-c2c3nc(c(-c4ccccc4)c4ccc([nH]4)c(-c4ccccc4)c4nc(c(-c5ccccc5)c5ccc2[nH]5)C=C4)C=C3)cc1
REMARK SMILES IDX 14 1 13 2 12 3 2 4 1 5 3 6 4 7 5 8 6 9 7 10 11 11 8 12 10 13
REMARK SMILES IDX 9 14 15 15 16 16 17 17 18 18 19 19 20 20 21 21 22 22 68 23
REMARK SMILES IDX 23 24 67 25 24 26 25 27 26 28 61 29 27 30 66 31 60 32 62 33
REMARK SMILES IDX 28 34 65 35 59 36 58 37 29 39 51 40 36 41 50 42 37 43 40 44
REMARK SMILES IDX 49 45 63 46 38 47 39 48 48 50 64 51 41 52 30 53 31 54 35 55
REMARK SMILES IDX 32 56 34 57 33 58 52 59 53 60 57 61 54 62 56 63 55 64 42 65
REMARK SMILES IDX 43 66 47 67 44 68 46 69 45 70
REMARK H PARENT 62 38 40 49
REMARK Flexibility Score: inf
ROOT
ATOM      1  C   UNL A   1      41.481  20.690  26.493  1.00  0.00     0.202 C 
ENDROOT
BRANCH   1   2
ATOM      2  C   UNL A   1      40.491  21.843  26.715  1.00  0.00     0.261 C 
BRANCH   2   3
ATOM      3  O   UNL A   1      39.242  21.567  26.067  1.00  0.00    -0.462 OA
BRANCH   3   4
ATOM      4  C   UNL A   1      38.347  22.578  26.029  1.00  0.00     0.332 C 
ATOM      5  O   UNL A   1      38.640  23.682  26.476  1.00  0.00    -0.250 OA
BRANCH   4   6
ATOM      6  C   UNL A   1      37.010  22.255  25.337  1.00  0.00     0.282 C 
BRANCH   6   7
ATOM      7  O   UNL A   1      36.115  21.465  26.099  1.00  0.00    -0.367 OA
BRANCH   7   8
ATOM      8  C   UNL A   1      35.147  20.788  25.297  1.00  0.00     0.193 C 
BRANCH   8   9
ATOM      9  C   UNL A   1      33.700  21.251  25.572  1.00  0.00     0.144 C 
ATOM     10  C   UNL A   1      32.688  20.219  25.071  1.00  0.00     0.034 C 
ATOM     11  O   UNL A   1      33.367  22.543  25.046  1.00  0.00    -0.376 OA
ATOM     12  C   UNL A   1      32.583  20.230  23.548  1.00  0.00     0.005 C 
ATOM     13  C   UNL A   1      33.272  22.627  23.627  1.00  0.00     0.160 C 
ATOM     14  C   UNL A   1      32.279  21.637  23.052  1.00  0.00     0.029 C 
ENDBRANCH   8   9
ENDBRANCH   7   8
ENDBRANCH   6   7
ENDBRANCH   4   6
ENDBRANCH   3   4
ENDBRANCH   2   3
ENDBRANCH   1   2
BRANCH   1  15
ATOM     15  O   UNL A   1      42.390  20.839  25.399  1.00  0.00    -0.374 OA
BRANCH  15  16
ATOM     16  C   UNL A   1      43.724  21.286  25.666  1.00  0.00     0.202 C 
BRANCH  16  17
ATOM     17  C   UNL A   1      44.416  22.249  24.694  1.00  0.00     0.261 C 
BRANCH  17  18
ATOM     18  O   UNL A   1      43.742  23.501  24.567  1.00  0.00    -0.460 OA
BRANCH  18  19
ATOM     19  C   UNL A   1      44.469  24.558  24.995  1.00  0.00     0.338 C 
ATOM     20  O   UNL A   1      45.570  24.913  24.599  1.00  0.00    -0.246 OA
BRANCH  19  21
ATOM     21  C   UNL A   1      43.631  25.381  25.878  1.00  0.00     0.060 A 
ATOM     22  C   UNL A   1      43.969  26.734  26.014  1.00  0.00     0.016 A 
ATOM     23  C   UNL A   1      42.547  24.838  26.572  1.00  0.00     0.016 A 
ATOM     24  C   UNL A   1      43.253  27.545  26.880  1.00  0.00     0.010 A 
ATOM     25  C   UNL A   1      41.847  25.643  27.466  1.00  0.00     0.010 A 
ATOM     26  C   UNL A   1      42.230  26.984  27.650  1.00  0.00    -0.014 A 
BRANCH  26  27
ATOM     27  C   UNL A   1      41.731  27.739  28.815  1.00  0.00     0.031 A 
ATOM     28  C   UNL A   1      42.501  27.636  30.100  1.00  0.00     0.074 A 
ATOM     29  C   UNL A   1      40.652  28.530  28.707  1.00  0.00     0.049 A 
ATOM     30  N   UNL A   1      42.247  28.172  31.263  1.00  0.00    -0.248 NA
ATOM     31  C   UNL A   1      43.725  26.814  30.068  1.00  0.00     0.031 C 
ATOM     32  C   UNL A   1      39.876  28.746  27.487  1.00  0.00     0.029 A 
ATOM     33  N   UNL A   1      40.026  29.298  29.651  1.00  0.00    -0.354 N 
ATOM     34  C   UNL A   1      43.268  27.744  32.101  1.00  0.00     0.074 A 
ATOM     35  C   UNL A   1      44.127  26.877  31.327  1.00  0.00     0.031 C 
ATOM     36  C   UNL A   1      38.866  29.589  27.760  1.00  0.00     0.029 A 
ATOM     37  C   UNL A   1      38.907  29.936  29.179  1.00  0.00     0.049 A 
ATOM     38  H   UNL A   1      40.346  29.385  30.577  1.00  0.00     0.167 HD
ATOM     39  C   UNL A   1      43.475  28.054  33.402  1.00  0.00     0.031 A 
ATOM     40  C   UNL A   1      38.007  30.692  29.834  1.00  0.00     0.031 A 
ATOM     41  C   UNL A   1      42.601  28.902  34.165  1.00  0.00     0.049 A 
ATOM     42  C   UNL A   1      38.207  30.944  31.305  1.00  0.00     0.074 A 
ATOM     43  C   UNL A   1      42.708  29.284  35.489  1.00  0.00     0.029 A 
ATOM     44  N   UNL A   1      41.449  29.494  33.665  1.00  0.00    -0.354 N 
ATOM     45  N   UNL A   1      39.182  30.549  32.089  1.00  0.00    -0.248 NA
ATOM     46  C   UNL A   1      37.186  31.757  31.979  1.00  0.00     0.031 C 
ATOM     47  C   UNL A   1      41.586  30.057  35.809  1.00  0.00     0.029 A 
ATOM     48  C   UNL A   1      40.821  30.217  34.664  1.00  0.00     0.049 A 
ATOM     49  H   UNL A   1      41.128  29.411  32.739  1.00  0.00     0.167 HD
ATOM     50  C   UNL A   1      38.910  31.091  33.339  1.00  0.00     0.074 A 
ATOM     51  C   UNL A   1      37.688  31.859  33.200  1.00  0.00     0.031 C 
ATOM     52  C   UNL A   1      39.605  30.972  34.498  1.00  0.00     0.031 A 
BRANCH  39  53
ATOM     53  C   UNL A   1      44.666  27.437  34.080  1.00  0.00    -0.014 A 
ATOM     54  C   UNL A   1      45.912  28.086  34.108  1.00  0.00     0.009 A 
ATOM     55  C   UNL A   1      44.536  26.194  34.716  1.00  0.00     0.009 A 
ATOM     56  C   UNL A   1      47.009  27.484  34.728  1.00  0.00     0.001 A 
ATOM     57  C   UNL A   1      45.626  25.609  35.364  1.00  0.00     0.001 A 
ATOM     58  C   UNL A   1      46.864  26.250  35.361  1.00  0.00     0.000 A 
ENDBRANCH  39  53
BRANCH  40  59
ATOM     59  C   UNL A   1      36.828  31.243  29.117  1.00  0.00    -0.014 A 
ATOM     60  C   UNL A   1      35.716  30.436  28.836  1.00  0.00     0.009 A 
ATOM     61  C   UNL A   1      36.819  32.581  28.688  1.00  0.00     0.009 A 
ATOM     62  C   UNL A   1      34.635  30.946  28.112  1.00  0.00     0.001 A 
ATOM     63  C   UNL A   1      35.722  33.097  27.994  1.00  0.00     0.001 A 
ATOM     64  C   UNL A   1      34.637  32.276  27.696  1.00  0.00     0.000 A 
ENDBRANCH  40  59
BRANCH  52  65
ATOM     65  C   UNL A   1      39.084  31.725  35.690  1.00  0.00    -0.014 A 
ATOM     66  C   UNL A   1      38.203  31.132  36.607  1.00  0.00     0.009 A 
ATOM     67  C   UNL A   1      39.516  33.042  35.915  1.00  0.00     0.009 A 
ATOM     68  C   UNL A   1      37.732  31.858  37.702  1.00  0.00     0.001 A 
ATOM     69  C   UNL A   1      39.072  33.752  37.031  1.00  0.00     0.001 A 
ATOM     70  C   UNL A   1      38.171  33.165  37.916  1.00  0.00     0.000 A 
ENDBRANCH  52  65
ENDBRANCH  26  27
ENDBRANCH  19  21
ENDBRANCH  18  19
ENDBRANCH  17  18
ENDBRANCH  16  17
ENDBRANCH  15  16
ENDBRANCH   1  15
TORSDOF 17
ENDMDL
MODEL 3
REMARK VINA RESULT:      -8.9      2.379      6.296
REMARK SMILES O=C(COC[C@@H]1CCCCO1)OCCOCCOC(=O)c1ccc(-c2c3nc(c(-c4ccccc4)c4ccc([nH]4)c(-c4ccccc4)c4nc(c(-c5ccccc5)c5ccc2[nH]5)C=C4)C=C3)cc1
REMARK SMILES IDX 14 1 13 2 12 3 2 4 1 5 3 6 4 7 5 8 6 9 7 10 11 11 8 12 10 13
REMARK SMILES IDX 9 14 15 15 16 16 17 17 18 18 19 19 20 20 21 21 22 22 68 23
REMARK SMILES IDX 23 24 67 25 24 26 25 27 26 28 61 29 27 30 66 31 60 32 62 33
REMARK SMILES IDX 28 34 65 35 59 36 58 37 29 39 51 40 36 41 50 42 37 43 40 44
REMARK SMILES IDX 49 45 63 46 38 47 39 48 48 50 64 51 41 52 30 53 31 54 35 55
REMARK SMILES IDX 32 56 34 57 33 58 52 59 53 60 57 61 54 62 56 63 55 64 42 65
REMARK SMILES IDX 43 66 47 67 44 68 46 69 45 70
REMARK H PARENT 62 38 40 49
REMARK Flexibility Score: inf
ROOT
ATOM      1  C   UNL A   1      36.877  22.862  24.849  1.00  0.00     0.202 C 
ENDROOT
BRANCH   1   2
ATOM      2  C   UNL A   1      35.500  23.336  25.340  1.00  0.00     0.261 C 
BRANCH   2   3
ATOM      3  O   UNL A   1      34.834  24.094  24.321  1.00  0.00    -0.462 OA
BRANCH   3   4
ATOM      4  C   UNL A   1      34.026  23.404  23.488  1.00  0.00     0.332 C 
ATOM      5  O   UNL A   1      34.011  23.659  22.287  1.00  0.00    -0.250 OA
BRANCH   4   6
ATOM      6  C   UNL A   1      33.213  22.270  24.139  1.00  0.00     0.282 C 
BRANCH   6   7
ATOM      7  O   UNL A   1      33.220  21.044  23.431  1.00  0.00    -0.367 OA
BRANCH   7   8
ATOM      8  C   UNL A   1      32.478  20.016  24.088  1.00  0.00     0.193 C 
BRANCH   8   9
ATOM      9  C   UNL A   1      33.305  19.250  25.144  1.00  0.00     0.144 C 
ATOM     10  C   UNL A   1      34.538  18.602  24.512  1.00  0.00     0.034 C 
ATOM     11  O   UNL A   1      32.574  18.267  25.890  1.00  0.00    -0.376 OA
ATOM     12  C   UNL A   1      34.162  17.382  23.674  1.00  0.00     0.005 C 
ATOM     13  C   UNL A   1      32.176  17.109  25.160  1.00  0.00     0.160 C 
ATOM     14  C   UNL A   1      33.347  16.402  24.508  1.00  0.00     0.029 C 
ENDBRANCH   8   9
ENDBRANCH   7   8
ENDBRANCH   6   7
ENDBRANCH   4   6
ENDBRANCH   3   4
ENDBRANCH   2   3
ENDBRANCH   1   2
BRANCH   1  15
ATOM     15  O   UNL A   1      36.927  21.555  24.272  1.00  0.00    -0.374 OA
BRANCH  15  16
ATOM     16  C   UNL A   1      37.841  20.596  24.814  1.00  0.00     0.202 C 
BRANCH  16  17
ATOM     17  C   UNL A   1      38.994  21.062  25.712  1.00  0.00     0.261 C 
BRANCH  17  18
ATOM     18  O   UNL A   1      39.607  19.997  26.439  1.00  0.00    -0.460 OA
BRANCH  18  19
ATOM     19  C   UNL A   1      40.939  19.892  26.234  1.00  0.00     0.338 C 
ATOM     20  O   UNL A   1      41.530  19.030  25.601  1.00  0.00    -0.246 OA
BRANCH  19  21
ATOM     21  C   UNL A   1      41.588  21.124  26.706  1.00  0.00     0.060 A 
ATOM     22  C   UNL A   1      41.519  21.405  28.077  1.00  0.00     0.016 A 
ATOM     23  C   UNL A   1      42.235  21.994  25.826  1.00  0.00     0.016 A 
ATOM     24  C   UNL A   1      42.058  22.581  28.573  1.00  0.00     0.010 A 
ATOM     25  C   UNL A   1      42.749  23.190  26.318  1.00  0.00     0.010 A 
ATOM     26  C   UNL A   1      42.620  23.502  27.683  1.00  0.00    -0.014 A 
BRANCH  26  27
ATOM     27  C   UNL A   1      42.848  24.882  28.149  1.00  0.00     0.031 A 
ATOM     28  C   UNL A   1      44.258  25.292  28.467  1.00  0.00     0.074 A 
ATOM     29  C   UNL A   1      41.830  25.753  28.235  1.00  0.00     0.049 A 
ATOM     30  N   UNL A   1      44.707  26.430  28.922  1.00  0.00    -0.248 NA
ATOM     31  C   UNL A   1      45.303  24.277  28.240  1.00  0.00     0.031 C 
ATOM     32  C   UNL A   1      40.439  25.470  27.886  1.00  0.00     0.029 A 
ATOM     33  N   UNL A   1      41.821  27.059  28.644  1.00  0.00    -0.354 N 
ATOM     34  C   UNL A   1      46.080  26.265  29.048  1.00  0.00     0.074 A 
ATOM     35  C   UNL A   1      46.389  24.909  28.655  1.00  0.00     0.031 C 
ATOM     36  C   UNL A   1      39.704  26.572  28.109  1.00  0.00     0.029 A 
ATOM     37  C   UNL A   1      40.569  27.619  28.647  1.00  0.00     0.049 A 
ATOM     38  H   UNL A   1      42.632  27.548  28.911  1.00  0.00     0.167 HD
ATOM     39  C   UNL A   1      47.003  27.169  29.449  1.00  0.00     0.031 A 
ATOM     40  C   UNL A   1      40.172  28.835  29.066  1.00  0.00     0.031 A 
ATOM     41  C   UNL A   1      46.678  28.509  29.857  1.00  0.00     0.049 A 
ATOM     42  C   UNL A   1      41.206  29.790  29.599  1.00  0.00     0.074 A 
ATOM     43  C   UNL A   1      47.528  29.511  30.285  1.00  0.00     0.029 A 
ATOM     44  N   UNL A   1      45.392  29.028  29.891  1.00  0.00    -0.354 N 
ATOM     45  N   UNL A   1      42.505  29.634  29.703  1.00  0.00    -0.248 NA
ATOM     46  C   UNL A   1      40.719  31.096  30.064  1.00  0.00     0.031 C 
ATOM     47  C   UNL A   1      46.749  30.618  30.638  1.00  0.00     0.029 A 
ATOM     48  C   UNL A   1      45.422  30.330  30.360  1.00  0.00     0.049 A 
ATOM     49  H   UNL A   1      44.579  28.542  29.622  1.00  0.00     0.167 HD
ATOM     50  C   UNL A   1      42.993  30.831  30.212  1.00  0.00     0.074 A 
ATOM     51  C   UNL A   1      41.851  31.708  30.378  1.00  0.00     0.031 C 
ATOM     52  C   UNL A   1      44.269  31.179  30.515  1.00  0.00     0.031 A 
BRANCH  39  53
ATOM     53  C   UNL A   1      48.435  26.718  29.505  1.00  0.00    -0.014 A 
ATOM     54  C   UNL A   1      48.990  26.179  30.678  1.00  0.00     0.009 A 
ATOM     55  C   UNL A   1      49.240  26.818  28.360  1.00  0.00     0.009 A 
ATOM     56  C   UNL A   1      50.329  25.785  30.711  1.00  0.00     0.001 A 
ATOM     57  C   UNL A   1      50.569  26.392  28.385  1.00  0.00     0.001 A 
ATOM     58  C   UNL A   1      51.116  25.885  29.563  1.00  0.00     0.000 A 
ENDBRANCH  39  53
BRANCH  40  59
ATOM     59  C   UNL A   1      38.734  29.210  29.023  1.00  0.00    -0.014 A 
ATOM     60  C   UNL A   1      38.181  29.803  27.878  1.00  0.00     0.009 A 
ATOM     61  C   UNL A   1      37.910  28.994  30.139  1.00  0.00     0.009 A 
ATOM     62  C   UNL A   1      36.842  30.204  27.865  1.00  0.00     0.001 A 
ATOM     63  C   UNL A   1      36.563  29.366  30.111  1.00  0.00     0.001 A 
ATOM     64  C   UNL A   1      36.035  29.981  28.979  1.00  0.00     0.000 A 
ENDBRANCH  40  59
BRANCH  52  65
ATOM     65  C   UNL A   1      44.498  32.580  31.009  1.00  0.00    -0.014 A 
ATOM     66  C   UNL A   1      44.496  32.886  32.378  1.00  0.00     0.009 A 
ATOM     67  C   UNL A   1      44.757  33.604  30.083  1.00  0.00     0.009 A 
ATOM     68  C   UNL A   1      44.707  34.198  32.807  1.00  0.00     0.001 A 
ATOM     69  C   UNL A   1      45.003  34.907  30.517  1.00  0.00     0.001 A 
ATOM     70  C   UNL A   1      44.965  35.206  31.877  1.00  0.00     0.000 A 
ENDBRANCH  52  65
ENDBRANCH  26  27
ENDBRANCH  19  21
ENDBRANCH  18  19
ENDBRANCH  17  18
ENDBRANCH  16  17
ENDBRANCH  15  16
ENDBRANCH   1  15
TORSDOF 17
ENDMDL
