MODEL 1
REMARK VINA RESULT:     -11.6      0.000      0.000
REMARK SMILES CC1(C)Oc2ccc(NC(=O)[C@H]3CC=CC[C@@H]3C(=O)OCCOCCOC(=O)c3ccc(-c4c5nc(c(-c6ccccc6)c6ccc([nH]6)c(-c6ccccc6)c6nc(c(-c7ccccc7)c7ccc4[nH]7)C=C6)C=C5)cc3)cc2NC1=O
REMARK SMILES IDX 23 1 22 2 21 3 20 4 18 5 19 6 17 7 12 8 13 9 14 10 16 11
REMARK SMILES IDX 15 12 10 13 9 14 11 16 8 17 1 18 2 19 3 20 4 21 80 22 5 23
REMARK SMILES IDX 79 24 81 25 6 26 78 27 7 29 77 30 24 31 25 32 26 33 27 34
REMARK SMILES IDX 28 35 29 36 30 37 76 38 31 39 75 40 32 41 33 42 34 43 69 44
REMARK SMILES IDX 35 45 74 46 68 47 70 48 36 49 73 50 67 51 66 52 37 54 59 55
REMARK SMILES IDX 44 56 58 57 45 58 48 59 57 60 71 61 46 62 47 63 56 65 72 66
REMARK SMILES IDX 49 67 38 68 39 69 43 70 40 71 42 72 41 73 60 74 61 75 65 76
REMARK SMILES IDX 62 77 64 78 63 79 50 80 51 81 55 82 52 83 54 84 53 85
REMARK H PARENT 9 15 79 28 70 53 48 64
REMARK Flexibility Score: inf
ROOT
ATOM      1  O   UNL A   1      36.453  21.705  24.311  1.00  0.00    -0.374 OA
ENDROOT
BRANCH   1   2
ATOM      2  C   UNL A   1      36.138  22.880  23.571  1.00  0.00     0.202 C 
BRANCH   2   3
ATOM      3  C   UNL A   1      34.928  23.735  23.970  1.00  0.00     0.261 C 
BRANCH   3   4
ATOM      4  O   UNL A   1      34.140  24.183  22.856  1.00  0.00    -0.463 OA
BRANCH   4   5
ATOM      5  C   UNL A   1      33.886  25.520  22.905  1.00  0.00     0.310 C 
ATOM      6  O   UNL A   1      33.961  26.249  21.924  1.00  0.00    -0.252 OA
BRANCH   5   7
ATOM      7  C   UNL A   1      33.475  25.984  24.303  1.00  0.00     0.116 C 
ATOM      8  C   UNL A   1      32.014  25.564  24.605  1.00  0.00     0.097 C 
ATOM      9  C   UNL A   1      31.021  26.232  23.648  1.00  0.00     0.041 C 
ATOM     10  C   UNL A   1      31.422  27.616  23.203  1.00  0.00    -0.030 C 
ATOM     11  C   UNL A   1      33.661  27.501  24.317  1.00  0.00     0.043 C 
ATOM     12  C   UNL A   1      32.585  28.202  23.537  1.00  0.00    -0.030 C 
BRANCH   8  13
ATOM     13  C   UNL A   1      31.733  25.451  26.124  1.00  0.00     0.228 C 
ATOM     14  N   UNL A   1      31.603  24.283  26.818  1.00  0.00    -0.326 N 
ATOM     15  H   UNL A   1      31.058  24.346  27.634  1.00  0.00     0.169 HD
ATOM     16  O   UNL A   1      31.419  26.483  26.737  1.00  0.00    -0.274 OA
BRANCH  14  17
ATOM     17  C   UNL A   1      32.117  23.012  26.556  1.00  0.00     0.043 A 
ATOM     18  C   UNL A   1      34.556  17.722  24.139  1.00  0.00     0.067 C 
ATOM     19  C   UNL A   1      33.519  18.657  24.765  1.00  0.00     0.182 C 
ATOM     20  C   UNL A   1      32.726  17.894  25.838  1.00  0.00     0.067 C 
ATOM     21  O   UNL A   1      34.259  19.678  25.440  1.00  0.00    -0.476 OA
ATOM     22  C   UNL A   1      32.566  19.195  23.665  1.00  0.00     0.268 C 
ATOM     23  C   UNL A   1      33.453  20.711  25.828  1.00  0.00     0.144 A 
ATOM     24  N   UNL A   1      32.011  20.429  23.924  1.00  0.00    -0.319 N 
ATOM     25  O   UNL A   1      32.240  18.558  22.666  1.00  0.00    -0.270 OA
ATOM     26  C   UNL A   1      33.738  21.296  27.045  1.00  0.00     0.051 A 
ATOM     27  C   UNL A   1      32.383  21.163  25.052  1.00  0.00     0.086 A 
ATOM     28  H   UNL A   1      31.343  20.799  23.304  1.00  0.00     0.170 HD
ATOM     29  C   UNL A   1      33.011  22.412  27.436  1.00  0.00     0.030 A 
ATOM     30  C   UNL A   1      31.709  22.329  25.408  1.00  0.00     0.056 A 
ENDBRANCH  14  17
ENDBRANCH   8  13
ENDBRANCH   5   7
ENDBRANCH   4   5
ENDBRANCH   3   4
ENDBRANCH   2   3
ENDBRANCH   1   2
BRANCH   1  31
ATOM     31  C   UNL A   1      37.693  21.666  25.013  1.00  0.00     0.202 C 
BRANCH  31  32
ATOM     32  C   UNL A   1      38.524  20.381  24.996  1.00  0.00     0.261 C 
BRANCH  32  33
ATOM     33  O   UNL A   1      39.175  20.164  26.259  1.00  0.00    -0.460 OA
BRANCH  33  34
ATOM     34  C   UNL A   1      40.513  19.980  26.192  1.00  0.00     0.338 C 
ATOM     35  O   UNL A   1      41.112  19.071  25.635  1.00  0.00    -0.246 OA
BRANCH  34  36
ATOM     36  C   UNL A   1      41.178  21.200  26.684  1.00  0.00     0.060 A 
ATOM     37  C   UNL A   1      41.774  22.106  25.806  1.00  0.00     0.016 A 
ATOM     38  C   UNL A   1      41.192  21.428  28.068  1.00  0.00     0.016 A 
ATOM     39  C   UNL A   1      42.348  23.269  26.321  1.00  0.00     0.010 A 
ATOM     40  C   UNL A   1      41.777  22.580  28.580  1.00  0.00     0.010 A 
ATOM     41  C   UNL A   1      42.331  23.523  27.706  1.00  0.00    -0.014 A 
BRANCH  41  42
ATOM     42  C   UNL A   1      42.723  24.853  28.222  1.00  0.00     0.031 A 
ATOM     43  C   UNL A   1      44.142  25.187  28.552  1.00  0.00     0.074 A 
ATOM     44  C   UNL A   1      41.745  25.756  28.423  1.00  0.00     0.049 A 
ATOM     45  N   UNL A   1      44.641  26.335  28.934  1.00  0.00    -0.248 NA
ATOM     46  C   UNL A   1      45.127  24.101  28.452  1.00  0.00     0.031 C 
ATOM     47  C   UNL A   1      40.322  25.513  28.174  1.00  0.00     0.029 A 
ATOM     48  N   UNL A   1      41.792  27.053  28.865  1.00  0.00    -0.354 N 
ATOM     49  C   UNL A   1      46.001  26.120  29.097  1.00  0.00     0.074 A 
ATOM     50  C   UNL A   1      46.241  24.717  28.828  1.00  0.00     0.031 C 
ATOM     51  C   UNL A   1      39.638  26.637  28.422  1.00  0.00     0.029 A 
ATOM     52  C   UNL A   1      40.564  27.666  28.885  1.00  0.00     0.049 A 
ATOM     53  H   UNL A   1      42.625  27.500  29.141  1.00  0.00     0.167 HD
ATOM     54  C   UNL A   1      46.959  27.021  29.424  1.00  0.00     0.031 A 
ATOM     55  C   UNL A   1      40.216  28.922  29.228  1.00  0.00     0.031 A 
ATOM     56  C   UNL A   1      46.693  28.407  29.722  1.00  0.00     0.049 A 
ATOM     57  C   UNL A   1      41.291  29.891  29.630  1.00  0.00     0.074 A 
ATOM     58  C   UNL A   1      47.601  29.407  30.023  1.00  0.00     0.029 A 
ATOM     59  N   UNL A   1      45.432  28.984  29.775  1.00  0.00    -0.354 N 
ATOM     60  N   UNL A   1      42.587  29.701  29.690  1.00  0.00    -0.248 NA
ATOM     61  C   UNL A   1      40.863  31.247  29.996  1.00  0.00     0.031 C 
ATOM     62  C   UNL A   1      46.888  30.564  30.341  1.00  0.00     0.029 A 
ATOM     63  C   UNL A   1      45.538  30.316  30.145  1.00  0.00     0.049 A 
ATOM     64  H   UNL A   1      44.588  28.518  29.579  1.00  0.00     0.167 HD
ATOM     65  C   UNL A   1      43.133  30.917  30.078  1.00  0.00     0.074 A 
ATOM     66  C   UNL A   1      42.027  31.844  30.221  1.00  0.00     0.031 C 
ATOM     67  C   UNL A   1      44.433  31.233  30.295  1.00  0.00     0.031 A 
BRANCH  54  68
ATOM     68  C   UNL A   1      48.388  26.553  29.473  1.00  0.00    -0.014 A 
ATOM     69  C   UNL A   1      48.931  26.075  30.677  1.00  0.00     0.009 A 
ATOM     70  C   UNL A   1      49.232  26.690  28.360  1.00  0.00     0.009 A 
ATOM     71  C   UNL A   1      50.289  25.761  30.770  1.00  0.00     0.001 A 
ATOM     72  C   UNL A   1      50.583  26.343  28.445  1.00  0.00     0.001 A 
ATOM     73  C   UNL A   1      51.113  25.891  29.653  1.00  0.00     0.000 A 
ENDBRANCH  54  68
BRANCH  55  74
ATOM     74  C   UNL A   1      38.788  29.322  29.136  1.00  0.00    -0.014 A 
ATOM     75  C   UNL A   1      37.931  29.170  30.241  1.00  0.00     0.009 A 
ATOM     76  C   UNL A   1      38.249  29.767  27.920  1.00  0.00     0.009 A 
ATOM     77  C   UNL A   1      36.562  29.415  30.117  1.00  0.00     0.001 A 
ATOM     78  C   UNL A   1      36.884  30.046  27.810  1.00  0.00     0.001 A 
ATOM     79  C   UNL A   1      36.040  29.855  28.903  1.00  0.00     0.000 A 
ENDBRANCH  55  74
BRANCH  67  80
ATOM     80  C   UNL A   1      44.762  32.643  30.710  1.00  0.00    -0.014 A 
ATOM     81  C   UNL A   1      45.071  33.603  29.733  1.00  0.00     0.009 A 
ATOM     82  C   UNL A   1      44.889  32.991  32.063  1.00  0.00     0.009 A 
ATOM     83  C   UNL A   1      45.531  34.869  30.098  1.00  0.00     0.001 A 
ATOM     84  C   UNL A   1      45.313  34.271  32.428  1.00  0.00     0.001 A 
ATOM     85  C   UNL A   1      45.647  35.203  31.446  1.00  0.00     0.000 A 
ENDBRANCH  67  80
ENDBRANCH  41  42
ENDBRANCH  34  36
ENDBRANCH  33  34
ENDBRANCH  32  33
ENDBRANCH  31  32
ENDBRANCH   1  31
TORSDOF 16
ENDMDL
MODEL 2
REMARK VINA RESULT:     -11.5      2.016      2.598
REMARK SMILES CC1(C)Oc2ccc(NC(=O)[C@H]3CC=CC[C@@H]3C(=O)OCCOCCOC(=O)c3ccc(-c4c5nc(c(-c6ccccc6)c6ccc([nH]6)c(-c6ccccc6)c6nc(c(-c7ccccc7)c7ccc4[nH]7)C=C6)C=C5)cc3)cc2NC1=O
REMARK SMILES IDX 23 1 22 2 21 3 20 4 18 5 19 6 17 7 12 8 13 9 14 10 16 11
REMARK SMILES IDX 15 12 10 13 9 14 11 16 8 17 1 18 2 19 3 20 4 21 80 22 5 23
REMARK SMILES IDX 79 24 81 25 6 26 78 27 7 29 77 30 24 31 25 32 26 33 27 34
REMARK SMILES IDX 28 35 29 36 30 37 76 38 31 39 75 40 32 41 33 42 34 43 69 44
REMARK SMILES IDX 35 45 74 46 68 47 70 48 36 49 73 50 67 51 66 52 37 54 59 55
REMARK SMILES IDX 44 56 58 57 45 58 48 59 57 60 71 61 46 62 47 63 56 65 72 66
REMARK SMILES IDX 49 67 38 68 39 69 43 70 40 71 42 72 41 73 60 74 61 75 65 76
REMARK SMILES IDX 62 77 64 78 63 79 50 80 51 81 55 82 52 83 54 84 53 85
REMARK H PARENT 9 15 79 28 70 53 48 64
REMARK Flexibility Score: inf
ROOT
ATOM      1  O   UNL A   1      35.714  22.167  24.134  1.00  0.00    -0.374 OA
ENDROOT
BRANCH   1   2
ATOM      2  C   UNL A   1      35.090  23.022  23.181  1.00  0.00     0.202 C 
BRANCH   2   3
ATOM      3  C   UNL A   1      34.427  24.326  23.642  1.00  0.00     0.261 C 
BRANCH   3   4
ATOM      4  O   UNL A   1      33.468  24.852  22.710  1.00  0.00    -0.463 OA
BRANCH   4   5
ATOM      5  C   UNL A   1      33.319  26.201  22.826  1.00  0.00     0.310 C 
ATOM      6  O   UNL A   1      33.564  26.980  21.914  1.00  0.00    -0.252 OA
BRANCH   5   7
ATOM      7  C   UNL A   1      32.787  26.611  24.200  1.00  0.00     0.116 C 
ATOM      8  C   UNL A   1      31.562  25.744  24.588  1.00  0.00     0.097 C 
ATOM      9  C   UNL A   1      30.391  25.949  23.621  1.00  0.00     0.041 C 
ATOM     10  C   UNL A   1      30.287  27.345  23.058  1.00  0.00    -0.030 C 
ATOM     11  C   UNL A   1      32.439  28.096  24.093  1.00  0.00     0.043 C 
ATOM     12  C   UNL A   1      31.180  28.319  23.303  1.00  0.00    -0.030 C 
BRANCH   8  13
ATOM     13  C   UNL A   1      31.352  25.669  26.120  1.00  0.00     0.228 C 
ATOM     14  N   UNL A   1      31.307  24.520  26.856  1.00  0.00    -0.326 N 
ATOM     15  H   UNL A   1      30.795  24.586  27.693  1.00  0.00     0.169 HD
ATOM     16  O   UNL A   1      31.015  26.706  26.713  1.00  0.00    -0.274 OA
BRANCH  14  17
ATOM     17  C   UNL A   1      31.869  23.267  26.612  1.00  0.00     0.043 A 
ATOM     18  C   UNL A   1      34.578  18.067  24.288  1.00  0.00     0.067 C 
ATOM     19  C   UNL A   1      33.485  18.968  24.866  1.00  0.00     0.182 C 
ATOM     20  C   UNL A   1      32.659  18.174  25.891  1.00  0.00     0.067 C 
ATOM     21  O   UNL A   1      34.160  20.003  25.586  1.00  0.00    -0.476 OA
ATOM     22  C   UNL A   1      32.575  19.488  23.722  1.00  0.00     0.268 C 
ATOM     23  C   UNL A   1      33.306  21.010  25.939  1.00  0.00     0.144 A 
ATOM     24  N   UNL A   1      31.973  20.704  23.960  1.00  0.00    -0.319 N 
ATOM     25  O   UNL A   1      32.319  18.851  22.703  1.00  0.00    -0.270 OA
ATOM     26  C   UNL A   1      33.511  21.593  27.173  1.00  0.00     0.051 A 
ATOM     27  C   UNL A   1      32.265  21.439  25.111  1.00  0.00     0.086 A 
ATOM     28  H   UNL A   1      31.327  21.061  23.309  1.00  0.00     0.170 HD
ATOM     29  C   UNL A   1      32.734  22.684  27.533  1.00  0.00     0.030 A 
ATOM     30  C   UNL A   1      31.541  22.583  25.440  1.00  0.00     0.056 A 
ENDBRANCH  14  17
ENDBRANCH   8  13
ENDBRANCH   5   7
ENDBRANCH   4   5
ENDBRANCH   3   4
ENDBRANCH   2   3
ENDBRANCH   1   2
BRANCH   1  31
ATOM     31  C   UNL A   1      37.083  21.823  23.931  1.00  0.00     0.202 C 
BRANCH  31  32
ATOM     32  C   UNL A   1      37.742  20.796  24.855  1.00  0.00     0.261 C 
BRANCH  32  33
ATOM     33  O   UNL A   1      38.140  21.395  26.101  1.00  0.00    -0.460 OA
BRANCH  33  34
ATOM     34  C   UNL A   1      39.453  21.280  26.401  1.00  0.00     0.338 C 
ATOM     35  O   UNL A   1      40.200  20.352  26.126  1.00  0.00    -0.246 OA
BRANCH  34  36
ATOM     36  C   UNL A   1      39.934  22.580  26.901  1.00  0.00     0.060 A 
ATOM     37  C   UNL A   1      40.945  22.661  27.859  1.00  0.00     0.016 A 
ATOM     38  C   UNL A   1      39.346  23.743  26.380  1.00  0.00     0.016 A 
ATOM     39  C   UNL A   1      41.397  23.918  28.263  1.00  0.00     0.010 A 
ATOM     40  C   UNL A   1      39.787  24.994  26.795  1.00  0.00     0.010 A 
ATOM     41  C   UNL A   1      40.838  25.089  27.715  1.00  0.00    -0.014 A 
BRANCH  41  42
ATOM     42  C   UNL A   1      41.473  26.402  27.964  1.00  0.00     0.031 A 
ATOM     43  C   UNL A   1      42.802  26.760  27.380  1.00  0.00     0.074 A 
ATOM     44  C   UNL A   1      40.828  27.263  28.772  1.00  0.00     0.049 A 
ATOM     45  N   UNL A   1      43.439  27.901  27.447  1.00  0.00    -0.248 NA
ATOM     46  C   UNL A   1      43.513  25.711  26.637  1.00  0.00     0.031 C 
ATOM     47  C   UNL A   1      39.547  26.990  29.427  1.00  0.00     0.029 A 
ATOM     48  N   UNL A   1      41.144  28.536  29.170  1.00  0.00    -0.354 N 
ATOM     49  C   UNL A   1      44.615  27.719  26.734  1.00  0.00     0.074 A 
ATOM     50  C   UNL A   1      44.630  26.340  26.292  1.00  0.00     0.031 C 
ATOM     51  C   UNL A   1      39.164  28.079  30.107  1.00  0.00     0.029 A 
ATOM     52  C   UNL A   1      40.188  29.111  29.970  1.00  0.00     0.049 A 
ATOM     53  H   UNL A   1      41.977  28.992  28.907  1.00  0.00     0.167 HD
ATOM     54  C   UNL A   1      45.580  28.630  26.463  1.00  0.00     0.031 A 
ATOM     55  C   UNL A   1      40.132  30.335  30.527  1.00  0.00     0.031 A 
ATOM     56  C   UNL A   1      45.562  29.990  26.943  1.00  0.00     0.049 A 
ATOM     57  C   UNL A   1      41.237  31.314  30.249  1.00  0.00     0.074 A 
ATOM     58  C   UNL A   1      46.474  31.000  26.687  1.00  0.00     0.029 A 
ATOM     59  N   UNL A   1      44.600  30.526  27.787  1.00  0.00    -0.354 N 
ATOM     60  N   UNL A   1      42.299  31.160  29.495  1.00  0.00    -0.248 NA
ATOM     61  C   UNL A   1      41.131  32.636  30.880  1.00  0.00     0.031 C 
ATOM     62  C   UNL A   1      46.111  32.117  27.442  1.00  0.00     0.029 A 
ATOM     63  C   UNL A   1      44.920  31.839  28.095  1.00  0.00     0.049 A 
ATOM     64  H   UNL A   1      43.808  30.045  28.118  1.00  0.00     0.167 HD
ATOM     65  C   UNL A   1      42.978  32.371  29.543  1.00  0.00     0.074 A 
ATOM     66  C   UNL A   1      42.196  33.255  30.384  1.00  0.00     0.031 C 
ATOM     67  C   UNL A   1      44.143  32.713  28.941  1.00  0.00     0.031 A 
BRANCH  54  68
ATOM     68  C   UNL A   1      46.740  28.203  25.604  1.00  0.00    -0.014 A 
ATOM     69  C   UNL A   1      46.594  28.132  24.209  1.00  0.00     0.009 A 
ATOM     70  C   UNL A   1      47.943  27.765  26.179  1.00  0.00     0.009 A 
ATOM     71  C   UNL A   1      47.617  27.614  23.412  1.00  0.00     0.001 A 
ATOM     72  C   UNL A   1      48.979  27.279  25.377  1.00  0.00     0.001 A 
ATOM     73  C   UNL A   1      48.810  27.193  23.996  1.00  0.00     0.000 A 
ENDBRANCH  54  68
BRANCH  55  74
ATOM     74  C   UNL A   1      38.947  30.697  31.349  1.00  0.00    -0.014 A 
ATOM     75  C   UNL A   1      37.859  31.377  30.773  1.00  0.00     0.009 A 
ATOM     76  C   UNL A   1      38.937  30.455  32.730  1.00  0.00     0.009 A 
ATOM     77  C   UNL A   1      36.808  31.839  31.568  1.00  0.00     0.001 A 
ATOM     78  C   UNL A   1      37.867  30.888  33.517  1.00  0.00     0.001 A 
ATOM     79  C   UNL A   1      36.812  31.592  32.939  1.00  0.00     0.000 A 
ENDBRANCH  55  74
BRANCH  67  80
ATOM     80  C   UNL A   1      44.668  34.109  29.153  1.00  0.00    -0.014 A 
ATOM     81  C   UNL A   1      44.346  35.121  28.234  1.00  0.00     0.009 A 
ATOM     82  C   UNL A   1      45.577  34.395  30.183  1.00  0.00     0.009 A 
ATOM     83  C   UNL A   1      44.946  36.379  28.321  1.00  0.00     0.001 A 
ATOM     84  C   UNL A   1      46.147  35.666  30.290  1.00  0.00     0.001 A 
ATOM     85  C   UNL A   1      45.843  36.651  29.352  1.00  0.00     0.000 A 
ENDBRANCH  67  80
ENDBRANCH  41  42
ENDBRANCH  34  36
ENDBRANCH  33  34
ENDBRANCH  32  33
ENDBRANCH  31  32
ENDBRANCH   1  31
TORSDOF 16
ENDMDL
MODEL 3
REMARK VINA RESULT:     -11.4      3.006      7.802
REMARK SMILES CC1(C)Oc2ccc(NC(=O)[C@H]3CC=CC[C@@H]3C(=O)OCCOCCOC(=O)c3ccc(-c4c5nc(c(-c6ccccc6)c6ccc([nH]6)c(-c6ccccc6)c6nc(c(-c7ccccc7)c7ccc4[nH]7)C=C6)C=C5)cc3)cc2NC1=O
REMARK SMILES IDX 23 1 22 2 21 3 20 4 18 5 19 6 17 7 12 8 13 9 14 10 16 11
REMARK SMILES IDX 15 12 10 13 9 14 11 16 8 17 1 18 2 19 3 20 4 21 80 22 5 23
REMARK SMILES IDX 79 24 81 25 6 26 78 27 7 29 77 30 24 31 25 32 26 33 27 34
REMARK SMILES IDX 28 35 29 36 30 37 76 38 31 39 75 40 32 41 33 42 34 43 69 44
REMARK SMILES IDX 35 45 74 46 68 47 70 48 36 49 73 50 67 51 66 52 37 54 59 55
REMARK SMILES IDX 44 56 58 57 45 58 48 59 57 60 71 61 46 62 47 63 56 65 72 66
REMARK SMILES IDX 49 67 38 68 39 69 43 70 40 71 42 72 41 73 60 74 61 75 65 76
REMARK SMILES IDX 62 77 64 78 63 79 50 80 51 81 55 82 52 83 54 84 53 85
REMARK H PARENT 9 15 79 28 70 53 48 64
REMARK Flexibility Score: inf
ROOT
ATOM      1  O   UNL A   1      32.963  34.460  29.248  1.00  0.00    -0.374 OA
ENDROOT
BRANCH   1   2
ATOM      2  C   UNL A   1      33.192  33.785  28.014  1.00  0.00     0.202 C 
BRANCH   2   3
ATOM      3  C   UNL A   1      33.818  32.385  28.013  1.00  0.00     0.261 C 
BRANCH   3   4
ATOM      4  O   UNL A   1      32.991  31.379  27.406  1.00  0.00    -0.463 OA
BRANCH   4   5
ATOM      5  C   UNL A   1      33.719  30.340  26.911  1.00  0.00     0.310 C 
ATOM      6  O   UNL A   1      34.723  29.906  27.461  1.00  0.00    -0.252 OA
BRANCH   5   7
ATOM      7  C   UNL A   1      33.121  29.772  25.623  1.00  0.00     0.116 C 
ATOM      8  C   UNL A   1      31.646  29.350  25.851  1.00  0.00     0.097 C 
ATOM      9  C   UNL A   1      31.531  28.224  26.883  1.00  0.00     0.041 C 
ATOM     10  C   UNL A   1      32.690  27.259  26.883  1.00  0.00    -0.030 C 
ATOM     11  C   UNL A   1      34.010  28.593  25.226  1.00  0.00     0.043 C 
ATOM     12  C   UNL A   1      33.781  27.399  26.111  1.00  0.00    -0.030 C 
BRANCH   8  13
ATOM     13  C   UNL A   1      30.824  29.342  24.538  1.00  0.00     0.228 C 
ATOM     14  N   UNL A   1      30.868  28.365  23.586  1.00  0.00    -0.326 N 
ATOM     15  H   UNL A   1      30.626  28.662  22.679  1.00  0.00     0.169 HD
ATOM     16  O   UNL A   1      30.214  30.377  24.226  1.00  0.00    -0.274 OA
BRANCH  14  17
ATOM     17  C   UNL A   1      31.201  27.015  23.689  1.00  0.00     0.043 A 
ATOM     18  C   UNL A   1      33.898  21.369  24.488  1.00  0.00     0.067 C 
ATOM     19  C   UNL A   1      33.251  22.550  23.761  1.00  0.00     0.182 C 
ATOM     20  C   UNL A   1      32.274  22.020  22.698  1.00  0.00     0.067 C 
ATOM     21  O   UNL A   1      32.468  23.240  24.738  1.00  0.00    -0.476 OA
ATOM     22  C   UNL A   1      34.348  23.426  23.101  1.00  0.00     0.268 C 
ATOM     23  C   UNL A   1      32.039  24.453  24.275  1.00  0.00     0.144 A 
ATOM     24  N   UNL A   1      34.022  24.755  22.947  1.00  0.00    -0.319 N 
ATOM     25  O   UNL A   1      35.406  22.985  22.657  1.00  0.00    -0.270 OA
ATOM     26  C   UNL A   1      30.771  24.846  24.649  1.00  0.00     0.051 A 
ATOM     27  C   UNL A   1      32.827  25.266  23.456  1.00  0.00     0.086 A 
ATOM     28  H   UNL A   1      34.642  25.354  22.473  1.00  0.00     0.170 HD
ATOM     29  C   UNL A   1      30.330  26.111  24.288  1.00  0.00     0.030 A 
ATOM     30  C   UNL A   1      32.415  26.565  23.163  1.00  0.00     0.056 A 
ENDBRANCH  14  17
ENDBRANCH   8  13
ENDBRANCH   5   7
ENDBRANCH   4   5
ENDBRANCH   3   4
ENDBRANCH   2   3
ENDBRANCH   1   2
BRANCH   1  31
ATOM     31  C   UNL A   1      34.076  34.670  30.113  1.00  0.00     0.202 C 
BRANCH  31  32
ATOM     32  C   UNL A   1      34.012  34.156  31.554  1.00  0.00     0.261 C 
BRANCH  32  33
ATOM     33  O   UNL A   1      34.444  32.787  31.638  1.00  0.00    -0.460 OA
BRANCH  33  34
ATOM     34  C   UNL A   1      35.433  32.549  32.529  1.00  0.00     0.338 C 
ATOM     35  O   UNL A   1      35.382  32.662  33.744  1.00  0.00    -0.246 OA
BRANCH  34  36
ATOM     36  C   UNL A   1      36.540  31.873  31.828  1.00  0.00     0.060 A 
ATOM     37  C   UNL A   1      36.616  31.857  30.435  1.00  0.00     0.016 A 
ATOM     38  C   UNL A   1      37.523  31.244  32.607  1.00  0.00     0.016 A 
ATOM     39  C   UNL A   1      37.710  31.244  29.823  1.00  0.00     0.010 A 
ATOM     40  C   UNL A   1      38.605  30.621  31.995  1.00  0.00     0.010 A 
ATOM     41  C   UNL A   1      38.720  30.645  30.600  1.00  0.00    -0.014 A 
BRANCH  41  42
ATOM     42  C   UNL A   1      39.984  30.210  29.966  1.00  0.00     0.031 A 
ATOM     43  C   UNL A   1      41.178  31.106  29.884  1.00  0.00     0.074 A 
ATOM     44  C   UNL A   1      40.017  28.978  29.423  1.00  0.00     0.049 A 
ATOM     45  N   UNL A   1      42.374  30.830  29.431  1.00  0.00    -0.248 NA
ATOM     46  C   UNL A   1      41.014  32.486  30.361  1.00  0.00     0.031 C 
ATOM     47  C   UNL A   1      38.890  28.043  29.411  1.00  0.00     0.029 A 
ATOM     48  N   UNL A   1      41.026  28.296  28.795  1.00  0.00    -0.354 N 
ATOM     49  C   UNL A   1      43.115  31.991  29.588  1.00  0.00     0.074 A 
ATOM     50  C   UNL A   1      42.218  32.993  30.126  1.00  0.00     0.031 C 
ATOM     51  C   UNL A   1      39.284  26.894  28.847  1.00  0.00     0.029 A 
ATOM     52  C   UNL A   1      40.675  27.023  28.423  1.00  0.00     0.049 A 
ATOM     53  H   UNL A   1      41.916  28.683  28.627  1.00  0.00     0.167 HD
ATOM     54  C   UNL A   1      44.429  32.189  29.323  1.00  0.00     0.031 A 
ATOM     55  C   UNL A   1      41.390  26.057  27.816  1.00  0.00     0.031 A 
ATOM     56  C   UNL A   1      45.296  31.187  28.754  1.00  0.00     0.049 A 
ATOM     57  C   UNL A   1      42.834  26.316  27.490  1.00  0.00     0.074 A 
ATOM     58  C   UNL A   1      46.651  31.280  28.487  1.00  0.00     0.029 A 
ATOM     59  N   UNL A   1      44.896  29.922  28.349  1.00  0.00    -0.354 N 
ATOM     60  N   UNL A   1      43.549  27.388  27.730  1.00  0.00    -0.248 NA
ATOM     61  C   UNL A   1      43.572  25.234  26.827  1.00  0.00     0.031 C 
ATOM     62  C   UNL A   1      47.051  30.107  27.844  1.00  0.00     0.029 A 
ATOM     63  C   UNL A   1      45.969  29.241  27.796  1.00  0.00     0.049 A 
ATOM     64  H   UNL A   1      43.985  29.561  28.442  1.00  0.00     0.167 HD
ATOM     65  C   UNL A   1      44.828  27.103  27.268  1.00  0.00     0.074 A 
ATOM     66  C   UNL A   1      44.793  25.749  26.752  1.00  0.00     0.031 C 
ATOM     67  C   UNL A   1      45.928  27.895  27.275  1.00  0.00     0.031 A 
BRANCH  54  68
ATOM     68  C   UNL A   1      45.024  33.533  29.645  1.00  0.00    -0.014 A 
ATOM     69  C   UNL A   1      45.512  33.796  30.936  1.00  0.00     0.009 A 
ATOM     70  C   UNL A   1      45.003  34.578  28.707  1.00  0.00     0.009 A 
ATOM     71  C   UNL A   1      45.947  35.077  31.285  1.00  0.00     0.001 A 
ATOM     72  C   UNL A   1      45.470  35.849  29.048  1.00  0.00     0.001 A 
ATOM     73  C   UNL A   1      45.930  36.101  30.340  1.00  0.00     0.000 A 
ENDBRANCH  54  68
BRANCH  55  74
ATOM     74  C   UNL A   1      40.745  24.745  27.545  1.00  0.00    -0.014 A 
ATOM     75  C   UNL A   1      41.243  23.569  28.132  1.00  0.00     0.009 A 
ATOM     76  C   UNL A   1      39.691  24.648  26.625  1.00  0.00     0.009 A 
ATOM     77  C   UNL A   1      40.727  22.322  27.773  1.00  0.00     0.001 A 
ATOM     78  C   UNL A   1      39.153  23.401  26.295  1.00  0.00     0.001 A 
ATOM     79  C   UNL A   1      39.681  22.239  26.857  1.00  0.00     0.000 A 
ENDBRANCH  55  74
BRANCH  67  80
ATOM     80  C   UNL A   1      47.209  27.337  26.712  1.00  0.00    -0.014 A 
ATOM     81  C   UNL A   1      47.465  27.435  25.335  1.00  0.00     0.009 A 
ATOM     82  C   UNL A   1      48.098  26.609  27.515  1.00  0.00     0.009 A 
ATOM     83  C   UNL A   1      48.566  26.790  24.767  1.00  0.00     0.001 A 
ATOM     84  C   UNL A   1      49.220  25.995  26.952  1.00  0.00     0.001 A 
ATOM     85  C   UNL A   1      49.444  26.074  25.578  1.00  0.00     0.000 A 
ENDBRANCH  67  80
ENDBRANCH  41  42
ENDBRANCH  34  36
ENDBRANCH  33  34
ENDBRANCH  32  33
ENDBRANCH  31  32
ENDBRANCH   1  31
TORSDOF 16
ENDMDL
