MODEL 1
REMARK VINA RESULT:      -9.5      0.000      0.000
REMARK SMILES CC(C)[C@H](NC(=O)[C@H](C)NC(=O)C[NH3+])C(=O)OCCOCCOC(=O)c1ccc(-c2c3nc(c(-c4ccccc4)c4ccc([nH]4)c(-c4ccccc4)c4nc(c(-c5ccccc5)c5ccc2[nH]5)C=C4)C=C3)cc1
REMARK SMILES IDX 18 1 17 2 15 3 16 4 4 5 2 6 1 7 3 8 5 9 6 10 7 12 8 13 9 14
REMARK SMILES IDX 10 15 11 16 12 18 13 19 14 20 19 24 20 25 21 26 22 27 23 28
REMARK SMILES IDX 24 29 25 30 26 31 27 32 73 33 28 34 72 35 29 36 30 37 31 38
REMARK SMILES IDX 66 39 32 40 71 41 65 42 67 43 33 44 70 45 64 46 63 47 34 49
REMARK SMILES IDX 56 50 41 51 55 52 42 53 45 54 54 55 68 56 43 57 44 58 53 60
REMARK SMILES IDX 69 61 46 62 35 63 36 64 40 65 37 66 39 67 38 68 57 69 58 70
REMARK SMILES IDX 62 71 59 72 61 73 60 74 47 75 48 76 52 77 49 78 51 79 50 80
REMARK H PARENT 5 11 10 17 14 21 14 22 14 23 67 48 45 59
REMARK Flexibility Score: inf
ROOT
ATOM      1  C   UNL A   1      39.936  22.071  26.821  1.00  0.00     0.261 C 
ENDROOT
BRANCH   1   2
ATOM      2  O   UNL A   1      38.874  22.262  25.873  1.00  0.00    -0.462 OA
BRANCH   2   3
ATOM      3  C   UNL A   1      37.945  23.186  26.245  1.00  0.00     0.328 C 
ATOM      4  O   UNL A   1      38.198  24.170  26.932  1.00  0.00    -0.250 OA
BRANCH   3   5
ATOM      5  C   UNL A   1      36.537  22.901  25.677  1.00  0.00     0.194 C 
BRANCH   5   6
ATOM      6  C   UNL A   1      36.088  23.881  24.571  1.00  0.00     0.017 C 
ATOM      7  C   UNL A   1      35.812  23.227  23.213  1.00  0.00     0.010 C 
ATOM      8  C   UNL A   1      34.852  24.681  24.996  1.00  0.00     0.010 C 
ENDBRANCH   5   6
BRANCH   5   9
ATOM      9  N   UNL A   1      35.479  22.570  26.661  1.00  0.00    -0.341 N 
ATOM     10  C   UNL A   1      34.445  21.696  26.763  1.00  0.00     0.243 C 
ATOM     11  H   UNL A   1      35.544  23.140  27.462  1.00  0.00     0.164 HD
ATOM     12  O   UNL A   1      33.814  21.761  27.826  1.00  0.00    -0.273 OA
BRANCH  10  13
ATOM     13  C   UNL A   1      33.995  20.748  25.628  1.00  0.00     0.168 C 
ATOM     14  C   UNL A   1      33.123  21.514  24.625  1.00  0.00     0.041 C 
BRANCH  13  15
ATOM     15  N   UNL A   1      33.206  19.617  26.104  1.00  0.00    -0.340 N 
ATOM     16  C   UNL A   1      33.102  18.374  25.544  1.00  0.00     0.275 C 
ATOM     17  H   UNL A   1      32.686  19.767  26.926  1.00  0.00     0.164 HD
ATOM     18  O   UNL A   1      32.222  17.609  25.941  1.00  0.00    -0.268 OA
BRANCH  16  19
ATOM     19  C   UNL A   1      34.126  17.937  24.494  1.00  0.00     0.360 C 
BRANCH  19  20
ATOM     20  N   UNL A   1      34.948  16.832  24.997  1.00  0.00    -0.350 N 
ATOM     21  H   UNL A   1      35.927  17.114  25.005  1.00  0.00     0.344 HD
ATOM     22  H   UNL A   1      34.832  16.020  24.392  1.00  0.00     0.344 HD
ATOM     23  H   UNL A   1      34.654  16.594  25.944  1.00  0.00     0.344 HD
ENDBRANCH  19  20
ENDBRANCH  16  19
ENDBRANCH  13  15
ENDBRANCH  10  13
ENDBRANCH   5   9
ENDBRANCH   3   5
ENDBRANCH   2   3
ENDBRANCH   1   2
BRANCH   1  24
ATOM     24  C   UNL A   1      41.044  21.161  26.285  1.00  0.00     0.202 C 
BRANCH  24  25
ATOM     25  O   UNL A   1      41.978  21.740  25.379  1.00  0.00    -0.374 OA
BRANCH  25  26
ATOM     26  C   UNL A   1      43.367  21.476  25.585  1.00  0.00     0.202 C 
BRANCH  26  27
ATOM     27  C   UNL A   1      44.373  22.255  24.729  1.00  0.00     0.261 C 
BRANCH  27  28
ATOM     28  O   UNL A   1      44.020  23.643  24.603  1.00  0.00    -0.460 OA
BRANCH  28  29
ATOM     29  C   UNL A   1      44.728  24.480  25.394  1.00  0.00     0.338 C 
ATOM     30  O   UNL A   1      45.935  24.694  25.354  1.00  0.00    -0.246 OA
BRANCH  29  31
ATOM     31  C   UNL A   1      43.824  25.288  26.228  1.00  0.00     0.060 A 
ATOM     32  C   UNL A   1      44.081  26.664  26.307  1.00  0.00     0.016 A 
ATOM     33  C   UNL A   1      42.814  24.707  26.996  1.00  0.00     0.016 A 
ATOM     34  C   UNL A   1      43.372  27.454  27.207  1.00  0.00     0.010 A 
ATOM     35  C   UNL A   1      42.109  25.501  27.908  1.00  0.00     0.010 A 
ATOM     36  C   UNL A   1      42.419  26.866  28.048  1.00  0.00    -0.014 A 
BRANCH  36  37
ATOM     37  C   UNL A   1      41.880  27.653  29.182  1.00  0.00     0.031 A 
ATOM     38  C   UNL A   1      42.600  27.612  30.503  1.00  0.00     0.074 A 
ATOM     39  C   UNL A   1      40.800  28.439  29.025  1.00  0.00     0.049 A 
ATOM     40  N   UNL A   1      42.319  28.234  31.620  1.00  0.00    -0.248 NA
ATOM     41  C   UNL A   1      43.799  26.760  30.573  1.00  0.00     0.031 C 
ATOM     42  C   UNL A   1      40.046  28.602  27.783  1.00  0.00     0.029 A 
ATOM     43  N   UNL A   1      40.157  29.252  29.922  1.00  0.00    -0.354 N 
ATOM     44  C   UNL A   1      43.299  27.844  32.524  1.00  0.00     0.074 A 
ATOM     45  C   UNL A   1      44.166  26.913  31.836  1.00  0.00     0.031 C 
ATOM     46  C   UNL A   1      39.037  29.464  27.998  1.00  0.00     0.029 A 
ATOM     47  C   UNL A   1      39.060  29.887  29.397  1.00  0.00     0.049 A 
ATOM     48  H   UNL A   1      40.453  29.370  30.853  1.00  0.00     0.167 HD
ATOM     49  C   UNL A   1      43.467  28.231  33.811  1.00  0.00     0.031 A 
ATOM     50  C   UNL A   1      38.166  30.706  29.984  1.00  0.00     0.031 A 
ATOM     51  C   UNL A   1      42.599  29.145  34.502  1.00  0.00     0.049 A 
ATOM     52  C   UNL A   1      38.330  31.061  31.437  1.00  0.00     0.074 A 
ATOM     53  C   UNL A   1      42.693  29.608  35.803  1.00  0.00     0.029 A 
ATOM     54  N   UNL A   1      41.471  29.729  33.949  1.00  0.00    -0.354 N 
ATOM     55  N   UNL A   1      39.277  30.706  32.273  1.00  0.00    -0.248 NA
ATOM     56  C   UNL A   1      37.306  31.937  32.024  1.00  0.00     0.031 C 
ATOM     57  C   UNL A   1      41.590  30.432  36.053  1.00  0.00     0.029 A 
ATOM     58  C   UNL A   1      40.843  30.527  34.890  1.00  0.00     0.049 A 
ATOM     59  H   UNL A   1      41.161  29.597  33.023  1.00  0.00     0.167 HD
ATOM     60  C   UNL A   1      38.976  31.335  33.475  1.00  0.00     0.074 A 
ATOM     61  C   UNL A   1      37.769  32.105  33.255  1.00  0.00     0.031 C 
ATOM     62  C   UNL A   1      39.640  31.283  34.656  1.00  0.00     0.031 A 
BRANCH  49  63
ATOM     63  C   UNL A   1      44.620  27.631  34.566  1.00  0.00    -0.014 A 
ATOM     64  C   UNL A   1      45.883  28.243  34.577  1.00  0.00     0.009 A 
ATOM     65  C   UNL A   1      44.431  26.450  35.301  1.00  0.00     0.009 A 
ATOM     66  C   UNL A   1      46.942  27.666  35.284  1.00  0.00     0.001 A 
ATOM     67  C   UNL A   1      45.483  25.890  36.026  1.00  0.00     0.001 A 
ATOM     68  C   UNL A   1      46.740  26.493  36.011  1.00  0.00     0.000 A 
ENDBRANCH  49  63
BRANCH  50  69
ATOM     69  C   UNL A   1      37.019  31.236  29.202  1.00  0.00    -0.014 A 
ATOM     70  C   UNL A   1      35.935  30.410  28.867  1.00  0.00     0.009 A 
ATOM     71  C   UNL A   1      37.013  32.573  28.771  1.00  0.00     0.009 A 
ATOM     72  C   UNL A   1      34.880  30.906  28.097  1.00  0.00     0.001 A 
ATOM     73  C   UNL A   1      35.944  33.072  28.024  1.00  0.00     0.001 A 
ATOM     74  C   UNL A   1      34.883  32.236  27.681  1.00  0.00     0.000 A 
ENDBRANCH  50  69
BRANCH  62  75
ATOM     75  C   UNL A   1      39.097  32.107  35.789  1.00  0.00    -0.014 A 
ATOM     76  C   UNL A   1      39.457  33.454  35.950  1.00  0.00     0.009 A 
ATOM     77  C   UNL A   1      38.179  31.535  36.685  1.00  0.00     0.009 A 
ATOM     78  C   UNL A   1      38.934  34.201  37.008  1.00  0.00     0.001 A 
ATOM     79  C   UNL A   1      37.637  32.294  37.724  1.00  0.00     0.001 A 
ATOM     80  C   UNL A   1      38.023  33.622  37.890  1.00  0.00     0.000 A 
ENDBRANCH  62  75
ENDBRANCH  36  37
ENDBRANCH  29  31
ENDBRANCH  28  29
ENDBRANCH  27  28
ENDBRANCH  26  27
ENDBRANCH  25  26
ENDBRANCH  24  25
ENDBRANCH   1  24
TORSDOF 20
ENDMDL
MODEL 2
REMARK VINA RESULT:      -8.9      3.490      8.596
REMARK SMILES CC(C)[C@H](NC(=O)[C@H](C)NC(=O)C[NH3+])C(=O)OCCOCCOC(=O)c1ccc(-c2c3nc(c(-c4ccccc4)c4ccc([nH]4)c(-c4ccccc4)c4nc(c(-c5ccccc5)c5ccc2[nH]5)C=C4)C=C3)cc1
REMARK SMILES IDX 18 1 17 2 15 3 16 4 4 5 2 6 1 7 3 8 5 9 6 10 7 12 8 13 9 14
REMARK SMILES IDX 10 15 11 16 12 18 13 19 14 20 19 24 20 25 21 26 22 27 23 28
REMARK SMILES IDX 24 29 25 30 26 31 27 32 73 33 28 34 72 35 29 36 30 37 31 38
REMARK SMILES IDX 66 39 32 40 71 41 65 42 67 43 33 44 70 45 64 46 63 47 34 49
REMARK SMILES IDX 56 50 41 51 55 52 42 53 45 54 54 55 68 56 43 57 44 58 53 60
REMARK SMILES IDX 69 61 46 62 35 63 36 64 40 65 37 66 39 67 38 68 57 69 58 70
REMARK SMILES IDX 62 71 59 72 61 73 60 74 47 75 48 76 52 77 49 78 51 79 50 80
REMARK H PARENT 5 11 10 17 14 21 14 22 14 23 67 48 45 59
REMARK Flexibility Score: inf
ROOT
ATOM      1  C   UNL A   1      32.478  27.215  26.663  1.00  0.00     0.261 C 
ENDROOT
BRANCH   1   2
ATOM      2  O   UNL A   1      31.067  27.058  26.885  1.00  0.00    -0.462 OA
BRANCH   2   3
ATOM      3  C   UNL A   1      30.496  26.041  26.182  1.00  0.00     0.328 C 
ATOM      4  O   UNL A   1      29.787  25.175  26.686  1.00  0.00    -0.250 OA
BRANCH   3   5
ATOM      5  C   UNL A   1      30.790  26.105  24.666  1.00  0.00     0.194 C 
BRANCH   5   6
ATOM      6  C   UNL A   1      29.997  27.196  23.912  1.00  0.00     0.017 C 
ATOM      7  C   UNL A   1      30.576  27.573  22.544  1.00  0.00     0.010 C 
ATOM      8  C   UNL A   1      28.526  26.803  23.737  1.00  0.00     0.010 C 
ENDBRANCH   5   6
BRANCH   5   9
ATOM      9  N   UNL A   1      30.872  24.810  23.950  1.00  0.00    -0.341 N 
ATOM     10  C   UNL A   1      31.787  23.823  23.768  1.00  0.00     0.243 C 
ATOM     11  H   UNL A   1      30.032  24.610  23.476  1.00  0.00     0.164 HD
ATOM     12  O   UNL A   1      31.392  22.871  23.083  1.00  0.00    -0.273 OA
BRANCH  10  13
ATOM     13  C   UNL A   1      33.245  23.888  24.275  1.00  0.00     0.168 C 
ATOM     14  C   UNL A   1      34.003  25.001  23.539  1.00  0.00     0.041 C 
BRANCH  13  15
ATOM     15  N   UNL A   1      33.985  22.650  24.056  1.00  0.00    -0.340 N 
ATOM     16  C   UNL A   1      34.234  21.653  24.957  1.00  0.00     0.275 C 
ATOM     17  H   UNL A   1      34.347  22.516  23.150  1.00  0.00     0.164 HD
ATOM     18  O   UNL A   1      35.062  20.785  24.678  1.00  0.00    -0.268 OA
BRANCH  16  19
ATOM     19  C   UNL A   1      33.428  21.599  26.257  1.00  0.00     0.360 C 
BRANCH  19  20
ATOM     20  N   UNL A   1      33.339  20.224  26.756  1.00  0.00    -0.350 N 
ATOM     21  H   UNL A   1      33.766  19.589  26.082  1.00  0.00     0.344 HD
ATOM     22  H   UNL A   1      32.359  19.972  26.886  1.00  0.00     0.344 HD
ATOM     23  H   UNL A   1      33.828  20.153  27.648  1.00  0.00     0.344 HD
ENDBRANCH  19  20
ENDBRANCH  16  19
ENDBRANCH  13  15
ENDBRANCH  10  13
ENDBRANCH   5   9
ENDBRANCH   3   5
ENDBRANCH   2   3
ENDBRANCH   1   2
BRANCH   1  24
ATOM     24  C   UNL A   1      32.923  28.677  26.740  1.00  0.00     0.202 C 
BRANCH  24  25
ATOM     25  O   UNL A   1      31.984  29.617  27.254  1.00  0.00    -0.374 OA
BRANCH  25  26
ATOM     26  C   UNL A   1      31.666  30.756  26.454  1.00  0.00     0.202 C 
BRANCH  26  27
ATOM     27  C   UNL A   1      31.756  32.136  27.116  1.00  0.00     0.261 C 
BRANCH  27  28
ATOM     28  O   UNL A   1      33.110  32.617  27.193  1.00  0.00    -0.460 OA
BRANCH  28  29
ATOM     29  C   UNL A   1      33.293  33.654  28.040  1.00  0.00     0.338 C 
ATOM     30  O   UNL A   1      32.516  34.577  28.261  1.00  0.00    -0.246 OA
BRANCH  29  31
ATOM     31  C   UNL A   1      34.505  33.450  28.849  1.00  0.00     0.060 A 
ATOM     32  C   UNL A   1      35.730  33.821  28.276  1.00  0.00     0.016 A 
ATOM     33  C   UNL A   1      34.463  32.819  30.093  1.00  0.00     0.016 A 
ATOM     34  C   UNL A   1      36.923  33.499  28.915  1.00  0.00     0.010 A 
ATOM     35  C   UNL A   1      35.665  32.487  30.730  1.00  0.00     0.010 A 
ATOM     36  C   UNL A   1      36.897  32.785  30.120  1.00  0.00    -0.014 A 
BRANCH  36  37
ATOM     37  C   UNL A   1      38.160  32.209  30.640  1.00  0.00     0.031 A 
ATOM     38  C   UNL A   1      38.678  30.932  30.038  1.00  0.00     0.074 A 
ATOM     39  C   UNL A   1      38.865  32.843  31.593  1.00  0.00     0.049 A 
ATOM     40  N   UNL A   1      39.766  30.262  30.324  1.00  0.00    -0.248 NA
ATOM     41  C   UNL A   1      37.864  30.330  28.969  1.00  0.00     0.031 C 
ATOM     42  C   UNL A   1      38.493  34.111  32.220  1.00  0.00     0.029 A 
ATOM     43  N   UNL A   1      40.049  32.501  32.195  1.00  0.00    -0.354 N 
ATOM     44  C   UNL A   1      39.764  29.161  29.476  1.00  0.00     0.074 A 
ATOM     45  C   UNL A   1      38.554  29.236  28.686  1.00  0.00     0.031 C 
ATOM     46  C   UNL A   1      39.434  34.440  33.123  1.00  0.00     0.029 A 
ATOM     47  C   UNL A   1      40.453  33.394  33.156  1.00  0.00     0.049 A 
ATOM     48  H   UNL A   1      40.561  31.694  31.960  1.00  0.00     0.167 HD
ATOM     49  C   UNL A   1      40.687  28.178  29.362  1.00  0.00     0.031 A 
ATOM     50  C   UNL A   1      41.518  33.361  33.979  1.00  0.00     0.031 A 
ATOM     51  C   UNL A   1      41.883  28.093  30.156  1.00  0.00     0.049 A 
ATOM     52  C   UNL A   1      42.492  32.217  33.886  1.00  0.00     0.074 A 
ATOM     53  C   UNL A   1      42.886  27.141  30.106  1.00  0.00     0.029 A 
ATOM     54  N   UNL A   1      42.232  28.991  31.152  1.00  0.00    -0.354 N 
ATOM     55  N   UNL A   1      42.491  31.196  33.062  1.00  0.00    -0.248 NA
ATOM     56  C   UNL A   1      43.617  32.227  34.831  1.00  0.00     0.031 C 
ATOM     57  C   UNL A   1      43.816  27.435  31.110  1.00  0.00     0.029 A 
ATOM     58  C   UNL A   1      43.421  28.601  31.744  1.00  0.00     0.049 A 
ATOM     59  H   UNL A   1      41.710  29.788  31.402  1.00  0.00     0.167 HD
ATOM     60  C   UNL A   1      43.626  30.458  33.373  1.00  0.00     0.074 A 
ATOM     61  C   UNL A   1      44.299  31.156  34.449  1.00  0.00     0.031 C 
ATOM     62  C   UNL A   1      44.075  29.305  32.816  1.00  0.00     0.031 A 
BRANCH  49  63
ATOM     63  C   UNL A   1      40.417  27.091  28.359  1.00  0.00    -0.014 A 
ATOM     64  C   UNL A   1      40.942  27.149  27.059  1.00  0.00     0.009 A 
ATOM     65  C   UNL A   1      39.648  25.977  28.732  1.00  0.00     0.009 A 
ATOM     66  C   UNL A   1      40.675  26.129  26.143  1.00  0.00     0.001 A 
ATOM     67  C   UNL A   1      39.404  24.947  27.822  1.00  0.00     0.001 A 
ATOM     68  C   UNL A   1      39.910  25.028  26.526  1.00  0.00     0.000 A 
ENDBRANCH  49  63
BRANCH  50  69
ATOM     69  C   UNL A   1      41.715  34.439  34.983  1.00  0.00    -0.014 A 
ATOM     70  C   UNL A   1      41.125  34.354  36.253  1.00  0.00     0.009 A 
ATOM     71  C   UNL A   1      42.482  35.572  34.665  1.00  0.00     0.009 A 
ATOM     72  C   UNL A   1      41.281  35.391  37.176  1.00  0.00     0.001 A 
ATOM     73  C   UNL A   1      42.658  36.595  35.599  1.00  0.00     0.001 A 
ATOM     74  C   UNL A   1      42.051  36.507  36.850  1.00  0.00     0.000 A 
ENDBRANCH  50  69
BRANCH  62  75
ATOM     75  C   UNL A   1      45.369  28.747  33.336  1.00  0.00    -0.014 A 
ATOM     76  C   UNL A   1      46.603  29.143  32.797  1.00  0.00     0.009 A 
ATOM     77  C   UNL A   1      45.353  27.842  34.409  1.00  0.00     0.009 A 
ATOM     78  C   UNL A   1      47.794  28.615  33.300  1.00  0.00     0.001 A 
ATOM     79  C   UNL A   1      46.548  27.338  34.928  1.00  0.00     0.001 A 
ATOM     80  C   UNL A   1      47.765  27.717  34.367  1.00  0.00     0.000 A 
ENDBRANCH  62  75
ENDBRANCH  36  37
ENDBRANCH  29  31
ENDBRANCH  28  29
ENDBRANCH  27  28
ENDBRANCH  26  27
ENDBRANCH  25  26
ENDBRANCH  24  25
ENDBRANCH   1  24
TORSDOF 20
ENDMDL
MODEL 3
REMARK VINA RESULT:      -8.8      2.939      7.725
REMARK SMILES CC(C)[C@H](NC(=O)[C@H](C)NC(=O)C[NH3+])C(=O)OCCOCCOC(=O)c1ccc(-c2c3nc(c(-c4ccccc4)c4ccc([nH]4)c(-c4ccccc4)c4nc(c(-c5ccccc5)c5ccc2[nH]5)C=C4)C=C3)cc1
REMARK SMILES IDX 18 1 17 2 15 3 16 4 4 5 2 6 1 7 3 8 5 9 6 10 7 12 8 13 9 14
REMARK SMILES IDX 10 15 11 16 12 18 13 19 14 20 19 24 20 25 21 26 22 27 23 28
REMARK SMILES IDX 24 29 25 30 26 31 27 32 73 33 28 34 72 35 29 36 30 37 31 38
REMARK SMILES IDX 66 39 32 40 71 41 65 42 67 43 33 44 70 45 64 46 63 47 34 49
REMARK SMILES IDX 56 50 41 51 55 52 42 53 45 54 54 55 68 56 43 57 44 58 53 60
REMARK SMILES IDX 69 61 46 62 35 63 36 64 40 65 37 66 39 67 38 68 57 69 58 70
REMARK SMILES IDX 62 71 59 72 61 73 60 74 47 75 48 76 52 77 49 78 51 79 50 80
REMARK H PARENT 5 11 10 17 14 21 14 22 14 23 67 48 45 59
REMARK Flexibility Score: inf
ROOT
ATOM      1  C   UNL A   1      32.638  27.015  24.007  1.00  0.00     0.261 C 
ENDROOT
BRANCH   1   2
ATOM      2  O   UNL A   1      33.360  26.266  23.016  1.00  0.00    -0.462 OA
BRANCH   2   3
ATOM      3  C   UNL A   1      33.126  24.925  23.042  1.00  0.00     0.328 C 
ATOM      4  O   UNL A   1      32.788  24.271  22.061  1.00  0.00    -0.250 OA
BRANCH   3   5
ATOM      5  C   UNL A   1      33.372  24.289  24.429  1.00  0.00     0.194 C 
BRANCH   5   6
ATOM      6  C   UNL A   1      34.721  23.546  24.555  1.00  0.00     0.017 C 
ATOM      7  C   UNL A   1      35.396  23.219  23.218  1.00  0.00     0.010 C 
ATOM      8  C   UNL A   1      35.710  24.321  25.432  1.00  0.00     0.010 C 
ENDBRANCH   5   6
BRANCH   5   9
ATOM      9  N   UNL A   1      32.227  23.578  25.046  1.00  0.00    -0.341 N 
ATOM     10  C   UNL A   1      31.819  22.294  25.213  1.00  0.00     0.243 C 
ATOM     11  H   UNL A   1      31.586  24.211  25.444  1.00  0.00     0.164 HD
ATOM     12  O   UNL A   1      30.762  22.164  25.843  1.00  0.00    -0.273 OA
BRANCH  10  13
ATOM     13  C   UNL A   1      32.534  21.069  24.598  1.00  0.00     0.168 C 
ATOM     14  C   UNL A   1      32.172  20.947  23.113  1.00  0.00     0.041 C 
BRANCH  13  15
ATOM     15  N   UNL A   1      32.163  19.810  25.234  1.00  0.00    -0.340 N 
ATOM     16  C   UNL A   1      32.778  18.595  25.108  1.00  0.00     0.275 C 
ATOM     17  H   UNL A   1      31.375  19.837  25.824  1.00  0.00     0.164 HD
ATOM     18  O   UNL A   1      32.209  17.587  25.530  1.00  0.00    -0.268 OA
BRANCH  16  19
ATOM     19  C   UNL A   1      34.187  18.527  24.516  1.00  0.00     0.360 C 
BRANCH  19  20
ATOM     20  N   UNL A   1      34.423  17.225  23.884  1.00  0.00    -0.350 N 
ATOM     21  H   UNL A   1      33.561  16.897  23.450  1.00  0.00     0.344 HD
ATOM     22  H   UNL A   1      34.725  16.555  24.591  1.00  0.00     0.344 HD
ATOM     23  H   UNL A   1      35.149  17.319  23.173  1.00  0.00     0.344 HD
ENDBRANCH  19  20
ENDBRANCH  16  19
ENDBRANCH  13  15
ENDBRANCH  10  13
ENDBRANCH   5   9
ENDBRANCH   3   5
ENDBRANCH   2   3
ENDBRANCH   1   2
BRANCH   1  24
ATOM     24  C   UNL A   1      33.515  28.053  24.712  1.00  0.00     0.202 C 
BRANCH  24  25
ATOM     25  O   UNL A   1      33.061  29.403  24.701  1.00  0.00    -0.374 OA
BRANCH  25  26
ATOM     26  C   UNL A   1      31.810  29.697  25.323  1.00  0.00     0.202 C 
BRANCH  26  27
ATOM     27  C   UNL A   1      31.775  30.843  26.342  1.00  0.00     0.261 C 
BRANCH  27  28
ATOM     28  O   UNL A   1      32.760  30.682  27.377  1.00  0.00    -0.460 OA
BRANCH  28  29
ATOM     29  C   UNL A   1      33.564  31.752  27.563  1.00  0.00     0.338 C 
ATOM     30  O   UNL A   1      33.226  32.928  27.643  1.00  0.00    -0.246 OA
BRANCH  29  31
ATOM     31  C   UNL A   1      34.938  31.318  27.861  1.00  0.00     0.060 A 
ATOM     32  C   UNL A   1      35.171  29.938  27.952  1.00  0.00     0.016 A 
ATOM     33  C   UNL A   1      35.954  32.231  28.146  1.00  0.00     0.016 A 
ATOM     34  C   UNL A   1      36.402  29.467  28.396  1.00  0.00     0.010 A 
ATOM     35  C   UNL A   1      37.189  31.756  28.602  1.00  0.00     0.010 A 
ATOM     36  C   UNL A   1      37.400  30.375  28.772  1.00  0.00    -0.014 A 
BRANCH  36  37
ATOM     37  C   UNL A   1      38.589  29.873  29.501  1.00  0.00     0.031 A 
ATOM     38  C   UNL A   1      38.768  30.250  30.946  1.00  0.00     0.074 A 
ATOM     39  C   UNL A   1      39.466  29.048  28.903  1.00  0.00     0.049 A 
ATOM     40  N   UNL A   1      39.719  29.911  31.779  1.00  0.00    -0.248 NA
ATOM     41  C   UNL A   1      37.737  31.121  31.532  1.00  0.00     0.031 C 
ATOM     42  C   UNL A   1      39.375  28.572  27.523  1.00  0.00     0.029 A 
ATOM     43  N   UNL A   1      40.606  28.462  29.390  1.00  0.00    -0.354 N 
ATOM     44  C   UNL A   1      39.404  30.531  32.982  1.00  0.00     0.074 A 
ATOM     45  C   UNL A   1      38.191  31.288  32.765  1.00  0.00     0.031 C 
ATOM     46  C   UNL A   1      40.421  27.764  27.274  1.00  0.00     0.029 A 
ATOM     47  C   UNL A   1      41.265  27.692  28.464  1.00  0.00     0.049 A 
ATOM     48  H   UNL A   1      40.920  28.580  30.315  1.00  0.00     0.167 HD
ATOM     49  C   UNL A   1      40.062  30.471  34.164  1.00  0.00     0.031 A 
ATOM     50  C   UNL A   1      42.427  27.019  28.564  1.00  0.00     0.031 A 
ATOM     51  C   UNL A   1      41.276  29.731  34.379  1.00  0.00     0.049 A 
ATOM     52  C   UNL A   1      43.181  27.031  29.866  1.00  0.00     0.074 A 
ATOM     53  C   UNL A   1      42.011  29.599  35.544  1.00  0.00     0.029 A 
ATOM     54  N   UNL A   1      41.938  29.004  33.403  1.00  0.00    -0.354 N 
ATOM     55  N   UNL A   1      42.858  27.599  31.003  1.00  0.00    -0.248 NA
ATOM     56  C   UNL A   1      44.455  26.299  29.899  1.00  0.00     0.031 C 
ATOM     57  C   UNL A   1      43.148  28.835  35.258  1.00  0.00     0.029 A 
ATOM     58  C   UNL A   1      43.089  28.443  33.930  1.00  0.00     0.049 A 
ATOM     59  H   UNL A   1      41.635  28.901  32.471  1.00  0.00     0.167 HD
ATOM     60  C   UNL A   1      43.874  27.273  31.892  1.00  0.00     0.074 A 
ATOM     61  C   UNL A   1      44.816  26.445  31.167  1.00  0.00     0.031 C 
ATOM     62  C   UNL A   1      44.016  27.625  33.194  1.00  0.00     0.031 A 
BRANCH  49  63
ATOM     63  C   UNL A   1      39.495  31.263  35.310  1.00  0.00    -0.014 A 
ATOM     64  C   UNL A   1      39.998  32.530  35.642  1.00  0.00     0.009 A 
ATOM     65  C   UNL A   1      38.422  30.742  36.049  1.00  0.00     0.009 A 
ATOM     66  C   UNL A   1      39.458  33.246  36.713  1.00  0.00     0.001 A 
ATOM     67  C   UNL A   1      37.867  31.471  37.102  1.00  0.00     0.001 A 
ATOM     68  C   UNL A   1      38.390  32.718  37.439  1.00  0.00     0.000 A 
ENDBRANCH  49  63
BRANCH  50  69
ATOM     69  C   UNL A   1      42.965  26.289  27.386  1.00  0.00    -0.014 A 
ATOM     70  C   UNL A   1      42.650  24.938  27.174  1.00  0.00     0.009 A 
ATOM     71  C   UNL A   1      43.814  26.939  26.476  1.00  0.00     0.009 A 
ATOM     72  C   UNL A   1      43.193  24.248  26.087  1.00  0.00     0.001 A 
ATOM     73  C   UNL A   1      44.333  26.254  25.376  1.00  0.00     0.001 A 
ATOM     74  C   UNL A   1      44.029  24.908  25.188  1.00  0.00     0.000 A 
ENDBRANCH  50  69
BRANCH  62  75
ATOM     75  C   UNL A   1      45.213  27.088  33.926  1.00  0.00    -0.014 A 
ATOM     76  C   UNL A   1      45.174  25.843  34.573  1.00  0.00     0.009 A 
ATOM     77  C   UNL A   1      46.410  27.822  33.934  1.00  0.00     0.009 A 
ATOM     78  C   UNL A   1      46.301  25.361  35.243  1.00  0.00     0.001 A 
ATOM     79  C   UNL A   1      47.543  27.324  34.580  1.00  0.00     0.001 A 
ATOM     80  C   UNL A   1      47.484  26.099  35.242  1.00  0.00     0.000 A 
ENDBRANCH  62  75
ENDBRANCH  36  37
ENDBRANCH  29  31
ENDBRANCH  28  29
ENDBRANCH  27  28
ENDBRANCH  26  27
ENDBRANCH  25  26
ENDBRANCH  24  25
ENDBRANCH   1  24
TORSDOF 20
ENDMDL
