MODEL 1
REMARK VINA RESULT:     -10.6      0.000      0.000
REMARK SMILES CC1(C)CN(C(=O)NC[C@H]2CC[C@@H](C(=O)OCCOCCOC(=O)c3ccc(-c4c5nc(c(-c6ccccc6)c6ccc([nH]6)c(-c6ccccc6)c6nc(c(-c7ccccc7)c7ccc4[nH]7)C=C6)C=C5)cc3)CC2)CCO1
REMARK SMILES IDX 18 1 17 2 16 3 14 4 15 5 13 6 10 7 11 8 74 9 12 10 73 11
REMARK SMILES IDX 9 12 8 13 6 14 7 15 5 17 1 18 2 19 3 20 4 21 77 22 76 23
REMARK SMILES IDX 75 24 19 25 20 26 21 27 22 28 23 29 24 30 25 31 26 32 72 33
REMARK SMILES IDX 27 34 71 35 28 36 29 37 30 38 65 39 31 40 70 41 64 42 66 43
REMARK SMILES IDX 32 44 69 45 63 46 62 47 33 49 55 50 40 51 54 52 41 53 44 54
REMARK SMILES IDX 53 55 67 56 42 57 43 58 52 60 68 61 45 62 34 63 35 64 39 65
REMARK SMILES IDX 36 66 38 67 37 68 56 69 57 70 61 71 58 72 60 73 59 74 46 75
REMARK SMILES IDX 47 76 51 77 48 78 50 79 49 80
REMARK H PARENT 8 16 66 48 44 59
REMARK Flexibility Score: inf
ROOT
ATOM      1  C   UNL A   1      41.409  20.620  26.565  1.00  0.00     0.202 C 
ENDROOT
BRANCH   1   2
ATOM      2  C   UNL A   1      39.997  20.229  26.115  1.00  0.00     0.261 C 
BRANCH   2   3
ATOM      3  O   UNL A   1      39.190  21.389  25.840  1.00  0.00    -0.463 OA
BRANCH   3   4
ATOM      4  C   UNL A   1      38.036  21.178  25.154  1.00  0.00     0.309 C 
ATOM      5  O   UNL A   1      37.681  20.101  24.689  1.00  0.00    -0.252 OA
BRANCH   4   6
ATOM      6  C   UNL A   1      37.236  22.459  24.950  1.00  0.00     0.099 C 
ATOM      7  C   UNL A   1      34.608  23.899  24.716  1.00  0.00     0.008 C 
ATOM      8  C   UNL A   1      35.385  23.812  26.035  1.00  0.00     0.006 C 
ATOM      9  C   UNL A   1      35.560  23.754  23.519  1.00  0.00     0.006 C 
ATOM     10  C   UNL A   1      36.288  22.596  26.133  1.00  0.00     0.015 C 
ATOM     11  C   UNL A   1      36.508  22.554  23.603  1.00  0.00     0.015 C 
BRANCH   7  12
ATOM     12  C   UNL A   1      33.339  23.010  24.679  1.00  0.00     0.121 C 
BRANCH  12  13
ATOM     13  N   UNL A   1      32.406  23.187  25.774  1.00  0.00    -0.338 N 
ATOM     14  C   UNL A   1      31.649  24.124  26.354  1.00  0.00     0.317 C 
ATOM     15  O   UNL A   1      30.972  23.693  27.297  1.00  0.00    -0.249 OA
ATOM     16  H   UNL A   1      32.293  22.333  26.249  1.00  0.00     0.165 HD
BRANCH  14  17
ATOM     17  N   UNL A   1      31.605  25.430  25.992  1.00  0.00    -0.320 N 
ATOM     18  C   UNL A   1      31.226  25.692  22.901  1.00  0.00     0.044 C 
ATOM     19  C   UNL A   1      30.734  26.653  23.992  1.00  0.00     0.080 C 
ATOM     20  C   UNL A   1      29.476  27.370  23.495  1.00  0.00     0.044 C 
ATOM     21  C   UNL A   1      30.396  25.898  25.301  1.00  0.00     0.156 C 
ATOM     22  O   UNL A   1      31.706  27.694  24.229  1.00  0.00    -0.372 OA
ATOM     23  C   UNL A   1      32.888  27.229  24.891  1.00  0.00     0.182 C 
ATOM     24  C   UNL A   1      32.552  26.521  26.204  1.00  0.00     0.150 C 
ENDBRANCH  14  17
ENDBRANCH  12  13
ENDBRANCH   7  12
ENDBRANCH   4   6
ENDBRANCH   3   4
ENDBRANCH   2   3
ENDBRANCH   1   2
BRANCH   1  25
ATOM     25  O   UNL A   1      42.323  20.974  25.525  1.00  0.00    -0.374 OA
BRANCH  25  26
ATOM     26  C   UNL A   1      43.534  21.610  25.925  1.00  0.00     0.202 C 
BRANCH  26  27
ATOM     27  C   UNL A   1      44.273  22.409  24.847  1.00  0.00     0.261 C 
BRANCH  27  28
ATOM     28  O   UNL A   1      43.614  23.648  24.534  1.00  0.00    -0.460 OA
BRANCH  28  29
ATOM     29  C   UNL A   1      44.247  24.745  25.006  1.00  0.00     0.338 C 
ATOM     30  O   UNL A   1      45.358  25.149  24.685  1.00  0.00    -0.246 OA
BRANCH  29  31
ATOM     31  C   UNL A   1      43.373  25.533  25.894  1.00  0.00     0.060 A 
ATOM     32  C   UNL A   1      43.841  26.798  26.269  1.00  0.00     0.016 A 
ATOM     33  C   UNL A   1      42.193  25.024  26.444  1.00  0.00     0.016 A 
ATOM     34  C   UNL A   1      43.178  27.523  27.254  1.00  0.00     0.010 A 
ATOM     35  C   UNL A   1      41.529  25.756  27.439  1.00  0.00     0.010 A 
ATOM     36  C   UNL A   1      42.046  26.985  27.882  1.00  0.00    -0.014 A 
BRANCH  36  37
ATOM     37  C   UNL A   1      41.510  27.683  29.077  1.00  0.00     0.031 A 
ATOM     38  C   UNL A   1      42.234  27.574  30.390  1.00  0.00     0.074 A 
ATOM     39  C   UNL A   1      40.446  28.499  28.968  1.00  0.00     0.049 A 
ATOM     40  N   UNL A   1      42.023  28.225  31.506  1.00  0.00    -0.248 NA
ATOM     41  C   UNL A   1      43.350  26.617  30.451  1.00  0.00     0.031 C 
ATOM     42  C   UNL A   1      39.682  28.721  27.744  1.00  0.00     0.029 A 
ATOM     43  N   UNL A   1      39.843  29.309  29.896  1.00  0.00    -0.354 N 
ATOM     44  C   UNL A   1      42.987  27.771  32.396  1.00  0.00     0.074 A 
ATOM     45  C   UNL A   1      43.757  26.758  31.705  1.00  0.00     0.031 C 
ATOM     46  C   UNL A   1      38.714  29.620  27.993  1.00  0.00     0.029 A 
ATOM     47  C   UNL A   1      38.786  30.026  29.393  1.00  0.00     0.049 A 
ATOM     48  H   UNL A   1      40.141  29.371  30.833  1.00  0.00     0.167 HD
ATOM     49  C   UNL A   1      43.223  28.169  33.669  1.00  0.00     0.031 A 
ATOM     50  C   UNL A   1      37.972  30.918  29.987  1.00  0.00     0.031 A 
ATOM     51  C   UNL A   1      42.448  29.160  34.370  1.00  0.00     0.049 A 
ATOM     52  C   UNL A   1      38.215  31.298  31.421  1.00  0.00     0.074 A 
ATOM     53  C   UNL A   1      42.619  29.637  35.658  1.00  0.00     0.029 A 
ATOM     54  N   UNL A   1      41.348  29.818  33.844  1.00  0.00    -0.354 N 
ATOM     55  N   UNL A   1      39.160  30.894  32.235  1.00  0.00    -0.248 NA
ATOM     56  C   UNL A   1      37.293  32.280  32.008  1.00  0.00     0.031 C 
ATOM     57  C   UNL A   1      41.591  30.549  35.929  1.00  0.00     0.029 A 
ATOM     58  C   UNL A   1      40.814  30.678  34.789  1.00  0.00     0.049 A 
ATOM     59  H   UNL A   1      40.998  29.692  32.933  1.00  0.00     0.167 HD
ATOM     60  C   UNL A   1      38.963  31.591  33.420  1.00  0.00     0.074 A 
ATOM     61  C   UNL A   1      37.821  32.457  33.211  1.00  0.00     0.031 C 
ATOM     62  C   UNL A   1      39.669  31.524  34.575  1.00  0.00     0.031 A 
BRANCH  49  63
ATOM     63  C   UNL A   1      44.361  27.510  34.395  1.00  0.00    -0.014 A 
ATOM     64  C   UNL A   1      45.644  28.080  34.407  1.00  0.00     0.009 A 
ATOM     65  C   UNL A   1      44.141  26.316  35.100  1.00  0.00     0.009 A 
ATOM     66  C   UNL A   1      46.691  27.453  35.085  1.00  0.00     0.001 A 
ATOM     67  C   UNL A   1      45.184  25.704  35.797  1.00  0.00     0.001 A 
ATOM     68  C   UNL A   1      46.460  26.267  35.782  1.00  0.00     0.000 A 
ENDBRANCH  49  63
BRANCH  50  69
ATOM     69  C   UNL A   1      36.853  31.526  29.223  1.00  0.00    -0.014 A 
ATOM     70  C   UNL A   1      36.968  32.816  28.683  1.00  0.00     0.009 A 
ATOM     71  C   UNL A   1      35.656  30.817  29.041  1.00  0.00     0.009 A 
ATOM     72  C   UNL A   1      35.896  33.393  27.999  1.00  0.00     0.001 A 
ATOM     73  C   UNL A   1      34.595  31.386  28.335  1.00  0.00     0.001 A 
ATOM     74  C   UNL A   1      34.713  32.677  27.822  1.00  0.00     0.000 A 
ENDBRANCH  50  69
BRANCH  62  75
ATOM     75  C   UNL A   1      39.235  32.434  35.690  1.00  0.00    -0.014 A 
ATOM     76  C   UNL A   1      38.161  32.096  36.530  1.00  0.00     0.009 A 
ATOM     77  C   UNL A   1      39.914  33.643  35.906  1.00  0.00     0.009 A 
ATOM     78  C   UNL A   1      37.748  32.976  37.534  1.00  0.00     0.001 A 
ATOM     79  C   UNL A   1      39.516  34.506  36.929  1.00  0.00     0.001 A 
ATOM     80  C   UNL A   1      38.426  34.178  37.733  1.00  0.00     0.000 A 
ENDBRANCH  62  75
ENDBRANCH  36  37
ENDBRANCH  29  31
ENDBRANCH  28  29
ENDBRANCH  27  28
ENDBRANCH  26  27
ENDBRANCH  25  26
ENDBRANCH   1  25
TORSDOF 17
ENDMDL
MODEL 2
REMARK VINA RESULT:     -10.3      4.315      9.815
REMARK SMILES CC1(C)CN(C(=O)NC[C@H]2CC[C@@H](C(=O)OCCOCCOC(=O)c3ccc(-c4c5nc(c(-c6ccccc6)c6ccc([nH]6)c(-c6ccccc6)c6nc(c(-c7ccccc7)c7ccc4[nH]7)C=C6)C=C5)cc3)CC2)CCO1
REMARK SMILES IDX 18 1 17 2 16 3 14 4 15 5 13 6 10 7 11 8 74 9 12 10 73 11
REMARK SMILES IDX 9 12 8 13 6 14 7 15 5 17 1 18 2 19 3 20 4 21 77 22 76 23
REMARK SMILES IDX 75 24 19 25 20 26 21 27 22 28 23 29 24 30 25 31 26 32 72 33
REMARK SMILES IDX 27 34 71 35 28 36 29 37 30 38 65 39 31 40 70 41 64 42 66 43
REMARK SMILES IDX 32 44 69 45 63 46 62 47 33 49 55 50 40 51 54 52 41 53 44 54
REMARK SMILES IDX 53 55 67 56 42 57 43 58 52 60 68 61 45 62 34 63 35 64 39 65
REMARK SMILES IDX 36 66 38 67 37 68 56 69 57 70 61 71 58 72 60 73 59 74 46 75
REMARK SMILES IDX 47 76 51 77 48 78 50 79 49 80
REMARK H PARENT 8 16 66 48 44 59
REMARK Flexibility Score: inf
ROOT
ATOM      1  C   UNL A   1      34.688  33.073  29.909  1.00  0.00     0.202 C 
ENDROOT
BRANCH   1   2
ATOM      2  C   UNL A   1      35.117  32.002  28.899  1.00  0.00     0.261 C 
BRANCH   2   3
ATOM      3  O   UNL A   1      33.979  31.337  28.320  1.00  0.00    -0.463 OA
BRANCH   3   4
ATOM      4  C   UNL A   1      34.243  30.335  27.440  1.00  0.00     0.309 C 
ATOM      5  O   UNL A   1      35.362  29.920  27.163  1.00  0.00    -0.252 OA
BRANCH   4   6
ATOM      6  C   UNL A   1      32.986  29.811  26.758  1.00  0.00     0.099 C 
ATOM      7  C   UNL A   1      31.499  27.629  25.322  1.00  0.00     0.008 C 
ATOM      8  C   UNL A   1      31.384  27.846  26.835  1.00  0.00     0.006 C 
ATOM      9  C   UNL A   1      31.895  28.936  24.618  1.00  0.00     0.006 C 
ATOM     10  C   UNL A   1      32.601  28.511  27.451  1.00  0.00     0.015 C 
ATOM     11  C   UNL A   1      33.100  29.650  25.236  1.00  0.00     0.015 C 
BRANCH   7  12
ATOM     12  C   UNL A   1      32.324  26.377  24.931  1.00  0.00     0.121 C 
BRANCH  12  13
ATOM     13  N   UNL A   1      32.855  26.360  23.582  1.00  0.00    -0.338 N 
ATOM     14  C   UNL A   1      33.501  25.558  22.730  1.00  0.00     0.317 C 
ATOM     15  O   UNL A   1      33.683  26.070  21.618  1.00  0.00    -0.249 OA
ATOM     16  H   UNL A   1      32.681  27.227  23.150  1.00  0.00     0.165 HD
BRANCH  14  17
ATOM     17  N   UNL A   1      33.946  24.309  23.014  1.00  0.00    -0.320 N 
ATOM     18  C   UNL A   1      31.779  22.715  24.605  1.00  0.00     0.044 C 
ATOM     19  C   UNL A   1      32.825  22.160  23.628  1.00  0.00     0.080 C 
ATOM     20  C   UNL A   1      32.278  20.880  22.987  1.00  0.00     0.044 C 
ATOM     21  C   UNL A   1      33.152  23.179  22.510  1.00  0.00     0.156 C 
ATOM     22  O   UNL A   1      34.019  21.760  24.334  1.00  0.00    -0.372 OA
ATOM     23  C   UNL A   1      34.781  22.865  24.833  1.00  0.00     0.182 C 
ATOM     24  C   UNL A   1      35.139  23.848  23.719  1.00  0.00     0.150 C 
ENDBRANCH  14  17
ENDBRANCH  12  13
ENDBRANCH   7  12
ENDBRANCH   4   6
ENDBRANCH   3   4
ENDBRANCH   2   3
ENDBRANCH   1   2
BRANCH   1  25
ATOM     25  O   UNL A   1      34.369  32.605  31.220  1.00  0.00    -0.374 OA
BRANCH  25  26
ATOM     26  C   UNL A   1      34.410  33.567  32.271  1.00  0.00     0.202 C 
BRANCH  26  27
ATOM     27  C   UNL A   1      35.059  33.116  33.584  1.00  0.00     0.261 C 
BRANCH  27  28
ATOM     28  O   UNL A   1      36.467  33.403  33.626  1.00  0.00    -0.460 OA
BRANCH  28  29
ATOM     29  C   UNL A   1      37.223  32.392  34.110  1.00  0.00     0.338 C 
ATOM     30  O   UNL A   1      37.272  31.999  35.270  1.00  0.00    -0.246 OA
BRANCH  29  31
ATOM     31  C   UNL A   1      37.922  31.675  33.029  1.00  0.00     0.060 A 
ATOM     32  C   UNL A   1      39.002  30.870  33.409  1.00  0.00     0.016 A 
ATOM     33  C   UNL A   1      37.622  31.862  31.677  1.00  0.00     0.016 A 
ATOM     34  C   UNL A   1      39.835  30.317  32.442  1.00  0.00     0.010 A 
ATOM     35  C   UNL A   1      38.464  31.306  30.703  1.00  0.00     0.010 A 
ATOM     36  C   UNL A   1      39.602  30.572  31.084  1.00  0.00    -0.014 A 
BRANCH  36  37
ATOM     37  C   UNL A   1      40.637  30.158  30.105  1.00  0.00     0.031 A 
ATOM     38  C   UNL A   1      41.760  31.099  29.767  1.00  0.00     0.074 A 
ATOM     39  C   UNL A   1      40.640  28.911  29.603  1.00  0.00     0.049 A 
ATOM     40  N   UNL A   1      42.843  30.876  29.064  1.00  0.00    -0.248 NA
ATOM     41  C   UNL A   1      41.661  32.466  30.302  1.00  0.00     0.031 C 
ATOM     42  C   UNL A   1      39.631  27.893  29.883  1.00  0.00     0.029 A 
ATOM     43  N   UNL A   1      41.535  28.282  28.774  1.00  0.00    -0.354 N 
ATOM     44  C   UNL A   1      43.559  32.065  29.085  1.00  0.00     0.074 A 
ATOM     45  C   UNL A   1      42.770  33.020  29.834  1.00  0.00     0.031 C 
ATOM     46  C   UNL A   1      39.968  26.760  29.244  1.00  0.00     0.029 A 
ATOM     47  C   UNL A   1      41.208  26.977  28.505  1.00  0.00     0.049 A 
ATOM     48  H   UNL A   1      42.334  28.725  28.409  1.00  0.00     0.167 HD
ATOM     49  C   UNL A   1      44.771  32.336  28.545  1.00  0.00     0.031 A 
ATOM     50  C   UNL A   1      41.839  26.054  27.755  1.00  0.00     0.031 A 
ATOM     51  C   UNL A   1      45.551  31.398  27.780  1.00  0.00     0.049 A 
ATOM     52  C   UNL A   1      43.153  26.398  27.113  1.00  0.00     0.074 A 
ATOM     53  C   UNL A   1      46.796  31.578  27.202  1.00  0.00     0.029 A 
ATOM     54  N   UNL A   1      45.156  30.104  27.479  1.00  0.00    -0.354 N 
ATOM     55  N   UNL A   1      43.840  27.513  27.181  1.00  0.00    -0.248 NA
ATOM     56  C   UNL A   1      43.792  25.344  26.312  1.00  0.00     0.031 C 
ATOM     57  C   UNL A   1      47.132  30.409  26.509  1.00  0.00     0.029 A 
ATOM     58  C   UNL A   1      46.120  29.483  26.702  1.00  0.00     0.049 A 
ATOM     59  H   UNL A   1      44.314  29.688  27.774  1.00  0.00     0.167 HD
ATOM     60  C   UNL A   1      45.002  27.286  26.456  1.00  0.00     0.074 A 
ATOM     61  C   UNL A   1      44.936  25.922  25.973  1.00  0.00     0.031 C 
ATOM     62  C   UNL A   1      46.036  28.130  26.216  1.00  0.00     0.031 A 
BRANCH  49  63
ATOM     63  C   UNL A   1      45.318  33.721  28.745  1.00  0.00    -0.014 A 
ATOM     64  C   UNL A   1      44.967  34.772  27.883  1.00  0.00     0.009 A 
ATOM     65  C   UNL A   1      46.172  33.985  29.827  1.00  0.00     0.009 A 
ATOM     66  C   UNL A   1      45.486  36.053  28.082  1.00  0.00     0.001 A 
ATOM     67  C   UNL A   1      46.671  35.272  30.037  1.00  0.00     0.001 A 
ATOM     68  C   UNL A   1      46.334  36.303  29.160  1.00  0.00     0.000 A 
ENDBRANCH  49  63
BRANCH  50  69
ATOM     69  C   UNL A   1      41.242  24.705  27.580  1.00  0.00    -0.014 A 
ATOM     70  C   UNL A   1      40.147  24.508  26.725  1.00  0.00     0.009 A 
ATOM     71  C   UNL A   1      41.763  23.607  28.281  1.00  0.00     0.009 A 
ATOM     72  C   UNL A   1      39.570  23.244  26.597  1.00  0.00     0.001 A 
ATOM     73  C   UNL A   1      41.200  22.338  28.131  1.00  0.00     0.001 A 
ATOM     74  C   UNL A   1      40.099  22.159  27.296  1.00  0.00     0.000 A 
ENDBRANCH  50  69
BRANCH  62  75
ATOM     75  C   UNL A   1      47.186  27.586  25.416  1.00  0.00    -0.014 A 
ATOM     76  C   UNL A   1      47.245  27.747  24.022  1.00  0.00     0.009 A 
ATOM     77  C   UNL A   1      48.228  26.908  26.067  1.00  0.00     0.009 A 
ATOM     78  C   UNL A   1      48.302  27.198  23.293  1.00  0.00     0.001 A 
ATOM     79  C   UNL A   1      49.298  26.386  25.338  1.00  0.00     0.001 A 
ATOM     80  C   UNL A   1      49.327  26.520  23.951  1.00  0.00     0.000 A 
ENDBRANCH  62  75
ENDBRANCH  36  37
ENDBRANCH  29  31
ENDBRANCH  28  29
ENDBRANCH  27  28
ENDBRANCH  26  27
ENDBRANCH  25  26
ENDBRANCH   1  25
TORSDOF 17
ENDMDL
MODEL 3
REMARK VINA RESULT:     -10.1      3.605      6.238
REMARK SMILES CC1(C)CN(C(=O)NC[C@H]2CC[C@@H](C(=O)OCCOCCOC(=O)c3ccc(-c4c5nc(c(-c6ccccc6)c6ccc([nH]6)c(-c6ccccc6)c6nc(c(-c7ccccc7)c7ccc4[nH]7)C=C6)C=C5)cc3)CC2)CCO1
REMARK SMILES IDX 18 1 17 2 16 3 14 4 15 5 13 6 10 7 11 8 74 9 12 10 73 11
REMARK SMILES IDX 9 12 8 13 6 14 7 15 5 17 1 18 2 19 3 20 4 21 77 22 76 23
REMARK SMILES IDX 75 24 19 25 20 26 21 27 22 28 23 29 24 30 25 31 26 32 72 33
REMARK SMILES IDX 27 34 71 35 28 36 29 37 30 38 65 39 31 40 70 41 64 42 66 43
REMARK SMILES IDX 32 44 69 45 63 46 62 47 33 49 55 50 40 51 54 52 41 53 44 54
REMARK SMILES IDX 53 55 67 56 42 57 43 58 52 60 68 61 45 62 34 63 35 64 39 65
REMARK SMILES IDX 36 66 38 67 37 68 56 69 57 70 61 71 58 72 60 73 59 74 46 75
REMARK SMILES IDX 47 76 51 77 48 78 50 79 49 80
REMARK H PARENT 8 16 66 48 44 59
REMARK Flexibility Score: inf
ROOT
ATOM      1  C   UNL A   1      34.330  18.225  24.247  1.00  0.00     0.202 C 
ENDROOT
BRANCH   1   2
ATOM      2  C   UNL A   1      32.928  18.665  24.681  1.00  0.00     0.261 C 
BRANCH   2   3
ATOM      3  O   UNL A   1      32.534  19.889  24.031  1.00  0.00    -0.463 OA
BRANCH   3   4
ATOM      4  C   UNL A   1      32.362  20.974  24.831  1.00  0.00     0.309 C 
ATOM      5  O   UNL A   1      31.328  21.250  25.428  1.00  0.00    -0.252 OA
BRANCH   4   6
ATOM      6  C   UNL A   1      33.588  21.878  24.860  1.00  0.00     0.099 C 
ATOM      7  C   UNL A   1      34.826  24.616  24.870  1.00  0.00     0.008 C 
ATOM      8  C   UNL A   1      34.560  23.828  26.158  1.00  0.00     0.006 C 
ATOM      9  C   UNL A   1      34.985  23.662  23.676  1.00  0.00     0.006 C 
ATOM     10  C   UNL A   1      33.425  22.828  26.037  1.00  0.00     0.015 C 
ATOM     11  C   UNL A   1      33.872  22.618  23.547  1.00  0.00     0.015 C 
BRANCH   7  12
ATOM     12  C   UNL A   1      33.859  25.808  24.655  1.00  0.00     0.121 C 
BRANCH  12  13
ATOM     13  N   UNL A   1      34.079  26.599  23.461  1.00  0.00    -0.338 N 
ATOM     14  C   UNL A   1      33.413  27.334  22.563  1.00  0.00     0.317 C 
ATOM     15  O   UNL A   1      34.148  27.852  21.712  1.00  0.00    -0.249 OA
ATOM     16  H   UNL A   1      35.037  26.594  23.235  1.00  0.00     0.165 HD
BRANCH  14  17
ATOM     17  N   UNL A   1      32.069  27.509  22.537  1.00  0.00    -0.320 N 
ATOM     18  C   UNL A   1      31.097  28.873  25.175  1.00  0.00     0.044 C 
ATOM     19  C   UNL A   1      30.484  28.997  23.773  1.00  0.00     0.080 C 
ATOM     20  C   UNL A   1      29.792  30.357  23.649  1.00  0.00     0.044 C 
ATOM     21  C   UNL A   1      31.566  28.883  22.671  1.00  0.00     0.156 C 
ATOM     22  O   UNL A   1      29.444  28.014  23.584  1.00  0.00    -0.372 OA
ATOM     23  C   UNL A   1      29.940  26.676  23.467  1.00  0.00     0.182 C 
ATOM     24  C   UNL A   1      30.977  26.558  22.349  1.00  0.00     0.150 C 
ENDBRANCH  14  17
ENDBRANCH  12  13
ENDBRANCH   7  12
ENDBRANCH   4   6
ENDBRANCH   3   4
ENDBRANCH   2   3
ENDBRANCH   1   2
BRANCH   1  25
ATOM     25  O   UNL A   1      35.400  18.588  25.123  1.00  0.00    -0.374 OA
BRANCH  25  26
ATOM     26  C   UNL A   1      36.368  19.499  24.608  1.00  0.00     0.202 C 
BRANCH  26  27
ATOM     27  C   UNL A   1      36.663  20.736  25.463  1.00  0.00     0.261 C 
BRANCH  27  28
ATOM     28  O   UNL A   1      37.842  21.435  25.028  1.00  0.00    -0.460 OA
BRANCH  28  29
ATOM     29  C   UNL A   1      38.951  21.145  25.745  1.00  0.00     0.338 C 
ATOM     30  O   UNL A   1      39.602  20.107  25.708  1.00  0.00    -0.246 OA
BRANCH  29  31
ATOM     31  C   UNL A   1      39.412  22.310  26.521  1.00  0.00     0.060 A 
ATOM     32  C   UNL A   1      38.867  23.551  26.170  1.00  0.00     0.016 A 
ATOM     33  C   UNL A   1      40.426  22.230  27.480  1.00  0.00     0.016 A 
ATOM     34  C   UNL A   1      39.388  24.721  26.713  1.00  0.00     0.010 A 
ATOM     35  C   UNL A   1      40.952  23.411  28.024  1.00  0.00     0.010 A 
ATOM     36  C   UNL A   1      40.467  24.662  27.605  1.00  0.00    -0.014 A 
BRANCH  36  37
ATOM     37  C   UNL A   1      41.137  25.933  27.979  1.00  0.00     0.031 A 
ATOM     38  C   UNL A   1      42.499  26.247  27.426  1.00  0.00     0.074 A 
ATOM     39  C   UNL A   1      40.490  26.852  28.717  1.00  0.00     0.049 A 
ATOM     40  N   UNL A   1      43.185  27.360  27.501  1.00  0.00    -0.248 NA
ATOM     41  C   UNL A   1      43.173  25.173  26.679  1.00  0.00     0.031 C 
ATOM     42  C   UNL A   1      39.152  26.685  29.279  1.00  0.00     0.029 A 
ATOM     43  N   UNL A   1      40.862  28.116  29.099  1.00  0.00    -0.354 N 
ATOM     44  C   UNL A   1      44.361  27.128  26.799  1.00  0.00     0.074 A 
ATOM     45  C   UNL A   1      44.315  25.754  26.342  1.00  0.00     0.031 C 
ATOM     46  C   UNL A   1      38.809  27.811  29.926  1.00  0.00     0.029 A 
ATOM     47  C   UNL A   1      39.905  28.771  29.833  1.00  0.00     0.049 A 
ATOM     48  H   UNL A   1      41.732  28.515  28.867  1.00  0.00     0.167 HD
ATOM     49  C   UNL A   1      45.380  27.982  26.544  1.00  0.00     0.031 A 
ATOM     50  C   UNL A   1      39.904  30.007  30.363  1.00  0.00     0.031 A 
ATOM     51  C   UNL A   1      45.442  29.341  27.014  1.00  0.00     0.049 A 
ATOM     52  C   UNL A   1      41.075  30.917  30.118  1.00  0.00     0.074 A 
ATOM     53  C   UNL A   1      46.430  30.286  26.795  1.00  0.00     0.029 A 
ATOM     54  N   UNL A   1      44.479  29.947  27.805  1.00  0.00    -0.354 N 
ATOM     55  N   UNL A   1      42.159  30.697  29.413  1.00  0.00    -0.248 NA
ATOM     56  C   UNL A   1      41.009  32.255  30.721  1.00  0.00     0.031 C 
ATOM     57  C   UNL A   1      46.088  31.449  27.498  1.00  0.00     0.029 A 
ATOM     58  C   UNL A   1      44.861  31.244  28.107  1.00  0.00     0.049 A 
ATOM     59  H   UNL A   1      43.647  29.518  28.110  1.00  0.00     0.167 HD
ATOM     60  C   UNL A   1      42.889  31.877  29.466  1.00  0.00     0.074 A 
ATOM     61  C   UNL A   1      42.117  32.814  30.256  1.00  0.00     0.031 C 
ATOM     62  C   UNL A   1      44.090  32.162  28.905  1.00  0.00     0.031 A 
BRANCH  49  63
ATOM     63  C   UNL A   1      46.529  27.456  25.732  1.00  0.00    -0.014 A 
ATOM     64  C   UNL A   1      47.536  26.673  26.319  1.00  0.00     0.009 A 
ATOM     65  C   UNL A   1      46.591  27.721  24.355  1.00  0.00     0.009 A 
ATOM     66  C   UNL A   1      48.598  26.193  25.551  1.00  0.00     0.001 A 
ATOM     67  C   UNL A   1      47.642  27.220  23.584  1.00  0.00     0.001 A 
ATOM     68  C   UNL A   1      48.649  26.464  24.184  1.00  0.00     0.000 A 
ENDBRANCH  49  63
BRANCH  50  69
ATOM     69  C   UNL A   1      38.746  30.468  31.171  1.00  0.00    -0.014 A 
ATOM     70  C   UNL A   1      38.761  30.373  32.571  1.00  0.00     0.009 A 
ATOM     71  C   UNL A   1      37.610  30.996  30.538  1.00  0.00     0.009 A 
ATOM     72  C   UNL A   1      37.652  30.774  33.318  1.00  0.00     0.001 A 
ATOM     73  C   UNL A   1      36.513  31.420  31.290  1.00  0.00     0.001 A 
ATOM     74  C   UNL A   1      36.531  31.300  32.678  1.00  0.00     0.000 A 
ENDBRANCH  50  69
BRANCH  62  75
ATOM     75  C   UNL A   1      44.624  33.552  29.109  1.00  0.00    -0.014 A 
ATOM     76  C   UNL A   1      44.298  34.595  28.226  1.00  0.00     0.009 A 
ATOM     77  C   UNL A   1      45.459  33.823  30.203  1.00  0.00     0.009 A 
ATOM     78  C   UNL A   1      44.839  35.869  28.410  1.00  0.00     0.001 A 
ATOM     79  C   UNL A   1      45.974  35.106  30.401  1.00  0.00     0.001 A 
ATOM     80  C   UNL A   1      45.675  36.124  29.497  1.00  0.00     0.000 A 
ENDBRANCH  62  75
ENDBRANCH  36  37
ENDBRANCH  29  31
ENDBRANCH  28  29
ENDBRANCH  27  28
ENDBRANCH  26  27
ENDBRANCH  25  26
ENDBRANCH   1  25
TORSDOF 17
ENDMDL
