MODEL 1
REMARK VINA RESULT:     -10.2      0.000      0.000
REMARK SMILES N#Cc1ccccc1Cn1cccc1C(=O)OCCOCCOC(=O)c1ccc(-c2c3nc(c(-c4ccccc4)c4ccc([nH]4)c(-c4ccccc4)c4nc(c(-c5ccccc5)c5ccc2[nH]5)C=C4)C=C3)cc1
REMARK SMILES IDX 19 1 18 2 17 3 15 4 16 5 14 6 10 7 11 8 12 9 13 10 9 11 8 12
REMARK SMILES IDX 3 13 4 14 5 15 7 16 6 17 2 18 1 19 20 20 21 21 22 22 23 23
REMARK SMILES IDX 24 24 25 25 26 26 27 27 73 28 28 29 72 30 29 31 30 32 31 33
REMARK SMILES IDX 66 34 32 35 71 36 65 37 67 38 33 39 70 40 64 41 63 42 34 44
REMARK SMILES IDX 56 45 41 46 55 47 42 48 45 49 54 50 68 51 43 52 44 53 53 55
REMARK SMILES IDX 69 56 46 57 35 58 36 59 40 60 37 61 39 62 38 63 57 64 58 65
REMARK SMILES IDX 62 66 59 67 61 68 60 69 47 70 48 71 52 72 49 73 51 74 50 75
REMARK H PARENT 67 43 45 54
REMARK Flexibility Score: inf
ROOT
ATOM      1  C   UNL A   1      32.348  30.420  27.054  1.00  0.00     0.202 C 
ENDROOT
BRANCH   1   2
ATOM      2  C   UNL A   1      31.723  30.470  25.661  1.00  0.00     0.261 C 
BRANCH   2   3
ATOM      3  O   UNL A   1      31.411  29.149  25.178  1.00  0.00    -0.459 OA
BRANCH   3   4
ATOM      4  C   UNL A   1      32.218  28.714  24.175  1.00  0.00     0.355 C 
ATOM      5  O   UNL A   1      33.192  29.323  23.751  1.00  0.00    -0.244 OA
BRANCH   4   6
ATOM      6  C   UNL A   1      31.908  27.348  23.799  1.00  0.00     0.127 A 
ATOM      7  N   UNL A   1      31.908  26.170  24.534  1.00  0.00    -0.338 N 
ATOM      8  C   UNL A   1      31.237  25.218  23.788  1.00  0.00     0.087 A 
ATOM      9  C   UNL A   1      31.107  25.663  22.499  1.00  0.00     0.020 A 
ATOM     10  C   UNL A   1      31.519  27.002  22.506  1.00  0.00     0.035 A 
BRANCH   7  11
ATOM     11  C   UNL A   1      32.327  25.952  25.928  1.00  0.00     0.159 C 
BRANCH  11  12
ATOM     12  C   UNL A   1      33.180  24.698  26.126  1.00  0.00    -0.010 A 
ATOM     13  C   UNL A   1      32.673  23.496  26.661  1.00  0.00     0.057 A 
ATOM     14  C   UNL A   1      33.518  22.378  26.827  1.00  0.00     0.020 A 
ATOM     15  C   UNL A   1      34.864  22.435  26.475  1.00  0.00     0.001 A 
ATOM     16  C   UNL A   1      34.529  24.694  25.709  1.00  0.00     0.007 A 
ATOM     17  C   UNL A   1      35.367  23.593  25.906  1.00  0.00     0.000 A 
BRANCH  13  18
ATOM     18  C   UNL A   1      31.288  23.327  27.006  1.00  0.00     0.099 C 
ATOM     19  N   UNL A   1      30.160  23.206  27.240  1.00  0.00    -0.192 NA
ENDBRANCH  13  18
ENDBRANCH  11  12
ENDBRANCH   7  11
ENDBRANCH   4   6
ENDBRANCH   3   4
ENDBRANCH   2   3
ENDBRANCH   1   2
BRANCH   1  20
ATOM     20  O   UNL A   1      33.179  31.523  27.428  1.00  0.00    -0.374 OA
BRANCH  20  21
ATOM     21  C   UNL A   1      34.537  31.276  27.772  1.00  0.00     0.202 C 
BRANCH  21  22
ATOM     22  C   UNL A   1      35.239  32.242  28.713  1.00  0.00     0.261 C 
BRANCH  22  23
ATOM     23  O   UNL A   1      36.640  32.044  28.793  1.00  0.00    -0.460 OA
BRANCH  23  24
ATOM     24  C   UNL A   1      36.964  31.094  29.700  1.00  0.00     0.338 C 
ATOM     25  O   UNL A   1      36.477  30.909  30.803  1.00  0.00    -0.246 OA
BRANCH  24  26
ATOM     26  C   UNL A   1      38.182  30.425  29.263  1.00  0.00     0.060 A 
ATOM     27  C   UNL A   1      38.307  30.167  27.896  1.00  0.00     0.016 A 
ATOM     28  C   UNL A   1      38.998  29.814  30.227  1.00  0.00     0.016 A 
ATOM     29  C   UNL A   1      39.182  29.184  27.497  1.00  0.00     0.010 A 
ATOM     30  C   UNL A   1      39.852  28.815  29.832  1.00  0.00     0.010 A 
ATOM     31  C   UNL A   1      39.906  28.490  28.476  1.00  0.00    -0.014 A 
BRANCH  31  32
ATOM     32  C   UNL A   1      40.929  27.551  28.033  1.00  0.00     0.031 A 
ATOM     33  C   UNL A   1      42.250  28.324  27.867  1.00  0.00     0.074 A 
ATOM     34  C   UNL A   1      40.508  26.259  27.831  1.00  0.00     0.049 A 
ATOM     35  N   UNL A   1      43.242  28.056  27.090  1.00  0.00    -0.248 NA
ATOM     36  C   UNL A   1      42.494  29.618  28.584  1.00  0.00     0.031 C 
ATOM     37  C   UNL A   1      39.135  25.751  28.101  1.00  0.00     0.029 A 
ATOM     38  N   UNL A   1      41.114  25.108  27.370  1.00  0.00    -0.354 N 
ATOM     39  C   UNL A   1      44.282  28.962  27.376  1.00  0.00     0.074 A 
ATOM     40  C   UNL A   1      43.720  29.982  28.202  1.00  0.00     0.031 C 
ATOM     41  C   UNL A   1      38.997  24.461  27.706  1.00  0.00     0.029 A 
ATOM     42  C   UNL A   1      40.258  23.982  27.174  1.00  0.00     0.049 A 
ATOM     43  H   UNL A   1      42.080  25.066  27.187  1.00  0.00     0.167 HD
ATOM     44  C   UNL A   1      45.576  28.674  27.057  1.00  0.00     0.031 A 
ATOM     45  C   UNL A   1      40.554  22.774  26.588  1.00  0.00     0.031 A 
ATOM     46  C   UNL A   1      45.615  27.433  26.355  1.00  0.00     0.049 A 
ATOM     47  C   UNL A   1      42.012  22.787  26.436  1.00  0.00     0.074 A 
ATOM     48  C   UNL A   1      45.096  27.068  25.138  1.00  0.00     0.029 A 
ATOM     49  N   UNL A   1      45.772  26.319  27.150  1.00  0.00    -0.354 N 
ATOM     50  N   UNL A   1      42.859  22.640  27.408  1.00  0.00    -0.248 NA
ATOM     51  C   UNL A   1      42.578  23.038  25.105  1.00  0.00     0.031 C 
ATOM     52  C   UNL A   1      44.440  25.862  25.453  1.00  0.00     0.029 A 
ATOM     53  C   UNL A   1      44.898  25.377  26.685  1.00  0.00     0.049 A 
ATOM     54  H   UNL A   1      46.392  26.221  27.907  1.00  0.00     0.167 HD
ATOM     55  C   UNL A   1      43.981  23.218  26.877  1.00  0.00     0.074 A 
ATOM     56  C   UNL A   1      43.866  23.096  25.434  1.00  0.00     0.031 C 
ATOM     57  C   UNL A   1      44.537  24.273  27.532  1.00  0.00     0.031 A 
BRANCH  44  58
ATOM     58  C   UNL A   1      46.879  29.188  27.588  1.00  0.00    -0.014 A 
ATOM     59  C   UNL A   1      47.900  29.416  26.632  1.00  0.00     0.009 A 
ATOM     60  C   UNL A   1      47.260  29.092  28.928  1.00  0.00     0.009 A 
ATOM     61  C   UNL A   1      49.249  29.392  26.976  1.00  0.00     0.001 A 
ATOM     62  C   UNL A   1      48.617  29.117  29.281  1.00  0.00     0.001 A 
ATOM     63  C   UNL A   1      49.608  29.222  28.305  1.00  0.00     0.000 A 
ENDBRANCH  44  58
BRANCH  45  64
ATOM     64  C   UNL A   1      39.900  21.523  26.028  1.00  0.00    -0.014 A 
ATOM     65  C   UNL A   1      40.351  20.209  26.141  1.00  0.00     0.009 A 
ATOM     66  C   UNL A   1      38.622  21.666  25.402  1.00  0.00     0.009 A 
ATOM     67  C   UNL A   1      39.525  19.123  25.749  1.00  0.00     0.001 A 
ATOM     68  C   UNL A   1      37.778  20.603  25.075  1.00  0.00     0.001 A 
ATOM     69  C   UNL A   1      38.227  19.316  25.264  1.00  0.00     0.000 A 
ENDBRANCH  45  64
BRANCH  57  70
ATOM     70  C   UNL A   1      44.336  24.312  29.042  1.00  0.00    -0.014 A 
ATOM     71  C   UNL A   1      44.009  25.536  29.655  1.00  0.00     0.009 A 
ATOM     72  C   UNL A   1      44.547  23.213  29.896  1.00  0.00     0.009 A 
ATOM     73  C   UNL A   1      43.911  25.667  31.047  1.00  0.00     0.001 A 
ATOM     74  C   UNL A   1      44.453  23.341  31.296  1.00  0.00     0.001 A 
ATOM     75  C   UNL A   1      44.132  24.568  31.870  1.00  0.00     0.000 A 
ENDBRANCH  57  70
ENDBRANCH  31  32
ENDBRANCH  24  26
ENDBRANCH  23  24
ENDBRANCH  22  23
ENDBRANCH  21  22
ENDBRANCH  20  21
ENDBRANCH   1  20
TORSDOF 17
ENDMDL
MODEL 2
REMARK VINA RESULT:      -9.8      2.110      2.865
REMARK SMILES N#Cc1ccccc1Cn1cccc1C(=O)OCCOCCOC(=O)c1ccc(-c2c3nc(c(-c4ccccc4)c4ccc([nH]4)c(-c4ccccc4)c4nc(c(-c5ccccc5)c5ccc2[nH]5)C=C4)C=C3)cc1
REMARK SMILES IDX 19 1 18 2 17 3 15 4 16 5 14 6 10 7 11 8 12 9 13 10 9 11 8 12
REMARK SMILES IDX 3 13 4 14 5 15 7 16 6 17 2 18 1 19 20 20 21 21 22 22 23 23
REMARK SMILES IDX 24 24 25 25 26 26 27 27 73 28 28 29 72 30 29 31 30 32 31 33
REMARK SMILES IDX 66 34 32 35 71 36 65 37 67 38 33 39 70 40 64 41 63 42 34 44
REMARK SMILES IDX 56 45 41 46 55 47 42 48 45 49 54 50 68 51 43 52 44 53 53 55
REMARK SMILES IDX 69 56 46 57 35 58 36 59 40 60 37 61 39 62 38 63 57 64 58 65
REMARK SMILES IDX 62 66 59 67 61 68 60 69 47 70 48 71 52 72 49 73 51 74 50 75
REMARK H PARENT 67 43 45 54
REMARK Flexibility Score: inf
ROOT
ATOM      1  C   UNL A   1      32.634  29.415  26.549  1.00  0.00     0.202 C 
ENDROOT
BRANCH   1   2
ATOM      2  C   UNL A   1      31.674  28.325  27.025  1.00  0.00     0.261 C 
BRANCH   2   3
ATOM      3  O   UNL A   1      31.271  27.470  25.938  1.00  0.00    -0.459 OA
BRANCH   3   4
ATOM      4  C   UNL A   1      32.164  26.491  25.636  1.00  0.00     0.355 C 
ATOM      5  O   UNL A   1      32.670  25.732  26.453  1.00  0.00    -0.244 OA
BRANCH   4   6
ATOM      6  C   UNL A   1      32.298  26.320  24.201  1.00  0.00     0.127 A 
ATOM      7  N   UNL A   1      31.656  25.467  23.314  1.00  0.00    -0.338 N 
ATOM      8  C   UNL A   1      31.919  25.926  22.036  1.00  0.00     0.087 A 
ATOM      9  C   UNL A   1      32.952  26.825  22.083  1.00  0.00     0.020 A 
ATOM     10  C   UNL A   1      33.185  27.080  23.441  1.00  0.00     0.035 A 
BRANCH   7  11
ATOM     11  C   UNL A   1      30.690  24.393  23.601  1.00  0.00     0.159 C 
BRANCH  11  12
ATOM     12  C   UNL A   1      31.341  23.037  23.873  1.00  0.00    -0.010 A 
ATOM     13  C   UNL A   1      31.359  22.430  25.146  1.00  0.00     0.057 A 
ATOM     14  C   UNL A   1      31.987  21.180  25.331  1.00  0.00     0.020 A 
ATOM     15  C   UNL A   1      32.606  20.522  24.271  1.00  0.00     0.001 A 
ATOM     16  C   UNL A   1      31.911  22.305  22.809  1.00  0.00     0.007 A 
ATOM     17  C   UNL A   1      32.559  21.083  23.006  1.00  0.00     0.000 A 
BRANCH  13  18
ATOM     18  C   UNL A   1      30.703  23.009  26.287  1.00  0.00     0.099 C 
ATOM     19  N   UNL A   1      30.136  23.481  27.180  1.00  0.00    -0.192 NA
ENDBRANCH  13  18
ENDBRANCH  11  12
ENDBRANCH   7  11
ENDBRANCH   4   6
ENDBRANCH   3   4
ENDBRANCH   2   3
ENDBRANCH   1   2
BRANCH   1  20
ATOM     20  O   UNL A   1      33.863  29.552  27.269  1.00  0.00    -0.374 OA
BRANCH  20  21
ATOM     21  C   UNL A   1      34.355  30.857  27.549  1.00  0.00     0.202 C 
BRANCH  21  22
ATOM     22  C   UNL A   1      35.771  31.004  28.082  1.00  0.00     0.261 C 
BRANCH  22  23
ATOM     23  O   UNL A   1      36.455  29.772  28.230  1.00  0.00    -0.460 OA
BRANCH  23  24
ATOM     24  C   UNL A   1      37.444  29.853  29.151  1.00  0.00     0.338 C 
ATOM     25  O   UNL A   1      37.519  30.600  30.111  1.00  0.00    -0.246 OA
BRANCH  24  26
ATOM     26  C   UNL A   1      38.571  29.047  28.699  1.00  0.00     0.060 A 
ATOM     27  C   UNL A   1      39.324  28.402  29.683  1.00  0.00     0.016 A 
ATOM     28  C   UNL A   1      39.022  29.201  27.379  1.00  0.00     0.016 A 
ATOM     29  C   UNL A   1      40.606  28.014  29.371  1.00  0.00     0.010 A 
ATOM     30  C   UNL A   1      40.309  28.837  27.074  1.00  0.00     0.010 A 
ATOM     31  C   UNL A   1      41.096  28.281  28.084  1.00  0.00    -0.014 A 
BRANCH  31  32
ATOM     32  C   UNL A   1      42.401  27.742  27.724  1.00  0.00     0.031 A 
ATOM     33  C   UNL A   1      43.381  28.920  27.573  1.00  0.00     0.074 A 
ATOM     34  C   UNL A   1      42.462  26.379  27.568  1.00  0.00     0.049 A 
ATOM     35  N   UNL A   1      44.443  28.989  26.847  1.00  0.00    -0.248 NA
ATOM     36  C   UNL A   1      43.125  30.239  28.237  1.00  0.00     0.031 C 
ATOM     37  C   UNL A   1      41.338  25.434  27.809  1.00  0.00     0.029 A 
ATOM     38  N   UNL A   1      43.451  25.495  27.185  1.00  0.00    -0.354 N 
ATOM     39  C   UNL A   1      45.090  30.208  27.129  1.00  0.00     0.074 A 
ATOM     40  C   UNL A   1      44.169  30.994  27.884  1.00  0.00     0.031 C 
ATOM     41  C   UNL A   1      41.674  24.166  27.470  1.00  0.00     0.029 A 
ATOM     42  C   UNL A   1      43.048  24.137  27.009  1.00  0.00     0.049 A 
ATOM     43  H   UNL A   1      44.381  25.786  27.040  1.00  0.00     0.167 HD
ATOM     44  C   UNL A   1      46.419  30.377  26.873  1.00  0.00     0.031 A 
ATOM     45  C   UNL A   1      43.773  23.090  26.492  1.00  0.00     0.031 A 
ATOM     46  C   UNL A   1      46.919  29.205  26.232  1.00  0.00     0.049 A 
ATOM     47  C   UNL A   1      45.142  23.602  26.395  1.00  0.00     0.074 A 
ATOM     48  C   UNL A   1      46.622  28.645  25.015  1.00  0.00     0.029 A 
ATOM     49  N   UNL A   1      47.410  28.240  27.084  1.00  0.00    -0.354 N 
ATOM     50  N   UNL A   1      45.937  23.789  27.404  1.00  0.00    -0.248 NA
ATOM     51  C   UNL A   1      45.655  23.993  25.076  1.00  0.00     0.031 C 
ATOM     52  C   UNL A   1      46.408  27.297  25.362  1.00  0.00     0.029 A 
ATOM     53  C   UNL A   1      46.940  27.039  26.631  1.00  0.00     0.049 A 
ATOM     54  H   UNL A   1      47.986  28.387  27.869  1.00  0.00     0.167 HD
ATOM     55  C   UNL A   1      46.816  24.703  26.889  1.00  0.00     0.074 A 
ATOM     56  C   UNL A   1      46.825  24.504  25.450  1.00  0.00     0.031 C 
ATOM     57  C   UNL A   1      46.940  25.905  27.516  1.00  0.00     0.031 A 
BRANCH  44  58
ATOM     58  C   UNL A   1      47.435  31.327  27.429  1.00  0.00    -0.014 A 
ATOM     59  C   UNL A   1      47.630  31.287  28.833  1.00  0.00     0.009 A 
ATOM     60  C   UNL A   1      47.896  32.453  26.746  1.00  0.00     0.009 A 
ATOM     61  C   UNL A   1      48.115  32.384  29.539  1.00  0.00     0.001 A 
ATOM     62  C   UNL A   1      48.431  33.540  27.453  1.00  0.00     0.001 A 
ATOM     63  C   UNL A   1      48.499  33.522  28.847  1.00  0.00     0.000 A 
ENDBRANCH  44  58
BRANCH  45  64
ATOM     64  C   UNL A   1      43.620  21.673  25.968  1.00  0.00    -0.014 A 
ATOM     65  C   UNL A   1      44.570  20.917  25.281  1.00  0.00     0.009 A 
ATOM     66  C   UNL A   1      42.417  20.971  26.293  1.00  0.00     0.009 A 
ATOM     67  C   UNL A   1      44.359  19.534  25.040  1.00  0.00     0.001 A 
ATOM     68  C   UNL A   1      42.230  19.598  26.118  1.00  0.00     0.001 A 
ATOM     69  C   UNL A   1      43.218  18.868  25.498  1.00  0.00     0.000 A 
ENDBRANCH  45  64
BRANCH  57  70
ATOM     70  C   UNL A   1      46.659  25.919  29.013  1.00  0.00    -0.014 A 
ATOM     71  C   UNL A   1      45.384  26.308  29.465  1.00  0.00     0.009 A 
ATOM     72  C   UNL A   1      47.626  25.654  30.000  1.00  0.00     0.009 A 
ATOM     73  C   UNL A   1      45.089  26.443  30.828  1.00  0.00     0.001 A 
ATOM     74  C   UNL A   1      47.335  25.791  31.372  1.00  0.00     0.001 A 
ATOM     75  C   UNL A   1      46.064  26.184  31.784  1.00  0.00     0.000 A 
ENDBRANCH  57  70
ENDBRANCH  31  32
ENDBRANCH  24  26
ENDBRANCH  23  24
ENDBRANCH  22  23
ENDBRANCH  21  22
ENDBRANCH  20  21
ENDBRANCH   1  20
TORSDOF 17
ENDMDL
MODEL 3
REMARK VINA RESULT:      -9.8      2.168      2.910
REMARK SMILES N#Cc1ccccc1Cn1cccc1C(=O)OCCOCCOC(=O)c1ccc(-c2c3nc(c(-c4ccccc4)c4ccc([nH]4)c(-c4ccccc4)c4nc(c(-c5ccccc5)c5ccc2[nH]5)C=C4)C=C3)cc1
REMARK SMILES IDX 19 1 18 2 17 3 15 4 16 5 14 6 10 7 11 8 12 9 13 10 9 11 8 12
REMARK SMILES IDX 3 13 4 14 5 15 7 16 6 17 2 18 1 19 20 20 21 21 22 22 23 23
REMARK SMILES IDX 24 24 25 25 26 26 27 27 73 28 28 29 72 30 29 31 30 32 31 33
REMARK SMILES IDX 66 34 32 35 71 36 65 37 67 38 33 39 70 40 64 41 63 42 34 44
REMARK SMILES IDX 56 45 41 46 55 47 42 48 45 49 54 50 68 51 43 52 44 53 53 55
REMARK SMILES IDX 69 56 46 57 35 58 36 59 40 60 37 61 39 62 38 63 57 64 58 65
REMARK SMILES IDX 62 66 59 67 61 68 60 69 47 70 48 71 52 72 49 73 51 74 50 75
REMARK H PARENT 67 43 45 54
REMARK Flexibility Score: inf
ROOT
ATOM      1  C   UNL A   1      33.236  28.653  26.956  1.00  0.00     0.202 C 
ENDROOT
BRANCH   1   2
ATOM      2  C   UNL A   1      32.525  27.917  25.820  1.00  0.00     0.261 C 
BRANCH   2   3
ATOM      3  O   UNL A   1      33.334  26.841  25.306  1.00  0.00    -0.459 OA
BRANCH   3   4
ATOM      4  C   UNL A   1      32.820  25.601  25.524  1.00  0.00     0.355 C 
ATOM      5  O   UNL A   1      32.080  25.307  26.453  1.00  0.00    -0.244 OA
BRANCH   4   6
ATOM      6  C   UNL A   1      33.093  24.712  24.410  1.00  0.00     0.127 A 
ATOM      7  N   UNL A   1      33.407  23.360  24.370  1.00  0.00    -0.338 N 
ATOM      8  C   UNL A   1      33.256  22.940  23.061  1.00  0.00     0.087 A 
ATOM      9  C   UNL A   1      33.179  24.035  22.241  1.00  0.00     0.020 A 
ATOM     10  C   UNL A   1      33.067  25.147  23.086  1.00  0.00     0.035 A 
BRANCH   7  11
ATOM     11  C   UNL A   1      33.651  22.436  25.489  1.00  0.00     0.159 C 
BRANCH  11  12
ATOM     12  C   UNL A   1      34.791  21.449  25.235  1.00  0.00    -0.010 A 
ATOM     13  C   UNL A   1      34.586  20.071  25.018  1.00  0.00     0.057 A 
ATOM     14  C   UNL A   1      35.685  19.213  24.800  1.00  0.00     0.020 A 
ATOM     15  C   UNL A   1      36.990  19.700  24.800  1.00  0.00     0.001 A 
ATOM     16  C   UNL A   1      36.120  21.919  25.152  1.00  0.00     0.007 A 
ATOM     17  C   UNL A   1      37.205  21.058  24.967  1.00  0.00     0.000 A 
BRANCH  13  18
ATOM     18  C   UNL A   1      33.275  19.486  24.950  1.00  0.00     0.099 C 
ATOM     19  N   UNL A   1      32.201  19.057  24.885  1.00  0.00    -0.192 NA
ENDBRANCH  13  18
ENDBRANCH  11  12
ENDBRANCH   7  11
ENDBRANCH   4   6
ENDBRANCH   3   4
ENDBRANCH   2   3
ENDBRANCH   1   2
BRANCH   1  20
ATOM     20  O   UNL A   1      33.972  29.828  26.601  1.00  0.00    -0.374 OA
BRANCH  20  21
ATOM     21  C   UNL A   1      34.211  30.816  27.596  1.00  0.00     0.202 C 
BRANCH  21  22
ATOM     22  C   UNL A   1      35.644  31.088  28.025  1.00  0.00     0.261 C 
BRANCH  22  23
ATOM     23  O   UNL A   1      36.545  30.045  27.695  1.00  0.00    -0.460 OA
BRANCH  23  24
ATOM     24  C   UNL A   1      37.102  29.493  28.799  1.00  0.00     0.338 C 
ATOM     25  O   UNL A   1      36.610  29.366  29.906  1.00  0.00    -0.246 OA
BRANCH  24  26
ATOM     26  C   UNL A   1      38.517  29.260  28.542  1.00  0.00     0.060 A 
ATOM     27  C   UNL A   1      38.943  29.348  27.214  1.00  0.00     0.016 A 
ATOM     28  C   UNL A   1      39.298  28.676  29.551  1.00  0.00     0.016 A 
ATOM     29  C   UNL A   1      40.118  28.724  26.866  1.00  0.00     0.010 A 
ATOM     30  C   UNL A   1      40.457  28.032  29.200  1.00  0.00     0.010 A 
ATOM     31  C   UNL A   1      40.834  28.036  27.856  1.00  0.00    -0.014 A 
BRANCH  31  32
ATOM     32  C   UNL A   1      42.144  27.501  27.505  1.00  0.00     0.031 A 
ATOM     33  C   UNL A   1      43.108  28.685  27.306  1.00  0.00     0.074 A 
ATOM     34  C   UNL A   1      42.222  26.134  27.394  1.00  0.00     0.049 A 
ATOM     35  N   UNL A   1      44.163  28.743  26.571  1.00  0.00    -0.248 NA
ATOM     36  C   UNL A   1      42.839  30.023  27.927  1.00  0.00     0.031 C 
ATOM     37  C   UNL A   1      41.111  25.184  27.676  1.00  0.00     0.029 A 
ATOM     38  N   UNL A   1      43.219  25.251  27.035  1.00  0.00    -0.354 N 
ATOM     39  C   UNL A   1      44.796  29.979  26.806  1.00  0.00     0.074 A 
ATOM     40  C   UNL A   1      43.871  30.779  27.541  1.00  0.00     0.031 C 
ATOM     41  C   UNL A   1      41.461  23.909  27.378  1.00  0.00     0.029 A 
ATOM     42  C   UNL A   1      42.832  23.882  26.908  1.00  0.00     0.049 A 
ATOM     43  H   UNL A   1      44.144  25.548  26.873  1.00  0.00     0.167 HD
ATOM     44  C   UNL A   1      46.121  30.156  26.535  1.00  0.00     0.031 A 
ATOM     45  C   UNL A   1      43.567  22.827  26.422  1.00  0.00     0.031 A 
ATOM     46  C   UNL A   1      46.633  28.969  25.931  1.00  0.00     0.049 A 
ATOM     47  C   UNL A   1      44.929  23.353  26.298  1.00  0.00     0.074 A 
ATOM     48  C   UNL A   1      46.335  28.365  24.736  1.00  0.00     0.029 A 
ATOM     49  N   UNL A   1      47.141  28.040  26.812  1.00  0.00    -0.354 N 
ATOM     50  N   UNL A   1      45.728  23.584  27.294  1.00  0.00    -0.248 NA
ATOM     51  C   UNL A   1      45.427  23.705  24.962  1.00  0.00     0.031 C 
ATOM     52  C   UNL A   1      46.140  27.027  25.130  1.00  0.00     0.029 A 
ATOM     53  C   UNL A   1      46.684  26.819  26.404  1.00  0.00     0.049 A 
ATOM     54  H   UNL A   1      47.721  28.221  27.587  1.00  0.00     0.167 HD
ATOM     55  C   UNL A   1      46.592  24.492  26.742  1.00  0.00     0.074 A 
ATOM     56  C   UNL A   1      46.593  24.244  25.310  1.00  0.00     0.031 C 
ATOM     57  C   UNL A   1      46.704  25.716  27.326  1.00  0.00     0.031 A 
BRANCH  44  58
ATOM     58  C   UNL A   1      47.129  31.137  27.051  1.00  0.00    -0.014 A 
ATOM     59  C   UNL A   1      47.043  32.454  26.536  1.00  0.00     0.009 A 
ATOM     60  C   UNL A   1      48.321  30.765  27.675  1.00  0.00     0.009 A 
ATOM     61  C   UNL A   1      48.145  33.305  26.503  1.00  0.00     0.001 A 
ATOM     62  C   UNL A   1      49.417  31.641  27.686  1.00  0.00     0.001 A 
ATOM     63  C   UNL A   1      49.342  32.888  27.065  1.00  0.00     0.000 A 
ENDBRANCH  44  58
BRANCH  45  64
ATOM     64  C   UNL A   1      43.429  21.391  25.947  1.00  0.00    -0.014 A 
ATOM     65  C   UNL A   1      44.359  20.645  25.224  1.00  0.00     0.009 A 
ATOM     66  C   UNL A   1      42.272  20.662  26.366  1.00  0.00     0.009 A 
ATOM     67  C   UNL A   1      44.179  19.250  25.034  1.00  0.00     0.001 A 
ATOM     68  C   UNL A   1      42.120  19.280  26.241  1.00  0.00     0.001 A 
ATOM     69  C   UNL A   1      43.091  18.562  25.581  1.00  0.00     0.000 A 
ENDBRANCH  45  64
BRANCH  57  70
ATOM     70  C   UNL A   1      46.434  25.777  28.824  1.00  0.00    -0.014 A 
ATOM     71  C   UNL A   1      47.524  25.790  29.714  1.00  0.00     0.009 A 
ATOM     72  C   UNL A   1      45.150  25.729  29.397  1.00  0.00     0.009 A 
ATOM     73  C   UNL A   1      47.350  25.741  31.104  1.00  0.00     0.001 A 
ATOM     74  C   UNL A   1      44.969  25.677  30.794  1.00  0.00     0.001 A 
ATOM     75  C   UNL A   1      46.071  25.685  31.646  1.00  0.00     0.000 A 
ENDBRANCH  57  70
ENDBRANCH  31  32
ENDBRANCH  24  26
ENDBRANCH  23  24
ENDBRANCH  22  23
ENDBRANCH  21  22
ENDBRANCH  20  21
ENDBRANCH   1  20
TORSDOF 17
ENDMDL
