MODEL 1
REMARK VINA RESULT:     -11.2      0.000      0.000
REMARK SMILES O=C(OCCOCCOC(=O)[C@]1(CCc2cccnc2)CCC[NH2+]C1)c1ccc(-c2c3nc(c(-c4ccccc4)c4ccc([nH]4)c(-c4ccccc4)c4nc(c(-c5ccccc5)c5ccc2[nH]5)C=C4)C=C3)cc1
REMARK SMILES IDX 7 1 6 2 5 3 4 4 3 5 2 6 1 7 26 8 27 9 73 10 28 11 72 12
REMARK SMILES IDX 29 13 30 14 31 15 66 16 32 17 71 18 65 19 67 20 33 21 70 22
REMARK SMILES IDX 64 23 63 24 34 26 56 27 41 28 55 29 42 30 45 31 54 32 68 33
REMARK SMILES IDX 43 34 44 35 53 37 69 38 46 39 35 40 36 41 40 42 37 43 39 44
REMARK SMILES IDX 38 45 57 46 58 47 62 48 59 49 61 50 60 51 47 52 48 53 52 54
REMARK SMILES IDX 49 55 51 56 50 57 8 58 9 59 10 60 11 61 12 62 21 63 25 64
REMARK SMILES IDX 22 65 24 66 23 67 13 70 14 71 15 72 16 73 20 74 17 75 19 76
REMARK SMILES IDX 18 77
REMARK H PARENT 67 25 45 36 24 68 24 69
REMARK Flexibility Score: inf
ROOT
ATOM      1  C   UNL A   1      45.546  20.163  25.459  1.00  0.00     0.202 C 
ENDROOT
BRANCH   1   2
ATOM      2  O   UNL A   1      46.320  21.060  24.666  1.00  0.00    -0.374 OA
BRANCH   2   3
ATOM      3  C   UNL A   1      46.141  22.461  24.396  1.00  0.00     0.202 C 
BRANCH   3   4
ATOM      4  C   UNL A   1      46.396  23.967  25.258  1.00  0.00     0.261 C 
BRANCH   4   5
ATOM      5  O   UNL A   1      45.753  25.834  24.747  1.00  0.00    -0.460 OA
BRANCH   5   6
ATOM      6  C   UNL A   1      45.127  27.156  25.085  1.00  0.00     0.338 C 
ATOM      7  O   UNL A   1      45.794  28.186  24.974  1.00  0.00    -0.246 OA
BRANCH   6   8
ATOM      8  C   UNL A   1      43.610  27.321  25.479  1.00  0.00     0.060 A 
ATOM      9  C   UNL A   1      42.984  28.556  25.419  1.00  0.00     0.016 A 
ATOM     10  C   UNL A   1      42.950  26.362  26.247  1.00  0.00     0.016 A 
ATOM     11  C   UNL A   1      42.290  28.990  26.571  1.00  0.00     0.010 A 
ATOM     12  C   UNL A   1      41.977  26.762  27.209  1.00  0.00     0.010 A 
ATOM     13  C   UNL A   1      41.807  28.119  27.555  1.00  0.00    -0.014 A 
BRANCH  13  14
ATOM     14  C   UNL A   1      41.297  28.573  28.943  1.00  0.00     0.031 A 
ATOM     15  C   UNL A   1      39.977  29.363  29.063  1.00  0.00     0.074 A 
ATOM     16  C   UNL A   1      41.860  28.251  30.142  1.00  0.00     0.049 A 
ATOM     17  N   UNL A   1      39.555  30.167  30.017  1.00  0.00    -0.248 NA
ATOM     18  C   UNL A   1      39.002  29.228  27.966  1.00  0.00     0.031 C 
ATOM     19  C   UNL A   1      42.994  27.358  30.379  1.00  0.00     0.029 A 
ATOM     20  N   UNL A   1      41.527  28.656  31.432  1.00  0.00    -0.354 N 
ATOM     21  C   UNL A   1      38.347  30.710  29.575  1.00  0.00     0.074 A 
ATOM     22  C   UNL A   1      38.085  30.130  28.279  1.00  0.00     0.031 C 
ATOM     23  C   UNL A   1      43.220  27.232  31.693  1.00  0.00     0.029 A 
ATOM     24  C   UNL A   1      42.384  28.179  32.405  1.00  0.00     0.049 A 
ATOM     25  H   UNL A   1      40.753  29.229  31.632  1.00  0.00     0.167 HD
ATOM     26  C   UNL A   1      37.529  31.618  30.171  1.00  0.00     0.031 A 
ATOM     27  C   UNL A   1      42.589  28.516  33.698  1.00  0.00     0.031 A 
ATOM     28  C   UNL A   1      37.723  32.139  31.501  1.00  0.00     0.049 A 
ATOM     29  C   UNL A   1      41.787  29.628  34.310  1.00  0.00     0.074 A 
ATOM     30  C   UNL A   1      36.994  33.109  32.170  1.00  0.00     0.029 A 
ATOM     31  N   UNL A   1      38.694  31.696  32.382  1.00  0.00    -0.354 N 
ATOM     32  N   UNL A   1      40.787  30.300  33.798  1.00  0.00    -0.248 NA
ATOM     33  C   UNL A   1      42.167  30.051  35.667  1.00  0.00     0.031 C 
ATOM     34  C   UNL A   1      37.557  33.288  33.438  1.00  0.00     0.029 A 
ATOM     35  C   UNL A   1      38.593  32.383  33.581  1.00  0.00     0.049 A 
ATOM     36  H   UNL A   1      39.358  30.996  32.185  1.00  0.00     0.167 HD
ATOM     37  C   UNL A   1      40.409  31.212  34.775  1.00  0.00     0.074 A 
ATOM     38  C   UNL A   1      41.268  30.991  35.918  1.00  0.00     0.031 C 
ATOM     39  C   UNL A   1      39.440  32.157  34.721  1.00  0.00     0.031 A 
BRANCH  26  40
ATOM     40  C   UNL A   1      36.386  32.184  29.360  1.00  0.00    -0.014 A 
ATOM     41  C   UNL A   1      36.449  33.437  28.733  1.00  0.00     0.009 A 
ATOM     42  C   UNL A   1      35.224  31.407  29.192  1.00  0.00     0.009 A 
ATOM     43  C   UNL A   1      35.359  33.917  27.996  1.00  0.00     0.001 A 
ATOM     44  C   UNL A   1      34.152  31.874  28.429  1.00  0.00     0.001 A 
ATOM     45  C   UNL A   1      34.214  33.135  27.842  1.00  0.00     0.000 A 
ENDBRANCH  26  40
BRANCH  27  46
ATOM     46  C   UNL A   1      43.720  27.905  34.469  1.00  0.00    -0.014 A 
ATOM     47  C   UNL A   1      43.534  26.757  35.256  1.00  0.00     0.009 A 
ATOM     48  C   UNL A   1      44.997  28.497  34.445  1.00  0.00     0.009 A 
ATOM     49  C   UNL A   1      44.592  26.229  36.005  1.00  0.00     0.001 A 
ATOM     50  C   UNL A   1      46.062  27.940  35.156  1.00  0.00     0.001 A 
ATOM     51  C   UNL A   1      45.857  26.812  35.945  1.00  0.00     0.000 A 
ENDBRANCH  27  46
BRANCH  39  52
ATOM     52  C   UNL A   1      39.216  32.980  35.956  1.00  0.00    -0.014 A 
ATOM     53  C   UNL A   1      39.888  34.196  36.158  1.00  0.00     0.009 A 
ATOM     54  C   UNL A   1      38.310  32.533  36.929  1.00  0.00     0.009 A 
ATOM     55  C   UNL A   1      39.686  34.926  37.331  1.00  0.00     0.001 A 
ATOM     56  C   UNL A   1      38.087  33.280  38.086  1.00  0.00     0.001 A 
ATOM     57  C   UNL A   1      38.783  34.470  38.291  1.00  0.00     0.000 A 
ENDBRANCH  39  52
ENDBRANCH  13  14
ENDBRANCH   6   8
ENDBRANCH   5   6
ENDBRANCH   4   5
ENDBRANCH   3   4
ENDBRANCH   2   3
ENDBRANCH   1   2
BRANCH   1  58
ATOM     58  C   UNL A   1      44.202  19.550  25.011  1.00  0.00     0.261 C 
BRANCH  58  59
ATOM     59  O   UNL A   1      43.093  20.453  25.055  1.00  0.00    -0.463 OA
BRANCH  59  60
ATOM     60  C   UNL A   1      42.225  20.105  26.029  1.00  0.00     0.317 C 
ATOM     61  O   UNL A   1      42.305  19.022  26.599  1.00  0.00    -0.251 OA
BRANCH  60  62
ATOM     62  C   UNL A   1      41.133  21.155  26.288  1.00  0.00     0.117 C 
ATOM     63  C   UNL A   1      41.615  22.557  25.837  1.00  0.00     0.030 C 
ATOM     64  C   UNL A   1      41.075  21.218  27.846  1.00  0.00     0.279 C 
ATOM     65  C   UNL A   1      42.947  22.984  26.490  1.00  0.00     0.063 C 
ATOM     66  N   UNL A   1      42.377  21.464  28.460  1.00  0.00    -0.345 N 
ATOM     67  C   UNL A   1      43.051  22.672  27.992  1.00  0.00     0.260 C 
ATOM     68  H   UNL A   1      42.244  21.545  29.468  1.00  0.00     0.346 HD
ATOM     69  H   UNL A   1      42.973  20.680  28.196  1.00  0.00     0.346 HD
BRANCH  62  70
ATOM     70  C   UNL A   1      39.679  20.761  25.752  1.00  0.00     0.029 C 
BRANCH  70  71
ATOM     71  C   UNL A   1      38.433  21.712  25.700  1.00  0.00     0.038 C 
BRANCH  71  72
ATOM     72  C   UNL A   1      37.281  21.578  24.682  1.00  0.00    -0.030 A 
ATOM     73  C   UNL A   1      35.857  20.679  25.265  1.00  0.00     0.007 A 
ATOM     74  C   UNL A   1      37.027  22.812  23.493  1.00  0.00     0.114 A 
ATOM     75  C   UNL A   1      34.209  21.050  24.738  1.00  0.00     0.020 A 
ATOM     76  N   UNL A   1      35.370  23.287  22.990  1.00  0.00    -0.264 NA
ATOM     77  C   UNL A   1      33.960  22.400  23.638  1.00  0.00     0.111 A 
ENDBRANCH  71  72
ENDBRANCH  70  71
ENDBRANCH  62  70
ENDBRANCH  60  62
ENDBRANCH  59  60
ENDBRANCH  58  59
ENDBRANCH   1  58
TORSDOF 17
ENDMDL
MODEL 2
REMARK VINA RESULT:     -11.2      4.988     10.241
REMARK SMILES O=C(OCCOCCOC(=O)[C@]1(CCc2cccnc2)CCC[NH2+]C1)c1ccc(-c2c3nc(c(-c4ccccc4)c4ccc([nH]4)c(-c4ccccc4)c4nc(c(-c5ccccc5)c5ccc2[nH]5)C=C4)C=C3)cc1
REMARK SMILES IDX 7 1 6 2 5 3 4 4 3 5 2 6 1 7 26 8 27 9 73 10 28 11 72 12
REMARK SMILES IDX 29 13 30 14 31 15 66 16 32 17 71 18 65 19 67 20 33 21 70 22
REMARK SMILES IDX 64 23 63 24 34 26 56 27 41 28 55 29 42 30 45 31 54 32 68 33
REMARK SMILES IDX 43 34 44 35 53 37 69 38 46 39 35 40 36 41 40 42 37 43 39 44
REMARK SMILES IDX 38 45 57 46 58 47 62 48 59 49 61 50 60 51 47 52 48 53 52 54
REMARK SMILES IDX 49 55 51 56 50 57 8 58 9 59 10 60 11 61 12 62 21 63 25 64
REMARK SMILES IDX 22 65 24 66 23 67 13 70 14 71 15 72 16 73 20 74 17 75 19 76
REMARK SMILES IDX 18 77
REMARK H PARENT 67 25 45 36 24 68 24 69
REMARK Flexibility Score: inf
ROOT
ATOM      1  C   UNL A   1      32.975  30.700  27.148  1.00  0.00     0.202 C 
ENDROOT
BRANCH   1   2
ATOM      2  O   UNL A   1      33.975  31.147  28.060  1.00  0.00    -0.374 OA
BRANCH   2   3
ATOM      3  C   UNL A   1      34.276  32.467  28.544  1.00  0.00     0.202 C 
BRANCH   3   4
ATOM      4  C   UNL A   1      33.711  34.097  28.234  1.00  0.00     0.261 C 
BRANCH   4   5
ATOM      5  O   UNL A   1      33.058  35.481  29.584  1.00  0.00    -0.460 OA
BRANCH   5   6
ATOM      6  C   UNL A   1      33.169  36.205  30.894  1.00  0.00     0.338 C 
ATOM      7  O   UNL A   1      32.929  37.412  30.940  1.00  0.00    -0.246 OA
BRANCH   6   8
ATOM      8  C   UNL A   1      33.473  35.480  32.260  1.00  0.00     0.060 A 
ATOM      9  C   UNL A   1      34.320  36.047  33.200  1.00  0.00     0.016 A 
ATOM     10  C   UNL A   1      33.235  34.116  32.428  1.00  0.00     0.016 A 
ATOM     11  C   UNL A   1      35.373  35.245  33.694  1.00  0.00     0.010 A 
ATOM     12  C   UNL A   1      34.122  33.327  33.219  1.00  0.00     0.010 A 
ATOM     13  C   UNL A   1      35.354  33.845  33.670  1.00  0.00    -0.014 A 
BRANCH  13  14
ATOM     14  C   UNL A   1      36.587  32.954  33.944  1.00  0.00     0.031 A 
ATOM     15  C   UNL A   1      37.308  33.024  35.307  1.00  0.00     0.074 A 
ATOM     16  C   UNL A   1      37.076  31.993  33.110  1.00  0.00     0.049 A 
ATOM     17  N   UNL A   1      38.541  32.695  35.631  1.00  0.00    -0.248 NA
ATOM     18  C   UNL A   1      36.536  33.527  36.457  1.00  0.00     0.031 C 
ATOM     19  C   UNL A   1      36.503  31.546  31.840  1.00  0.00     0.029 A 
ATOM     20  N   UNL A   1      38.207  31.189  33.224  1.00  0.00    -0.354 N 
ATOM     21  C   UNL A   1      38.713  33.063  36.967  1.00  0.00     0.074 A 
ATOM     22  C   UNL A   1      37.455  33.619  37.406  1.00  0.00     0.031 C 
ATOM     23  C   UNL A   1      37.224  30.536  31.335  1.00  0.00     0.029 A 
ATOM     24  C   UNL A   1      38.426  30.375  32.129  1.00  0.00     0.049 A 
ATOM     25  H   UNL A   1      38.795  31.199  34.012  1.00  0.00     0.167 HD
ATOM     26  C   UNL A   1      39.812  32.970  37.762  1.00  0.00     0.031 A 
ATOM     27  C   UNL A   1      39.494  29.659  31.713  1.00  0.00     0.031 A 
ATOM     28  C   UNL A   1      41.047  32.336  37.374  1.00  0.00     0.049 A 
ATOM     29  C   UNL A   1      40.761  29.682  32.518  1.00  0.00     0.074 A 
ATOM     30  C   UNL A   1      42.238  32.247  38.077  1.00  0.00     0.029 A 
ATOM     31  N   UNL A   1      41.233  31.640  36.193  1.00  0.00    -0.354 N 
ATOM     32  N   UNL A   1      40.987  30.233  33.684  1.00  0.00    -0.248 NA
ATOM     33  C   UNL A   1      41.933  29.013  31.930  1.00  0.00     0.031 C 
ATOM     34  C   UNL A   1      43.159  31.541  37.297  1.00  0.00     0.029 A 
ATOM     35  C   UNL A   1      42.521  31.134  36.139  1.00  0.00     0.049 A 
ATOM     36  H   UNL A   1      40.549  31.522  35.493  1.00  0.00     0.167 HD
ATOM     37  C   UNL A   1      42.317  29.964  33.975  1.00  0.00     0.074 A 
ATOM     38  C   UNL A   1      42.842  29.180  32.879  1.00  0.00     0.031 C 
ATOM     39  C   UNL A   1      43.041  30.345  35.055  1.00  0.00     0.031 A 
BRANCH  26  40
ATOM     40  C   UNL A   1      39.770  33.646  39.113  1.00  0.00    -0.014 A 
ATOM     41  C   UNL A   1      40.083  35.002  39.293  1.00  0.00     0.009 A 
ATOM     42  C   UNL A   1      39.362  32.898  40.234  1.00  0.00     0.009 A 
ATOM     43  C   UNL A   1      40.032  35.579  40.568  1.00  0.00     0.001 A 
ATOM     44  C   UNL A   1      39.280  33.485  41.499  1.00  0.00     0.001 A 
ATOM     45  C   UNL A   1      39.628  34.822  41.667  1.00  0.00     0.000 A 
ENDBRANCH  26  40
BRANCH  27  46
ATOM     46  C   UNL A   1      39.476  28.982  30.375  1.00  0.00    -0.014 A 
ATOM     47  C   UNL A   1      39.755  29.687  29.193  1.00  0.00     0.009 A 
ATOM     48  C   UNL A   1      39.142  27.618  30.276  1.00  0.00     0.009 A 
ATOM     49  C   UNL A   1      39.687  29.046  27.951  1.00  0.00     0.001 A 
ATOM     50  C   UNL A   1      39.122  26.970  29.039  1.00  0.00     0.001 A 
ATOM     51  C   UNL A   1      39.384  27.687  27.875  1.00  0.00     0.000 A 
ENDBRANCH  27  46
BRANCH  39  52
ATOM     52  C   UNL A   1      44.461  29.865  35.132  1.00  0.00    -0.014 A 
ATOM     53  C   UNL A   1      44.788  28.634  35.721  1.00  0.00     0.009 A 
ATOM     54  C   UNL A   1      45.488  30.658  34.597  1.00  0.00     0.009 A 
ATOM     55  C   UNL A   1      46.120  28.226  35.808  1.00  0.00     0.001 A 
ATOM     56  C   UNL A   1      46.815  30.234  34.658  1.00  0.00     0.001 A 
ATOM     57  C   UNL A   1      47.131  29.024  35.274  1.00  0.00     0.000 A 
ENDBRANCH  39  52
ENDBRANCH  13  14
ENDBRANCH   6   8
ENDBRANCH   5   6
ENDBRANCH   4   5
ENDBRANCH   3   4
ENDBRANCH   2   3
ENDBRANCH   1   2
BRANCH   1  58
ATOM     58  C   UNL A   1      32.227  29.356  27.273  1.00  0.00     0.261 C 
BRANCH  58  59
ATOM     59  O   UNL A   1      31.638  28.888  26.056  1.00  0.00    -0.463 OA
BRANCH  59  60
ATOM     60  C   UNL A   1      31.473  27.548  26.084  1.00  0.00     0.317 C 
ATOM     61  O   UNL A   1      31.015  26.981  27.070  1.00  0.00    -0.251 OA
BRANCH  60  62
ATOM     62  C   UNL A   1      31.961  26.837  24.811  1.00  0.00     0.117 C 
ATOM     63  C   UNL A   1      31.438  27.570  23.550  1.00  0.00     0.030 C 
ATOM     64  C   UNL A   1      31.190  25.481  24.853  1.00  0.00     0.279 C 
ATOM     65  C   UNL A   1      29.902  27.730  23.530  1.00  0.00     0.063 C 
ATOM     66  N   UNL A   1      29.746  25.646  24.996  1.00  0.00    -0.345 N 
ATOM     67  C   UNL A   1      29.124  26.479  23.970  1.00  0.00     0.260 C 
ATOM     68  H   UNL A   1      29.315  24.723  24.960  1.00  0.00     0.346 HD
ATOM     69  H   UNL A   1      29.597  26.124  25.885  1.00  0.00     0.346 HD
BRANCH  62  70
ATOM     70  C   UNL A   1      33.527  26.517  24.777  1.00  0.00     0.029 C 
BRANCH  70  71
ATOM     71  C   UNL A   1      34.187  25.233  24.164  1.00  0.00     0.038 C 
BRANCH  71  72
ATOM     72  C   UNL A   1      34.650  24.016  24.991  1.00  0.00    -0.030 A 
ATOM     73  C   UNL A   1      33.701  22.528  24.742  1.00  0.00     0.007 A 
ATOM     74  C   UNL A   1      36.317  23.848  25.428  1.00  0.00     0.114 A 
ATOM     75  C   UNL A   1      34.413  20.911  24.848  1.00  0.00     0.020 A 
ATOM     76  N   UNL A   1      37.109  22.237  25.462  1.00  0.00    -0.264 NA
ATOM     77  C   UNL A   1      36.139  20.768  25.153  1.00  0.00     0.111 A 
ENDBRANCH  71  72
ENDBRANCH  70  71
ENDBRANCH  62  70
ENDBRANCH  60  62
ENDBRANCH  59  60
ENDBRANCH  58  59
ENDBRANCH   1  58
TORSDOF 17
ENDMDL
MODEL 3
REMARK VINA RESULT:     -11.0      4.443      9.177
REMARK SMILES O=C(OCCOCCOC(=O)[C@]1(CCc2cccnc2)CCC[NH2+]C1)c1ccc(-c2c3nc(c(-c4ccccc4)c4ccc([nH]4)c(-c4ccccc4)c4nc(c(-c5ccccc5)c5ccc2[nH]5)C=C4)C=C3)cc1
REMARK SMILES IDX 7 1 6 2 5 3 4 4 3 5 2 6 1 7 26 8 27 9 73 10 28 11 72 12
REMARK SMILES IDX 29 13 30 14 31 15 66 16 32 17 71 18 65 19 67 20 33 21 70 22
REMARK SMILES IDX 64 23 63 24 34 26 56 27 41 28 55 29 42 30 45 31 54 32 68 33
REMARK SMILES IDX 43 34 44 35 53 37 69 38 46 39 35 40 36 41 40 42 37 43 39 44
REMARK SMILES IDX 38 45 57 46 58 47 62 48 59 49 61 50 60 51 47 52 48 53 52 54
REMARK SMILES IDX 49 55 51 56 50 57 8 58 9 59 10 60 11 61 12 62 21 63 25 64
REMARK SMILES IDX 22 65 24 66 23 67 13 70 14 71 15 72 16 73 20 74 17 75 19 76
REMARK SMILES IDX 18 77
REMARK H PARENT 67 25 45 36 24 68 24 69
REMARK Flexibility Score: inf
ROOT
ATOM      1  C   UNL A   1      34.737  21.877  27.097  1.00  0.00     0.202 C 
ENDROOT
BRANCH   1   2
ATOM      2  O   UNL A   1      35.248  21.180  25.964  1.00  0.00    -0.374 OA
BRANCH   2   3
ATOM      3  C   UNL A   1      36.554  21.206  25.362  1.00  0.00     0.202 C 
BRANCH   3   4
ATOM      4  C   UNL A   1      37.813  20.040  25.002  1.00  0.00     0.261 C 
BRANCH   4   5
ATOM      5  O   UNL A   1      39.790  20.128  25.501  1.00  0.00    -0.460 OA
BRANCH   5   6
ATOM      6  C   UNL A   1      40.953  20.786  26.185  1.00  0.00     0.338 C 
ATOM      7  O   UNL A   1      42.093  20.586  25.763  1.00  0.00    -0.246 OA
BRANCH   6   8
ATOM      8  C   UNL A   1      40.792  21.819  27.364  1.00  0.00     0.060 A 
ATOM      9  C   UNL A   1      39.694  22.662  27.434  1.00  0.00     0.016 A 
ATOM     10  C   UNL A   1      41.880  22.203  28.148  1.00  0.00     0.016 A 
ATOM     11  C   UNL A   1      39.943  24.043  27.594  1.00  0.00     0.010 A 
ATOM     12  C   UNL A   1      41.987  23.546  28.615  1.00  0.00     0.010 A 
ATOM     13  C   UNL A   1      41.129  24.556  28.134  1.00  0.00    -0.014 A 
BRANCH  13  14
ATOM     14  C   UNL A   1      41.541  26.045  28.068  1.00  0.00     0.031 A 
ATOM     15  C   UNL A   1      42.766  26.476  27.235  1.00  0.00     0.074 A 
ATOM     16  C   UNL A   1      40.849  27.087  28.612  1.00  0.00     0.049 A 
ATOM     17  N   UNL A   1      43.523  27.549  27.333  1.00  0.00    -0.248 NA
ATOM     18  C   UNL A   1      43.193  25.580  26.145  1.00  0.00     0.031 C 
ATOM     19  C   UNL A   1      39.553  27.035  29.288  1.00  0.00     0.029 A 
ATOM     20  N   UNL A   1      41.160  28.443  28.672  1.00  0.00    -0.354 N 
ATOM     21  C   UNL A   1      44.562  27.388  26.413  1.00  0.00     0.074 A 
ATOM     22  C   UNL A   1      44.331  26.129  25.747  1.00  0.00     0.031 C 
ATOM     23  C   UNL A   1      39.157  28.268  29.630  1.00  0.00     0.029 A 
ATOM     24  C   UNL A   1      40.243  29.195  29.381  1.00  0.00     0.049 A 
ATOM     25  H   UNL A   1      41.959  28.830  28.247  1.00  0.00     0.167 HD
ATOM     26  C   UNL A   1      45.623  28.196  26.149  1.00  0.00     0.031 A 
ATOM     27  C   UNL A   1      40.278  30.445  29.894  1.00  0.00     0.031 A 
ATOM     28  C   UNL A   1      45.823  29.497  26.734  1.00  0.00     0.049 A 
ATOM     29  C   UNL A   1      41.515  31.279  29.731  1.00  0.00     0.074 A 
ATOM     30  C   UNL A   1      46.894  30.363  26.584  1.00  0.00     0.029 A 
ATOM     31  N   UNL A   1      44.905  30.140  27.546  1.00  0.00    -0.354 N 
ATOM     32  N   UNL A   1      42.598  31.021  29.042  1.00  0.00    -0.248 NA
ATOM     33  C   UNL A   1      41.548  32.565  30.446  1.00  0.00     0.031 C 
ATOM     34  C   UNL A   1      46.646  31.509  27.349  1.00  0.00     0.029 A 
ATOM     35  C   UNL A   1      45.391  31.383  27.919  1.00  0.00     0.049 A 
ATOM     36  H   UNL A   1      44.035  29.769  27.819  1.00  0.00     0.167 HD
ATOM     37  C   UNL A   1      43.432  32.116  29.228  1.00  0.00     0.074 A 
ATOM     38  C   UNL A   1      42.721  33.052  30.072  1.00  0.00     0.031 C 
ATOM     39  C   UNL A   1      44.682  32.318  28.748  1.00  0.00     0.031 A 
BRANCH  26  40
ATOM     40  C   UNL A   1      46.710  27.664  25.244  1.00  0.00    -0.014 A 
ATOM     41  C   UNL A   1      46.780  27.976  23.878  1.00  0.00     0.009 A 
ATOM     42  C   UNL A   1      47.718  26.852  25.798  1.00  0.00     0.009 A 
ATOM     43  C   UNL A   1      47.807  27.453  23.082  1.00  0.00     0.001 A 
ATOM     44  C   UNL A   1      48.760  26.359  25.009  1.00  0.00     0.001 A 
ATOM     45  C   UNL A   1      48.796  26.649  23.648  1.00  0.00     0.000 A 
ENDBRANCH  26  40
BRANCH  27  46
ATOM     46  C   UNL A   1      39.160  30.937  30.763  1.00  0.00    -0.014 A 
ATOM     47  C   UNL A   1      39.132  30.672  32.142  1.00  0.00     0.009 A 
ATOM     48  C   UNL A   1      38.087  31.653  30.200  1.00  0.00     0.009 A 
ATOM     49  C   UNL A   1      38.056  31.101  32.927  1.00  0.00     0.001 A 
ATOM     50  C   UNL A   1      37.037  32.121  30.994  1.00  0.00     0.001 A 
ATOM     51  C   UNL A   1      37.017  31.835  32.356  1.00  0.00     0.000 A 
ENDBRANCH  27  46
BRANCH  39  52
ATOM     52  C   UNL A   1      45.336  33.630  29.073  1.00  0.00    -0.014 A 
ATOM     53  C   UNL A   1      45.179  34.753  28.245  1.00  0.00     0.009 A 
ATOM     54  C   UNL A   1      46.116  33.744  30.234  1.00  0.00     0.009 A 
ATOM     55  C   UNL A   1      45.825  35.952  28.553  1.00  0.00     0.001 A 
ATOM     56  C   UNL A   1      46.735  34.952  30.556  1.00  0.00     0.001 A 
ATOM     57  C   UNL A   1      46.598  36.052  29.709  1.00  0.00     0.000 A 
ENDBRANCH  39  52
ENDBRANCH  13  14
ENDBRANCH   6   8
ENDBRANCH   5   6
ENDBRANCH   4   5
ENDBRANCH   3   4
ENDBRANCH   2   3
ENDBRANCH   1   2
BRANCH   1  58
ATOM     58  C   UNL A   1      33.237  22.143  27.346  1.00  0.00     0.261 C 
BRANCH  58  59
ATOM     59  O   UNL A   1      32.708  23.272  26.644  1.00  0.00    -0.463 OA
BRANCH  59  60
ATOM     60  C   UNL A   1      31.950  22.878  25.599  1.00  0.00     0.317 C 
ATOM     61  O   UNL A   1      31.552  21.723  25.497  1.00  0.00    -0.251 OA
BRANCH  60  62
ATOM     62  C   UNL A   1      31.701  23.987  24.562  1.00  0.00     0.117 C 
ATOM     63  C   UNL A   1      31.589  23.380  23.141  1.00  0.00     0.030 C 
ATOM     64  C   UNL A   1      33.046  24.779  24.572  1.00  0.00     0.279 C 
ATOM     65  C   UNL A   1      32.814  22.527  22.743  1.00  0.00     0.063 C 
ATOM     66  N   UNL A   1      34.213  23.930  24.353  1.00  0.00    -0.345 N 
ATOM     67  C   UNL A   1      34.171  23.141  23.124  1.00  0.00     0.260 C 
ATOM     68  H   UNL A   1      35.039  24.527  24.319  1.00  0.00     0.346 HD
ATOM     69  H   UNL A   1      34.233  23.262  25.124  1.00  0.00     0.346 HD
BRANCH  62  70
ATOM     70  C   UNL A   1      30.523  25.003  24.933  1.00  0.00     0.029 C 
BRANCH  70  71
ATOM     71  C   UNL A   1      30.652  26.563  25.018  1.00  0.00     0.038 C 
BRANCH  71  72
ATOM     72  C   UNL A   1      30.065  27.540  23.978  1.00  0.00    -0.030 A 
ATOM     73  C   UNL A   1      28.354  27.264  23.562  1.00  0.00     0.007 A 
ATOM     74  C   UNL A   1      30.672  29.159  23.870  1.00  0.00     0.114 A 
ATOM     75  C   UNL A   1      27.252  28.578  23.125  1.00  0.00     0.020 A 
ATOM     76  N   UNL A   1      29.577  30.538  23.518  1.00  0.00    -0.264 NA
ATOM     77  C   UNL A   1      27.854  30.230  23.160  1.00  0.00     0.111 A 
ENDBRANCH  71  72
ENDBRANCH  70  71
ENDBRANCH  62  70
ENDBRANCH  60  62
ENDBRANCH  59  60
ENDBRANCH  58  59
ENDBRANCH   1  58
TORSDOF 17
ENDMDL
