MODEL 1
REMARK VINA RESULT:     -10.2      0.000      0.000
REMARK SMILES O=C(OCCOCCOC(=O)c1ccnc(-n2cnnn2)c1)c1ccc(-c2c3nc(c(-c4ccccc4)c4ccc([nH]4)c(-c4ccccc4)c4nc(c(-c5ccccc5)c5ccc2[nH]5)C=C4)C=C3)cc1
REMARK SMILES IDX 5 1 4 2 3 3 2 4 1 5 23 6 24 7 70 8 25 9 69 10 26 11 27 12
REMARK SMILES IDX 28 13 63 14 29 15 68 16 62 17 64 18 30 19 67 20 61 21 60 22
REMARK SMILES IDX 31 24 53 25 38 26 52 27 39 28 42 29 51 30 65 31 40 32 41 33
REMARK SMILES IDX 50 35 66 36 43 37 32 38 33 39 37 40 34 41 36 42 35 43 54 44
REMARK SMILES IDX 55 45 59 46 56 47 58 48 57 49 44 50 45 51 49 52 46 53 48 54
REMARK SMILES IDX 47 55 6 56 7 57 8 58 9 59 10 60 11 61 12 62 13 63 22 64
REMARK SMILES IDX 14 65 16 66 15 67 17 68 18 69 21 70 19 71 20 72
REMARK H PARENT 64 23 42 34
REMARK Flexibility Score: inf
ROOT
ATOM      1  C   UNL A   1      34.064  37.264  32.495  1.00  0.00     0.202 C 
ENDROOT
BRANCH   1   2
ATOM      2  C   UNL A   1      33.129  37.090  31.301  1.00  0.00     0.261 C 
BRANCH   2   3
ATOM      3  O   UNL A   1      32.886  35.719  30.956  1.00  0.00    -0.460 OA
BRANCH   3   4
ATOM      4  C   UNL A   1      33.115  35.151  29.753  1.00  0.00     0.338 C 
ATOM      5  O   UNL A   1      32.599  35.633  28.747  1.00  0.00    -0.246 OA
BRANCH   4   6
ATOM      6  C   UNL A   1      34.144  34.090  29.593  1.00  0.00     0.060 A 
ATOM      7  C   UNL A   1      34.487  33.152  30.562  1.00  0.00     0.016 A 
ATOM      8  C   UNL A   1      34.933  34.193  28.434  1.00  0.00     0.016 A 
ATOM      9  C   UNL A   1      35.753  32.613  30.566  1.00  0.00     0.010 A 
ATOM     10  C   UNL A   1      36.168  33.584  28.384  1.00  0.00     0.010 A 
ATOM     11  C   UNL A   1      36.613  32.913  29.515  1.00  0.00    -0.014 A 
BRANCH  11  12
ATOM     12  C   UNL A   1      37.965  32.407  29.609  1.00  0.00     0.031 A 
ATOM     13  C   UNL A   1      38.055  30.951  29.337  1.00  0.00     0.074 A 
ATOM     14  C   UNL A   1      39.003  33.220  29.876  1.00  0.00     0.049 A 
ATOM     15  N   UNL A   1      38.403  30.015  30.154  1.00  0.00    -0.248 NA
ATOM     16  C   UNL A   1      37.497  30.464  28.063  1.00  0.00     0.031 C 
ATOM     17  C   UNL A   1      39.028  34.685  29.933  1.00  0.00     0.029 A 
ATOM     18  N   UNL A   1      40.309  32.897  30.043  1.00  0.00    -0.354 N 
ATOM     19  C   UNL A   1      38.304  28.830  29.431  1.00  0.00     0.074 A 
ATOM     20  C   UNL A   1      37.580  29.145  28.227  1.00  0.00     0.031 C 
ATOM     21  C   UNL A   1      40.308  35.111  29.834  1.00  0.00     0.029 A 
ATOM     22  C   UNL A   1      41.187  33.955  29.858  1.00  0.00     0.049 A 
ATOM     23  H   UNL A   1      40.609  31.988  30.276  1.00  0.00     0.167 HD
ATOM     24  C   UNL A   1      39.068  27.750  29.748  1.00  0.00     0.031 A 
ATOM     25  C   UNL A   1      42.526  33.860  29.655  1.00  0.00     0.031 A 
ATOM     26  C   UNL A   1      39.553  27.827  31.102  1.00  0.00     0.049 A 
ATOM     27  C   UNL A   1      42.946  32.512  30.110  1.00  0.00     0.074 A 
ATOM     28  C   UNL A   1      38.954  27.867  32.346  1.00  0.00     0.029 A 
ATOM     29  N   UNL A   1      40.835  28.289  31.283  1.00  0.00    -0.354 N 
ATOM     30  N   UNL A   1      42.911  32.142  31.359  1.00  0.00    -0.248 NA
ATOM     31  C   UNL A   1      42.917  31.428  29.137  1.00  0.00     0.031 C 
ATOM     32  C   UNL A   1      39.734  28.795  33.096  1.00  0.00     0.029 A 
ATOM     33  C   UNL A   1      40.807  29.204  32.302  1.00  0.00     0.049 A 
ATOM     34  H   UNL A   1      41.630  28.010  30.773  1.00  0.00     0.167 HD
ATOM     35  C   UNL A   1      42.409  30.848  31.330  1.00  0.00     0.074 A 
ATOM     36  C   UNL A   1      42.509  30.432  29.930  1.00  0.00     0.031 C 
ATOM     37  C   UNL A   1      41.688  30.347  32.377  1.00  0.00     0.031 A 
BRANCH  24  38
ATOM     38  C   UNL A   1      39.764  26.923  28.691  1.00  0.00    -0.014 A 
ATOM     39  C   UNL A   1      40.607  27.583  27.779  1.00  0.00     0.009 A 
ATOM     40  C   UNL A   1      39.386  25.607  28.360  1.00  0.00     0.009 A 
ATOM     41  C   UNL A   1      40.946  27.001  26.551  1.00  0.00     0.001 A 
ATOM     42  C   UNL A   1      39.753  25.009  27.154  1.00  0.00     0.001 A 
ATOM     43  C   UNL A   1      40.503  25.721  26.232  1.00  0.00     0.000 A 
ENDBRANCH  24  38
BRANCH  25  44
ATOM     44  C   UNL A   1      43.370  34.698  28.771  1.00  0.00    -0.014 A 
ATOM     45  C   UNL A   1      43.076  34.839  27.406  1.00  0.00     0.009 A 
ATOM     46  C   UNL A   1      44.316  35.580  29.327  1.00  0.00     0.009 A 
ATOM     47  C   UNL A   1      43.684  35.842  26.636  1.00  0.00     0.001 A 
ATOM     48  C   UNL A   1      44.924  36.580  28.560  1.00  0.00     0.001 A 
ATOM     49  C   UNL A   1      44.597  36.720  27.216  1.00  0.00     0.000 A 
ENDBRANCH  25  44
BRANCH  37  50
ATOM     50  C   UNL A   1      41.608  31.167  33.641  1.00  0.00    -0.014 A 
ATOM     51  C   UNL A   1      42.140  30.743  34.872  1.00  0.00     0.009 A 
ATOM     52  C   UNL A   1      41.132  32.482  33.540  1.00  0.00     0.009 A 
ATOM     53  C   UNL A   1      42.169  31.606  35.975  1.00  0.00     0.001 A 
ATOM     54  C   UNL A   1      41.180  33.349  34.633  1.00  0.00     0.001 A 
ATOM     55  C   UNL A   1      41.694  32.910  35.852  1.00  0.00     0.000 A 
ENDBRANCH  37  50
ENDBRANCH  11  12
ENDBRANCH   4   6
ENDBRANCH   3   4
ENDBRANCH   2   3
ENDBRANCH   1   2
BRANCH   1  56
ATOM     56  O   UNL A   1      34.887  36.175  32.887  1.00  0.00    -0.374 OA
BRANCH  56  57
ATOM     57  C   UNL A   1      34.456  35.380  34.002  1.00  0.00     0.202 C 
BRANCH  57  58
ATOM     58  C   UNL A   1      35.128  34.029  34.308  1.00  0.00     0.261 C 
BRANCH  58  59
ATOM     59  O   UNL A   1      36.322  33.785  33.540  1.00  0.00    -0.460 OA
BRANCH  59  60
ATOM     60  C   UNL A   1      37.479  34.054  34.198  1.00  0.00     0.338 C 
ATOM     61  O   UNL A   1      38.114  35.087  34.177  1.00  0.00    -0.246 OA
BRANCH  60  62
ATOM     62  C   UNL A   1      37.751  32.985  35.181  1.00  0.00     0.065 A 
ATOM     63  C   UNL A   1      37.928  31.666  34.787  1.00  0.00     0.036 A 
ATOM     64  C   UNL A   1      37.897  33.355  36.522  1.00  0.00     0.065 A 
ATOM     65  C   UNL A   1      38.341  30.771  35.757  1.00  0.00     0.114 A 
ATOM     66  C   UNL A   1      38.297  32.382  37.426  1.00  0.00     0.157 A 
ATOM     67  N   UNL A   1      38.557  31.105  37.051  1.00  0.00    -0.237 NA
BRANCH  66  68
ATOM     68  N   UNL A   1      38.454  32.742  38.781  1.00  0.00    -0.182 N 
ATOM     69  C   UNL A   1      39.158  33.796  39.302  1.00  0.00     0.254 A 
ATOM     70  N   UNL A   1      37.940  32.027  39.802  1.00  0.00    -0.039 NA
ATOM     71  N   UNL A   1      39.172  33.700  40.610  1.00  0.00    -0.117 NA
ATOM     72  N   UNL A   1      38.431  32.581  40.905  1.00  0.00    -0.024 NA
ENDBRANCH  66  68
ENDBRANCH  60  62
ENDBRANCH  59  60
ENDBRANCH  58  59
ENDBRANCH  57  58
ENDBRANCH  56  57
ENDBRANCH   1  56
TORSDOF 15
ENDMDL
MODEL 2
REMARK VINA RESULT:      -9.4      6.944     12.479
REMARK SMILES O=C(OCCOCCOC(=O)c1ccnc(-n2cnnn2)c1)c1ccc(-c2c3nc(c(-c4ccccc4)c4ccc([nH]4)c(-c4ccccc4)c4nc(c(-c5ccccc5)c5ccc2[nH]5)C=C4)C=C3)cc1
REMARK SMILES IDX 5 1 4 2 3 3 2 4 1 5 23 6 24 7 70 8 25 9 69 10 26 11 27 12
REMARK SMILES IDX 28 13 63 14 29 15 68 16 62 17 64 18 30 19 67 20 61 21 60 22
REMARK SMILES IDX 31 24 53 25 38 26 52 27 39 28 42 29 51 30 65 31 40 32 41 33
REMARK SMILES IDX 50 35 66 36 43 37 32 38 33 39 37 40 34 41 36 42 35 43 54 44
REMARK SMILES IDX 55 45 59 46 56 47 58 48 57 49 44 50 45 51 49 52 46 53 48 54
REMARK SMILES IDX 47 55 6 56 7 57 8 58 9 59 10 60 11 61 12 62 13 63 22 64
REMARK SMILES IDX 14 65 16 66 15 67 17 68 18 69 21 70 19 71 20 72
REMARK H PARENT 64 23 42 34
REMARK Flexibility Score: inf
ROOT
ATOM      1  C   UNL A   1      42.606  19.309  26.270  1.00  0.00     0.202 C 
ENDROOT
BRANCH   1   2
ATOM      2  C   UNL A   1      43.445  18.466  25.312  1.00  0.00     0.261 C 
BRANCH   2   3
ATOM      3  O   UNL A   1      44.683  19.085  24.936  1.00  0.00    -0.460 OA
BRANCH   3   4
ATOM      4  C   UNL A   1      44.827  20.110  24.069  1.00  0.00     0.338 C 
ATOM      5  O   UNL A   1      44.483  19.966  22.898  1.00  0.00    -0.246 OA
BRANCH   4   6
ATOM      6  C   UNL A   1      45.190  21.470  24.547  1.00  0.00     0.060 A 
ATOM      7  C   UNL A   1      46.055  21.745  25.602  1.00  0.00     0.016 A 
ATOM      8  C   UNL A   1      44.442  22.520  23.989  1.00  0.00     0.016 A 
ATOM      9  C   UNL A   1      45.905  22.912  26.315  1.00  0.00     0.010 A 
ATOM     10  C   UNL A   1      44.352  23.729  24.644  1.00  0.00     0.010 A 
ATOM     11  C   UNL A   1      44.983  23.854  25.873  1.00  0.00    -0.014 A 
BRANCH  11  12
ATOM     12  C   UNL A   1      44.787  25.020  26.707  1.00  0.00     0.031 A 
ATOM     13  C   UNL A   1      45.879  26.015  26.570  1.00  0.00     0.074 A 
ATOM     14  C   UNL A   1      43.690  25.159  27.474  1.00  0.00     0.049 A 
ATOM     15  N   UNL A   1      46.723  26.390  27.472  1.00  0.00    -0.248 NA
ATOM     16  C   UNL A   1      46.190  26.499  25.214  1.00  0.00     0.031 C 
ATOM     17  C   UNL A   1      42.475  24.339  27.493  1.00  0.00     0.029 A 
ATOM     18  N   UNL A   1      43.385  26.159  28.338  1.00  0.00    -0.354 N 
ATOM     19  C   UNL A   1      47.552  27.317  26.847  1.00  0.00     0.074 A 
ATOM     20  C   UNL A   1      47.294  27.209  25.435  1.00  0.00     0.031 C 
ATOM     21  C   UNL A   1      41.483  25.030  28.099  1.00  0.00     0.029 A 
ATOM     22  C   UNL A   1      42.033  26.264  28.634  1.00  0.00     0.049 A 
ATOM     23  H   UNL A   1      44.064  26.759  28.723  1.00  0.00     0.167 HD
ATOM     24  C   UNL A   1      48.177  28.292  27.562  1.00  0.00     0.031 A 
ATOM     25  C   UNL A   1      41.416  27.332  29.199  1.00  0.00     0.031 A 
ATOM     26  C   UNL A   1      48.265  27.947  28.957  1.00  0.00     0.049 A 
ATOM     27  C   UNL A   1      42.467  28.154  29.849  1.00  0.00     0.074 A 
ATOM     28  C   UNL A   1      48.869  26.929  29.669  1.00  0.00     0.029 A 
ATOM     29  N   UNL A   1      47.321  28.488  29.797  1.00  0.00    -0.354 N 
ATOM     30  N   UNL A   1      43.145  27.749  30.885  1.00  0.00    -0.248 NA
ATOM     31  C   UNL A   1      43.108  29.191  29.050  1.00  0.00     0.031 C 
ATOM     32  C   UNL A   1      47.936  26.600  30.697  1.00  0.00     0.029 A 
ATOM     33  C   UNL A   1      46.860  27.485  30.607  1.00  0.00     0.049 A 
ATOM     34  H   UNL A   1      47.029  29.429  29.814  1.00  0.00     0.167 HD
ATOM     35  C   UNL A   1      44.453  28.133  30.624  1.00  0.00     0.074 A 
ATOM     36  C   UNL A   1      44.355  29.089  29.519  1.00  0.00     0.031 C 
ATOM     37  C   UNL A   1      45.511  27.423  31.119  1.00  0.00     0.031 A 
BRANCH  24  38
ATOM     38  C   UNL A   1      48.234  29.724  27.083  1.00  0.00    -0.014 A 
ATOM     39  C   UNL A   1      49.456  30.412  27.185  1.00  0.00     0.009 A 
ATOM     40  C   UNL A   1      47.089  30.509  26.842  1.00  0.00     0.009 A 
ATOM     41  C   UNL A   1      49.507  31.811  27.170  1.00  0.00     0.001 A 
ATOM     42  C   UNL A   1      47.141  31.903  26.789  1.00  0.00     0.001 A 
ATOM     43  C   UNL A   1      48.346  32.556  26.990  1.00  0.00     0.000 A 
ENDBRANCH  24  38
BRANCH  25  44
ATOM     44  C   UNL A   1      40.067  27.865  28.897  1.00  0.00    -0.014 A 
ATOM     45  C   UNL A   1      39.067  27.912  29.882  1.00  0.00     0.009 A 
ATOM     46  C   UNL A   1      39.840  28.579  27.705  1.00  0.00     0.009 A 
ATOM     47  C   UNL A   1      37.902  28.669  29.691  1.00  0.00     0.001 A 
ATOM     48  C   UNL A   1      38.677  29.334  27.514  1.00  0.00     0.001 A 
ATOM     49  C   UNL A   1      37.713  29.389  28.514  1.00  0.00     0.000 A 
ENDBRANCH  25  44
BRANCH  37  50
ATOM     50  C   UNL A   1      45.223  26.320  32.108  1.00  0.00    -0.014 A 
ATOM     51  C   UNL A   1      45.167  26.526  33.499  1.00  0.00     0.009 A 
ATOM     52  C   UNL A   1      44.828  25.074  31.605  1.00  0.00     0.009 A 
ATOM     53  C   UNL A   1      44.750  25.501  34.358  1.00  0.00     0.001 A 
ATOM     54  C   UNL A   1      44.393  24.059  32.459  1.00  0.00     0.001 A 
ATOM     55  C   UNL A   1      44.359  24.271  33.836  1.00  0.00     0.000 A 
ENDBRANCH  37  50
ENDBRANCH  11  12
ENDBRANCH   4   6
ENDBRANCH   3   4
ENDBRANCH   2   3
ENDBRANCH   1   2
BRANCH   1  56
ATOM     56  O   UNL A   1      41.784  20.339  25.739  1.00  0.00    -0.374 OA
BRANCH  56  57
ATOM     57  C   UNL A   1      40.533  20.597  26.393  1.00  0.00     0.202 C 
BRANCH  57  58
ATOM     58  C   UNL A   1      39.933  22.015  26.406  1.00  0.00     0.261 C 
BRANCH  58  59
ATOM     59  O   UNL A   1      38.615  22.095  25.832  1.00  0.00    -0.460 OA
BRANCH  59  60
ATOM     60  C   UNL A   1      37.990  23.286  26.021  1.00  0.00     0.338 C 
ATOM     61  O   UNL A   1      38.456  24.288  26.520  1.00  0.00    -0.246 OA
BRANCH  60  62
ATOM     62  C   UNL A   1      36.707  23.296  25.289  1.00  0.00     0.065 A 
ATOM     63  C   UNL A   1      36.653  23.077  23.919  1.00  0.00     0.036 A 
ATOM     64  C   UNL A   1      35.534  23.460  26.033  1.00  0.00     0.065 A 
ATOM     65  C   UNL A   1      35.397  22.940  23.355  1.00  0.00     0.114 A 
ATOM     66  C   UNL A   1      34.321  23.324  25.373  1.00  0.00     0.157 A 
ATOM     67  N   UNL A   1      34.241  23.028  24.053  1.00  0.00    -0.237 NA
BRANCH  66  68
ATOM     68  N   UNL A   1      33.129  23.483  26.112  1.00  0.00    -0.182 N 
ATOM     69  C   UNL A   1      32.326  24.590  26.196  1.00  0.00     0.254 A 
ATOM     70  N   UNL A   1      32.621  22.526  26.915  1.00  0.00    -0.039 NA
ATOM     71  N   UNL A   1      31.394  24.379  27.094  1.00  0.00    -0.117 NA
ATOM     72  N   UNL A   1      31.605  23.100  27.550  1.00  0.00    -0.024 NA
ENDBRANCH  66  68
ENDBRANCH  60  62
ENDBRANCH  59  60
ENDBRANCH  58  59
ENDBRANCH  57  58
ENDBRANCH  56  57
ENDBRANCH   1  56
TORSDOF 15
ENDMDL
MODEL 3
REMARK VINA RESULT:      -9.4      7.474     13.274
REMARK SMILES O=C(OCCOCCOC(=O)c1ccnc(-n2cnnn2)c1)c1ccc(-c2c3nc(c(-c4ccccc4)c4ccc([nH]4)c(-c4ccccc4)c4nc(c(-c5ccccc5)c5ccc2[nH]5)C=C4)C=C3)cc1
REMARK SMILES IDX 5 1 4 2 3 3 2 4 1 5 23 6 24 7 70 8 25 9 69 10 26 11 27 12
REMARK SMILES IDX 28 13 63 14 29 15 68 16 62 17 64 18 30 19 67 20 61 21 60 22
REMARK SMILES IDX 31 24 53 25 38 26 52 27 39 28 42 29 51 30 65 31 40 32 41 33
REMARK SMILES IDX 50 35 66 36 43 37 32 38 33 39 37 40 34 41 36 42 35 43 54 44
REMARK SMILES IDX 55 45 59 46 56 47 58 48 57 49 44 50 45 51 49 52 46 53 48 54
REMARK SMILES IDX 47 55 6 56 7 57 8 58 9 59 10 60 11 61 12 62 13 63 22 64
REMARK SMILES IDX 14 65 16 66 15 67 17 68 18 69 21 70 19 71 20 72
REMARK H PARENT 64 23 42 34
REMARK Flexibility Score: inf
ROOT
ATOM      1  C   UNL A   1      46.356  20.312  24.691  1.00  0.00     0.202 C 
ENDROOT
BRANCH   1   2
ATOM      2  C   UNL A   1      45.344  19.297  25.216  1.00  0.00     0.261 C 
BRANCH   2   3
ATOM      3  O   UNL A   1      44.015  19.499  24.716  1.00  0.00    -0.460 OA
BRANCH   3   4
ATOM      4  C   UNL A   1      42.883  19.511  25.451  1.00  0.00     0.338 C 
ATOM      5  O   UNL A   1      42.381  18.447  25.807  1.00  0.00    -0.246 OA
BRANCH   4   6
ATOM      6  C   UNL A   1      42.354  20.779  26.019  1.00  0.00     0.060 A 
ATOM      7  C   UNL A   1      42.483  22.035  25.433  1.00  0.00     0.016 A 
ATOM      8  C   UNL A   1      41.857  20.687  27.330  1.00  0.00     0.016 A 
ATOM      9  C   UNL A   1      42.485  23.157  26.229  1.00  0.00     0.010 A 
ATOM     10  C   UNL A   1      41.766  21.815  28.115  1.00  0.00     0.010 A 
ATOM     11  C   UNL A   1      42.214  23.018  27.586  1.00  0.00    -0.014 A 
BRANCH  11  12
ATOM     12  C   UNL A   1      42.324  24.206  28.403  1.00  0.00     0.031 A 
ATOM     13  C   UNL A   1      41.269  25.206  28.108  1.00  0.00     0.074 A 
ATOM     14  C   UNL A   1      43.276  24.326  29.347  1.00  0.00     0.049 A 
ATOM     15  N   UNL A   1      41.417  26.390  27.616  1.00  0.00    -0.248 NA
ATOM     16  C   UNL A   1      39.868  24.756  28.184  1.00  0.00     0.031 C 
ATOM     17  C   UNL A   1      44.203  23.306  29.847  1.00  0.00     0.029 A 
ATOM     18  N   UNL A   1      43.539  25.384  30.153  1.00  0.00    -0.354 N 
ATOM     19  C   UNL A   1      40.133  26.916  27.510  1.00  0.00     0.074 A 
ATOM     20  C   UNL A   1      39.224  25.817  27.700  1.00  0.00     0.031 C 
ATOM     21  C   UNL A   1      44.706  23.709  31.037  1.00  0.00     0.029 A 
ATOM     22  C   UNL A   1      44.254  25.064  31.298  1.00  0.00     0.049 A 
ATOM     23  H   UNL A   1      43.247  26.301  29.943  1.00  0.00     0.167 HD
ATOM     24  C   UNL A   1      39.921  28.260  27.554  1.00  0.00     0.031 A 
ATOM     25  C   UNL A   1      44.380  25.838  32.406  1.00  0.00     0.031 A 
ATOM     26  C   UNL A   1      41.119  28.993  27.235  1.00  0.00     0.049 A 
ATOM     27  C   UNL A   1      44.025  27.225  32.018  1.00  0.00     0.074 A 
ATOM     28  C   UNL A   1      41.937  29.079  26.126  1.00  0.00     0.029 A 
ATOM     29  N   UNL A   1      41.856  29.476  28.290  1.00  0.00    -0.354 N 
ATOM     30  N   UNL A   1      44.745  27.938  31.198  1.00  0.00    -0.248 NA
ATOM     31  C   UNL A   1      42.629  27.626  32.134  1.00  0.00     0.031 C 
ATOM     32  C   UNL A   1      43.260  29.146  26.654  1.00  0.00     0.029 A 
ATOM     33  C   UNL A   1      43.171  29.181  28.047  1.00  0.00     0.049 A 
ATOM     34  H   UNL A   1      41.503  29.950  29.077  1.00  0.00     0.167 HD
ATOM     35  C   UNL A   1      43.821  28.567  30.374  1.00  0.00     0.074 A 
ATOM     36  C   UNL A   1      42.533  28.402  31.050  1.00  0.00     0.031 C 
ATOM     37  C   UNL A   1      44.135  28.899  29.086  1.00  0.00     0.031 A 
BRANCH  24  38
ATOM     38  C   UNL A   1      38.798  28.867  28.364  1.00  0.00    -0.014 A 
ATOM     39  C   UNL A   1      37.953  29.798  27.735  1.00  0.00     0.009 A 
ATOM     40  C   UNL A   1      38.735  28.808  29.770  1.00  0.00     0.009 A 
ATOM     41  C   UNL A   1      37.184  30.700  28.481  1.00  0.00     0.001 A 
ATOM     42  C   UNL A   1      37.942  29.681  30.516  1.00  0.00     0.001 A 
ATOM     43  C   UNL A   1      37.193  30.652  29.871  1.00  0.00     0.000 A 
ENDBRANCH  24  38
BRANCH  25  44
ATOM     44  C   UNL A   1      44.423  25.396  33.820  1.00  0.00    -0.014 A 
ATOM     45  C   UNL A   1      45.293  25.998  34.743  1.00  0.00     0.009 A 
ATOM     46  C   UNL A   1      43.411  24.560  34.329  1.00  0.00     0.009 A 
ATOM     47  C   UNL A   1      45.136  25.792  36.122  1.00  0.00     0.001 A 
ATOM     48  C   UNL A   1      43.254  24.354  35.704  1.00  0.00     0.001 A 
ATOM     49  C   UNL A   1      44.110  24.981  36.602  1.00  0.00     0.000 A 
ENDBRANCH  25  44
BRANCH  37  50
ATOM     50  C   UNL A   1      45.567  28.733  28.639  1.00  0.00    -0.014 A 
ATOM     51  C   UNL A   1      46.495  29.790  28.612  1.00  0.00     0.009 A 
ATOM     52  C   UNL A   1      46.034  27.433  28.404  1.00  0.00     0.009 A 
ATOM     53  C   UNL A   1      47.846  29.550  28.332  1.00  0.00     0.001 A 
ATOM     54  C   UNL A   1      47.384  27.191  28.146  1.00  0.00     0.001 A 
ATOM     55  C   UNL A   1      48.289  28.249  28.104  1.00  0.00     0.000 A 
ENDBRANCH  37  50
ENDBRANCH  11  12
ENDBRANCH   4   6
ENDBRANCH   3   4
ENDBRANCH   2   3
ENDBRANCH   1   2
BRANCH   1  56
ATOM     56  O   UNL A   1      46.036  21.695  24.748  1.00  0.00    -0.374 OA
BRANCH  56  57
ATOM     57  C   UNL A   1      45.905  22.296  26.045  1.00  0.00     0.202 C 
BRANCH  57  58
ATOM     58  C   UNL A   1      46.065  23.817  26.224  1.00  0.00     0.261 C 
BRANCH  58  59
ATOM     59  O   UNL A   1      47.359  24.317  25.837  1.00  0.00    -0.460 OA
BRANCH  59  60
ATOM     60  C   UNL A   1      47.322  25.373  24.985  1.00  0.00     0.338 C 
ATOM     61  O   UNL A   1      46.337  25.917  24.530  1.00  0.00    -0.246 OA
BRANCH  60  62
ATOM     62  C   UNL A   1      48.670  25.967  24.870  1.00  0.00     0.065 A 
ATOM     63  C   UNL A   1      49.673  25.665  25.781  1.00  0.00     0.036 A 
ATOM     64  C   UNL A   1      48.928  26.790  23.770  1.00  0.00     0.065 A 
ATOM     65  C   UNL A   1      50.942  26.138  25.495  1.00  0.00     0.114 A 
ATOM     66  C   UNL A   1      50.229  27.231  23.578  1.00  0.00     0.157 A 
ATOM     67  N   UNL A   1      51.244  26.882  24.406  1.00  0.00    -0.237 NA
BRANCH  66  68
ATOM     68  N   UNL A   1      50.506  28.059  22.469  1.00  0.00    -0.182 N 
ATOM     69  C   UNL A   1      51.721  28.330  21.896  1.00  0.00     0.254 A 
ATOM     70  N   UNL A   1      49.561  28.770  21.821  1.00  0.00    -0.039 NA
ATOM     71  N   UNL A   1      51.567  29.254  20.978  1.00  0.00    -0.117 NA
ATOM     72  N   UNL A   1      50.222  29.535  20.960  1.00  0.00    -0.024 NA
ENDBRANCH  66  68
ENDBRANCH  60  62
ENDBRANCH  59  60
ENDBRANCH  58  59
ENDBRANCH  57  58
ENDBRANCH  56  57
ENDBRANCH   1  56
TORSDOF 15
ENDMDL
