MODEL 1
REMARK VINA RESULT:      -9.9      0.000      0.000
REMARK SMILES CC[NH2+][C@@]1(C(=O)OCCOCCOC(=O)c2ccc(-c3c4nc(c(-c5ccccc5)c5ccc([nH]5)c(-c5ccccc5)c5nc(c(-c6ccccc6)c6ccc3[nH]6)C=C5)C=C4)cc2)CCC[C@@H]([N@@H+](C)C2CCCC2)C1
REMARK SMILES IDX 10 1 9 2 8 3 7 4 5 5 6 6 4 7 64 8 75 9 65 10 67 11 66 12
REMARK SMILES IDX 3 13 2 16 1 17 68 18 69 19 70 21 71 22 74 23 72 24 73 25
REMARK SMILES IDX 11 26 12 27 13 28 14 29 15 30 16 31 17 32 63 33 18 34 62 35
REMARK SMILES IDX 19 36 20 37 21 38 56 39 22 40 61 41 55 42 57 43 23 44 60 45
REMARK SMILES IDX 54 46 53 47 24 49 46 50 31 51 45 52 32 53 35 54 44 55 58 56
REMARK SMILES IDX 33 57 34 58 43 60 59 61 36 62 25 63 26 64 30 65 27 66 29 67
REMARK SMILES IDX 28 68 47 69 48 70 52 71 49 72 51 73 50 74 37 75 38 76 42 77
REMARK SMILES IDX 39 78 41 79 40 80
REMARK H PARENT 3 14 3 15 68 20 57 48 35 59
REMARK Flexibility Score: inf
ROOT
ATOM      1  O   UNL A   1      31.914  30.594  26.252  1.00  0.00    -0.374 OA
ENDROOT
BRANCH   1   2
ATOM      2  C   UNL A   1      33.256  30.167  26.460  1.00  0.00     0.202 C 
BRANCH   2   3
ATOM      3  C   UNL A   1      33.464  28.903  27.297  1.00  0.00     0.261 C 
BRANCH   3   4
ATOM      4  O   UNL A   1      33.214  27.696  26.556  1.00  0.00    -0.459 OA
BRANCH   4   5
ATOM      5  C   UNL A   1      31.903  27.353  26.456  1.00  0.00     0.368 C 
ATOM      6  O   UNL A   1      31.106  27.434  27.390  1.00  0.00    -0.245 OA
BRANCH   5   7
ATOM      7  C   UNL A   1      31.476  26.841  25.035  1.00  0.00     0.200 C 
ATOM      8  C   UNL A   1      30.091  26.187  25.165  1.00  0.00     0.081 C 
ATOM      9  C   UNL A   1      32.418  25.826  24.364  1.00  0.00     0.146 C 
ATOM     10  C   UNL A   1      30.133  24.889  25.973  1.00  0.00     0.013 C 
ATOM     11  C   UNL A   1      32.480  24.402  24.934  1.00  0.00     0.190 C 
ATOM     12  C   UNL A   1      31.136  23.853  25.465  1.00  0.00     0.065 C 
BRANCH   7  13
ATOM     13  N   UNL A   1      31.324  28.102  24.223  1.00  0.00    -0.332 N 
ATOM     14  H   UNL A   1      31.522  28.883  24.848  1.00  0.00     0.347 HD
ATOM     15  H   UNL A   1      31.965  27.965  23.441  1.00  0.00     0.347 HD
BRANCH  13  16
ATOM     16  C   UNL A   1      30.050  28.386  23.578  1.00  0.00     0.257 C 
ATOM     17  C   UNL A   1      30.262  29.285  22.367  1.00  0.00     0.071 C 
ENDBRANCH  13  16
ENDBRANCH   7  13
BRANCH  11  18
ATOM     18  N   UNL A   1      33.225  23.486  24.016  1.00  0.00    -0.332 N 
ATOM     19  C   UNL A   1      33.218  23.985  22.637  1.00  0.00     0.333 C 
ATOM     20  H   UNL A   1      32.669  22.637  24.123  1.00  0.00     0.348 HD
BRANCH  18  21
ATOM     21  C   UNL A   1      34.575  23.001  24.380  1.00  0.00     0.184 C 
ATOM     22  C   UNL A   1      35.761  23.235  23.435  1.00  0.00     0.065 C 
ATOM     23  C   UNL A   1      35.094  23.435  25.775  1.00  0.00     0.065 C 
ATOM     24  C   UNL A   1      36.972  22.961  24.314  1.00  0.00     0.006 C 
ATOM     25  C   UNL A   1      36.601  23.664  25.610  1.00  0.00     0.006 C 
ENDBRANCH  18  21
ENDBRANCH  11  18
ENDBRANCH   5   7
ENDBRANCH   4   5
ENDBRANCH   3   4
ENDBRANCH   2   3
ENDBRANCH   1   2
BRANCH   1  26
ATOM     26  C   UNL A   1      31.561  31.903  26.698  1.00  0.00     0.202 C 
BRANCH  26  27
ATOM     27  C   UNL A   1      32.618  32.670  27.501  1.00  0.00     0.261 C 
BRANCH  27  28
ATOM     28  O   UNL A   1      32.321  34.077  27.584  1.00  0.00    -0.460 OA
BRANCH  28  29
ATOM     29  C   UNL A   1      33.026  34.759  28.517  1.00  0.00     0.338 C 
ATOM     30  O   UNL A   1      32.679  35.759  29.129  1.00  0.00    -0.246 OA
BRANCH  29  31
ATOM     31  C   UNL A   1      34.248  34.012  28.860  1.00  0.00     0.060 A 
ATOM     32  C   UNL A   1      34.225  33.211  30.010  1.00  0.00     0.016 A 
ATOM     33  C   UNL A   1      35.417  34.146  28.112  1.00  0.00     0.016 A 
ATOM     34  C   UNL A   1      35.384  32.563  30.434  1.00  0.00     0.010 A 
ATOM     35  C   UNL A   1      36.582  33.503  28.543  1.00  0.00     0.010 A 
ATOM     36  C   UNL A   1      36.578  32.732  29.720  1.00  0.00    -0.014 A 
BRANCH  36  37
ATOM     37  C   UNL A   1      37.849  32.209  30.273  1.00  0.00     0.031 A 
ATOM     38  C   UNL A   1      38.412  30.926  29.727  1.00  0.00     0.074 A 
ATOM     39  C   UNL A   1      38.500  32.872  31.245  1.00  0.00     0.049 A 
ATOM     40  N   UNL A   1      39.472  30.259  30.107  1.00  0.00    -0.248 NA
ATOM     41  C   UNL A   1      37.684  30.315  28.604  1.00  0.00     0.031 C 
ATOM     42  C   UNL A   1      38.086  34.150  31.823  1.00  0.00     0.029 A 
ATOM     43  N   UNL A   1      39.648  32.550  31.924  1.00  0.00    -0.354 N 
ATOM     44  C   UNL A   1      39.532  29.147  29.277  1.00  0.00     0.074 A 
ATOM     45  C   UNL A   1      38.391  29.216  28.390  1.00  0.00     0.031 C 
ATOM     46  C   UNL A   1      38.964  34.498  32.779  1.00  0.00     0.029 A 
ATOM     47  C   UNL A   1      39.977  33.451  32.906  1.00  0.00     0.049 A 
ATOM     48  H   UNL A   1      40.186  31.749  31.724  1.00  0.00     0.167 HD
ATOM     49  C   UNL A   1      40.456  28.157  29.255  1.00  0.00     0.031 A 
ATOM     50  C   UNL A   1      40.963  33.420  33.822  1.00  0.00     0.031 A 
ATOM     51  C   UNL A   1      41.583  28.081  30.144  1.00  0.00     0.049 A 
ATOM     52  C   UNL A   1      41.921  32.258  33.841  1.00  0.00     0.074 A 
ATOM     53  C   UNL A   1      42.586  27.127  30.184  1.00  0.00     0.029 A 
ATOM     54  N   UNL A   1      41.851  28.986  31.159  1.00  0.00    -0.354 N 
ATOM     55  N   UNL A   1      41.983  31.226  33.036  1.00  0.00    -0.248 NA
ATOM     56  C   UNL A   1      42.945  32.259  34.898  1.00  0.00     0.031 C 
ATOM     57  C   UNL A   1      43.427  27.424  31.261  1.00  0.00     0.029 A 
ATOM     58  C   UNL A   1      42.981  28.594  31.855  1.00  0.00     0.049 A 
ATOM     59  H   UNL A   1      41.315  29.789  31.354  1.00  0.00     0.167 HD
ATOM     60  C   UNL A   1      43.061  30.467  33.475  1.00  0.00     0.074 A 
ATOM     61  C   UNL A   1      43.634  31.165  34.606  1.00  0.00     0.031 C 
ATOM     62  C   UNL A   1      43.535  29.297  32.982  1.00  0.00     0.031 A 
BRANCH  49  63
ATOM     63  C   UNL A   1      40.261  27.051  28.258  1.00  0.00    -0.014 A 
ATOM     64  C   UNL A   1      40.814  27.123  26.969  1.00  0.00     0.009 A 
ATOM     65  C   UNL A   1      39.543  25.902  28.626  1.00  0.00     0.009 A 
ATOM     66  C   UNL A   1      40.626  26.079  26.061  1.00  0.00     0.001 A 
ATOM     67  C   UNL A   1      39.378  24.850  27.724  1.00  0.00     0.001 A 
ATOM     68  C   UNL A   1      39.912  24.942  26.441  1.00  0.00     0.000 A 
ENDBRANCH  49  63
BRANCH  50  69
ATOM     69  C   UNL A   1      41.075  34.506  34.831  1.00  0.00    -0.014 A 
ATOM     70  C   UNL A   1      41.903  35.615  34.600  1.00  0.00     0.009 A 
ATOM     71  C   UNL A   1      40.367  34.427  36.040  1.00  0.00     0.009 A 
ATOM     72  C   UNL A   1      42.034  36.612  35.571  1.00  0.00     0.001 A 
ATOM     73  C   UNL A   1      40.479  35.438  36.996  1.00  0.00     0.001 A 
ATOM     74  C   UNL A   1      41.319  36.526  36.764  1.00  0.00     0.000 A 
ENDBRANCH  50  69
BRANCH  62  75
ATOM     75  C   UNL A   1      44.747  28.705  33.648  1.00  0.00    -0.014 A 
ATOM     76  C   UNL A   1      46.042  29.096  33.277  1.00  0.00     0.009 A 
ATOM     77  C   UNL A   1      44.585  27.788  34.698  1.00  0.00     0.009 A 
ATOM     78  C   UNL A   1      47.154  28.559  33.931  1.00  0.00     0.001 A 
ATOM     79  C   UNL A   1      45.696  27.274  35.367  1.00  0.00     0.001 A 
ATOM     80  C   UNL A   1      46.980  27.654  34.979  1.00  0.00     0.000 A 
ENDBRANCH  62  75
ENDBRANCH  36  37
ENDBRANCH  29  31
ENDBRANCH  28  29
ENDBRANCH  27  28
ENDBRANCH  26  27
ENDBRANCH   1  26
TORSDOF 18
ENDMDL
MODEL 2
REMARK VINA RESULT:      -9.8      1.528      6.889
REMARK SMILES CC[NH2+][C@@]1(C(=O)OCCOCCOC(=O)c2ccc(-c3c4nc(c(-c5ccccc5)c5ccc([nH]5)c(-c5ccccc5)c5nc(c(-c6ccccc6)c6ccc3[nH]6)C=C5)C=C4)cc2)CCC[C@@H]([N@@H+](C)C2CCCC2)C1
REMARK SMILES IDX 10 1 9 2 8 3 7 4 5 5 6 6 4 7 64 8 75 9 65 10 67 11 66 12
REMARK SMILES IDX 3 13 2 16 1 17 68 18 69 19 70 21 71 22 74 23 72 24 73 25
REMARK SMILES IDX 11 26 12 27 13 28 14 29 15 30 16 31 17 32 63 33 18 34 62 35
REMARK SMILES IDX 19 36 20 37 21 38 56 39 22 40 61 41 55 42 57 43 23 44 60 45
REMARK SMILES IDX 54 46 53 47 24 49 46 50 31 51 45 52 32 53 35 54 44 55 58 56
REMARK SMILES IDX 33 57 34 58 43 60 59 61 36 62 25 63 26 64 30 65 27 66 29 67
REMARK SMILES IDX 28 68 47 69 48 70 52 71 49 72 51 73 50 74 37 75 38 76 42 77
REMARK SMILES IDX 39 78 41 79 40 80
REMARK H PARENT 3 14 3 15 68 20 57 48 35 59
REMARK Flexibility Score: inf
ROOT
ATOM      1  O   UNL A   1      32.144  30.739  26.492  1.00  0.00    -0.374 OA
ENDROOT
BRANCH   1   2
ATOM      2  C   UNL A   1      33.481  30.381  26.822  1.00  0.00     0.202 C 
BRANCH   2   3
ATOM      3  C   UNL A   1      33.679  29.106  27.645  1.00  0.00     0.261 C 
BRANCH   3   4
ATOM      4  O   UNL A   1      33.469  27.908  26.876  1.00  0.00    -0.459 OA
BRANCH   4   5
ATOM      5  C   UNL A   1      32.184  27.467  26.854  1.00  0.00     0.368 C 
ATOM      6  O   UNL A   1      31.366  27.711  27.740  1.00  0.00    -0.245 OA
BRANCH   5   7
ATOM      7  C   UNL A   1      31.818  26.611  25.590  1.00  0.00     0.200 C 
ATOM      8  C   UNL A   1      33.074  26.503  24.712  1.00  0.00     0.081 C 
ATOM      9  C   UNL A   1      30.671  27.145  24.713  1.00  0.00     0.146 C 
ATOM     10  C   UNL A   1      33.466  27.844  24.088  1.00  0.00     0.013 C 
ATOM     11  C   UNL A   1      30.923  28.405  23.873  1.00  0.00     0.190 C 
ATOM     12  C   UNL A   1      32.352  28.528  23.295  1.00  0.00     0.065 C 
BRANCH   7  13
ATOM     13  N   UNL A   1      31.518  25.243  26.150  1.00  0.00    -0.332 N 
ATOM     14  H   UNL A   1      31.369  25.358  27.152  1.00  0.00     0.347 HD
ATOM     15  H   UNL A   1      30.720  24.926  25.599  1.00  0.00     0.347 HD
BRANCH  13  16
ATOM     16  C   UNL A   1      32.495  24.176  25.985  1.00  0.00     0.257 C 
ATOM     17  C   UNL A   1      32.125  22.983  26.857  1.00  0.00     0.071 C 
ENDBRANCH  13  16
ENDBRANCH   7  13
BRANCH  11  18
ATOM     18  N   UNL A   1      29.817  28.628  22.891  1.00  0.00    -0.332 N 
ATOM     19  C   UNL A   1      28.627  27.843  23.235  1.00  0.00     0.333 C 
ATOM     20  H   UNL A   1      30.267  28.295  22.038  1.00  0.00     0.348 HD
BRANCH  18  21
ATOM     21  C   UNL A   1      29.431  30.003  22.502  1.00  0.00     0.184 C 
ATOM     22  C   UNL A   1      28.301  30.230  21.488  1.00  0.00     0.065 C 
ATOM     23  C   UNL A   1      29.108  30.969  23.670  1.00  0.00     0.065 C 
ATOM     24  C   UNL A   1      27.963  31.703  21.661  1.00  0.00     0.006 C 
ATOM     25  C   UNL A   1      27.966  31.864  23.173  1.00  0.00     0.006 C 
ENDBRANCH  18  21
ENDBRANCH  11  18
ENDBRANCH   5   7
ENDBRANCH   4   5
ENDBRANCH   3   4
ENDBRANCH   2   3
ENDBRANCH   1   2
BRANCH   1  26
ATOM     26  C   UNL A   1      31.713  32.060  26.821  1.00  0.00     0.202 C 
BRANCH  26  27
ATOM     27  C   UNL A   1      32.563  32.832  27.836  1.00  0.00     0.261 C 
BRANCH  27  28
ATOM     28  O   UNL A   1      32.692  34.224  27.490  1.00  0.00    -0.460 OA
BRANCH  28  29
ATOM     29  C   UNL A   1      32.960  35.053  28.525  1.00  0.00     0.338 C 
ATOM     30  O   UNL A   1      32.288  35.996  28.919  1.00  0.00    -0.246 OA
BRANCH  29  31
ATOM     31  C   UNL A   1      34.121  34.548  29.277  1.00  0.00     0.060 A 
ATOM     32  C   UNL A   1      35.359  34.507  28.621  1.00  0.00     0.016 A 
ATOM     33  C   UNL A   1      33.990  34.058  30.577  1.00  0.00     0.016 A 
ATOM     34  C   UNL A   1      36.467  33.946  29.253  1.00  0.00     0.010 A 
ATOM     35  C   UNL A   1      35.101  33.487  31.206  1.00  0.00     0.010 A 
ATOM     36  C   UNL A   1      36.336  33.403  30.538  1.00  0.00    -0.014 A 
BRANCH  36  37
ATOM     37  C   UNL A   1      37.454  32.633  31.132  1.00  0.00     0.031 A 
ATOM     38  C   UNL A   1      38.051  33.095  32.432  1.00  0.00     0.074 A 
ATOM     39  C   UNL A   1      37.929  31.531  30.526  1.00  0.00     0.049 A 
ATOM     40  N   UNL A   1      39.071  32.611  33.093  1.00  0.00    -0.248 NA
ATOM     41  C   UNL A   1      37.412  34.256  33.072  1.00  0.00     0.031 C 
ATOM     42  C   UNL A   1      37.404  30.951  29.290  1.00  0.00     0.029 A 
ATOM     43  N   UNL A   1      38.971  30.707  30.870  1.00  0.00    -0.354 N 
ATOM     44  C   UNL A   1      39.203  33.413  34.220  1.00  0.00     0.074 A 
ATOM     45  C   UNL A   1      38.175  34.427  34.142  1.00  0.00     0.031 C 
ATOM     46  C   UNL A   1      38.136  29.869  28.973  1.00  0.00     0.029 A 
ATOM     47  C   UNL A   1      39.202  29.705  29.960  1.00  0.00     0.049 A 
ATOM     48  H   UNL A   1      39.502  30.824  31.691  1.00  0.00     0.167 HD
ATOM     49  C   UNL A   1      40.099  33.312  35.230  1.00  0.00     0.031 A 
ATOM     50  C   UNL A   1      40.179  28.780  29.914  1.00  0.00     0.031 A 
ATOM     51  C   UNL A   1      41.130  32.311  35.303  1.00  0.00     0.049 A 
ATOM     52  C   UNL A   1      41.223  28.749  30.998  1.00  0.00     0.074 A 
ATOM     53  C   UNL A   1      42.071  32.115  36.298  1.00  0.00     0.029 A 
ATOM     54  N   UNL A   1      41.362  31.346  34.335  1.00  0.00    -0.354 N 
ATOM     55  N   UNL A   1      41.323  29.496  32.070  1.00  0.00    -0.248 NA
ATOM     56  C   UNL A   1      42.292  27.747  30.862  1.00  0.00     0.031 C 
ATOM     57  C   UNL A   1      42.910  31.068  35.904  1.00  0.00     0.029 A 
ATOM     58  C   UNL A   1      42.455  30.576  34.691  1.00  0.00     0.049 A 
ATOM     59  H   UNL A   1      40.827  31.228  33.517  1.00  0.00     0.167 HD
ATOM     60  C   UNL A   1      42.448  29.041  32.746  1.00  0.00     0.074 A 
ATOM     61  C   UNL A   1      42.990  27.944  31.972  1.00  0.00     0.031 C 
ATOM     62  C   UNL A   1      42.985  29.491  33.907  1.00  0.00     0.031 A 
BRANCH  49  63
ATOM     63  C   UNL A   1      40.028  34.339  36.323  1.00  0.00    -0.014 A 
ATOM     64  C   UNL A   1      39.277  34.116  37.488  1.00  0.00     0.009 A 
ATOM     65  C   UNL A   1      40.754  35.535  36.200  1.00  0.00     0.009 A 
ATOM     66  C   UNL A   1      39.232  35.084  38.495  1.00  0.00     0.001 A 
ATOM     67  C   UNL A   1      40.726  36.489  37.219  1.00  0.00     0.001 A 
ATOM     68  C   UNL A   1      39.960  36.266  38.361  1.00  0.00     0.000 A 
ENDBRANCH  49  63
BRANCH  50  69
ATOM     69  C   UNL A   1      40.246  27.825  28.776  1.00  0.00    -0.014 A 
ATOM     70  C   UNL A   1      40.902  28.174  27.586  1.00  0.00     0.009 A 
ATOM     71  C   UNL A   1      39.635  26.565  28.870  1.00  0.00     0.009 A 
ATOM     72  C   UNL A   1      40.925  27.287  26.507  1.00  0.00     0.001 A 
ATOM     73  C   UNL A   1      39.683  25.670  27.800  1.00  0.00     0.001 A 
ATOM     74  C   UNL A   1      40.322  26.035  26.616  1.00  0.00     0.000 A 
ENDBRANCH  50  69
BRANCH  62  75
ATOM     75  C   UNL A   1      44.208  28.786  34.424  1.00  0.00    -0.014 A 
ATOM     76  C   UNL A   1      44.100  27.658  35.251  1.00  0.00     0.009 A 
ATOM     77  C   UNL A   1      45.482  29.225  34.031  1.00  0.00     0.009 A 
ATOM     78  C   UNL A   1      45.248  26.997  35.694  1.00  0.00     0.001 A 
ATOM     79  C   UNL A   1      46.626  28.546  34.454  1.00  0.00     0.001 A 
ATOM     80  C   UNL A   1      46.508  27.437  35.290  1.00  0.00     0.000 A 
ENDBRANCH  62  75
ENDBRANCH  36  37
ENDBRANCH  29  31
ENDBRANCH  28  29
ENDBRANCH  27  28
ENDBRANCH  26  27
ENDBRANCH   1  26
TORSDOF 18
ENDMDL
MODEL 3
REMARK VINA RESULT:      -9.7      3.938      8.529
REMARK SMILES CC[NH2+][C@@]1(C(=O)OCCOCCOC(=O)c2ccc(-c3c4nc(c(-c5ccccc5)c5ccc([nH]5)c(-c5ccccc5)c5nc(c(-c6ccccc6)c6ccc3[nH]6)C=C5)C=C4)cc2)CCC[C@@H]([N@@H+](C)C2CCCC2)C1
REMARK SMILES IDX 10 1 9 2 8 3 7 4 5 5 6 6 4 7 64 8 75 9 65 10 67 11 66 12
REMARK SMILES IDX 3 13 2 16 1 17 68 18 69 19 70 21 71 22 74 23 72 24 73 25
REMARK SMILES IDX 11 26 12 27 13 28 14 29 15 30 16 31 17 32 63 33 18 34 62 35
REMARK SMILES IDX 19 36 20 37 21 38 56 39 22 40 61 41 55 42 57 43 23 44 60 45
REMARK SMILES IDX 54 46 53 47 24 49 46 50 31 51 45 52 32 53 35 54 44 55 58 56
REMARK SMILES IDX 33 57 34 58 43 60 59 61 36 62 25 63 26 64 30 65 27 66 29 67
REMARK SMILES IDX 28 68 47 69 48 70 52 71 49 72 51 73 50 74 37 75 38 76 42 77
REMARK SMILES IDX 39 78 41 79 40 80
REMARK H PARENT 3 14 3 15 68 20 57 48 35 59
REMARK Flexibility Score: inf
ROOT
ATOM      1  O   UNL A   1      37.305  21.210  25.711  1.00  0.00    -0.374 OA
ENDROOT
BRANCH   1   2
ATOM      2  C   UNL A   1      37.689  22.554  25.443  1.00  0.00     0.202 C 
BRANCH   2   3
ATOM      3  C   UNL A   1      36.813  23.350  24.472  1.00  0.00     0.261 C 
BRANCH   3   4
ATOM      4  O   UNL A   1      35.980  24.316  25.137  1.00  0.00    -0.459 OA
BRANCH   4   5
ATOM      5  C   UNL A   1      34.783  23.836  25.562  1.00  0.00     0.368 C 
ATOM      6  O   UNL A   1      34.583  23.418  26.702  1.00  0.00    -0.245 OA
BRANCH   5   7
ATOM      7  C   UNL A   1      33.654  23.859  24.470  1.00  0.00     0.200 C 
ATOM      8  C   UNL A   1      32.376  24.408  25.124  1.00  0.00     0.081 C 
ATOM      9  C   UNL A   1      33.310  22.510  23.816  1.00  0.00     0.146 C 
ATOM     10  C   UNL A   1      31.795  23.448  26.164  1.00  0.00     0.013 C 
ATOM     11  C   UNL A   1      32.570  21.460  24.657  1.00  0.00     0.190 C 
ATOM     12  C   UNL A   1      31.533  22.033  25.650  1.00  0.00     0.065 C 
BRANCH   7  13
ATOM     13  N   UNL A   1      34.140  24.873  23.466  1.00  0.00    -0.332 N 
ATOM     14  H   UNL A   1      34.994  25.281  23.844  1.00  0.00     0.347 HD
ATOM     15  H   UNL A   1      34.230  24.335  22.603  1.00  0.00     0.347 HD
BRANCH  13  16
ATOM     16  C   UNL A   1      33.270  25.979  23.092  1.00  0.00     0.257 C 
ATOM     17  C   UNL A   1      32.810  25.823  21.648  1.00  0.00     0.071 C 
ENDBRANCH  13  16
ENDBRANCH   7  13
BRANCH  11  18
ATOM     18  N   UNL A   1      32.082  20.332  23.804  1.00  0.00    -0.332 N 
ATOM     19  C   UNL A   1      32.127  20.678  22.380  1.00  0.00     0.333 C 
ATOM     20  H   UNL A   1      31.126  20.248  24.153  1.00  0.00     0.348 HD
BRANCH  18  21
ATOM     21  C   UNL A   1      32.595  18.960  24.016  1.00  0.00     0.184 C 
ATOM     22  C   UNL A   1      32.697  17.983  22.838  1.00  0.00     0.065 C 
ATOM     23  C   UNL A   1      33.966  18.856  24.732  1.00  0.00     0.065 C 
ATOM     24  C   UNL A   1      33.600  16.881  23.370  1.00  0.00     0.006 C 
ATOM     25  C   UNL A   1      34.688  17.667  24.085  1.00  0.00     0.006 C 
ENDBRANCH  18  21
ENDBRANCH  11  18
ENDBRANCH   5   7
ENDBRANCH   4   5
ENDBRANCH   3   4
ENDBRANCH   2   3
ENDBRANCH   1   2
BRANCH   1  26
ATOM     26  C   UNL A   1      37.749  20.202  24.804  1.00  0.00     0.202 C 
BRANCH  26  27
ATOM     27  C   UNL A   1      38.823  19.235  25.315  1.00  0.00     0.261 C 
BRANCH  27  28
ATOM     28  O   UNL A   1      39.595  19.800  26.391  1.00  0.00    -0.460 OA
BRANCH  28  29
ATOM     29  C   UNL A   1      40.935  19.793  26.203  1.00  0.00     0.338 C 
ATOM     30  O   UNL A   1      41.600  18.956  25.609  1.00  0.00    -0.246 OA
BRANCH  29  31
ATOM     31  C   UNL A   1      41.508  21.069  26.662  1.00  0.00     0.060 A 
ATOM     32  C   UNL A   1      41.454  21.356  28.033  1.00  0.00     0.016 A 
ATOM     33  C   UNL A   1      42.025  22.001  25.762  1.00  0.00     0.016 A 
ATOM     34  C   UNL A   1      41.891  22.592  28.507  1.00  0.00     0.010 A 
ATOM     35  C   UNL A   1      42.454  23.244  26.237  1.00  0.00     0.010 A 
ATOM     36  C   UNL A   1      42.363  23.556  27.606  1.00  0.00    -0.014 A 
BRANCH  36  37
ATOM     37  C   UNL A   1      42.641  24.933  28.078  1.00  0.00     0.031 A 
ATOM     38  C   UNL A   1      44.050  25.311  28.443  1.00  0.00     0.074 A 
ATOM     39  C   UNL A   1      41.653  25.840  28.173  1.00  0.00     0.049 A 
ATOM     40  N   UNL A   1      44.505  26.435  28.936  1.00  0.00    -0.248 NA
ATOM     41  C   UNL A   1      45.083  24.286  28.223  1.00  0.00     0.031 C 
ATOM     42  C   UNL A   1      40.257  25.614  27.802  1.00  0.00     0.029 A 
ATOM     43  N   UNL A   1      41.678  27.136  28.623  1.00  0.00    -0.354 N 
ATOM     44  C   UNL A   1      45.872  26.249  29.093  1.00  0.00     0.074 A 
ATOM     45  C   UNL A   1      46.170  24.899  28.667  1.00  0.00     0.031 C 
ATOM     46  C   UNL A   1      39.556  26.733  28.050  1.00  0.00     0.029 A 
ATOM     47  C   UNL A   1      40.444  27.738  28.632  1.00  0.00     0.049 A 
ATOM     48  H   UNL A   1      42.503  27.591  28.910  1.00  0.00     0.167 HD
ATOM     49  C   UNL A   1      46.798  27.126  29.551  1.00  0.00     0.031 A 
ATOM     50  C   UNL A   1      40.069  28.949  29.087  1.00  0.00     0.031 A 
ATOM     51  C   UNL A   1      46.501  28.463  29.987  1.00  0.00     0.049 A 
ATOM     52  C   UNL A   1      41.101  29.869  29.682  1.00  0.00     0.074 A 
ATOM     53  C   UNL A   1      47.376  29.433  30.446  1.00  0.00     0.029 A 
ATOM     54  N   UNL A   1      45.231  29.016  30.029  1.00  0.00    -0.354 N 
ATOM     55  N   UNL A   1      42.394  29.692  29.803  1.00  0.00    -0.248 NA
ATOM     56  C   UNL A   1      40.618  31.157  30.205  1.00  0.00     0.031 C 
ATOM     57  C   UNL A   1      46.626  30.552  30.822  1.00  0.00     0.029 A 
ATOM     58  C   UNL A   1      45.293  30.300  30.543  1.00  0.00     0.049 A 
ATOM     59  H   UNL A   1      44.408  28.562  29.737  1.00  0.00     0.167 HD
ATOM     60  C   UNL A   1      42.882  30.851  30.395  1.00  0.00     0.074 A 
ATOM     61  C   UNL A   1      41.749  31.730  30.594  1.00  0.00     0.031 C 
ATOM     62  C   UNL A   1      44.155  31.160  30.741  1.00  0.00     0.031 A 
BRANCH  49  63
ATOM     63  C   UNL A   1      48.219  26.647  29.641  1.00  0.00    -0.014 A 
ATOM     64  C   UNL A   1      48.691  25.968  30.775  1.00  0.00     0.009 A 
ATOM     65  C   UNL A   1      49.089  26.848  28.557  1.00  0.00     0.009 A 
ATOM     66  C   UNL A   1      50.015  25.527  30.833  1.00  0.00     0.001 A 
ATOM     67  C   UNL A   1      50.404  26.384  28.608  1.00  0.00     0.001 A 
ATOM     68  C   UNL A   1      50.868  25.730  29.748  1.00  0.00     0.000 A 
ENDBRANCH  49  63
BRANCH  50  69
ATOM     69  C   UNL A   1      38.639  29.352  29.036  1.00  0.00    -0.014 A 
ATOM     70  C   UNL A   1      38.118  29.999  27.906  1.00  0.00     0.009 A 
ATOM     71  C   UNL A   1      37.793  29.105  30.128  1.00  0.00     0.009 A 
ATOM     72  C   UNL A   1      36.782  30.411  27.882  1.00  0.00     0.001 A 
ATOM     73  C   UNL A   1      36.452  29.493  30.090  1.00  0.00     0.001 A 
ATOM     74  C   UNL A   1      35.950  30.153  28.970  1.00  0.00     0.000 A 
ENDBRANCH  50  69
BRANCH  62  75
ATOM     75  C   UNL A   1      44.399  32.512  31.351  1.00  0.00    -0.014 A 
ATOM     76  C   UNL A   1      44.384  32.695  32.742  1.00  0.00     0.009 A 
ATOM     77  C   UNL A   1      44.703  33.604  30.523  1.00  0.00     0.009 A 
ATOM     78  C   UNL A   1      44.646  33.952  33.290  1.00  0.00     0.001 A 
ATOM     79  C   UNL A   1      44.990  34.853  31.075  1.00  0.00     0.001 A 
ATOM     80  C   UNL A   1      44.955  35.028  32.458  1.00  0.00     0.000 A 
ENDBRANCH  62  75
ENDBRANCH  36  37
ENDBRANCH  29  31
ENDBRANCH  28  29
ENDBRANCH  27  28
ENDBRANCH  26  27
ENDBRANCH   1  26
TORSDOF 18
ENDMDL
