MODEL 1
REMARK VINA RESULT:     -10.3      0.000      0.000
REMARK SMILES C[C@@H](Sc1nc(-c2ccc3c(c2)OCO3)ccc1C#N)C(=O)OCCOCCOC(=O)c1ccc(-c2c3nc(c(-c4ccccc4)c4ccc([nH]4)c(-c4ccccc4)c4nc(c(-c5ccccc5)c5ccc2[nH]5)C=C4)C=C3)cc1
REMARK SMILES IDX 25 1 24 2 23 3 21 4 22 5 2 6 1 7 3 8 4 9 5 10 18 11 6 12
REMARK SMILES IDX 17 13 16 14 19 15 20 16 7 17 8 18 12 19 9 20 11 21 10 22
REMARK SMILES IDX 13 23 15 24 14 25 26 26 27 27 28 28 29 29 30 30 31 31 32 32
REMARK SMILES IDX 33 33 79 34 34 35 78 36 35 37 36 38 37 39 72 40 38 41 77 42
REMARK SMILES IDX 71 43 73 44 39 45 76 46 70 47 69 48 40 50 62 51 47 52 61 53
REMARK SMILES IDX 48 54 51 55 60 56 74 57 49 58 50 59 59 61 75 62 52 63 41 64
REMARK SMILES IDX 42 65 46 66 43 67 45 68 44 69 63 70 64 71 68 72 65 73 67 74
REMARK SMILES IDX 66 75 53 76 54 77 58 78 55 79 57 80 56 81
REMARK H PARENT 73 49 51 60
REMARK Flexibility Score: inf
ROOT
ATOM      1  C   UNL A   1      41.300  21.876  26.214  1.00  0.00     0.202 C 
ENDROOT
BRANCH   1   2
ATOM      2  C   UNL A   1      39.876  21.787  26.769  1.00  0.00     0.261 C 
BRANCH   2   3
ATOM      3  O   UNL A   1      38.875  21.830  25.742  1.00  0.00    -0.462 OA
BRANCH   3   4
ATOM      4  C   UNL A   1      38.074  22.935  25.753  1.00  0.00     0.319 C 
ATOM      5  O   UNL A   1      38.326  23.972  26.357  1.00  0.00    -0.251 OA
BRANCH   4   6
ATOM      6  C   UNL A   1      36.813  22.743  24.921  1.00  0.00     0.160 C 
ATOM      7  C   UNL A   1      37.021  22.982  23.423  1.00  0.00     0.032 C 
BRANCH   6   8
ATOM      8  S   UNL A   1      36.192  21.058  25.260  1.00  0.00    -0.090 SA
BRANCH   8   9
ATOM      9  C   UNL A   1      34.443  21.372  25.128  1.00  0.00     0.115 A 
ATOM     10  N   UNL A   1      34.074  22.662  25.333  1.00  0.00    -0.240 NA
ATOM     11  C   UNL A   1      33.526  20.352  24.877  1.00  0.00     0.084 A 
ATOM     12  C   UNL A   1      32.752  22.955  25.341  1.00  0.00     0.072 A 
ATOM     13  C   UNL A   1      32.172  20.679  24.840  1.00  0.00     0.024 A 
ATOM     14  C   UNL A   1      31.778  21.991  25.087  1.00  0.00     0.030 A 
BRANCH  11  15
ATOM     15  C   UNL A   1      33.931  19.001  24.627  1.00  0.00     0.102 C 
ATOM     16  N   UNL A   1      34.265  17.918  24.384  1.00  0.00    -0.192 NA
ENDBRANCH  11  15
BRANCH  12  17
ATOM     17  C   UNL A   1      32.384  24.325  25.715  1.00  0.00     0.004 A 
ATOM     18  C   UNL A   1      31.013  24.681  25.812  1.00  0.00     0.014 A 
ATOM     19  C   UNL A   1      33.358  25.309  25.963  1.00  0.00     0.061 A 
ATOM     20  C   UNL A   1      30.613  25.983  26.126  1.00  0.00     0.051 A 
ATOM     21  C   UNL A   1      32.934  26.592  26.255  1.00  0.00     0.166 A 
ATOM     22  C   UNL A   1      31.600  26.918  26.333  1.00  0.00     0.165 A 
ATOM     23  O   UNL A   1      33.739  27.666  26.485  1.00  0.00    -0.454 OA
ATOM     24  O   UNL A   1      31.398  28.230  26.623  1.00  0.00    -0.454 OA
ATOM     25  C   UNL A   1      32.757  28.705  26.687  1.00  0.00     0.468 C 
ENDBRANCH  12  17
ENDBRANCH   8   9
ENDBRANCH   6   8
ENDBRANCH   4   6
ENDBRANCH   3   4
ENDBRANCH   2   3
ENDBRANCH   1   2
BRANCH   1  26
ATOM     26  O   UNL A   1      41.848  20.745  25.544  1.00  0.00    -0.374 OA
BRANCH  26  27
ATOM     27  C   UNL A   1      42.093  19.562  26.297  1.00  0.00     0.202 C 
BRANCH  27  28
ATOM     28  C   UNL A   1      43.066  18.514  25.733  1.00  0.00     0.261 C 
BRANCH  28  29
ATOM     29  O   UNL A   1      44.407  19.003  25.569  1.00  0.00    -0.460 OA
BRANCH  29  30
ATOM     30  C   UNL A   1      44.635  19.627  24.387  1.00  0.00     0.338 C 
ATOM     31  O   UNL A   1      44.406  19.202  23.267  1.00  0.00    -0.246 OA
BRANCH  30  32
ATOM     32  C   UNL A   1      45.048  21.020  24.629  1.00  0.00     0.060 A 
ATOM     33  C   UNL A   1      45.568  21.347  25.891  1.00  0.00     0.016 A 
ATOM     34  C   UNL A   1      44.836  22.005  23.667  1.00  0.00     0.016 A 
ATOM     35  C   UNL A   1      45.829  22.675  26.214  1.00  0.00     0.010 A 
ATOM     36  C   UNL A   1      45.090  23.337  23.996  1.00  0.00     0.010 A 
ATOM     37  C   UNL A   1      45.548  23.681  25.283  1.00  0.00    -0.014 A 
BRANCH  37  38
ATOM     38  C   UNL A   1      45.575  25.108  25.679  1.00  0.00     0.031 A 
ATOM     39  C   UNL A   1      46.890  25.834  25.674  1.00  0.00     0.074 A 
ATOM     40  C   UNL A   1      44.457  25.734  26.080  1.00  0.00     0.049 A 
ATOM     41  N   UNL A   1      47.186  27.022  26.136  1.00  0.00    -0.248 NA
ATOM     42  C   UNL A   1      48.028  25.112  25.083  1.00  0.00     0.031 C 
ATOM     43  C   UNL A   1      43.116  25.156  26.081  1.00  0.00     0.029 A 
ATOM     44  N   UNL A   1      44.287  26.994  26.598  1.00  0.00    -0.354 N 
ATOM     45  C   UNL A   1      48.550  27.176  25.923  1.00  0.00     0.074 A 
ATOM     46  C   UNL A   1      49.026  25.951  25.315  1.00  0.00     0.031 C 
ATOM     47  C   UNL A   1      42.260  26.051  26.598  1.00  0.00     0.029 A 
ATOM     48  C   UNL A   1      43.003  27.239  27.015  1.00  0.00     0.049 A 
ATOM     49  H   UNL A   1      45.013  27.655  26.662  1.00  0.00     0.167 HD
ATOM     50  C   UNL A   1      49.336  28.240  26.215  1.00  0.00     0.031 A 
ATOM     51  C   UNL A   1      42.493  28.282  27.698  1.00  0.00     0.031 A 
ATOM     52  C   UNL A   1      48.857  29.442  26.843  1.00  0.00     0.049 A 
ATOM     53  C   UNL A   1      43.397  29.420  28.092  1.00  0.00     0.074 A 
ATOM     54  C   UNL A   1      49.562  30.589  27.161  1.00  0.00     0.029 A 
ATOM     55  N   UNL A   1      47.550  29.646  27.265  1.00  0.00    -0.354 N 
ATOM     56  N   UNL A   1      44.681  29.570  27.874  1.00  0.00    -0.248 NA
ATOM     57  C   UNL A   1      42.777  30.538  28.820  1.00  0.00     0.031 C 
ATOM     58  C   UNL A   1      48.703  31.452  27.848  1.00  0.00     0.029 A 
ATOM     59  C   UNL A   1      47.438  30.884  27.873  1.00  0.00     0.049 A 
ATOM     60  H   UNL A   1      46.812  29.004  27.148  1.00  0.00     0.167 HD
ATOM     61  C   UNL A   1      45.015  30.813  28.400  1.00  0.00     0.074 A 
ATOM     62  C   UNL A   1      43.797  31.376  28.947  1.00  0.00     0.031 C 
ATOM     63  C   UNL A   1      46.220  31.436  28.414  1.00  0.00     0.031 A 
BRANCH  50  64
ATOM     64  C   UNL A   1      50.807  28.115  25.917  1.00  0.00    -0.014 A 
ATOM     65  C   UNL A   1      51.356  28.547  24.699  1.00  0.00     0.009 A 
ATOM     66  C   UNL A   1      51.660  27.548  26.878  1.00  0.00     0.009 A 
ATOM     67  C   UNL A   1      52.715  28.360  24.428  1.00  0.00     0.001 A 
ATOM     68  C   UNL A   1      53.024  27.401  26.622  1.00  0.00     0.001 A 
ATOM     69  C   UNL A   1      53.547  27.791  25.391  1.00  0.00     0.000 A 
ENDBRANCH  50  64
BRANCH  51  70
ATOM     70  C   UNL A   1      41.054  28.280  28.069  1.00  0.00    -0.014 A 
ATOM     71  C   UNL A   1      40.621  27.661  29.251  1.00  0.00     0.009 A 
ATOM     72  C   UNL A   1      40.108  28.927  27.257  1.00  0.00     0.009 A 
ATOM     73  C   UNL A   1      39.270  27.677  29.603  1.00  0.00     0.001 A 
ATOM     74  C   UNL A   1      38.763  28.969  27.628  1.00  0.00     0.001 A 
ATOM     75  C   UNL A   1      38.343  28.339  28.797  1.00  0.00     0.000 A 
ENDBRANCH  51  70
BRANCH  63  76
ATOM     76  C   UNL A   1      46.282  32.830  28.980  1.00  0.00    -0.014 A 
ATOM     77  C   UNL A   1      46.658  33.078  30.308  1.00  0.00     0.009 A 
ATOM     78  C   UNL A   1      46.032  33.923  28.132  1.00  0.00     0.009 A 
ATOM     79  C   UNL A   1      46.756  34.389  30.781  1.00  0.00     0.001 A 
ATOM     80  C   UNL A   1      46.165  35.232  28.597  1.00  0.00     0.001 A 
ATOM     81  C   UNL A   1      46.520  35.463  29.924  1.00  0.00     0.000 A 
ENDBRANCH  63  76
ENDBRANCH  37  38
ENDBRANCH  30  32
ENDBRANCH  29  30
ENDBRANCH  28  29
ENDBRANCH  27  28
ENDBRANCH  26  27
ENDBRANCH   1  26
TORSDOF 18
ENDMDL
MODEL 2
REMARK VINA RESULT:     -10.3      6.577     12.074
REMARK SMILES C[C@@H](Sc1nc(-c2ccc3c(c2)OCO3)ccc1C#N)C(=O)OCCOCCOC(=O)c1ccc(-c2c3nc(c(-c4ccccc4)c4ccc([nH]4)c(-c4ccccc4)c4nc(c(-c5ccccc5)c5ccc2[nH]5)C=C4)C=C3)cc1
REMARK SMILES IDX 25 1 24 2 23 3 21 4 22 5 2 6 1 7 3 8 4 9 5 10 18 11 6 12
REMARK SMILES IDX 17 13 16 14 19 15 20 16 7 17 8 18 12 19 9 20 11 21 10 22
REMARK SMILES IDX 13 23 15 24 14 25 26 26 27 27 28 28 29 29 30 30 31 31 32 32
REMARK SMILES IDX 33 33 79 34 34 35 78 36 35 37 36 38 37 39 72 40 38 41 77 42
REMARK SMILES IDX 71 43 73 44 39 45 76 46 70 47 69 48 40 50 62 51 47 52 61 53
REMARK SMILES IDX 48 54 51 55 60 56 74 57 49 58 50 59 59 61 75 62 52 63 41 64
REMARK SMILES IDX 42 65 46 66 43 67 45 68 44 69 63 70 64 71 68 72 65 73 67 74
REMARK SMILES IDX 66 75 53 76 54 77 58 78 55 79 57 80 56 81
REMARK H PARENT 73 49 51 60
REMARK Flexibility Score: inf
ROOT
ATOM      1  C   UNL A   1      35.077  32.736  28.584  1.00  0.00     0.202 C 
ENDROOT
BRANCH   1   2
ATOM      2  C   UNL A   1      34.476  31.331  28.488  1.00  0.00     0.261 C 
BRANCH   2   3
ATOM      3  O   UNL A   1      34.265  30.907  27.134  1.00  0.00    -0.462 OA
BRANCH   3   4
ATOM      4  C   UNL A   1      33.000  30.487  26.843  1.00  0.00     0.319 C 
ATOM      5  O   UNL A   1      32.004  31.201  26.876  1.00  0.00    -0.251 OA
BRANCH   4   6
ATOM      6  C   UNL A   1      32.953  29.012  26.467  1.00  0.00     0.160 C 
ATOM      7  C   UNL A   1      31.718  28.280  26.998  1.00  0.00     0.032 C 
BRANCH   6   8
ATOM      8  S   UNL A   1      33.071  28.914  24.646  1.00  0.00    -0.090 SA
BRANCH   8   9
ATOM      9  C   UNL A   1      31.958  27.550  24.365  1.00  0.00     0.115 A 
ATOM     10  N   UNL A   1      32.486  26.321  24.602  1.00  0.00    -0.240 NA
ATOM     11  C   UNL A   1      30.660  27.740  23.895  1.00  0.00     0.084 A 
ATOM     12  C   UNL A   1      31.727  25.236  24.320  1.00  0.00     0.072 A 
ATOM     13  C   UNL A   1      29.875  26.613  23.656  1.00  0.00     0.024 A 
ATOM     14  C   UNL A   1      30.417  25.347  23.858  1.00  0.00     0.030 A 
BRANCH  11  15
ATOM     15  C   UNL A   1      30.103  29.043  23.684  1.00  0.00     0.102 C 
ATOM     16  N   UNL A   1      29.662  30.106  23.553  1.00  0.00    -0.192 NA
ENDBRANCH  11  15
BRANCH  12  17
ATOM     17  C   UNL A   1      32.380  23.927  24.443  1.00  0.00     0.004 A 
ATOM     18  C   UNL A   1      33.775  23.815  24.199  1.00  0.00     0.014 A 
ATOM     19  C   UNL A   1      31.656  22.770  24.778  1.00  0.00     0.061 A 
ATOM     20  C   UNL A   1      34.435  22.585  24.264  1.00  0.00     0.051 A 
ATOM     21  C   UNL A   1      32.332  21.564  24.820  1.00  0.00     0.166 A 
ATOM     22  C   UNL A   1      33.681  21.476  24.569  1.00  0.00     0.165 A 
ATOM     23  O   UNL A   1      31.780  20.349  25.092  1.00  0.00    -0.454 OA
ATOM     24  O   UNL A   1      34.147  20.202  24.654  1.00  0.00    -0.454 OA
ATOM     25  C   UNL A   1      32.931  19.489  24.954  1.00  0.00     0.468 C 
ENDBRANCH  12  17
ENDBRANCH   8   9
ENDBRANCH   6   8
ENDBRANCH   4   6
ENDBRANCH   3   4
ENDBRANCH   2   3
ENDBRANCH   1   2
BRANCH   1  26
ATOM     26  O   UNL A   1      34.535  33.771  27.769  1.00  0.00    -0.374 OA
BRANCH  26  27
ATOM     27  C   UNL A   1      33.298  34.362  28.154  1.00  0.00     0.202 C 
BRANCH  27  28
ATOM     28  C   UNL A   1      33.297  35.420  29.269  1.00  0.00     0.261 C 
BRANCH  28  29
ATOM     29  O   UNL A   1      32.504  35.052  30.410  1.00  0.00    -0.460 OA
BRANCH  29  30
ATOM     30  C   UNL A   1      32.824  35.714  31.549  1.00  0.00     0.338 C 
ATOM     31  O   UNL A   1      32.238  36.659  32.048  1.00  0.00    -0.246 OA
BRANCH  30  32
ATOM     32  C   UNL A   1      33.916  35.011  32.245  1.00  0.00     0.060 A 
ATOM     33  C   UNL A   1      35.207  35.554  32.170  1.00  0.00     0.016 A 
ATOM     34  C   UNL A   1      33.691  33.788  32.874  1.00  0.00     0.016 A 
ATOM     35  C   UNL A   1      36.292  34.847  32.681  1.00  0.00     0.010 A 
ATOM     36  C   UNL A   1      34.780  33.077  33.377  1.00  0.00     0.010 A 
ATOM     37  C   UNL A   1      36.088  33.584  33.247  1.00  0.00    -0.014 A 
BRANCH  37  38
ATOM     38  C   UNL A   1      37.236  32.704  33.568  1.00  0.00     0.031 A 
ATOM     39  C   UNL A   1      37.993  32.942  34.843  1.00  0.00     0.074 A 
ATOM     40  C   UNL A   1      37.626  31.741  32.718  1.00  0.00     0.049 A 
ATOM     41  N   UNL A   1      39.120  32.417  35.251  1.00  0.00    -0.248 NA
ATOM     42  C   UNL A   1      37.406  33.918  35.774  1.00  0.00     0.031 C 
ATOM     43  C   UNL A   1      36.945  31.379  31.477  1.00  0.00     0.029 A 
ATOM     44  N   UNL A   1      38.719  30.912  32.762  1.00  0.00    -0.354 N 
ATOM     45  C   UNL A   1      39.395  33.025  36.470  1.00  0.00     0.074 A 
ATOM     46  C   UNL A   1      38.331  33.974  36.720  1.00  0.00     0.031 C 
ATOM     47  C   UNL A   1      37.649  30.414  30.863  1.00  0.00     0.029 A 
ATOM     48  C   UNL A   1      38.856  30.135  31.640  1.00  0.00     0.049 A 
ATOM     49  H   UNL A   1      39.342  30.878  33.524  1.00  0.00     0.167 HD
ATOM     50  C   UNL A   1      40.444  32.815  37.301  1.00  0.00     0.031 A 
ATOM     51  C   UNL A   1      39.862  29.325  31.259  1.00  0.00     0.031 A 
ATOM     52  C   UNL A   1      41.509  31.886  37.029  1.00  0.00     0.049 A 
ATOM     53  C   UNL A   1      41.063  29.166  32.154  1.00  0.00     0.074 A 
ATOM     54  C   UNL A   1      42.605  31.579  37.814  1.00  0.00     0.029 A 
ATOM     55  N   UNL A   1      41.619  31.128  35.872  1.00  0.00    -0.354 N 
ATOM     56  N   UNL A   1      41.311  29.728  33.312  1.00  0.00    -0.248 NA
ATOM     57  C   UNL A   1      42.120  28.254  31.690  1.00  0.00     0.031 C 
ATOM     58  C   UNL A   1      43.421  30.698  37.097  1.00  0.00     0.029 A 
ATOM     59  C   UNL A   1      42.784  30.381  35.907  1.00  0.00     0.049 A 
ATOM     60  H   UNL A   1      40.965  31.122  35.136  1.00  0.00     0.167 HD
ATOM     61  C   UNL A   1      42.529  29.209  33.736  1.00  0.00     0.074 A 
ATOM     62  C   UNL A   1      42.969  28.286  32.708  1.00  0.00     0.031 C 
ATOM     63  C   UNL A   1      43.213  29.464  34.879  1.00  0.00     0.031 A 
BRANCH  50  64
ATOM     64  C   UNL A   1      40.517  33.657  38.548  1.00  0.00    -0.014 A 
ATOM     65  C   UNL A   1      39.897  33.264  39.745  1.00  0.00     0.009 A 
ATOM     66  C   UNL A   1      41.220  34.872  38.519  1.00  0.00     0.009 A 
ATOM     67  C   UNL A   1      39.931  34.097  40.867  1.00  0.00     0.001 A 
ATOM     68  C   UNL A   1      41.287  35.683  39.653  1.00  0.00     0.001 A 
ATOM     69  C   UNL A   1      40.628  35.303  40.820  1.00  0.00     0.000 A 
ENDBRANCH  50  64
BRANCH  51  70
ATOM     70  C   UNL A   1      39.779  28.620  29.953  1.00  0.00    -0.014 A 
ATOM     71  C   UNL A   1      40.210  29.246  28.774  1.00  0.00     0.009 A 
ATOM     72  C   UNL A   1      39.298  27.302  29.884  1.00  0.00     0.009 A 
ATOM     73  C   UNL A   1      40.145  28.573  27.553  1.00  0.00     0.001 A 
ATOM     74  C   UNL A   1      39.265  26.620  28.667  1.00  0.00     0.001 A 
ATOM     75  C   UNL A   1      39.681  27.258  27.500  1.00  0.00     0.000 A 
ENDBRANCH  51  70
BRANCH  63  76
ATOM     76  C   UNL A   1      44.481  28.690  35.126  1.00  0.00    -0.014 A 
ATOM     77  C   UNL A   1      45.729  29.146  34.678  1.00  0.00     0.009 A 
ATOM     78  C   UNL A   1      44.425  27.515  35.895  1.00  0.00     0.009 A 
ATOM     79  C   UNL A   1      46.891  28.426  34.973  1.00  0.00     0.001 A 
ATOM     80  C   UNL A   1      45.589  26.818  36.218  1.00  0.00     0.001 A 
ATOM     81  C   UNL A   1      46.821  27.271  35.750  1.00  0.00     0.000 A 
ENDBRANCH  63  76
ENDBRANCH  37  38
ENDBRANCH  30  32
ENDBRANCH  29  30
ENDBRANCH  28  29
ENDBRANCH  27  28
ENDBRANCH  26  27
ENDBRANCH   1  26
TORSDOF 18
ENDMDL
MODEL 3
REMARK VINA RESULT:      -9.9      4.998      9.710
REMARK SMILES C[C@@H](Sc1nc(-c2ccc3c(c2)OCO3)ccc1C#N)C(=O)OCCOCCOC(=O)c1ccc(-c2c3nc(c(-c4ccccc4)c4ccc([nH]4)c(-c4ccccc4)c4nc(c(-c5ccccc5)c5ccc2[nH]5)C=C4)C=C3)cc1
REMARK SMILES IDX 25 1 24 2 23 3 21 4 22 5 2 6 1 7 3 8 4 9 5 10 18 11 6 12
REMARK SMILES IDX 17 13 16 14 19 15 20 16 7 17 8 18 12 19 9 20 11 21 10 22
REMARK SMILES IDX 13 23 15 24 14 25 26 26 27 27 28 28 29 29 30 30 31 31 32 32
REMARK SMILES IDX 33 33 79 34 34 35 78 36 35 37 36 38 37 39 72 40 38 41 77 42
REMARK SMILES IDX 71 43 73 44 39 45 76 46 70 47 69 48 40 50 62 51 47 52 61 53
REMARK SMILES IDX 48 54 51 55 60 56 74 57 49 58 50 59 59 61 75 62 52 63 41 64
REMARK SMILES IDX 42 65 46 66 43 67 45 68 44 69 63 70 64 71 68 72 65 73 67 74
REMARK SMILES IDX 66 75 53 76 54 77 58 78 55 79 57 80 56 81
REMARK H PARENT 73 49 51 60
REMARK Flexibility Score: inf
ROOT
ATOM      1  C   UNL A   1      31.039  29.259  24.597  1.00  0.00     0.202 C 
ENDROOT
BRANCH   1   2
ATOM      2  C   UNL A   1      30.181  28.697  23.460  1.00  0.00     0.261 C 
BRANCH   2   3
ATOM      3  O   UNL A   1      30.595  27.387  23.046  1.00  0.00    -0.462 OA
BRANCH   3   4
ATOM      4  C   UNL A   1      29.834  26.357  23.519  1.00  0.00     0.319 C 
ATOM      5  O   UNL A   1      28.664  26.459  23.869  1.00  0.00    -0.251 OA
BRANCH   4   6
ATOM      6  C   UNL A   1      30.605  25.044  23.566  1.00  0.00     0.160 C 
ATOM      7  C   UNL A   1      31.812  25.005  22.627  1.00  0.00     0.032 C 
BRANCH   6   8
ATOM      8  S   UNL A   1      31.087  24.761  25.306  1.00  0.00    -0.090 SA
BRANCH   8   9
ATOM      9  C   UNL A   1      32.653  23.954  25.035  1.00  0.00     0.115 A 
ATOM     10  N   UNL A   1      32.569  22.654  24.650  1.00  0.00    -0.240 NA
ATOM     11  C   UNL A   1      33.867  24.604  25.251  1.00  0.00     0.084 A 
ATOM     12  C   UNL A   1      33.720  21.952  24.518  1.00  0.00     0.072 A 
ATOM     13  C   UNL A   1      35.043  23.880  25.063  1.00  0.00     0.024 A 
ATOM     14  C   UNL A   1      34.970  22.537  24.705  1.00  0.00     0.030 A 
BRANCH  11  15
ATOM     15  C   UNL A   1      33.942  25.985  25.623  1.00  0.00     0.102 C 
ATOM     16  N   UNL A   1      34.042  27.104  25.908  1.00  0.00    -0.192 NA
ENDBRANCH  11  15
BRANCH  12  17
ATOM     17  C   UNL A   1      33.586  20.516  24.249  1.00  0.00     0.004 A 
ATOM     18  C   UNL A   1      32.458  20.040  23.528  1.00  0.00     0.014 A 
ATOM     19  C   UNL A   1      34.539  19.588  24.704  1.00  0.00     0.061 A 
ATOM     20  C   UNL A   1      32.265  18.678  23.282  1.00  0.00     0.051 A 
ATOM     21  C   UNL A   1      34.314  18.245  24.460  1.00  0.00     0.166 A 
ATOM     22  C   UNL A   1      33.209  17.805  23.770  1.00  0.00     0.165 A 
ATOM     23  O   UNL A   1      35.113  17.217  24.860  1.00  0.00    -0.454 OA
ATOM     24  O   UNL A   1      33.174  16.453  23.646  1.00  0.00    -0.454 OA
ATOM     25  C   UNL A   1      34.367  16.084  24.367  1.00  0.00     0.468 C 
ENDBRANCH  12  17
ENDBRANCH   8   9
ENDBRANCH   6   8
ENDBRANCH   4   6
ENDBRANCH   3   4
ENDBRANCH   2   3
ENDBRANCH   1   2
BRANCH   1  26
ATOM     26  O   UNL A   1      31.141  28.519  25.810  1.00  0.00    -0.374 OA
BRANCH  26  27
ATOM     27  C   UNL A   1      31.708  29.158  26.950  1.00  0.00     0.202 C 
BRANCH  27  28
ATOM     28  C   UNL A   1      31.900  30.683  26.925  1.00  0.00     0.261 C 
BRANCH  28  29
ATOM     29  O   UNL A   1      33.232  31.089  26.567  1.00  0.00    -0.460 OA
BRANCH  29  30
ATOM     30  C   UNL A   1      33.770  32.025  27.388  1.00  0.00     0.338 C 
ATOM     31  O   UNL A   1      33.222  33.012  27.848  1.00  0.00    -0.246 OA
BRANCH  30  32
ATOM     32  C   UNL A   1      35.110  31.596  27.823  1.00  0.00     0.060 A 
ATOM     33  C   UNL A   1      35.337  30.224  28.013  1.00  0.00     0.016 A 
ATOM     34  C   UNL A   1      36.094  32.532  28.134  1.00  0.00     0.016 A 
ATOM     35  C   UNL A   1      36.537  29.786  28.567  1.00  0.00     0.010 A 
ATOM     36  C   UNL A   1      37.292  32.092  28.698  1.00  0.00     0.010 A 
ATOM     37  C   UNL A   1      37.501  30.722  28.954  1.00  0.00    -0.014 A 
BRANCH  37  38
ATOM     38  C   UNL A   1      38.669  30.314  29.768  1.00  0.00     0.031 A 
ATOM     39  C   UNL A   1      39.685  29.390  29.162  1.00  0.00     0.074 A 
ATOM     40  C   UNL A   1      38.799  30.721  31.042  1.00  0.00     0.049 A 
ATOM     41  N   UNL A   1      40.688  28.769  29.728  1.00  0.00    -0.248 NA
ATOM     42  C   UNL A   1      39.537  29.117  27.724  1.00  0.00     0.031 C 
ATOM     43  C   UNL A   1      37.910  31.656  31.727  1.00  0.00     0.029 A 
ATOM     44  N   UNL A   1      39.721  30.366  31.995  1.00  0.00    -0.354 N 
ATOM     45  C   UNL A   1      41.269  28.006  28.724  1.00  0.00     0.074 A 
ATOM     46  C   UNL A   1      40.492  28.221  27.522  1.00  0.00     0.031 C 
ATOM     47  C   UNL A   1      38.315  31.784  33.000  1.00  0.00     0.029 A 
ATOM     48  C   UNL A   1      39.455  30.898  33.231  1.00  0.00     0.049 A 
ATOM     49  H   UNL A   1      40.495  29.788  31.808  1.00  0.00     0.167 HD
ATOM     50  C   UNL A   1      42.350  27.191  28.799  1.00  0.00     0.031 A 
ATOM     51  C   UNL A   1      40.035  30.661  34.423  1.00  0.00     0.031 A 
ATOM     52  C   UNL A   1      43.100  26.965  30.007  1.00  0.00     0.049 A 
ATOM     53  C   UNL A   1      41.181  29.688  34.508  1.00  0.00     0.074 A 
ATOM     54  C   UNL A   1      44.225  26.180  30.188  1.00  0.00     0.029 A 
ATOM     55  N   UNL A   1      42.789  27.511  31.244  1.00  0.00    -0.354 N 
ATOM     56  N   UNL A   1      41.738  28.982  33.555  1.00  0.00    -0.248 NA
ATOM     57  C   UNL A   1      41.782  29.487  35.835  1.00  0.00     0.031 C 
ATOM     58  C   UNL A   1      44.544  26.186  31.549  1.00  0.00     0.029 A 
ATOM     59  C   UNL A   1      43.678  27.051  32.199  1.00  0.00     0.049 A 
ATOM     60  H   UNL A   1      42.046  28.134  31.416  1.00  0.00     0.167 HD
ATOM     61  C   UNL A   1      42.780  28.284  34.155  1.00  0.00     0.074 A 
ATOM     62  C   UNL A   1      42.776  28.653  35.557  1.00  0.00     0.031 C 
ATOM     63  C   UNL A   1      43.667  27.426  33.593  1.00  0.00     0.031 A 
BRANCH  50  64
ATOM     64  C   UNL A   1      42.736  26.438  27.554  1.00  0.00    -0.014 A 
ATOM     65  C   UNL A   1      43.604  26.986  26.595  1.00  0.00     0.009 A 
ATOM     66  C   UNL A   1      42.215  25.153  27.336  1.00  0.00     0.009 A 
ATOM     67  C   UNL A   1      43.893  26.287  25.420  1.00  0.00     0.001 A 
ATOM     68  C   UNL A   1      42.539  24.439  26.181  1.00  0.00     0.001 A 
ATOM     69  C   UNL A   1      43.364  25.014  25.216  1.00  0.00     0.000 A 
ENDBRANCH  50  64
BRANCH  51  70
ATOM     70  C   UNL A   1      39.518  31.348  35.636  1.00  0.00    -0.014 A 
ATOM     71  C   UNL A   1      40.149  32.499  36.129  1.00  0.00     0.009 A 
ATOM     72  C   UNL A   1      38.370  30.871  36.290  1.00  0.00     0.009 A 
ATOM     73  C   UNL A   1      39.650  33.149  37.260  1.00  0.00     0.001 A 
ATOM     74  C   UNL A   1      37.854  31.541  37.400  1.00  0.00     0.001 A 
ATOM     75  C   UNL A   1      38.498  32.676  37.889  1.00  0.00     0.000 A 
ENDBRANCH  51  70
BRANCH  63  76
ATOM     76  C   UNL A   1      44.759  26.871  34.469  1.00  0.00    -0.014 A 
ATOM     77  C   UNL A   1      45.942  27.579  34.721  1.00  0.00     0.009 A 
ATOM     78  C   UNL A   1      44.555  25.640  35.116  1.00  0.00     0.009 A 
ATOM     79  C   UNL A   1      46.909  27.054  35.583  1.00  0.00     0.001 A 
ATOM     80  C   UNL A   1      45.506  25.135  36.003  1.00  0.00     0.001 A 
ATOM     81  C   UNL A   1      46.686  25.839  36.230  1.00  0.00     0.000 A 
ENDBRANCH  63  76
ENDBRANCH  37  38
ENDBRANCH  30  32
ENDBRANCH  29  30
ENDBRANCH  28  29
ENDBRANCH  27  28
ENDBRANCH  26  27
ENDBRANCH   1  26
TORSDOF 18
ENDMDL
