MODEL 1
REMARK VINA RESULT:     -10.3      0.000      0.000
REMARK SMILES O=C(OCCOCCOC(=O)[C@H]1C[C@H](O)CN1C(=O)CCOc1ccc(F)cc1)c1ccc(-c2c3nc(c(-c4ccccc4)c4ccc([nH]4)c(-c4ccccc4)c4nc(c(-c5ccccc5)c5ccc2[nH]5)C=C4)C=C3)cc1
REMARK SMILES IDX 7 1 6 2 5 3 4 4 3 5 2 6 1 7 30 8 31 9 77 10 32 11 76 12
REMARK SMILES IDX 33 13 34 14 35 15 70 16 36 17 75 18 69 19 71 20 37 21 74 22
REMARK SMILES IDX 68 23 67 24 38 26 60 27 45 28 59 29 46 30 49 31 58 32 72 33
REMARK SMILES IDX 47 34 48 35 57 37 73 38 50 39 39 40 40 41 44 42 41 43 43 44
REMARK SMILES IDX 42 45 61 46 62 47 66 48 63 49 65 50 64 51 51 52 52 53 56 54
REMARK SMILES IDX 53 55 55 56 54 57 8 58 9 59 10 60 11 61 12 62 13 63 17 64
REMARK SMILES IDX 14 65 16 66 18 67 19 68 20 69 21 70 22 71 23 72 24 73 29 74
REMARK SMILES IDX 25 75 28 76 26 77 27 78 15 79
REMARK H PARENT 71 25 49 36 15 80
REMARK Flexibility Score: inf
ROOT
ATOM      1  C   UNL A   1      32.278  29.725  25.549  1.00  0.00     0.202 C 
ENDROOT
BRANCH   1   2
ATOM      2  O   UNL A   1      32.878  30.658  26.464  1.00  0.00    -0.374 OA
BRANCH   2   3
ATOM      3  C   UNL A   1      31.977  31.584  27.084  1.00  0.00     0.202 C 
BRANCH   3   4
ATOM      4  C   UNL A   1      32.096  33.060  26.683  1.00  0.00     0.261 C 
BRANCH   4   5
ATOM      5  O   UNL A   1      32.127  33.917  27.832  1.00  0.00    -0.460 OA
BRANCH   5   6
ATOM      6  C   UNL A   1      33.202  34.435  28.470  1.00  0.00     0.338 C 
ATOM      7  O   UNL A   1      33.222  35.648  28.671  1.00  0.00    -0.246 OA
BRANCH   6   8
ATOM      8  C   UNL A   1      34.376  33.630  28.936  1.00  0.00     0.060 A 
ATOM      9  C   UNL A   1      34.318  32.438  29.663  1.00  0.00     0.016 A 
ATOM     10  C   UNL A   1      35.647  34.093  28.545  1.00  0.00     0.016 A 
ATOM     11  C   UNL A   1      35.465  31.773  30.065  1.00  0.00     0.010 A 
ATOM     12  C   UNL A   1      36.810  33.411  28.912  1.00  0.00     0.010 A 
ATOM     13  C   UNL A   1      36.713  32.264  29.701  1.00  0.00    -0.014 A 
BRANCH  13  14
ATOM     14  C   UNL A   1      37.888  31.611  30.290  1.00  0.00     0.031 A 
ATOM     15  C   UNL A   1      38.217  31.916  31.717  1.00  0.00     0.074 A 
ATOM     16  C   UNL A   1      38.516  30.642  29.603  1.00  0.00     0.049 A 
ATOM     17  N   UNL A   1      39.175  31.439  32.463  1.00  0.00    -0.248 NA
ATOM     18  C   UNL A   1      37.330  32.870  32.407  1.00  0.00     0.031 C 
ATOM     19  C   UNL A   1      38.152  30.189  28.258  1.00  0.00     0.029 A 
ATOM     20  N   UNL A   1      39.560  29.835  29.958  1.00  0.00    -0.354 N 
ATOM     21  C   UNL A   1      39.015  32.044  33.702  1.00  0.00     0.074 A 
ATOM     22  C   UNL A   1      37.875  32.926  33.612  1.00  0.00     0.031 C 
ATOM     23  C   UNL A   1      38.950  29.166  27.910  1.00  0.00     0.029 A 
ATOM     24  C   UNL A   1      39.912  28.936  28.981  1.00  0.00     0.049 A 
ATOM     25  H   UNL A   1      40.017  29.893  30.828  1.00  0.00     0.167 HD
ATOM     26  C   UNL A   1      39.769  31.880  34.813  1.00  0.00     0.031 A 
ATOM     27  C   UNL A   1      40.923  28.049  28.958  1.00  0.00     0.031 A 
ATOM     28  C   UNL A   1      40.916  31.019  34.861  1.00  0.00     0.049 A 
ATOM     29  C   UNL A   1      41.820  27.978  30.163  1.00  0.00     0.074 A 
ATOM     30  C   UNL A   1      41.819  30.832  35.890  1.00  0.00     0.029 A 
ATOM     31  N   UNL A   1      41.314  30.196  33.816  1.00  0.00    -0.354 N 
ATOM     32  N   UNL A   1      41.713  28.610  31.309  1.00  0.00    -0.248 NA
ATOM     33  C   UNL A   1      42.984  27.090  30.069  1.00  0.00     0.031 C 
ATOM     34  C   UNL A   1      42.792  29.928  35.448  1.00  0.00     0.029 A 
ATOM     35  C   UNL A   1      42.463  29.513  34.165  1.00  0.00     0.049 A 
ATOM     36  H   UNL A   1      40.846  30.111  32.954  1.00  0.00     0.167 HD
ATOM     37  C   UNL A   1      42.790  28.189  32.076  1.00  0.00     0.074 A 
ATOM     38  C   UNL A   1      43.519  27.227  31.273  1.00  0.00     0.031 C 
ATOM     39  C   UNL A   1      43.153  28.566  33.327  1.00  0.00     0.031 A 
BRANCH  26  40
ATOM     40  C   UNL A   1      39.410  32.716  36.005  1.00  0.00    -0.014 A 
ATOM     41  C   UNL A   1      38.539  32.243  36.999  1.00  0.00     0.009 A 
ATOM     42  C   UNL A   1      39.918  34.020  36.109  1.00  0.00     0.009 A 
ATOM     43  C   UNL A   1      38.158  33.074  38.056  1.00  0.00     0.001 A 
ATOM     44  C   UNL A   1      39.553  34.839  37.180  1.00  0.00     0.001 A 
ATOM     45  C   UNL A   1      38.665  34.369  38.146  1.00  0.00     0.000 A 
ENDBRANCH  26  40
BRANCH  27  46
ATOM     46  C   UNL A   1      41.178  27.222  27.749  1.00  0.00    -0.014 A 
ATOM     47  C   UNL A   1      40.642  25.932  27.625  1.00  0.00     0.009 A 
ATOM     48  C   UNL A   1      41.984  27.719  26.710  1.00  0.00     0.009 A 
ATOM     49  C   UNL A   1      40.929  25.149  26.502  1.00  0.00     0.001 A 
ATOM     50  C   UNL A   1      42.245  26.947  25.576  1.00  0.00     0.001 A 
ATOM     51  C   UNL A   1      41.727  25.658  25.478  1.00  0.00     0.000 A 
ENDBRANCH  27  46
BRANCH  39  52
ATOM     52  C   UNL A   1      44.380  27.916  33.892  1.00  0.00    -0.014 A 
ATOM     53  C   UNL A   1      45.646  28.500  33.735  1.00  0.00     0.009 A 
ATOM     54  C   UNL A   1      44.257  26.726  34.626  1.00  0.00     0.009 A 
ATOM     55  C   UNL A   1      46.774  27.885  34.278  1.00  0.00     0.001 A 
ATOM     56  C   UNL A   1      45.383  26.129  35.190  1.00  0.00     0.001 A 
ATOM     57  C   UNL A   1      46.641  26.704  35.009  1.00  0.00     0.000 A 
ENDBRANCH  39  52
ENDBRANCH  13  14
ENDBRANCH   6   8
ENDBRANCH   5   6
ENDBRANCH   4   5
ENDBRANCH   3   4
ENDBRANCH   2   3
ENDBRANCH   1   2
BRANCH   1  58
ATOM     58  C   UNL A   1      33.342  28.855  24.881  1.00  0.00     0.261 C 
BRANCH  58  59
ATOM     59  O   UNL A   1      33.515  27.706  25.718  1.00  0.00    -0.462 OA
BRANCH  59  60
ATOM     60  C   UNL A   1      33.673  26.542  25.034  1.00  0.00     0.329 C 
ATOM     61  O   UNL A   1      34.318  25.591  25.459  1.00  0.00    -0.250 OA
BRANCH  60  62
ATOM     62  C   UNL A   1      32.846  26.548  23.737  1.00  0.00     0.197 C 
ATOM     63  C   UNL A   1      33.544  26.038  22.473  1.00  0.00     0.070 C 
ATOM     64  N   UNL A   1      31.601  25.791  23.793  1.00  0.00    -0.326 N 
ATOM     65  C   UNL A   1      32.983  24.650  22.223  1.00  0.00     0.136 C 
ATOM     66  C   UNL A   1      31.601  24.673  22.863  1.00  0.00     0.152 C 
BRANCH  64  67
ATOM     67  C   UNL A   1      30.520  26.283  24.485  1.00  0.00     0.226 C 
ATOM     68  O   UNL A   1      30.509  26.376  25.713  1.00  0.00    -0.275 OA
BRANCH  67  69
ATOM     69  C   UNL A   1      29.360  26.830  23.693  1.00  0.00     0.141 C 
BRANCH  69  70
ATOM     70  C   UNL A   1      29.839  28.062  22.929  1.00  0.00     0.239 C 
BRANCH  70  71
ATOM     71  O   UNL A   1      29.560  29.267  23.654  1.00  0.00    -0.493 OA
BRANCH  71  72
ATOM     72  C   UNL A   1      29.057  30.360  23.007  1.00  0.00     0.119 A 
ATOM     73  C   UNL A   1      29.089  31.686  23.444  1.00  0.00     0.049 A 
ATOM     74  C   UNL A   1      28.469  30.068  21.769  1.00  0.00     0.049 A 
ATOM     75  C   UNL A   1      28.587  32.709  22.632  1.00  0.00     0.043 A 
ATOM     76  C   UNL A   1      27.957  31.086  20.962  1.00  0.00     0.043 A 
ATOM     77  C   UNL A   1      28.031  32.401  21.397  1.00  0.00     0.123 A 
ATOM     78  F   UNL A   1      27.573  33.388  20.616  1.00  0.00    -0.207 F 
ENDBRANCH  71  72
ENDBRANCH  70  71
ENDBRANCH  69  70
ENDBRANCH  67  69
ENDBRANCH  64  67
BRANCH  65  79
ATOM     79  O   UNL A   1      32.928  24.401  20.824  1.00  0.00    -0.391 OA
ATOM     80  H   UNL A   1      32.004  24.294  20.551  1.00  0.00     0.211 HD
ENDBRANCH  65  79
ENDBRANCH  60  62
ENDBRANCH  59  60
ENDBRANCH  58  59
ENDBRANCH   1  58
TORSDOF 20
ENDMDL
MODEL 2
REMARK VINA RESULT:     -10.2      1.521      5.808
REMARK SMILES O=C(OCCOCCOC(=O)[C@H]1C[C@H](O)CN1C(=O)CCOc1ccc(F)cc1)c1ccc(-c2c3nc(c(-c4ccccc4)c4ccc([nH]4)c(-c4ccccc4)c4nc(c(-c5ccccc5)c5ccc2[nH]5)C=C4)C=C3)cc1
REMARK SMILES IDX 7 1 6 2 5 3 4 4 3 5 2 6 1 7 30 8 31 9 77 10 32 11 76 12
REMARK SMILES IDX 33 13 34 14 35 15 70 16 36 17 75 18 69 19 71 20 37 21 74 22
REMARK SMILES IDX 68 23 67 24 38 26 60 27 45 28 59 29 46 30 49 31 58 32 72 33
REMARK SMILES IDX 47 34 48 35 57 37 73 38 50 39 39 40 40 41 44 42 41 43 43 44
REMARK SMILES IDX 42 45 61 46 62 47 66 48 63 49 65 50 64 51 51 52 52 53 56 54
REMARK SMILES IDX 53 55 55 56 54 57 8 58 9 59 10 60 11 61 12 62 13 63 17 64
REMARK SMILES IDX 14 65 16 66 18 67 19 68 20 69 21 70 22 71 23 72 24 73 29 74
REMARK SMILES IDX 25 75 28 76 26 77 27 78 15 79
REMARK H PARENT 71 25 49 36 15 80
REMARK Flexibility Score: inf
ROOT
ATOM      1  C   UNL A   1      32.463  29.655  25.664  1.00  0.00     0.202 C 
ENDROOT
BRANCH   1   2
ATOM      2  O   UNL A   1      32.980  30.583  26.633  1.00  0.00    -0.374 OA
BRANCH   2   3
ATOM      3  C   UNL A   1      32.023  31.490  27.193  1.00  0.00     0.202 C 
BRANCH   3   4
ATOM      4  C   UNL A   1      32.130  32.966  26.791  1.00  0.00     0.261 C 
BRANCH   4   5
ATOM      5  O   UNL A   1      32.135  33.826  27.939  1.00  0.00    -0.460 OA
BRANCH   5   6
ATOM      6  C   UNL A   1      33.188  34.429  28.538  1.00  0.00     0.338 C 
ATOM      7  O   UNL A   1      33.129  35.644  28.718  1.00  0.00    -0.246 OA
BRANCH   6   8
ATOM      8  C   UNL A   1      34.427  33.715  28.984  1.00  0.00     0.060 A 
ATOM      9  C   UNL A   1      34.512  32.791  30.030  1.00  0.00     0.016 A 
ATOM     10  C   UNL A   1      35.593  33.958  28.233  1.00  0.00     0.016 A 
ATOM     11  C   UNL A   1      35.713  32.195  30.379  1.00  0.00     0.010 A 
ATOM     12  C   UNL A   1      36.802  33.334  28.552  1.00  0.00     0.010 A 
ATOM     13  C   UNL A   1      36.861  32.474  29.649  1.00  0.00    -0.014 A 
BRANCH  13  14
ATOM     14  C   UNL A   1      38.128  31.941  30.166  1.00  0.00     0.031 A 
ATOM     15  C   UNL A   1      38.617  30.639  29.613  1.00  0.00     0.074 A 
ATOM     16  C   UNL A   1      38.884  32.706  30.971  1.00  0.00     0.049 A 
ATOM     17  N   UNL A   1      39.717  29.990  29.884  1.00  0.00    -0.248 NA
ATOM     18  C   UNL A   1      37.766  29.993  28.599  1.00  0.00     0.031 C 
ATOM     19  C   UNL A   1      38.533  34.052  31.431  1.00  0.00     0.029 A 
ATOM     20  N   UNL A   1      40.122  32.481  31.506  1.00  0.00    -0.354 N 
ATOM     21  C   UNL A   1      39.681  28.855  29.085  1.00  0.00     0.074 A 
ATOM     22  C   UNL A   1      38.454  28.897  28.324  1.00  0.00     0.031 C 
ATOM     23  C   UNL A   1      39.547  34.542  32.163  1.00  0.00     0.029 A 
ATOM     24  C   UNL A   1      40.585  33.523  32.270  1.00  0.00     0.049 A 
ATOM     25  H   UNL A   1      40.631  31.651  31.359  1.00  0.00     0.167 HD
ATOM     26  C   UNL A   1      40.594  27.861  29.009  1.00  0.00     0.031 A 
ATOM     27  C   UNL A   1      41.713  33.619  32.994  1.00  0.00     0.031 A 
ATOM     28  C   UNL A   1      41.790  27.833  29.802  1.00  0.00     0.049 A 
ATOM     29  C   UNL A   1      42.652  32.443  32.986  1.00  0.00     0.074 A 
ATOM     30  C   UNL A   1      42.750  26.844  29.892  1.00  0.00     0.029 A 
ATOM     31  N   UNL A   1      42.183  28.859  30.652  1.00  0.00    -0.354 N 
ATOM     32  N   UNL A   1      42.578  31.334  32.288  1.00  0.00    -0.248 NA
ATOM     33  C   UNL A   1      43.817  32.523  33.875  1.00  0.00     0.031 C 
ATOM     34  C   UNL A   1      43.702  27.253  30.833  1.00  0.00     0.029 A 
ATOM     35  C   UNL A   1      43.362  28.520  31.288  1.00  0.00     0.049 A 
ATOM     36  H   UNL A   1      41.693  29.703  30.782  1.00  0.00     0.167 HD
ATOM     37  C   UNL A   1      43.690  30.586  32.646  1.00  0.00     0.074 A 
ATOM     38  C   UNL A   1      44.435  31.383  33.601  1.00  0.00     0.031 C 
ATOM     39  C   UNL A   1      44.063  29.349  32.234  1.00  0.00     0.031 A 
BRANCH  26  40
ATOM     40  C   UNL A   1      40.269  26.710  28.105  1.00  0.00    -0.014 A 
ATOM     41  C   UNL A   1      39.497  25.623  28.548  1.00  0.00     0.009 A 
ATOM     42  C   UNL A   1      40.786  26.690  26.800  1.00  0.00     0.009 A 
ATOM     43  C   UNL A   1      39.278  24.527  27.710  1.00  0.00     0.001 A 
ATOM     44  C   UNL A   1      40.545  25.603  25.959  1.00  0.00     0.001 A 
ATOM     45  C   UNL A   1      39.801  24.517  26.418  1.00  0.00     0.000 A 
ENDBRANCH  26  40
BRANCH  27  46
ATOM     46  C   UNL A   1      41.980  34.822  33.827  1.00  0.00    -0.014 A 
ATOM     47  C   UNL A   1      42.712  35.907  33.322  1.00  0.00     0.009 A 
ATOM     48  C   UNL A   1      41.515  34.881  35.152  1.00  0.00     0.009 A 
ATOM     49  C   UNL A   1      42.995  37.010  34.133  1.00  0.00     0.001 A 
ATOM     50  C   UNL A   1      41.772  35.998  35.950  1.00  0.00     0.001 A 
ATOM     51  C   UNL A   1      42.522  37.057  35.444  1.00  0.00     0.000 A 
ENDBRANCH  27  46
BRANCH  39  52
ATOM     52  C   UNL A   1      45.339  28.809  32.807  1.00  0.00    -0.014 A 
ATOM     53  C   UNL A   1      45.333  28.010  33.960  1.00  0.00     0.009 A 
ATOM     54  C   UNL A   1      46.554  29.070  32.157  1.00  0.00     0.009 A 
ATOM     55  C   UNL A   1      46.529  27.507  34.471  1.00  0.00     0.001 A 
ATOM     56  C   UNL A   1      47.745  28.544  32.655  1.00  0.00     0.001 A 
ATOM     57  C   UNL A   1      47.732  27.770  33.815  1.00  0.00     0.000 A 
ENDBRANCH  39  52
ENDBRANCH  13  14
ENDBRANCH   6   8
ENDBRANCH   5   6
ENDBRANCH   4   5
ENDBRANCH   3   4
ENDBRANCH   2   3
ENDBRANCH   1   2
BRANCH   1  58
ATOM     58  C   UNL A   1      33.580  28.775  25.102  1.00  0.00     0.261 C 
BRANCH  58  59
ATOM     59  O   UNL A   1      33.547  27.549  25.842  1.00  0.00    -0.462 OA
BRANCH  59  60
ATOM     60  C   UNL A   1      33.723  26.438  25.079  1.00  0.00     0.329 C 
ATOM     61  O   UNL A   1      34.388  25.473  25.436  1.00  0.00    -0.250 OA
BRANCH  60  62
ATOM     62  C   UNL A   1      32.890  26.517  23.789  1.00  0.00     0.197 C 
ATOM     63  C   UNL A   1      33.574  26.056  22.499  1.00  0.00     0.070 C 
ATOM     64  N   UNL A   1      31.634  25.777  23.817  1.00  0.00    -0.326 N 
ATOM     65  C   UNL A   1      32.991  24.689  22.188  1.00  0.00     0.136 C 
ATOM     66  C   UNL A   1      31.613  24.703  22.836  1.00  0.00     0.152 C 
BRANCH  64  67
ATOM     67  C   UNL A   1      30.564  26.253  24.536  1.00  0.00     0.226 C 
ATOM     68  O   UNL A   1      30.563  26.293  25.767  1.00  0.00    -0.275 OA
BRANCH  67  69
ATOM     69  C   UNL A   1      29.406  26.849  23.776  1.00  0.00     0.141 C 
BRANCH  69  70
ATOM     70  C   UNL A   1      29.917  28.054  22.991  1.00  0.00     0.239 C 
BRANCH  70  71
ATOM     71  O   UNL A   1      29.679  29.278  23.699  1.00  0.00    -0.493 OA
BRANCH  71  72
ATOM     72  C   UNL A   1      29.127  30.349  23.056  1.00  0.00     0.119 A 
ATOM     73  C   UNL A   1      29.006  31.653  23.542  1.00  0.00     0.049 A 
ATOM     74  C   UNL A   1      28.661  30.062  21.766  1.00  0.00     0.049 A 
ATOM     75  C   UNL A   1      28.475  32.663  22.732  1.00  0.00     0.043 A 
ATOM     76  C   UNL A   1      28.120  31.065  20.960  1.00  0.00     0.043 A 
ATOM     77  C   UNL A   1      28.042  32.361  21.448  1.00  0.00     0.123 A 
ATOM     78  F   UNL A   1      27.554  33.337  20.670  1.00  0.00    -0.207 F 
ENDBRANCH  71  72
ENDBRANCH  70  71
ENDBRANCH  69  70
ENDBRANCH  67  69
ENDBRANCH  64  67
BRANCH  65  79
ATOM     79  O   UNL A   1      32.925  24.506  20.779  1.00  0.00    -0.391 OA
ATOM     80  H   UNL A   1      33.213  23.607  20.556  1.00  0.00     0.211 HD
ENDBRANCH  65  79
ENDBRANCH  60  62
ENDBRANCH  59  60
ENDBRANCH  58  59
ENDBRANCH   1  58
TORSDOF 20
ENDMDL
MODEL 3
REMARK VINA RESULT:     -10.0      1.490      2.156
REMARK SMILES O=C(OCCOCCOC(=O)[C@H]1C[C@H](O)CN1C(=O)CCOc1ccc(F)cc1)c1ccc(-c2c3nc(c(-c4ccccc4)c4ccc([nH]4)c(-c4ccccc4)c4nc(c(-c5ccccc5)c5ccc2[nH]5)C=C4)C=C3)cc1
REMARK SMILES IDX 7 1 6 2 5 3 4 4 3 5 2 6 1 7 30 8 31 9 77 10 32 11 76 12
REMARK SMILES IDX 33 13 34 14 35 15 70 16 36 17 75 18 69 19 71 20 37 21 74 22
REMARK SMILES IDX 68 23 67 24 38 26 60 27 45 28 59 29 46 30 49 31 58 32 72 33
REMARK SMILES IDX 47 34 48 35 57 37 73 38 50 39 39 40 40 41 44 42 41 43 43 44
REMARK SMILES IDX 42 45 61 46 62 47 66 48 63 49 65 50 64 51 51 52 52 53 56 54
REMARK SMILES IDX 53 55 55 56 54 57 8 58 9 59 10 60 11 61 12 62 13 63 17 64
REMARK SMILES IDX 14 65 16 66 18 67 19 68 20 69 21 70 22 71 23 72 24 73 29 74
REMARK SMILES IDX 25 75 28 76 26 77 27 78 15 79
REMARK H PARENT 71 25 49 36 15 80
REMARK Flexibility Score: inf
ROOT
ATOM      1  C   UNL A   1      31.727  28.898  26.124  1.00  0.00     0.202 C 
ENDROOT
BRANCH   1   2
ATOM      2  O   UNL A   1      32.395  30.125  26.466  1.00  0.00    -0.374 OA
BRANCH   2   3
ATOM      3  C   UNL A   1      31.540  31.255  26.679  1.00  0.00     0.202 C 
BRANCH   3   4
ATOM      4  C   UNL A   1      32.161  32.649  26.523  1.00  0.00     0.261 C 
BRANCH   4   5
ATOM      5  O   UNL A   1      31.980  33.442  27.704  1.00  0.00    -0.460 OA
BRANCH   5   6
ATOM      6  C   UNL A   1      32.871  34.253  28.320  1.00  0.00     0.338 C 
ATOM      7  O   UNL A   1      32.609  35.453  28.382  1.00  0.00    -0.246 OA
BRANCH   6   8
ATOM      8  C   UNL A   1      34.162  33.787  28.922  1.00  0.00     0.060 A 
ATOM      9  C   UNL A   1      35.440  34.215  28.554  1.00  0.00     0.016 A 
ATOM     10  C   UNL A   1      34.061  32.884  29.997  1.00  0.00     0.016 A 
ATOM     11  C   UNL A   1      36.579  33.711  29.160  1.00  0.00     0.010 A 
ATOM     12  C   UNL A   1      35.201  32.397  30.642  1.00  0.00     0.010 A 
ATOM     13  C   UNL A   1      36.463  32.793  30.196  1.00  0.00    -0.014 A 
BRANCH  13  14
ATOM     14  C   UNL A   1      37.701  32.176  30.686  1.00  0.00     0.031 A 
ATOM     15  C   UNL A   1      38.297  32.709  31.951  1.00  0.00     0.074 A 
ATOM     16  C   UNL A   1      38.158  31.058  30.095  1.00  0.00     0.049 A 
ATOM     17  N   UNL A   1      39.358  32.307  32.595  1.00  0.00    -0.248 NA
ATOM     18  C   UNL A   1      37.587  33.830  32.591  1.00  0.00     0.031 C 
ATOM     19  C   UNL A   1      37.537  30.398  28.944  1.00  0.00     0.029 A 
ATOM     20  N   UNL A   1      39.219  30.257  30.410  1.00  0.00    -0.354 N 
ATOM     21  C   UNL A   1      39.450  33.134  33.707  1.00  0.00     0.074 A 
ATOM     22  C   UNL A   1      38.345  34.063  33.650  1.00  0.00     0.031 C 
ATOM     23  C   UNL A   1      38.220  29.276  28.663  1.00  0.00     0.029 A 
ATOM     24  C   UNL A   1      39.353  29.175  29.575  1.00  0.00     0.049 A 
ATOM     25  H   UNL A   1      39.829  30.438  31.162  1.00  0.00     0.167 HD
ATOM     26  C   UNL A   1      40.388  33.119  34.680  1.00  0.00     0.031 A 
ATOM     27  C   UNL A   1      40.310  28.230  29.545  1.00  0.00     0.031 A 
ATOM     28  C   UNL A   1      41.492  32.203  34.691  1.00  0.00     0.049 A 
ATOM     29  C   UNL A   1      41.409  28.315  30.567  1.00  0.00     0.074 A 
ATOM     30  C   UNL A   1      42.562  32.142  35.564  1.00  0.00     0.029 A 
ATOM     31  N   UNL A   1      41.662  31.180  33.767  1.00  0.00    -0.354 N 
ATOM     32  N   UNL A   1      41.537  29.147  31.574  1.00  0.00    -0.248 NA
ATOM     33  C   UNL A   1      42.503  27.345  30.442  1.00  0.00     0.031 C 
ATOM     34  C   UNL A   1      43.404  31.108  35.139  1.00  0.00     0.029 A 
ATOM     35  C   UNL A   1      42.831  30.493  34.034  1.00  0.00     0.049 A 
ATOM     36  H   UNL A   1      41.042  30.976  33.031  1.00  0.00     0.167 HD
ATOM     37  C   UNL A   1      42.720  28.797  32.208  1.00  0.00     0.074 A 
ATOM     38  C   UNL A   1      43.255  27.658  31.487  1.00  0.00     0.031 C 
ATOM     39  C   UNL A   1      43.321  29.366  33.284  1.00  0.00     0.031 A 
BRANCH  26  40
ATOM     40  C   UNL A   1      40.284  34.179  35.737  1.00  0.00    -0.014 A 
ATOM     41  C   UNL A   1      39.555  33.969  36.918  1.00  0.00     0.009 A 
ATOM     42  C   UNL A   1      40.889  35.427  35.523  1.00  0.00     0.009 A 
ATOM     43  C   UNL A   1      39.408  35.002  37.848  1.00  0.00     0.001 A 
ATOM     44  C   UNL A   1      40.759  36.449  36.465  1.00  0.00     0.001 A 
ATOM     45  C   UNL A   1      40.009  36.239  37.621  1.00  0.00     0.000 A 
ENDBRANCH  26  40
BRANCH  27  46
ATOM     46  C   UNL A   1      40.309  27.184  28.488  1.00  0.00    -0.014 A 
ATOM     47  C   UNL A   1      40.947  27.395  27.256  1.00  0.00     0.009 A 
ATOM     48  C   UNL A   1      39.644  25.965  28.702  1.00  0.00     0.009 A 
ATOM     49  C   UNL A   1      40.896  26.420  26.256  1.00  0.00     0.001 A 
ATOM     50  C   UNL A   1      39.620  24.980  27.712  1.00  0.00     0.001 A 
ATOM     51  C   UNL A   1      40.237  25.213  26.485  1.00  0.00     0.000 A 
ENDBRANCH  27  46
BRANCH  39  52
ATOM     52  C   UNL A   1      44.606  28.743  33.740  1.00  0.00    -0.014 A 
ATOM     53  C   UNL A   1      44.610  27.685  34.661  1.00  0.00     0.009 A 
ATOM     54  C   UNL A   1      45.822  29.196  33.207  1.00  0.00     0.009 A 
ATOM     55  C   UNL A   1      45.816  27.111  35.064  1.00  0.00     0.001 A 
ATOM     56  C   UNL A   1      47.023  28.603  33.591  1.00  0.00     0.001 A 
ATOM     57  C   UNL A   1      47.019  27.567  34.525  1.00  0.00     0.000 A 
ENDBRANCH  39  52
ENDBRANCH  13  14
ENDBRANCH   6   8
ENDBRANCH   5   6
ENDBRANCH   4   5
ENDBRANCH   3   4
ENDBRANCH   2   3
ENDBRANCH   1   2
BRANCH   1  58
ATOM     58  C   UNL A   1      32.586  27.689  26.494  1.00  0.00     0.261 C 
BRANCH  58  59
ATOM     59  O   UNL A   1      31.755  26.820  27.273  1.00  0.00    -0.462 OA
BRANCH  59  60
ATOM     60  C   UNL A   1      31.097  25.882  26.543  1.00  0.00     0.329 C 
ATOM     61  O   UNL A   1      29.910  25.966  26.250  1.00  0.00    -0.250 OA
BRANCH  60  62
ATOM     62  C   UNL A   1      32.061  24.791  26.048  1.00  0.00     0.197 C 
ATOM     63  C   UNL A   1      31.915  23.405  26.681  1.00  0.00     0.070 C 
ATOM     64  N   UNL A   1      32.027  24.539  24.612  1.00  0.00    -0.326 N 
ATOM     65  C   UNL A   1      31.219  22.547  25.640  1.00  0.00     0.136 C 
ATOM     66  C   UNL A   1      31.584  23.188  24.307  1.00  0.00     0.152 C 
BRANCH  64  67
ATOM     67  C   UNL A   1      32.592  25.435  23.737  1.00  0.00     0.226 C 
ATOM     68  O   UNL A   1      33.757  25.818  23.845  1.00  0.00    -0.275 OA
BRANCH  67  69
ATOM     69  C   UNL A   1      31.781  25.867  22.541  1.00  0.00     0.141 C 
BRANCH  69  70
ATOM     70  C   UNL A   1      30.560  26.634  23.041  1.00  0.00     0.239 C 
BRANCH  70  71
ATOM     71  O   UNL A   1      30.274  27.763  22.205  1.00  0.00    -0.493 OA
BRANCH  71  72
ATOM     72  C   UNL A   1      29.538  28.809  22.686  1.00  0.00     0.119 A 
ATOM     73  C   UNL A   1      30.020  30.033  23.154  1.00  0.00     0.049 A 
ATOM     74  C   UNL A   1      28.155  28.586  22.673  1.00  0.00     0.049 A 
ATOM     75  C   UNL A   1      29.130  31.036  23.555  1.00  0.00     0.043 A 
ATOM     76  C   UNL A   1      27.265  29.580  23.083  1.00  0.00     0.043 A 
ATOM     77  C   UNL A   1      27.762  30.803  23.511  1.00  0.00     0.123 A 
ATOM     78  F   UNL A   1      26.915  31.774  23.875  1.00  0.00    -0.207 F 
ENDBRANCH  71  72
ENDBRANCH  70  71
ENDBRANCH  69  70
ENDBRANCH  67  69
ENDBRANCH  64  67
BRANCH  65  79
ATOM     79  O   UNL A   1      31.678  21.205  25.740  1.00  0.00    -0.391 OA
ATOM     80  H   UNL A   1      32.593  21.199  26.062  1.00  0.00     0.211 HD
ENDBRANCH  65  79
ENDBRANCH  60  62
ENDBRANCH  59  60
ENDBRANCH  58  59
ENDBRANCH   1  58
TORSDOF 20
ENDMDL
