MODEL 1
REMARK VINA RESULT:     -10.6      0.000      0.000
REMARK SMILES Cc1ccc(Nc2c(F)cccc2Cl)c(CC(=O)OCCOCCOC(=O)c2ccc(-c3c4nc(c(-c5ccccc5)c5ccc([nH]5)c(-c5ccccc5)c5nc(c(-c6ccccc6)c6ccc3[nH]6)C=C5)C=C4)cc2)c1
REMARK SMILES IDX 21 1 20 2 19 3 17 4 18 5 16 6 15 7 1 8 2 9 3 10 76 11 4 12
REMARK SMILES IDX 5 13 6 14 7 16 8 17 13 18 9 19 10 20 12 21 14 22 11 23 22 24
REMARK SMILES IDX 23 25 24 26 25 27 26 28 27 29 28 30 29 31 75 32 30 33 74 34
REMARK SMILES IDX 31 35 32 36 33 37 68 38 34 39 73 40 67 41 69 42 35 43 72 44
REMARK SMILES IDX 66 45 65 46 36 48 58 49 43 50 57 51 44 52 47 53 56 54 70 55
REMARK SMILES IDX 45 56 46 57 55 59 71 60 48 61 37 62 38 63 42 64 39 65 41 66
REMARK SMILES IDX 40 67 59 68 60 69 64 70 61 71 63 72 62 73 49 74 50 75 54 76
REMARK SMILES IDX 51 77 53 78 52 79
REMARK H PARENT 6 15 69 47 47 58
REMARK Flexibility Score: inf
ROOT
ATOM      1  C   UNL A   1      37.097  21.908  25.306  1.00  0.00     0.202 C 
ENDROOT
BRANCH   1   2
ATOM      2  C   UNL A   1      36.350  22.605  24.182  1.00  0.00     0.261 C 
BRANCH   2   3
ATOM      3  O   UNL A   1      34.996  22.874  24.506  1.00  0.00    -0.463 OA
BRANCH   3   4
ATOM      4  C   UNL A   1      34.469  24.091  24.167  1.00  0.00     0.310 C 
ATOM      5  O   UNL A   1      34.106  24.452  23.057  1.00  0.00    -0.252 OA
BRANCH   4   6
ATOM      6  C   UNL A   1      34.423  24.994  25.389  1.00  0.00     0.160 C 
BRANCH   6   7
ATOM      7  C   UNL A   1      32.983  25.179  25.835  1.00  0.00    -0.013 A 
ATOM      8  C   UNL A   1      30.320  22.545  26.624  1.00  0.00     0.044 C 
ATOM      9  C   UNL A   1      30.967  23.865  26.330  1.00  0.00    -0.051 A 
ATOM     10  C   UNL A   1      30.201  24.969  25.981  1.00  0.00     0.005 A 
ATOM     11  C   UNL A   1      32.353  24.002  26.329  1.00  0.00     0.009 A 
ATOM     12  C   UNL A   1      30.816  26.159  25.571  1.00  0.00     0.026 A 
ATOM     13  C   UNL A   1      32.213  26.294  25.448  1.00  0.00     0.042 A 
BRANCH  13  14
ATOM     14  N   UNL A   1      32.797  27.471  24.900  1.00  0.00    -0.352 N 
ATOM     15  H   UNL A   1      33.319  27.346  24.075  1.00  0.00     0.167 HD
BRANCH  14  16
ATOM     16  C   UNL A   1      32.722  28.806  25.389  1.00  0.00     0.094 A 
ATOM     17  C   UNL A   1      33.616  29.275  26.363  1.00  0.00     0.148 A 
ATOM     18  C   UNL A   1      31.648  29.659  25.068  1.00  0.00     0.067 A 
ATOM     19  F   UNL A   1      34.749  28.601  26.613  1.00  0.00    -0.205 F 
ATOM     20  C   UNL A   1      33.365  30.421  27.113  1.00  0.00     0.041 A 
ATOM     21  C   UNL A   1      31.352  30.780  25.858  1.00  0.00     0.023 A 
ATOM     22  Cl  UNL A   1      30.678  29.410  23.657  1.00  0.00    -0.082 Cl
ATOM     23  C   UNL A   1      32.197  31.142  26.904  1.00  0.00     0.005 A 
ENDBRANCH  14  16
ENDBRANCH  13  14
ENDBRANCH   6   7
ENDBRANCH   4   6
ENDBRANCH   3   4
ENDBRANCH   2   3
ENDBRANCH   1   2
BRANCH   1  24
ATOM     24  O   UNL A   1      37.399  20.587  24.906  1.00  0.00    -0.374 OA
BRANCH  24  25
ATOM     25  C   UNL A   1      38.683  20.125  25.281  1.00  0.00     0.202 C 
BRANCH  25  26
ATOM     26  C   UNL A   1      39.478  21.253  25.938  1.00  0.00     0.261 C 
BRANCH  26  27
ATOM     27  O   UNL A   1      40.494  20.718  26.814  1.00  0.00    -0.460 OA
BRANCH  27  28
ATOM     28  C   UNL A   1      41.740  20.692  26.270  1.00  0.00     0.338 C 
ATOM     29  O   UNL A   1      42.134  19.857  25.460  1.00  0.00    -0.246 OA
BRANCH  28  30
ATOM     30  C   UNL A   1      42.637  21.641  26.987  1.00  0.00     0.060 A 
ATOM     31  C   UNL A   1      42.437  21.824  28.368  1.00  0.00     0.016 A 
ATOM     32  C   UNL A   1      43.321  22.598  26.240  1.00  0.00     0.016 A 
ATOM     33  C   UNL A   1      42.712  23.062  28.948  1.00  0.00     0.010 A 
ATOM     34  C   UNL A   1      43.455  23.859  26.785  1.00  0.00     0.010 A 
ATOM     35  C   UNL A   1      43.109  24.109  28.124  1.00  0.00    -0.014 A 
BRANCH  35  36
ATOM     36  C   UNL A   1      43.087  25.522  28.496  1.00  0.00     0.031 A 
ATOM     37  C   UNL A   1      41.878  26.314  28.216  1.00  0.00     0.074 A 
ATOM     38  C   UNL A   1      44.036  26.036  29.311  1.00  0.00     0.049 A 
ATOM     39  N   UNL A   1      41.816  27.585  28.389  1.00  0.00    -0.248 NA
ATOM     40  C   UNL A   1      40.649  25.766  27.645  1.00  0.00     0.031 C 
ATOM     41  C   UNL A   1      43.935  27.177  30.228  1.00  0.00     0.029 A 
ATOM     42  N   UNL A   1      45.354  25.637  29.457  1.00  0.00    -0.354 N 
ATOM     43  C   UNL A   1      40.493  27.934  28.352  1.00  0.00     0.074 A 
ATOM     44  C   UNL A   1      39.827  26.816  27.738  1.00  0.00     0.031 C 
ATOM     45  C   UNL A   1      45.162  27.514  30.660  1.00  0.00     0.029 A 
ATOM     46  C   UNL A   1      46.115  26.711  29.917  1.00  0.00     0.049 A 
ATOM     47  H   UNL A   1      45.699  24.736  29.266  1.00  0.00     0.167 HD
ATOM     48  C   UNL A   1      40.122  29.083  28.978  1.00  0.00     0.031 A 
ATOM     49  C   UNL A   1      47.199  27.161  29.223  1.00  0.00     0.031 A 
ATOM     50  C   UNL A   1      41.295  29.867  29.402  1.00  0.00     0.049 A 
ATOM     51  C   UNL A   1      46.872  28.520  28.629  1.00  0.00     0.074 A 
ATOM     52  C   UNL A   1      41.847  30.223  30.620  1.00  0.00     0.029 A 
ATOM     53  N   UNL A   1      42.280  30.141  28.455  1.00  0.00    -0.354 N 
ATOM     54  N   UNL A   1      45.699  29.084  28.752  1.00  0.00    -0.248 NA
ATOM     55  C   UNL A   1      47.778  29.342  27.839  1.00  0.00     0.031 C 
ATOM     56  C   UNL A   1      43.183  30.686  30.383  1.00  0.00     0.029 A 
ATOM     57  C   UNL A   1      43.427  30.662  29.020  1.00  0.00     0.049 A 
ATOM     58  H   UNL A   1      42.171  29.980  27.490  1.00  0.00     0.167 HD
ATOM     59  C   UNL A   1      45.659  30.286  28.119  1.00  0.00     0.074 A 
ATOM     60  C   UNL A   1      46.981  30.379  27.510  1.00  0.00     0.031 C 
ATOM     61  C   UNL A   1      44.537  31.072  28.151  1.00  0.00     0.031 A 
BRANCH  48  62
ATOM     62  C   UNL A   1      38.694  29.419  29.340  1.00  0.00    -0.014 A 
ATOM     63  C   UNL A   1      38.220  29.114  30.628  1.00  0.00     0.009 A 
ATOM     64  C   UNL A   1      37.744  29.958  28.451  1.00  0.00     0.009 A 
ATOM     65  C   UNL A   1      36.885  29.342  31.000  1.00  0.00     0.001 A 
ATOM     66  C   UNL A   1      36.418  30.219  28.824  1.00  0.00     0.001 A 
ATOM     67  C   UNL A   1      35.986  29.904  30.102  1.00  0.00     0.000 A 
ENDBRANCH  48  62
BRANCH  49  68
ATOM     68  C   UNL A   1      47.964  26.012  28.635  1.00  0.00    -0.014 A 
ATOM     69  C   UNL A   1      47.891  25.901  27.222  1.00  0.00     0.009 A 
ATOM     70  C   UNL A   1      49.112  25.514  29.274  1.00  0.00     0.009 A 
ATOM     71  C   UNL A   1      49.006  25.514  26.469  1.00  0.00     0.001 A 
ATOM     72  C   UNL A   1      50.222  25.112  28.509  1.00  0.00     0.001 A 
ATOM     73  C   UNL A   1      50.187  25.166  27.113  1.00  0.00     0.000 A 
ENDBRANCH  49  68
BRANCH  61  74
ATOM     74  C   UNL A   1      44.356  32.311  27.310  1.00  0.00    -0.014 A 
ATOM     75  C   UNL A   1      44.269  32.302  25.916  1.00  0.00     0.009 A 
ATOM     76  C   UNL A   1      44.290  33.575  27.936  1.00  0.00     0.009 A 
ATOM     77  C   UNL A   1      43.977  33.472  25.203  1.00  0.00     0.001 A 
ATOM     78  C   UNL A   1      44.031  34.748  27.231  1.00  0.00     0.001 A 
ATOM     79  C   UNL A   1      43.839  34.690  25.862  1.00  0.00     0.000 A 
ENDBRANCH  61  74
ENDBRANCH  35  36
ENDBRANCH  28  30
ENDBRANCH  27  28
ENDBRANCH  26  27
ENDBRANCH  25  26
ENDBRANCH  24  25
ENDBRANCH   1  24
TORSDOF 17
ENDMDL
MODEL 2
REMARK VINA RESULT:     -10.6      1.687      3.048
REMARK SMILES Cc1ccc(Nc2c(F)cccc2Cl)c(CC(=O)OCCOCCOC(=O)c2ccc(-c3c4nc(c(-c5ccccc5)c5ccc([nH]5)c(-c5ccccc5)c5nc(c(-c6ccccc6)c6ccc3[nH]6)C=C5)C=C4)cc2)c1
REMARK SMILES IDX 21 1 20 2 19 3 17 4 18 5 16 6 15 7 1 8 2 9 3 10 76 11 4 12
REMARK SMILES IDX 5 13 6 14 7 16 8 17 13 18 9 19 10 20 12 21 14 22 11 23 22 24
REMARK SMILES IDX 23 25 24 26 25 27 26 28 27 29 28 30 29 31 75 32 30 33 74 34
REMARK SMILES IDX 31 35 32 36 33 37 68 38 34 39 73 40 67 41 69 42 35 43 72 44
REMARK SMILES IDX 66 45 65 46 36 48 58 49 43 50 57 51 44 52 47 53 56 54 70 55
REMARK SMILES IDX 45 56 46 57 55 59 71 60 48 61 37 62 38 63 42 64 39 65 41 66
REMARK SMILES IDX 40 67 59 68 60 69 64 70 61 71 63 72 62 73 49 74 50 75 54 76
REMARK SMILES IDX 51 77 53 78 52 79
REMARK H PARENT 6 15 69 47 47 58
REMARK Flexibility Score: inf
ROOT
ATOM      1  C   UNL A   1      36.364  22.320  25.061  1.00  0.00     0.202 C 
ENDROOT
BRANCH   1   2
ATOM      2  C   UNL A   1      35.868  23.658  24.544  1.00  0.00     0.261 C 
BRANCH   2   3
ATOM      3  O   UNL A   1      35.324  23.575  23.237  1.00  0.00    -0.463 OA
BRANCH   3   4
ATOM      4  C   UNL A   1      34.204  24.305  22.944  1.00  0.00     0.310 C 
ATOM      5  O   UNL A   1      33.651  24.402  21.858  1.00  0.00    -0.252 OA
BRANCH   4   6
ATOM      6  C   UNL A   1      33.728  25.044  24.185  1.00  0.00     0.160 C 
BRANCH   6   7
ATOM      7  C   UNL A   1      32.322  25.570  23.961  1.00  0.00    -0.013 A 
ATOM      8  C   UNL A   1      30.986  29.145  24.248  1.00  0.00     0.044 C 
ATOM      9  C   UNL A   1      31.028  27.652  24.124  1.00  0.00    -0.051 A 
ATOM     10  C   UNL A   1      29.889  26.889  24.342  1.00  0.00     0.005 A 
ATOM     11  C   UNL A   1      32.222  26.986  23.858  1.00  0.00     0.009 A 
ATOM     12  C   UNL A   1      29.964  25.490  24.365  1.00  0.00     0.026 A 
ATOM     13  C   UNL A   1      31.177  24.789  24.215  1.00  0.00     0.042 A 
BRANCH  13  14
ATOM     14  N   UNL A   1      31.238  23.375  24.378  1.00  0.00    -0.352 N 
ATOM     15  H   UNL A   1      30.807  22.844  23.671  1.00  0.00     0.167 HD
BRANCH  14  16
ATOM     16  C   UNL A   1      31.842  22.632  25.431  1.00  0.00     0.094 A 
ATOM     17  C   UNL A   1      31.904  23.139  26.737  1.00  0.00     0.148 A 
ATOM     18  C   UNL A   1      32.568  21.449  25.187  1.00  0.00     0.067 A 
ATOM     19  F   UNL A   1      31.119  24.166  27.095  1.00  0.00    -0.205 F 
ATOM     20  C   UNL A   1      32.776  22.626  27.694  1.00  0.00     0.041 A 
ATOM     21  C   UNL A   1      33.495  20.963  26.121  1.00  0.00     0.023 A 
ATOM     22  Cl  UNL A   1      32.313  20.502  23.762  1.00  0.00    -0.082 Cl
ATOM     23  C   UNL A   1      33.622  21.575  27.366  1.00  0.00     0.005 A 
ENDBRANCH  14  16
ENDBRANCH  13  14
ENDBRANCH   6   7
ENDBRANCH   4   6
ENDBRANCH   3   4
ENDBRANCH   2   3
ENDBRANCH   1   2
BRANCH   1  24
ATOM     24  O   UNL A   1      37.721  22.162  24.696  1.00  0.00    -0.374 OA
BRANCH  24  25
ATOM     25  C   UNL A   1      38.410  21.131  25.378  1.00  0.00     0.202 C 
BRANCH  25  26
ATOM     26  C   UNL A   1      39.614  21.706  26.124  1.00  0.00     0.261 C 
BRANCH  26  27
ATOM     27  O   UNL A   1      40.420  20.646  26.685  1.00  0.00    -0.460 OA
BRANCH  27  28
ATOM     28  C   UNL A   1      41.672  20.563  26.161  1.00  0.00     0.338 C 
ATOM     29  O   UNL A   1      42.059  19.672  25.409  1.00  0.00    -0.246 OA
BRANCH  28  30
ATOM     30  C   UNL A   1      42.578  21.538  26.831  1.00  0.00     0.060 A 
ATOM     31  C   UNL A   1      42.479  21.680  28.228  1.00  0.00     0.016 A 
ATOM     32  C   UNL A   1      43.157  22.543  26.059  1.00  0.00     0.016 A 
ATOM     33  C   UNL A   1      42.742  22.917  28.817  1.00  0.00     0.010 A 
ATOM     34  C   UNL A   1      43.275  23.796  26.624  1.00  0.00     0.010 A 
ATOM     35  C   UNL A   1      43.024  24.000  27.991  1.00  0.00    -0.014 A 
BRANCH  35  36
ATOM     36  C   UNL A   1      42.967  25.401  28.400  1.00  0.00     0.031 A 
ATOM     37  C   UNL A   1      41.782  26.199  28.046  1.00  0.00     0.074 A 
ATOM     38  C   UNL A   1      43.845  25.893  29.304  1.00  0.00     0.049 A 
ATOM     39  N   UNL A   1      41.702  27.464  28.249  1.00  0.00    -0.248 NA
ATOM     40  C   UNL A   1      40.606  25.666  27.361  1.00  0.00     0.031 C 
ATOM     41  C   UNL A   1      43.666  27.006  30.242  1.00  0.00     0.029 A 
ATOM     42  N   UNL A   1      45.148  25.491  29.546  1.00  0.00    -0.354 N 
ATOM     43  C   UNL A   1      40.385  27.813  28.115  1.00  0.00     0.074 A 
ATOM     44  C   UNL A   1      39.775  26.712  27.417  1.00  0.00     0.031 C 
ATOM     45  C   UNL A   1      44.853  27.333  30.783  1.00  0.00     0.029 A 
ATOM     46  C   UNL A   1      45.866  26.553  30.097  1.00  0.00     0.049 A 
ATOM     47  H   UNL A   1      45.511  24.596  29.358  1.00  0.00     0.167 HD
ATOM     48  C   UNL A   1      39.961  28.943  28.741  1.00  0.00     0.031 A 
ATOM     49  C   UNL A   1      47.000  27.023  29.507  1.00  0.00     0.031 A 
ATOM     50  C   UNL A   1      41.092  29.716  29.281  1.00  0.00     0.049 A 
ATOM     51  C   UNL A   1      46.718  28.398  28.927  1.00  0.00     0.074 A 
ATOM     52  C   UNL A   1      41.541  30.037  30.550  1.00  0.00     0.029 A 
ATOM     53  N   UNL A   1      42.150  30.018  28.426  1.00  0.00    -0.354 N 
ATOM     54  N   UNL A   1      45.537  28.958  28.970  1.00  0.00    -0.248 NA
ATOM     55  C   UNL A   1      47.683  29.244  28.238  1.00  0.00     0.031 C 
ATOM     56  C   UNL A   1      42.891  30.508  30.435  1.00  0.00     0.029 A 
ATOM     57  C   UNL A   1      43.245  30.524  29.096  1.00  0.00     0.049 A 
ATOM     58  H   UNL A   1      42.120  29.885  27.451  1.00  0.00     0.167 HD
ATOM     59  C   UNL A   1      45.544  30.177  28.370  1.00  0.00     0.074 A 
ATOM     60  C   UNL A   1      46.911  30.290  27.874  1.00  0.00     0.031 C 
ATOM     61  C   UNL A   1      44.421  30.960  28.333  1.00  0.00     0.031 A 
BRANCH  48  62
ATOM     62  C   UNL A   1      38.506  29.267  28.995  1.00  0.00    -0.014 A 
ATOM     63  C   UNL A   1      37.720  29.774  27.947  1.00  0.00     0.009 A 
ATOM     64  C   UNL A   1      37.869  29.175  30.248  1.00  0.00     0.009 A 
ATOM     65  C   UNL A   1      36.382  30.155  28.140  1.00  0.00     0.001 A 
ATOM     66  C   UNL A   1      36.525  29.523  30.442  1.00  0.00     0.001 A 
ATOM     67  C   UNL A   1      35.781  30.020  29.385  1.00  0.00     0.000 A 
ENDBRANCH  48  62
BRANCH  49  68
ATOM     68  C   UNL A   1      47.815  25.893  28.951  1.00  0.00    -0.014 A 
ATOM     69  C   UNL A   1      47.743  25.736  27.542  1.00  0.00     0.009 A 
ATOM     70  C   UNL A   1      48.987  25.468  29.600  1.00  0.00     0.009 A 
ATOM     71  C   UNL A   1      48.872  25.376  26.796  1.00  0.00     0.001 A 
ATOM     72  C   UNL A   1      50.112  25.093  28.841  1.00  0.00     0.001 A 
ATOM     73  C   UNL A   1      50.070  25.102  27.445  1.00  0.00     0.000 A 
ENDBRANCH  49  68
BRANCH  61  74
ATOM     74  C   UNL A   1      44.305  32.222  27.516  1.00  0.00    -0.014 A 
ATOM     75  C   UNL A   1      44.197  33.502  28.065  1.00  0.00     0.009 A 
ATOM     76  C   UNL A   1      44.280  32.140  26.106  1.00  0.00     0.009 A 
ATOM     77  C   UNL A   1      44.218  34.642  27.252  1.00  0.00     0.001 A 
ATOM     78  C   UNL A   1      44.269  33.268  25.289  1.00  0.00     0.001 A 
ATOM     79  C   UNL A   1      44.274  34.525  25.867  1.00  0.00     0.000 A 
ENDBRANCH  61  74
ENDBRANCH  35  36
ENDBRANCH  28  30
ENDBRANCH  27  28
ENDBRANCH  26  27
ENDBRANCH  25  26
ENDBRANCH  24  25
ENDBRANCH   1  24
TORSDOF 17
ENDMDL
MODEL 3
REMARK VINA RESULT:     -10.3      1.651      2.249
REMARK SMILES Cc1ccc(Nc2c(F)cccc2Cl)c(CC(=O)OCCOCCOC(=O)c2ccc(-c3c4nc(c(-c5ccccc5)c5ccc([nH]5)c(-c5ccccc5)c5nc(c(-c6ccccc6)c6ccc3[nH]6)C=C5)C=C4)cc2)c1
REMARK SMILES IDX 21 1 20 2 19 3 17 4 18 5 16 6 15 7 1 8 2 9 3 10 76 11 4 12
REMARK SMILES IDX 5 13 6 14 7 16 8 17 13 18 9 19 10 20 12 21 14 22 11 23 22 24
REMARK SMILES IDX 23 25 24 26 25 27 26 28 27 29 28 30 29 31 75 32 30 33 74 34
REMARK SMILES IDX 31 35 32 36 33 37 68 38 34 39 73 40 67 41 69 42 35 43 72 44
REMARK SMILES IDX 66 45 65 46 36 48 58 49 43 50 57 51 44 52 47 53 56 54 70 55
REMARK SMILES IDX 45 56 46 57 55 59 71 60 48 61 37 62 38 63 42 64 39 65 41 66
REMARK SMILES IDX 40 67 59 68 60 69 64 70 61 71 63 72 62 73 49 74 50 75 54 76
REMARK SMILES IDX 51 77 53 78 52 79
REMARK H PARENT 6 15 69 47 47 58
REMARK Flexibility Score: inf
ROOT
ATOM      1  C   UNL A   1      36.848  21.753  24.631  1.00  0.00     0.202 C 
ENDROOT
BRANCH   1   2
ATOM      2  C   UNL A   1      35.853  20.882  25.377  1.00  0.00     0.261 C 
BRANCH   2   3
ATOM      3  O   UNL A   1      35.241  21.555  26.465  1.00  0.00    -0.463 OA
BRANCH   3   4
ATOM      4  C   UNL A   1      34.676  22.782  26.244  1.00  0.00     0.310 C 
ATOM      5  O   UNL A   1      35.259  23.825  25.986  1.00  0.00    -0.252 OA
BRANCH   4   6
ATOM      6  C   UNL A   1      33.167  22.693  26.401  1.00  0.00     0.160 C 
BRANCH   6   7
ATOM      7  C   UNL A   1      32.534  22.327  25.071  1.00  0.00    -0.013 A 
ATOM      8  C   UNL A   1      32.390  18.940  23.294  1.00  0.00     0.044 C 
ATOM      9  C   UNL A   1      32.293  20.414  23.548  1.00  0.00    -0.051 A 
ATOM     10  C   UNL A   1      32.169  21.310  22.495  1.00  0.00     0.005 A 
ATOM     11  C   UNL A   1      32.396  20.929  24.838  1.00  0.00     0.009 A 
ATOM     12  C   UNL A   1      32.222  22.690  22.726  1.00  0.00     0.026 A 
ATOM     13  C   UNL A   1      32.442  23.242  24.004  1.00  0.00     0.042 A 
BRANCH  13  14
ATOM     14  N   UNL A   1      32.625  24.643  24.182  1.00  0.00    -0.352 N 
ATOM     15  H   UNL A   1      33.541  24.932  24.395  1.00  0.00     0.167 HD
BRANCH  14  16
ATOM     16  C   UNL A   1      31.654  25.680  24.092  1.00  0.00     0.094 A 
ATOM     17  C   UNL A   1      30.390  25.547  24.684  1.00  0.00     0.148 A 
ATOM     18  C   UNL A   1      31.836  26.800  23.257  1.00  0.00     0.067 A 
ATOM     19  F   UNL A   1      30.181  24.603  25.614  1.00  0.00    -0.205 F 
ATOM     20  C   UNL A   1      29.312  26.355  24.329  1.00  0.00     0.041 A 
ATOM     21  C   UNL A   1      30.745  27.580  22.844  1.00  0.00     0.023 A 
ATOM     22  Cl  UNL A   1      33.408  27.312  22.749  1.00  0.00    -0.082 Cl
ATOM     23  C   UNL A   1      29.474  27.335  23.358  1.00  0.00     0.005 A 
ENDBRANCH  14  16
ENDBRANCH  13  14
ENDBRANCH   6   7
ENDBRANCH   4   6
ENDBRANCH   3   4
ENDBRANCH   2   3
ENDBRANCH   1   2
BRANCH   1  24
ATOM     24  O   UNL A   1      38.152  21.456  25.089  1.00  0.00    -0.374 OA
BRANCH  24  25
ATOM     25  C   UNL A   1      38.657  22.335  26.076  1.00  0.00     0.202 C 
BRANCH  25  26
ATOM     26  C   UNL A   1      40.180  22.226  26.151  1.00  0.00     0.261 C 
BRANCH  26  27
ATOM     27  O   UNL A   1      40.585  20.855  26.359  1.00  0.00    -0.460 OA
BRANCH  27  28
ATOM     28  C   UNL A   1      41.897  20.617  26.095  1.00  0.00     0.338 C 
ATOM     29  O   UNL A   1      42.325  19.626  25.508  1.00  0.00    -0.246 OA
BRANCH  28  30
ATOM     30  C   UNL A   1      42.757  21.575  26.844  1.00  0.00     0.060 A 
ATOM     31  C   UNL A   1      42.512  21.747  28.219  1.00  0.00     0.016 A 
ATOM     32  C   UNL A   1      43.449  22.547  26.123  1.00  0.00     0.016 A 
ATOM     33  C   UNL A   1      42.751  22.987  28.814  1.00  0.00     0.010 A 
ATOM     34  C   UNL A   1      43.547  23.806  26.678  1.00  0.00     0.010 A 
ATOM     35  C   UNL A   1      43.157  24.044  28.007  1.00  0.00    -0.014 A 
BRANCH  35  36
ATOM     36  C   UNL A   1      43.102  25.455  28.385  1.00  0.00     0.031 A 
ATOM     37  C   UNL A   1      41.901  26.236  28.050  1.00  0.00     0.074 A 
ATOM     38  C   UNL A   1      44.004  25.972  29.250  1.00  0.00     0.049 A 
ATOM     39  N   UNL A   1      41.818  27.505  28.227  1.00  0.00    -0.248 NA
ATOM     40  C   UNL A   1      40.707  25.680  27.415  1.00  0.00     0.031 C 
ATOM     41  C   UNL A   1      43.846  27.106  30.167  1.00  0.00     0.029 A 
ATOM     42  N   UNL A   1      45.317  25.585  29.460  1.00  0.00    -0.354 N 
ATOM     43  C   UNL A   1      40.495  27.842  28.125  1.00  0.00     0.074 A 
ATOM     44  C   UNL A   1      39.872  26.721  27.473  1.00  0.00     0.031 C 
ATOM     45  C   UNL A   1      45.047  27.453  30.662  1.00  0.00     0.029 A 
ATOM     46  C   UNL A   1      46.044  26.664  29.962  1.00  0.00     0.049 A 
ATOM     47  H   UNL A   1      45.680  24.688  29.281  1.00  0.00     0.167 HD
ATOM     48  C   UNL A   1      40.082  28.983  28.738  1.00  0.00     0.031 A 
ATOM     49  C   UNL A   1      47.156  27.128  29.327  1.00  0.00     0.031 A 
ATOM     50  C   UNL A   1      41.224  29.776  29.225  1.00  0.00     0.049 A 
ATOM     51  C   UNL A   1      46.846  28.487  28.724  1.00  0.00     0.074 A 
ATOM     52  C   UNL A   1      41.711  30.130  30.471  1.00  0.00     0.029 A 
ATOM     53  N   UNL A   1      42.253  30.065  28.330  1.00  0.00    -0.354 N 
ATOM     54  N   UNL A   1      45.663  29.040  28.792  1.00  0.00    -0.248 NA
ATOM     55  C   UNL A   1      47.782  29.324  27.986  1.00  0.00     0.031 C 
ATOM     56  C   UNL A   1      43.052  30.607  30.304  1.00  0.00     0.029 A 
ATOM     57  C   UNL A   1      43.364  30.594  28.954  1.00  0.00     0.049 A 
ATOM     58  H   UNL A   1      42.193  29.909  27.360  1.00  0.00     0.167 HD
ATOM     59  C   UNL A   1      45.642  30.245  28.164  1.00  0.00     0.074 A 
ATOM     60  C   UNL A   1      46.992  30.355  27.622  1.00  0.00     0.031 C 
ATOM     61  C   UNL A   1      44.512  31.020  28.145  1.00  0.00     0.031 A 
BRANCH  48  62
ATOM     62  C   UNL A   1      38.634  29.303  29.031  1.00  0.00    -0.014 A 
ATOM     63  C   UNL A   1      38.142  29.139  30.337  1.00  0.00     0.009 A 
ATOM     64  C   UNL A   1      37.685  29.691  28.065  1.00  0.00     0.009 A 
ATOM     65  C   UNL A   1      36.792  29.357  30.655  1.00  0.00     0.001 A 
ATOM     66  C   UNL A   1      36.342  29.942  28.379  1.00  0.00     0.001 A 
ATOM     67  C   UNL A   1      35.893  29.769  29.678  1.00  0.00     0.000 A 
ENDBRANCH  48  62
BRANCH  49  68
ATOM     68  C   UNL A   1      47.961  25.991  28.771  1.00  0.00    -0.014 A 
ATOM     69  C   UNL A   1      47.841  25.796  27.370  1.00  0.00     0.009 A 
ATOM     70  C   UNL A   1      49.159  25.592  29.389  1.00  0.00     0.009 A 
ATOM     71  C   UNL A   1      48.947  25.427  26.595  1.00  0.00     0.001 A 
ATOM     72  C   UNL A   1      50.260  25.207  28.602  1.00  0.00     0.001 A 
ATOM     73  C   UNL A   1      50.169  25.179  27.208  1.00  0.00     0.000 A 
ENDBRANCH  49  68
BRANCH  61  74
ATOM     74  C   UNL A   1      44.362  32.262  27.302  1.00  0.00    -0.014 A 
ATOM     75  C   UNL A   1      44.301  32.257  25.907  1.00  0.00     0.009 A 
ATOM     76  C   UNL A   1      44.297  33.526  27.929  1.00  0.00     0.009 A 
ATOM     77  C   UNL A   1      44.036  33.431  25.190  1.00  0.00     0.001 A 
ATOM     78  C   UNL A   1      44.064  34.703  27.222  1.00  0.00     0.001 A 
ATOM     79  C   UNL A   1      43.899  34.649  25.849  1.00  0.00     0.000 A 
ENDBRANCH  61  74
ENDBRANCH  35  36
ENDBRANCH  28  30
ENDBRANCH  27  28
ENDBRANCH  26  27
ENDBRANCH  25  26
ENDBRANCH  24  25
ENDBRANCH   1  24
TORSDOF 17
ENDMDL
