MODEL 1
REMARK VINA RESULT:      -8.6      0.000      0.000
REMARK SMILES O=C(OCCOCCOC(=O)c1ccc(S(=O)(=O)NCc2ccn[nH]2)c(F)c1)c1ccc(-c2c3nc(c(-c4ccccc4)c4ccc([nH]4)c(-c4ccccc4)c4nc(c(-c5ccccc5)c5ccc2[nH]5)C=C4)C=C3)cc1
REMARK SMILES IDX 7 1 6 2 5 3 4 4 3 5 2 6 1 7 29 8 30 9 76 10 31 11 75 12
REMARK SMILES IDX 32 13 33 14 34 15 69 16 35 17 74 18 68 19 70 20 36 21 73 22
REMARK SMILES IDX 67 23 66 24 37 26 59 27 44 28 58 29 45 30 48 31 57 32 71 33
REMARK SMILES IDX 46 34 47 35 56 37 72 38 49 39 38 40 39 41 43 42 40 43 42 44
REMARK SMILES IDX 41 45 60 46 61 47 65 48 62 49 64 50 63 51 50 52 51 53 55 54
REMARK SMILES IDX 52 55 54 56 53 57 8 58 9 59 10 60 11 61 12 62 13 63 28 64
REMARK SMILES IDX 14 65 26 66 15 67 27 68 16 69 17 70 18 71 19 72 20 74 21 75
REMARK SMILES IDX 22 76 25 77 23 78 24 79
REMARK H PARENT 70 25 48 36 19 73 25 80
REMARK Flexibility Score: inf
ROOT
ATOM      1  C   UNL A   1      45.734  21.773  25.561  1.00  0.00     0.202 C 
ENDROOT
BRANCH   1   2
ATOM      2  O   UNL A   1      46.224  20.452  25.294  1.00  0.00    -0.374 OA
BRANCH   2   3
ATOM      3  C   UNL A   1      45.351  19.604  24.547  1.00  0.00     0.202 C 
BRANCH   3   4
ATOM      4  C   UNL A   1      44.286  18.907  25.395  1.00  0.00     0.261 C 
BRANCH   4   5
ATOM      5  O   UNL A   1      42.971  19.299  24.964  1.00  0.00    -0.460 OA
BRANCH   5   6
ATOM      6  C   UNL A   1      42.001  19.922  25.674  1.00  0.00     0.338 C 
ATOM      7  O   UNL A   1      40.902  19.381  25.770  1.00  0.00    -0.246 OA
BRANCH   6   8
ATOM      8  C   UNL A   1      42.192  21.236  26.360  1.00  0.00     0.060 A 
ATOM      9  C   UNL A   1      42.241  22.471  25.713  1.00  0.00     0.016 A 
ATOM     10  C   UNL A   1      42.221  21.226  27.764  1.00  0.00     0.016 A 
ATOM     11  C   UNL A   1      42.380  23.656  26.418  1.00  0.00     0.010 A 
ATOM     12  C   UNL A   1      42.313  22.419  28.489  1.00  0.00     0.010 A 
ATOM     13  C   UNL A   1      42.406  23.637  27.809  1.00  0.00    -0.014 A 
BRANCH  13  14
ATOM     14  C   UNL A   1      42.610  24.917  28.505  1.00  0.00     0.031 A 
ATOM     15  C   UNL A   1      43.991  25.269  28.963  1.00  0.00     0.074 A 
ATOM     16  C   UNL A   1      41.593  25.793  28.584  1.00  0.00     0.049 A 
ATOM     17  N   UNL A   1      44.404  26.334  29.592  1.00  0.00    -0.248 NA
ATOM     18  C   UNL A   1      45.052  24.295  28.652  1.00  0.00     0.031 C 
ATOM     19  C   UNL A   1      40.248  25.575  28.041  1.00  0.00     0.029 A 
ATOM     20  N   UNL A   1      41.539  27.055  29.110  1.00  0.00    -0.354 N 
ATOM     21  C   UNL A   1      45.767  26.149  29.777  1.00  0.00     0.074 A 
ATOM     22  C   UNL A   1      46.112  24.871  29.197  1.00  0.00     0.031 C 
ATOM     23  C   UNL A   1      39.513  26.681  28.237  1.00  0.00     0.029 A 
ATOM     24  C   UNL A   1      40.309  27.651  28.977  1.00  0.00     0.049 A 
ATOM     25  H   UNL A   1      42.308  27.493  29.542  1.00  0.00     0.167 HD
ATOM     26  C   UNL A   1      46.644  26.974  30.393  1.00  0.00     0.031 A 
ATOM     27  C   UNL A   1      39.875  28.839  29.437  1.00  0.00     0.031 A 
ATOM     28  C   UNL A   1      46.265  28.229  30.981  1.00  0.00     0.049 A 
ATOM     29  C   UNL A   1      40.845  29.687  30.211  1.00  0.00     0.074 A 
ATOM     30  C   UNL A   1      47.038  29.121  31.698  1.00  0.00     0.029 A 
ATOM     31  N   UNL A   1      44.986  28.765  30.913  1.00  0.00    -0.354 N 
ATOM     32  N   UNL A   1      42.119  29.476  30.448  1.00  0.00    -0.248 NA
ATOM     33  C   UNL A   1      40.318  30.927  30.794  1.00  0.00     0.031 C 
ATOM     34  C   UNL A   1      46.214  30.175  32.105  1.00  0.00     0.029 A 
ATOM     35  C   UNL A   1      44.940  29.967  31.593  1.00  0.00     0.049 A 
ATOM     36  H   UNL A   1      44.223  28.350  30.449  1.00  0.00     0.167 HD
ATOM     37  C   UNL A   1      42.551  30.560  31.199  1.00  0.00     0.074 A 
ATOM     38  C   UNL A   1      41.406  31.438  31.354  1.00  0.00     0.031 C 
ATOM     39  C   UNL A   1      43.777  30.808  31.722  1.00  0.00     0.031 A 
BRANCH  26  40
ATOM     40  C   UNL A   1      48.057  26.483  30.528  1.00  0.00    -0.014 A 
ATOM     41  C   UNL A   1      49.006  26.676  29.512  1.00  0.00     0.009 A 
ATOM     42  C   UNL A   1      48.429  25.768  31.677  1.00  0.00     0.009 A 
ATOM     43  C   UNL A   1      50.286  26.128  29.627  1.00  0.00     0.001 A 
ATOM     44  C   UNL A   1      49.717  25.243  31.801  1.00  0.00     0.001 A 
ATOM     45  C   UNL A   1      50.640  25.412  30.771  1.00  0.00     0.000 A 
ENDBRANCH  26  40
BRANCH  27  46
ATOM     46  C   UNL A   1      38.461  29.256  29.236  1.00  0.00    -0.014 A 
ATOM     47  C   UNL A   1      37.519  29.145  30.268  1.00  0.00     0.009 A 
ATOM     48  C   UNL A   1      38.042  29.762  27.994  1.00  0.00     0.009 A 
ATOM     49  C   UNL A   1      36.186  29.513  30.055  1.00  0.00     0.001 A 
ATOM     50  C   UNL A   1      36.717  30.158  27.793  1.00  0.00     0.001 A 
ATOM     51  C   UNL A   1      35.789  30.023  28.821  1.00  0.00     0.000 A 
ENDBRANCH  27  46
BRANCH  39  52
ATOM     52  C   UNL A   1      43.938  32.092  32.480  1.00  0.00    -0.014 A 
ATOM     53  C   UNL A   1      43.735  32.146  33.867  1.00  0.00     0.009 A 
ATOM     54  C   UNL A   1      44.345  33.250  31.799  1.00  0.00     0.009 A 
ATOM     55  C   UNL A   1      43.911  33.347  34.554  1.00  0.00     0.001 A 
ATOM     56  C   UNL A   1      44.548  34.440  32.494  1.00  0.00     0.001 A 
ATOM     57  C   UNL A   1      44.323  34.490  33.869  1.00  0.00     0.000 A 
ENDBRANCH  39  52
ENDBRANCH  13  14
ENDBRANCH   6   8
ENDBRANCH   5   6
ENDBRANCH   4   5
ENDBRANCH   3   4
ENDBRANCH   2   3
ENDBRANCH   1   2
BRANCH   1  58
ATOM     58  C   UNL A   1      45.820  22.605  24.279  1.00  0.00     0.261 C 
BRANCH  58  59
ATOM     59  O   UNL A   1      45.351  23.929  24.579  1.00  0.00    -0.460 OA
BRANCH  59  60
ATOM     60  C   UNL A   1      46.326  24.868  24.677  1.00  0.00     0.338 C 
ATOM     61  O   UNL A   1      47.438  24.840  24.179  1.00  0.00    -0.246 OA
BRANCH  60  62
ATOM     62  C   UNL A   1      45.752  26.066  25.332  1.00  0.00     0.063 A 
ATOM     63  C   UNL A   1      46.553  26.947  26.066  1.00  0.00     0.017 A 
ATOM     64  C   UNL A   1      44.369  26.280  25.243  1.00  0.00     0.056 A 
ATOM     65  C   UNL A   1      45.975  28.056  26.681  1.00  0.00     0.026 A 
ATOM     66  C   UNL A   1      43.797  27.390  25.864  1.00  0.00     0.144 A 
ATOM     67  C   UNL A   1      44.595  28.283  26.562  1.00  0.00     0.118 A 
ATOM     68  F   UNL A   1      42.471  27.558  25.789  1.00  0.00    -0.205 F 
BRANCH  67  69
ATOM     69  S   UNL A   1      43.930  29.787  27.195  1.00  0.00     0.243 S 
ATOM     70  O   UNL A   1      42.495  29.620  27.236  1.00  0.00    -0.207 OA
ATOM     71  O   UNL A   1      44.669  30.086  28.402  1.00  0.00    -0.207 OA
BRANCH  69  72
ATOM     72  N   UNL A   1      44.281  31.017  26.127  1.00  0.00    -0.205 NA
ATOM     73  H   UNL A   1      43.399  31.505  25.972  1.00  0.00     0.141 HD
BRANCH  72  74
ATOM     74  C   UNL A   1      45.263  32.054  26.362  1.00  0.00     0.154 C 
BRANCH  74  75
ATOM     75  C   UNL A   1      44.669  33.314  26.865  1.00  0.00     0.050 A 
ATOM     76  C   UNL A   1      43.994  33.668  28.016  1.00  0.00     0.046 A 
ATOM     77  N   UNL A   1      44.653  34.448  26.090  1.00  0.00    -0.281 N 
ATOM     78  C   UNL A   1      43.570  34.992  27.808  1.00  0.00     0.135 A 
ATOM     79  N   UNL A   1      43.965  35.466  26.627  1.00  0.00    -0.184 NA
ATOM     80  H   UNL A   1      45.106  34.508  25.218  1.00  0.00     0.190 HD
ENDBRANCH  74  75
ENDBRANCH  72  74
ENDBRANCH  69  72
ENDBRANCH  67  69
ENDBRANCH  60  62
ENDBRANCH  59  60
ENDBRANCH  58  59
ENDBRANCH   1  58
TORSDOF 18
ENDMDL
MODEL 2
REMARK VINA RESULT:      -8.0      5.152      7.400
REMARK SMILES O=C(OCCOCCOC(=O)c1ccc(S(=O)(=O)NCc2ccn[nH]2)c(F)c1)c1ccc(-c2c3nc(c(-c4ccccc4)c4ccc([nH]4)c(-c4ccccc4)c4nc(c(-c5ccccc5)c5ccc2[nH]5)C=C4)C=C3)cc1
REMARK SMILES IDX 7 1 6 2 5 3 4 4 3 5 2 6 1 7 29 8 30 9 76 10 31 11 75 12
REMARK SMILES IDX 32 13 33 14 34 15 69 16 35 17 74 18 68 19 70 20 36 21 73 22
REMARK SMILES IDX 67 23 66 24 37 26 59 27 44 28 58 29 45 30 48 31 57 32 71 33
REMARK SMILES IDX 46 34 47 35 56 37 72 38 49 39 38 40 39 41 43 42 40 43 42 44
REMARK SMILES IDX 41 45 60 46 61 47 65 48 62 49 64 50 63 51 50 52 51 53 55 54
REMARK SMILES IDX 52 55 54 56 53 57 8 58 9 59 10 60 11 61 12 62 13 63 28 64
REMARK SMILES IDX 14 65 26 66 15 67 27 68 16 69 17 70 18 71 19 72 20 74 21 75
REMARK SMILES IDX 22 76 25 77 23 78 24 79
REMARK H PARENT 70 25 48 36 19 73 25 80
REMARK Flexibility Score: inf
ROOT
ATOM      1  C   UNL A   1      37.226  22.439  25.076  1.00  0.00     0.202 C 
ENDROOT
BRANCH   1   2
ATOM      2  O   UNL A   1      38.350  21.622  25.427  1.00  0.00    -0.374 OA
BRANCH   2   3
ATOM      3  C   UNL A   1      38.327  20.285  24.928  1.00  0.00     0.202 C 
BRANCH   3   4
ATOM      4  C   UNL A   1      39.012  19.268  25.845  1.00  0.00     0.261 C 
BRANCH   4   5
ATOM      5  O   UNL A   1      40.358  19.025  25.400  1.00  0.00    -0.460 OA
BRANCH   5   6
ATOM      6  C   UNL A   1      41.520  19.371  26.001  1.00  0.00     0.338 C 
ATOM      7  O   UNL A   1      42.359  18.497  26.208  1.00  0.00    -0.246 OA
BRANCH   6   8
ATOM      8  C   UNL A   1      41.849  20.765  26.427  1.00  0.00     0.060 A 
ATOM      9  C   UNL A   1      42.030  21.841  25.558  1.00  0.00     0.016 A 
ATOM     10  C   UNL A   1      41.876  21.022  27.808  1.00  0.00     0.016 A 
ATOM     11  C   UNL A   1      42.293  23.118  26.027  1.00  0.00     0.010 A 
ATOM     12  C   UNL A   1      42.094  22.315  28.294  1.00  0.00     0.010 A 
ATOM     13  C   UNL A   1      42.316  23.364  27.396  1.00  0.00    -0.014 A 
BRANCH  13  14
ATOM     14  C   UNL A   1      42.655  24.725  27.840  1.00  0.00     0.031 A 
ATOM     15  C   UNL A   1      44.095  25.130  27.866  1.00  0.00     0.074 A 
ATOM     16  C   UNL A   1      41.667  25.608  28.069  1.00  0.00     0.049 A 
ATOM     17  N   UNL A   1      44.625  26.268  28.219  1.00  0.00    -0.248 NA
ATOM     18  C   UNL A   1      45.069  24.119  27.417  1.00  0.00     0.031 C 
ATOM     19  C   UNL A   1      40.235  25.323  27.934  1.00  0.00     0.029 A 
ATOM     20  N   UNL A   1      41.713  26.929  28.421  1.00  0.00    -0.354 N 
ATOM     21  C   UNL A   1      45.995  26.104  28.060  1.00  0.00     0.074 A 
ATOM     22  C   UNL A   1      46.216  24.759  27.582  1.00  0.00     0.031 C 
ATOM     23  C   UNL A   1      39.541  26.449  28.170  1.00  0.00     0.029 A 
ATOM     24  C   UNL A   1      40.473  27.507  28.540  1.00  0.00     0.049 A 
ATOM     25  H   UNL A   1      42.554  27.418  28.573  1.00  0.00     0.167 HD
ATOM     26  C   UNL A   1      46.976  27.002  28.309  1.00  0.00     0.031 A 
ATOM     27  C   UNL A   1      40.137  28.747  28.938  1.00  0.00     0.031 A 
ATOM     28  C   UNL A   1      46.724  28.325  28.806  1.00  0.00     0.049 A 
ATOM     29  C   UNL A   1      41.249  29.689  29.312  1.00  0.00     0.074 A 
ATOM     30  C   UNL A   1      47.630  29.303  29.170  1.00  0.00     0.029 A 
ATOM     31  N   UNL A   1      45.455  28.853  29.009  1.00  0.00    -0.354 N 
ATOM     32  N   UNL A   1      42.546  29.506  29.229  1.00  0.00    -0.248 NA
ATOM     33  C   UNL A   1      40.854  30.997  29.845  1.00  0.00     0.031 C 
ATOM     34  C   UNL A   1      46.908  30.406  29.639  1.00  0.00     0.029 A 
ATOM     35  C   UNL A   1      45.552  30.135  29.513  1.00  0.00     0.049 A 
ATOM     36  H   UNL A   1      44.611  28.382  28.822  1.00  0.00     0.167 HD
ATOM     37  C   UNL A   1      43.125  30.679  29.690  1.00  0.00     0.074 A 
ATOM     38  C   UNL A   1      42.033  31.575  30.026  1.00  0.00     0.031 C 
ATOM     39  C   UNL A   1      44.437  30.990  29.834  1.00  0.00     0.031 A 
BRANCH  26  40
ATOM     40  C   UNL A   1      48.389  26.527  28.129  1.00  0.00    -0.014 A 
ATOM     41  C   UNL A   1      49.069  26.679  26.910  1.00  0.00     0.009 A 
ATOM     42  C   UNL A   1      49.033  25.871  29.188  1.00  0.00     0.009 A 
ATOM     43  C   UNL A   1      50.351  26.146  26.745  1.00  0.00     0.001 A 
ATOM     44  C   UNL A   1      50.324  25.361  29.029  1.00  0.00     0.001 A 
ATOM     45  C   UNL A   1      50.976  25.488  27.804  1.00  0.00     0.000 A 
ENDBRANCH  26  40
BRANCH  27  46
ATOM     46  C   UNL A   1      38.707  29.139  29.065  1.00  0.00    -0.014 A 
ATOM     47  C   UNL A   1      38.006  29.685  27.981  1.00  0.00     0.009 A 
ATOM     48  C   UNL A   1      38.033  28.974  30.288  1.00  0.00     0.009 A 
ATOM     49  C   UNL A   1      36.671  30.076  28.123  1.00  0.00     0.001 A 
ATOM     50  C   UNL A   1      36.691  29.337  30.419  1.00  0.00     0.001 A 
ATOM     51  C   UNL A   1      36.014  29.897  29.339  1.00  0.00     0.000 A 
ENDBRANCH  27  46
BRANCH  39  52
ATOM     52  C   UNL A   1      44.750  32.365  30.347  1.00  0.00    -0.014 A 
ATOM     53  C   UNL A   1      44.733  33.479  29.494  1.00  0.00     0.009 A 
ATOM     54  C   UNL A   1      45.020  32.549  31.711  1.00  0.00     0.009 A 
ATOM     55  C   UNL A   1      45.007  34.751  29.997  1.00  0.00     0.001 A 
ATOM     56  C   UNL A   1      45.264  33.824  32.216  1.00  0.00     0.001 A 
ATOM     57  C   UNL A   1      45.266  34.923  31.357  1.00  0.00     0.000 A 
ENDBRANCH  39  52
ENDBRANCH  13  14
ENDBRANCH   6   8
ENDBRANCH   5   6
ENDBRANCH   4   5
ENDBRANCH   3   4
ENDBRANCH   2   3
ENDBRANCH   1   2
BRANCH   1  58
ATOM     58  C   UNL A   1      36.028  21.535  24.771  1.00  0.00     0.261 C 
BRANCH  58  59
ATOM     59  O   UNL A   1      35.062  22.312  24.044  1.00  0.00    -0.460 OA
BRANCH  59  60
ATOM     60  C   UNL A   1      33.947  22.633  24.748  1.00  0.00     0.338 C 
ATOM     61  O   UNL A   1      33.382  21.962  25.594  1.00  0.00    -0.246 OA
BRANCH  60  62
ATOM     62  C   UNL A   1      33.619  24.051  24.476  1.00  0.00     0.063 A 
ATOM     63  C   UNL A   1      32.919  24.427  23.325  1.00  0.00     0.017 A 
ATOM     64  C   UNL A   1      34.069  25.028  25.376  1.00  0.00     0.056 A 
ATOM     65  C   UNL A   1      32.642  25.773  23.094  1.00  0.00     0.026 A 
ATOM     66  C   UNL A   1      33.790  26.373  25.137  1.00  0.00     0.144 A 
ATOM     67  C   UNL A   1      33.065  26.744  24.015  1.00  0.00     0.118 A 
ATOM     68  F   UNL A   1      34.254  27.289  25.997  1.00  0.00    -0.205 F 
BRANCH  67  69
ATOM     69  S   UNL A   1      32.540  28.410  23.787  1.00  0.00     0.243 S 
ATOM     70  O   UNL A   1      31.758  28.761  24.951  1.00  0.00    -0.207 OA
ATOM     71  O   UNL A   1      33.722  29.169  23.441  1.00  0.00    -0.207 OA
BRANCH  69  72
ATOM     72  N   UNL A   1      31.545  28.478  22.451  1.00  0.00    -0.205 NA
ATOM     73  H   UNL A   1      31.900  27.771  21.808  1.00  0.00     0.141 HD
BRANCH  72  74
ATOM     74  C   UNL A   1      30.111  28.287  22.485  1.00  0.00     0.154 C 
BRANCH  74  75
ATOM     75  C   UNL A   1      29.354  29.560  22.476  1.00  0.00     0.050 A 
ATOM     76  C   UNL A   1      28.120  29.949  22.959  1.00  0.00     0.046 A 
ATOM     77  N   UNL A   1      29.834  30.665  21.817  1.00  0.00    -0.281 N 
ATOM     78  C   UNL A   1      27.934  31.261  22.492  1.00  0.00     0.135 A 
ATOM     79  N   UNL A   1      28.977  31.696  21.785  1.00  0.00    -0.184 NA
ATOM     80  H   UNL A   1      30.727  30.696  21.404  1.00  0.00     0.190 HD
ENDBRANCH  74  75
ENDBRANCH  72  74
ENDBRANCH  69  72
ENDBRANCH  67  69
ENDBRANCH  60  62
ENDBRANCH  59  60
ENDBRANCH  58  59
ENDBRANCH   1  58
TORSDOF 18
ENDMDL
MODEL 3
REMARK VINA RESULT:      -8.0      6.538     12.425
REMARK SMILES O=C(OCCOCCOC(=O)c1ccc(S(=O)(=O)NCc2ccn[nH]2)c(F)c1)c1ccc(-c2c3nc(c(-c4ccccc4)c4ccc([nH]4)c(-c4ccccc4)c4nc(c(-c5ccccc5)c5ccc2[nH]5)C=C4)C=C3)cc1
REMARK SMILES IDX 7 1 6 2 5 3 4 4 3 5 2 6 1 7 29 8 30 9 76 10 31 11 75 12
REMARK SMILES IDX 32 13 33 14 34 15 69 16 35 17 74 18 68 19 70 20 36 21 73 22
REMARK SMILES IDX 67 23 66 24 37 26 59 27 44 28 58 29 45 30 48 31 57 32 71 33
REMARK SMILES IDX 46 34 47 35 56 37 72 38 49 39 38 40 39 41 43 42 40 43 42 44
REMARK SMILES IDX 41 45 60 46 61 47 65 48 62 49 64 50 63 51 50 52 51 53 55 54
REMARK SMILES IDX 52 55 54 56 53 57 8 58 9 59 10 60 11 61 12 62 13 63 28 64
REMARK SMILES IDX 14 65 26 66 15 67 27 68 16 69 17 70 18 71 19 72 20 74 21 75
REMARK SMILES IDX 22 76 25 77 23 78 24 79
REMARK H PARENT 70 25 48 36 19 73 25 80
REMARK Flexibility Score: inf
ROOT
ATOM      1  C   UNL A   1      34.523  34.748  29.011  1.00  0.00     0.202 C 
ENDROOT
BRANCH   1   2
ATOM      2  O   UNL A   1      33.899  36.009  28.741  1.00  0.00    -0.374 OA
BRANCH   2   3
ATOM      3  C   UNL A   1      32.836  36.378  29.621  1.00  0.00     0.202 C 
BRANCH   3   4
ATOM      4  C   UNL A   1      33.264  37.316  30.752  1.00  0.00     0.261 C 
BRANCH   4   5
ATOM      5  O   UNL A   1      32.812  36.807  32.018  1.00  0.00    -0.460 OA
BRANCH   5   6
ATOM      6  C   UNL A   1      32.819  35.528  32.464  1.00  0.00     0.338 C 
ATOM      7  O   UNL A   1      31.748  34.935  32.568  1.00  0.00    -0.246 OA
BRANCH   6   8
ATOM      8  C   UNL A   1      34.063  34.787  32.834  1.00  0.00     0.060 A 
ATOM      9  C   UNL A   1      34.099  33.470  33.292  1.00  0.00     0.016 A 
ATOM     10  C   UNL A   1      35.287  35.438  32.606  1.00  0.00     0.016 A 
ATOM     11  C   UNL A   1      35.295  32.831  33.579  1.00  0.00     0.010 A 
ATOM     12  C   UNL A   1      36.502  34.788  32.847  1.00  0.00     0.010 A 
ATOM     13  C   UNL A   1      36.502  33.483  33.347  1.00  0.00    -0.014 A 
BRANCH  13  14
ATOM     14  C   UNL A   1      37.739  32.780  33.721  1.00  0.00     0.031 A 
ATOM     15  C   UNL A   1      38.351  31.836  32.735  1.00  0.00     0.074 A 
ATOM     16  C   UNL A   1      38.361  33.108  34.868  1.00  0.00     0.049 A 
ATOM     17  N   UNL A   1      39.430  31.112  32.846  1.00  0.00    -0.248 NA
ATOM     18  C   UNL A   1      37.661  31.704  31.439  1.00  0.00     0.031 C 
ATOM     19  C   UNL A   1      37.893  34.118  35.822  1.00  0.00     0.029 A 
ATOM     20  N   UNL A   1      39.537  32.659  35.406  1.00  0.00    -0.354 N 
ATOM     21  C   UNL A   1      39.536  30.418  31.648  1.00  0.00     0.074 A 
ATOM     22  C   UNL A   1      38.413  30.805  30.825  1.00  0.00     0.031 C 
ATOM     23  C   UNL A   1      38.793  34.234  36.812  1.00  0.00     0.029 A 
ATOM     24  C   UNL A   1      39.856  33.260  36.599  1.00  0.00     0.049 A 
ATOM     25  H   UNL A   1      40.099  31.973  34.979  1.00  0.00     0.167 HD
ATOM     26  C   UNL A   1      40.485  29.527  31.283  1.00  0.00     0.031 A 
ATOM     27  C   UNL A   1      40.880  33.017  37.437  1.00  0.00     0.031 A 
ATOM     28  C   UNL A   1      41.577  29.146  32.135  1.00  0.00     0.049 A 
ATOM     29  C   UNL A   1      41.860  31.944  37.053  1.00  0.00     0.074 A 
ATOM     30  C   UNL A   1      42.560  28.201  31.915  1.00  0.00     0.029 A 
ATOM     31  N   UNL A   1      41.822  29.704  33.383  1.00  0.00    -0.354 N 
ATOM     32  N   UNL A   1      41.917  31.237  35.949  1.00  0.00    -0.248 NA
ATOM     33  C   UNL A   1      42.905  31.624  38.032  1.00  0.00     0.031 C 
ATOM     34  C   UNL A   1      43.373  28.154  33.053  1.00  0.00     0.029 A 
ATOM     35  C   UNL A   1      42.929  29.110  33.957  1.00  0.00     0.049 A 
ATOM     36  H   UNL A   1      41.285  30.418  33.798  1.00  0.00     0.167 HD
ATOM     37  C   UNL A   1      43.009  30.393  36.093  1.00  0.00     0.074 A 
ATOM     38  C   UNL A   1      43.600  30.699  37.383  1.00  0.00     0.031 C 
ATOM     39  C   UNL A   1      43.481  29.446  35.245  1.00  0.00     0.031 A 
BRANCH  26  40
ATOM     40  C   UNL A   1      40.308  28.857  29.950  1.00  0.00    -0.014 A 
ATOM     41  C   UNL A   1      40.799  29.428  28.766  1.00  0.00     0.009 A 
ATOM     42  C   UNL A   1      39.591  27.653  29.877  1.00  0.00     0.009 A 
ATOM     43  C   UNL A   1      40.539  28.827  27.531  1.00  0.00     0.001 A 
ATOM     44  C   UNL A   1      39.355  27.041  28.645  1.00  0.00     0.001 A 
ATOM     45  C   UNL A   1      39.817  27.634  27.472  1.00  0.00     0.000 A 
ENDBRANCH  26  40
BRANCH  27  46
ATOM     46  C   UNL A   1      40.989  33.748  38.728  1.00  0.00    -0.014 A 
ATOM     47  C   UNL A   1      41.726  34.937  38.829  1.00  0.00     0.009 A 
ATOM     48  C   UNL A   1      40.357  33.249  39.880  1.00  0.00     0.009 A 
ATOM     49  C   UNL A   1      41.845  35.597  40.056  1.00  0.00     0.001 A 
ATOM     50  C   UNL A   1      40.451  33.926  41.098  1.00  0.00     0.001 A 
ATOM     51  C   UNL A   1      41.204  35.094  41.187  1.00  0.00     0.000 A 
ENDBRANCH  27  46
BRANCH  39  52
ATOM     52  C   UNL A   1      44.709  28.703  35.682  1.00  0.00    -0.014 A 
ATOM     53  C   UNL A   1      44.611  27.503  36.404  1.00  0.00     0.009 A 
ATOM     54  C   UNL A   1      45.975  29.188  35.323  1.00  0.00     0.009 A 
ATOM     55  C   UNL A   1      45.766  26.818  36.782  1.00  0.00     0.001 A 
ATOM     56  C   UNL A   1      47.125  28.485  35.677  1.00  0.00     0.001 A 
ATOM     57  C   UNL A   1      47.020  27.305  36.413  1.00  0.00     0.000 A 
ENDBRANCH  39  52
ENDBRANCH  13  14
ENDBRANCH   6   8
ENDBRANCH   5   6
ENDBRANCH   4   5
ENDBRANCH   3   4
ENDBRANCH   2   3
ENDBRANCH   1   2
BRANCH   1  58
ATOM     58  C   UNL A   1      34.481  33.888  27.745  1.00  0.00     0.261 C 
BRANCH  58  59
ATOM     59  O   UNL A   1      33.673  32.733  28.023  1.00  0.00    -0.460 OA
BRANCH  59  60
ATOM     60  C   UNL A   1      34.373  31.598  28.275  1.00  0.00     0.338 C 
ATOM     61  O   UNL A   1      35.169  31.399  29.176  1.00  0.00    -0.246 OA
BRANCH  60  62
ATOM     62  C   UNL A   1      33.862  30.531  27.384  1.00  0.00     0.063 A 
ATOM     63  C   UNL A   1      34.576  29.344  27.187  1.00  0.00     0.017 A 
ATOM     64  C   UNL A   1      32.660  30.751  26.697  1.00  0.00     0.056 A 
ATOM     65  C   UNL A   1      34.070  28.368  26.331  1.00  0.00     0.026 A 
ATOM     66  C   UNL A   1      32.162  29.771  25.838  1.00  0.00     0.144 A 
ATOM     67  C   UNL A   1      32.851  28.579  25.670  1.00  0.00     0.118 A 
ATOM     68  F   UNL A   1      31.027  30.016  25.172  1.00  0.00    -0.205 F 
BRANCH  67  69
ATOM     69  S   UNL A   1      32.154  27.255  24.741  1.00  0.00     0.243 S 
ATOM     70  O   UNL A   1      33.118  26.178  24.767  1.00  0.00    -0.207 OA
ATOM     71  O   UNL A   1      30.816  27.054  25.254  1.00  0.00    -0.207 OA
BRANCH  69  72
ATOM     72  N   UNL A   1      31.969  27.750  23.160  1.00  0.00    -0.205 NA
ATOM     73  H   UNL A   1      32.712  27.284  22.639  1.00  0.00     0.141 HD
BRANCH  72  74
ATOM     74  C   UNL A   1      30.768  27.563  22.376  1.00  0.00     0.154 C 
BRANCH  74  75
ATOM     75  C   UNL A   1      29.892  28.757  22.360  1.00  0.00     0.050 A 
ATOM     76  C   UNL A   1      28.588  29.000  22.744  1.00  0.00     0.046 A 
ATOM     77  N   UNL A   1      30.316  29.940  21.806  1.00  0.00    -0.281 N 
ATOM     78  C   UNL A   1      28.314  30.314  22.328  1.00  0.00     0.135 A 
ATOM     79  N   UNL A   1      29.368  30.886  21.746  1.00  0.00    -0.184 NA
ATOM     80  H   UNL A   1      31.235  30.080  21.480  1.00  0.00     0.190 HD
ENDBRANCH  74  75
ENDBRANCH  72  74
ENDBRANCH  69  72
ENDBRANCH  67  69
ENDBRANCH  60  62
ENDBRANCH  59  60
ENDBRANCH  58  59
ENDBRANCH   1  58
TORSDOF 18
ENDMDL
