MODEL 1
REMARK VINA RESULT:      -9.0      0.000      0.000
REMARK SMILES CC(C)C[C@H](NC(=O)CNC(=O)[C@@H]([NH3+])C(C)C)C(=O)OCCOCCOC(=O)c1ccc(-c2c3nc(c(-c4ccccc4)c4ccc([nH]4)c(-c4ccccc4)c4nc(c(-c5ccccc5)c5ccc2[nH]5)C=C4)C=C3)cc1
REMARK SMILES IDX 21 1 20 2 18 3 19 4 5 5 4 6 2 7 1 8 3 9 6 10 7 11 8 13 9 14
REMARK SMILES IDX 10 15 11 16 12 18 13 19 14 20 15 24 16 25 17 26 22 27 23 28
REMARK SMILES IDX 24 29 25 30 26 31 27 32 28 33 29 34 30 35 76 36 31 37 75 38
REMARK SMILES IDX 32 39 33 40 34 41 69 42 35 43 74 44 68 45 70 46 36 47 73 48
REMARK SMILES IDX 67 49 66 50 37 52 59 53 44 54 58 55 45 56 48 57 57 58 71 59
REMARK SMILES IDX 46 60 47 61 56 63 72 64 49 65 38 66 39 67 43 68 40 69 42 70
REMARK SMILES IDX 41 71 60 72 61 73 65 74 62 75 64 76 63 77 50 78 51 79 55 80
REMARK SMILES IDX 52 81 54 82 53 83
REMARK H PARENT 6 12 10 17 14 21 14 22 14 23 70 51 48 62
REMARK Flexibility Score: inf
ROOT
ATOM      1  C   UNL A   1      35.620  22.476  25.637  1.00  0.00     0.261 C 
ENDROOT
BRANCH   1   2
ATOM      2  O   UNL A   1      34.974  22.024  24.440  1.00  0.00    -0.462 OA
BRANCH   2   3
ATOM      3  C   UNL A   1      34.811  22.976  23.478  1.00  0.00     0.328 C 
ATOM      4  O   UNL A   1      35.693  23.414  22.750  1.00  0.00    -0.250 OA
BRANCH   3   5
ATOM      5  C   UNL A   1      33.388  23.518  23.477  1.00  0.00     0.192 C 
BRANCH   5   6
ATOM      6  C   UNL A   1      32.363  22.453  23.900  1.00  0.00     0.040 C 
BRANCH   6   7
ATOM      7  C   UNL A   1      31.374  22.624  25.074  1.00  0.00    -0.015 C 
ATOM      8  C   UNL A   1      32.005  22.618  26.468  1.00  0.00     0.007 C 
ATOM      9  C   UNL A   1      30.667  23.979  24.882  1.00  0.00     0.007 C 
ENDBRANCH   6   7
ENDBRANCH   5   6
BRANCH   5  10
ATOM     10  N   UNL A   1      33.079  24.114  22.162  1.00  0.00    -0.341 N 
ATOM     11  C   UNL A   1      33.092  25.419  21.759  1.00  0.00     0.240 C 
ATOM     12  H   UNL A   1      32.822  23.468  21.465  1.00  0.00     0.164 HD
ATOM     13  O   UNL A   1      33.138  25.639  20.545  1.00  0.00    -0.273 OA
BRANCH  11  14
ATOM     14  C   UNL A   1      33.095  26.581  22.768  1.00  0.00     0.216 C 
BRANCH  14  15
ATOM     15  N   UNL A   1      31.750  27.104  22.948  1.00  0.00    -0.342 N 
ATOM     16  C   UNL A   1      31.065  27.600  24.008  1.00  0.00     0.278 C 
ATOM     17  H   UNL A   1      31.220  27.098  22.118  1.00  0.00     0.164 HD
ATOM     18  O   UNL A   1      29.857  27.791  23.810  1.00  0.00    -0.268 OA
BRANCH  16  19
ATOM     19  C   UNL A   1      31.673  27.920  25.405  1.00  0.00     0.273 C 
BRANCH  19  20
ATOM     20  N   UNL A   1      32.338  26.757  26.027  1.00  0.00    -0.347 N 
ATOM     21  H   UNL A   1      31.870  26.525  26.903  1.00  0.00     0.345 HD
ATOM     22  H   UNL A   1      33.315  26.983  26.212  1.00  0.00     0.345 HD
ATOM     23  H   UNL A   1      32.288  25.958  25.394  1.00  0.00     0.345 HD
ENDBRANCH  19  20
BRANCH  19  24
ATOM     24  C   UNL A   1      32.566  29.184  25.335  1.00  0.00     0.051 C 
ATOM     25  C   UNL A   1      31.897  30.361  26.065  1.00  0.00     0.014 C 
ATOM     26  C   UNL A   1      33.947  28.966  25.968  1.00  0.00     0.014 C 
ENDBRANCH  19  24
ENDBRANCH  16  19
ENDBRANCH  14  15
ENDBRANCH  11  14
ENDBRANCH   5  10
ENDBRANCH   3   5
ENDBRANCH   2   3
ENDBRANCH   1   2
BRANCH   1  27
ATOM     27  C   UNL A   1      37.123  22.202  25.629  1.00  0.00     0.202 C 
BRANCH  27  28
ATOM     28  O   UNL A   1      37.605  21.327  24.617  1.00  0.00    -0.374 OA
BRANCH  28  29
ATOM     29  C   UNL A   1      37.586  19.920  24.858  1.00  0.00     0.202 C 
BRANCH  29  30
ATOM     30  C   UNL A   1      38.895  19.280  25.325  1.00  0.00     0.261 C 
BRANCH  30  31
ATOM     31  O   UNL A   1      39.689  20.195  26.107  1.00  0.00    -0.460 OA
BRANCH  31  32
ATOM     32  C   UNL A   1      41.012  19.909  26.126  1.00  0.00     0.338 C 
ATOM     33  O   UNL A   1      41.564  18.914  25.687  1.00  0.00    -0.246 OA
BRANCH  32  34
ATOM     34  C   UNL A   1      41.782  21.065  26.611  1.00  0.00     0.060 A 
ATOM     35  C   UNL A   1      41.817  21.279  27.995  1.00  0.00     0.016 A 
ATOM     36  C   UNL A   1      42.309  22.008  25.728  1.00  0.00     0.016 A 
ATOM     37  C   UNL A   1      42.313  22.476  28.500  1.00  0.00     0.010 A 
ATOM     38  C   UNL A   1      42.797  23.217  26.237  1.00  0.00     0.010 A 
ATOM     39  C   UNL A   1      42.752  23.474  27.620  1.00  0.00    -0.014 A 
BRANCH  39  40
ATOM     40  C   UNL A   1      42.976  24.841  28.146  1.00  0.00     0.031 A 
ATOM     41  C   UNL A   1      44.382  25.276  28.465  1.00  0.00     0.074 A 
ATOM     42  C   UNL A   1      41.956  25.708  28.268  1.00  0.00     0.049 A 
ATOM     43  N   UNL A   1      44.814  26.433  28.899  1.00  0.00    -0.248 NA
ATOM     44  C   UNL A   1      45.443  24.275  28.261  1.00  0.00     0.031 C 
ATOM     45  C   UNL A   1      40.561  25.426  27.937  1.00  0.00     0.029 A 
ATOM     46  N   UNL A   1      41.947  27.010  28.699  1.00  0.00    -0.354 N 
ATOM     47  C   UNL A   1      46.191  26.297  29.024  1.00  0.00     0.074 A 
ATOM     48  C   UNL A   1      46.521  24.941  28.647  1.00  0.00     0.031 C 
ATOM     49  C   UNL A   1      39.828  26.527  28.174  1.00  0.00     0.029 A 
ATOM     50  C   UNL A   1      40.698  27.578  28.698  1.00  0.00     0.049 A 
ATOM     51  H   UNL A   1      42.758  27.491  28.980  1.00  0.00     0.167 HD
ATOM     52  C   UNL A   1      47.103  27.221  29.410  1.00  0.00     0.031 A 
ATOM     53  C   UNL A   1      40.301  28.804  29.088  1.00  0.00     0.031 A 
ATOM     54  C   UNL A   1      46.778  28.567  29.800  1.00  0.00     0.049 A 
ATOM     55  C   UNL A   1      41.324  29.787  29.593  1.00  0.00     0.074 A 
ATOM     56  C   UNL A   1      47.631  29.580  30.201  1.00  0.00     0.029 A 
ATOM     57  N   UNL A   1      45.493  29.084  29.841  1.00  0.00    -0.354 N 
ATOM     58  N   UNL A   1      42.624  29.653  29.687  1.00  0.00    -0.248 NA
ATOM     59  C   UNL A   1      40.819  31.093  30.039  1.00  0.00     0.031 C 
ATOM     60  C   UNL A   1      46.856  30.696  30.535  1.00  0.00     0.029 A 
ATOM     61  C   UNL A   1      45.527  30.394  30.289  1.00  0.00     0.049 A 
ATOM     62  H   UNL A   1      44.677  28.593  29.591  1.00  0.00     0.167 HD
ATOM     63  C   UNL A   1      43.096  30.865  30.175  1.00  0.00     0.074 A 
ATOM     64  C   UNL A   1      41.943  31.726  30.346  1.00  0.00     0.031 C 
ATOM     65  C   UNL A   1      44.370  31.234  30.455  1.00  0.00     0.031 A 
BRANCH  52  66
ATOM     66  C   UNL A   1      48.541  26.787  29.466  1.00  0.00    -0.014 A 
ATOM     67  C   UNL A   1      49.012  25.956  30.494  1.00  0.00     0.009 A 
ATOM     68  C   UNL A   1      49.431  27.200  28.464  1.00  0.00     0.009 A 
ATOM     69  C   UNL A   1      50.356  25.575  30.535  1.00  0.00     0.001 A 
ATOM     70  C   UNL A   1      50.767  26.797  28.493  1.00  0.00     0.001 A 
ATOM     71  C   UNL A   1      51.230  25.993  29.533  1.00  0.00     0.000 A 
ENDBRANCH  52  66
BRANCH  53  72
ATOM     72  C   UNL A   1      38.864  29.173  29.029  1.00  0.00    -0.014 A 
ATOM     73  C   UNL A   1      38.030  28.986  30.142  1.00  0.00     0.009 A 
ATOM     74  C   UNL A   1      38.314  29.700  27.850  1.00  0.00     0.009 A 
ATOM     75  C   UNL A   1      36.670  29.297  30.066  1.00  0.00     0.001 A 
ATOM     76  C   UNL A   1      36.961  30.036  27.786  1.00  0.00     0.001 A 
ATOM     77  C   UNL A   1      36.138  29.825  28.891  1.00  0.00     0.000 A 
ENDBRANCH  53  72
BRANCH  65  78
ATOM     78  C   UNL A   1      44.586  32.641  30.939  1.00  0.00    -0.014 A 
ATOM     79  C   UNL A   1      44.791  33.699  30.040  1.00  0.00     0.009 A 
ATOM     80  C   UNL A   1      44.551  32.914  32.315  1.00  0.00     0.009 A 
ATOM     81  C   UNL A   1      44.990  34.997  30.513  1.00  0.00     0.001 A 
ATOM     82  C   UNL A   1      44.722  34.216  32.783  1.00  0.00     0.001 A 
ATOM     83  C   UNL A   1      44.952  35.256  31.882  1.00  0.00     0.000 A 
ENDBRANCH  65  78
ENDBRANCH  39  40
ENDBRANCH  32  34
ENDBRANCH  31  32
ENDBRANCH  30  31
ENDBRANCH  29  30
ENDBRANCH  28  29
ENDBRANCH  27  28
ENDBRANCH   1  27
TORSDOF 22
ENDMDL
MODEL 2
REMARK VINA RESULT:      -8.7      1.904      3.832
REMARK SMILES CC(C)C[C@H](NC(=O)CNC(=O)[C@@H]([NH3+])C(C)C)C(=O)OCCOCCOC(=O)c1ccc(-c2c3nc(c(-c4ccccc4)c4ccc([nH]4)c(-c4ccccc4)c4nc(c(-c5ccccc5)c5ccc2[nH]5)C=C4)C=C3)cc1
REMARK SMILES IDX 21 1 20 2 18 3 19 4 5 5 4 6 2 7 1 8 3 9 6 10 7 11 8 13 9 14
REMARK SMILES IDX 10 15 11 16 12 18 13 19 14 20 15 24 16 25 17 26 22 27 23 28
REMARK SMILES IDX 24 29 25 30 26 31 27 32 28 33 29 34 30 35 76 36 31 37 75 38
REMARK SMILES IDX 32 39 33 40 34 41 69 42 35 43 74 44 68 45 70 46 36 47 73 48
REMARK SMILES IDX 67 49 66 50 37 52 59 53 44 54 58 55 45 56 48 57 57 58 71 59
REMARK SMILES IDX 46 60 47 61 56 63 72 64 49 65 38 66 39 67 43 68 40 69 42 70
REMARK SMILES IDX 41 71 60 72 61 73 65 74 62 75 64 76 63 77 50 78 51 79 55 80
REMARK SMILES IDX 52 81 54 82 53 83
REMARK H PARENT 6 12 10 17 14 21 14 22 14 23 70 51 48 62
REMARK Flexibility Score: inf
ROOT
ATOM      1  C   UNL A   1      36.076  23.220  25.973  1.00  0.00     0.261 C 
ENDROOT
BRANCH   1   2
ATOM      2  O   UNL A   1      35.108  23.973  25.230  1.00  0.00    -0.462 OA
BRANCH   2   3
ATOM      3  C   UNL A   1      33.861  24.012  25.782  1.00  0.00     0.328 C 
ATOM      4  O   UNL A   1      33.560  23.600  26.895  1.00  0.00    -0.250 OA
BRANCH   3   5
ATOM      5  C   UNL A   1      32.838  24.551  24.791  1.00  0.00     0.192 C 
BRANCH   5   6
ATOM      6  C   UNL A   1      31.398  24.401  25.307  1.00  0.00     0.040 C 
BRANCH   6   7
ATOM      7  C   UNL A   1      30.578  25.554  25.928  1.00  0.00    -0.015 C 
ATOM      8  C   UNL A   1      31.370  26.822  26.249  1.00  0.00     0.007 C 
ATOM      9  C   UNL A   1      29.479  25.929  24.916  1.00  0.00     0.007 C 
ENDBRANCH   6   7
ENDBRANCH   5   6
BRANCH   5  10
ATOM     10  N   UNL A   1      33.038  23.920  23.471  1.00  0.00    -0.341 N 
ATOM     11  C   UNL A   1      32.921  22.613  23.090  1.00  0.00     0.240 C 
ATOM     12  H   UNL A   1      33.297  24.539  22.752  1.00  0.00     0.164 HD
ATOM     13  O   UNL A   1      32.796  22.382  21.884  1.00  0.00    -0.273 OA
BRANCH  11  14
ATOM     14  C   UNL A   1      32.899  21.467  24.116  1.00  0.00     0.216 C 
BRANCH  14  15
ATOM     15  N   UNL A   1      32.341  20.262  23.523  1.00  0.00    -0.342 N 
ATOM     16  C   UNL A   1      32.504  18.935  23.751  1.00  0.00     0.278 C 
ATOM     17  H   UNL A   1      31.703  20.451  22.796  1.00  0.00     0.164 HD
ATOM     18  O   UNL A   1      31.979  18.190  22.912  1.00  0.00    -0.268 OA
BRANCH  16  19
ATOM     19  C   UNL A   1      33.288  18.315  24.943  1.00  0.00     0.273 C 
BRANCH  19  20
ATOM     20  N   UNL A   1      32.641  18.556  26.249  1.00  0.00    -0.347 N 
ATOM     21  H   UNL A   1      32.522  17.669  26.738  1.00  0.00     0.345 HD
ATOM     22  H   UNL A   1      31.730  18.990  26.102  1.00  0.00     0.345 HD
ATOM     23  H   UNL A   1      33.226  19.176  26.809  1.00  0.00     0.345 HD
ENDBRANCH  19  20
BRANCH  19  24
ATOM     24  C   UNL A   1      33.604  16.823  24.671  1.00  0.00     0.051 C 
ATOM     25  C   UNL A   1      35.109  16.549  24.832  1.00  0.00     0.014 C 
ATOM     26  C   UNL A   1      32.854  15.878  25.621  1.00  0.00     0.014 C 
ENDBRANCH  19  24
ENDBRANCH  16  19
ENDBRANCH  14  15
ENDBRANCH  11  14
ENDBRANCH   5  10
ENDBRANCH   3   5
ENDBRANCH   2   3
ENDBRANCH   1   2
BRANCH   1  27
ATOM     27  C   UNL A   1      36.150  21.761  25.525  1.00  0.00     0.202 C 
BRANCH  27  28
ATOM     28  O   UNL A   1      37.437  21.156  25.538  1.00  0.00    -0.374 OA
BRANCH  28  29
ATOM     29  C   UNL A   1      38.591  21.996  25.567  1.00  0.00     0.202 C 
BRANCH  29  30
ATOM     30  C   UNL A   1      39.793  21.494  26.371  1.00  0.00     0.261 C 
BRANCH  30  31
ATOM     31  O   UNL A   1      40.114  20.125  26.053  1.00  0.00    -0.460 OA
BRANCH  31  32
ATOM     32  C   UNL A   1      41.438  19.841  26.090  1.00  0.00     0.338 C 
ATOM     33  O   UNL A   1      41.997  18.842  25.670  1.00  0.00    -0.246 OA
BRANCH  32  34
ATOM     34  C   UNL A   1      42.200  21.006  26.568  1.00  0.00     0.060 A 
ATOM     35  C   UNL A   1      42.182  21.266  27.945  1.00  0.00     0.016 A 
ATOM     36  C   UNL A   1      42.772  21.914  25.677  1.00  0.00     0.016 A 
ATOM     37  C   UNL A   1      42.669  22.474  28.429  1.00  0.00     0.010 A 
ATOM     38  C   UNL A   1      43.253  23.135  26.165  1.00  0.00     0.010 A 
ATOM     39  C   UNL A   1      43.155  23.438  27.535  1.00  0.00    -0.014 A 
BRANCH  39  40
ATOM     40  C   UNL A   1      43.371  24.819  28.025  1.00  0.00     0.031 A 
ATOM     41  C   UNL A   1      44.781  25.292  28.267  1.00  0.00     0.074 A 
ATOM     42  C   UNL A   1      42.339  25.666  28.181  1.00  0.00     0.049 A 
ATOM     43  N   UNL A   1      45.205  26.466  28.659  1.00  0.00    -0.248 NA
ATOM     44  C   UNL A   1      45.853  24.312  28.031  1.00  0.00     0.031 C 
ATOM     45  C   UNL A   1      40.936  25.346  27.924  1.00  0.00     0.029 A 
ATOM     46  N   UNL A   1      42.320  26.975  28.588  1.00  0.00    -0.354 N 
ATOM     47  C   UNL A   1      46.590  26.365  28.719  1.00  0.00     0.074 A 
ATOM     48  C   UNL A   1      46.933  25.009  28.351  1.00  0.00     0.031 C 
ATOM     49  C   UNL A   1      40.190  26.434  28.175  1.00  0.00     0.029 A 
ATOM     50  C   UNL A   1      41.059  27.515  28.637  1.00  0.00     0.049 A 
ATOM     51  H   UNL A   1      43.132  27.480  28.820  1.00  0.00     0.167 HD
ATOM     52  C   UNL A   1      47.497  27.315  29.044  1.00  0.00     0.031 A 
ATOM     53  C   UNL A   1      40.653  28.739  29.024  1.00  0.00     0.031 A 
ATOM     54  C   UNL A   1      47.160  28.661  29.424  1.00  0.00     0.049 A 
ATOM     55  C   UNL A   1      41.675  29.754  29.460  1.00  0.00     0.074 A 
ATOM     56  C   UNL A   1      48.008  29.701  29.764  1.00  0.00     0.029 A 
ATOM     57  N   UNL A   1      45.868  29.150  29.519  1.00  0.00    -0.354 N 
ATOM     58  N   UNL A   1      42.982  29.651  29.493  1.00  0.00    -0.248 NA
ATOM     59  C   UNL A   1      41.163  31.058  29.906  1.00  0.00     0.031 C 
ATOM     60  C   UNL A   1      47.224  30.806  30.115  1.00  0.00     0.029 A 
ATOM     61  C   UNL A   1      45.892  30.469  29.940  1.00  0.00     0.049 A 
ATOM     62  H   UNL A   1      45.052  28.636  29.318  1.00  0.00     0.167 HD
ATOM     63  C   UNL A   1      43.448  30.883  29.936  1.00  0.00     0.074 A 
ATOM     64  C   UNL A   1      42.285  31.721  30.146  1.00  0.00     0.031 C 
ATOM     65  C   UNL A   1      44.725  31.286  30.146  1.00  0.00     0.031 A 
BRANCH  52  66
ATOM     66  C   UNL A   1      48.946  26.916  29.038  1.00  0.00    -0.014 A 
ATOM     67  C   UNL A   1      49.728  27.024  27.877  1.00  0.00     0.009 A 
ATOM     68  C   UNL A   1      49.542  26.444  30.217  1.00  0.00     0.009 A 
ATOM     69  C   UNL A   1      51.069  26.634  27.889  1.00  0.00     0.001 A 
ATOM     70  C   UNL A   1      50.890  26.079  30.233  1.00  0.00     0.001 A 
ATOM     71  C   UNL A   1      51.649  26.166  29.067  1.00  0.00     0.000 A 
ENDBRANCH  52  66
BRANCH  53  72
ATOM     72  C   UNL A   1      39.206  29.075  29.028  1.00  0.00    -0.014 A 
ATOM     73  C   UNL A   1      38.418  28.830  30.162  1.00  0.00     0.009 A 
ATOM     74  C   UNL A   1      38.603  29.627  27.887  1.00  0.00     0.009 A 
ATOM     75  C   UNL A   1      37.049  29.110  30.145  1.00  0.00     0.001 A 
ATOM     76  C   UNL A   1      37.240  29.931  27.883  1.00  0.00     0.001 A 
ATOM     77  C   UNL A   1      36.463  29.664  29.008  1.00  0.00     0.000 A 
ENDBRANCH  53  72
BRANCH  65  78
ATOM     78  C   UNL A   1      44.932  32.706  30.593  1.00  0.00    -0.014 A 
ATOM     79  C   UNL A   1      44.999  33.040  31.954  1.00  0.00     0.009 A 
ATOM     80  C   UNL A   1      45.094  33.719  29.635  1.00  0.00     0.009 A 
ATOM     81  C   UNL A   1      45.191  34.366  32.347  1.00  0.00     0.001 A 
ATOM     82  C   UNL A   1      45.314  35.039  30.029  1.00  0.00     0.001 A 
ATOM     83  C   UNL A   1      45.352  35.363  31.385  1.00  0.00     0.000 A 
ENDBRANCH  65  78
ENDBRANCH  39  40
ENDBRANCH  32  34
ENDBRANCH  31  32
ENDBRANCH  30  31
ENDBRANCH  29  30
ENDBRANCH  28  29
ENDBRANCH  27  28
ENDBRANCH   1  27
TORSDOF 22
ENDMDL
MODEL 3
REMARK VINA RESULT:      -8.7      1.575      2.103
REMARK SMILES CC(C)C[C@H](NC(=O)CNC(=O)[C@@H]([NH3+])C(C)C)C(=O)OCCOCCOC(=O)c1ccc(-c2c3nc(c(-c4ccccc4)c4ccc([nH]4)c(-c4ccccc4)c4nc(c(-c5ccccc5)c5ccc2[nH]5)C=C4)C=C3)cc1
REMARK SMILES IDX 21 1 20 2 18 3 19 4 5 5 4 6 2 7 1 8 3 9 6 10 7 11 8 13 9 14
REMARK SMILES IDX 10 15 11 16 12 18 13 19 14 20 15 24 16 25 17 26 22 27 23 28
REMARK SMILES IDX 24 29 25 30 26 31 27 32 28 33 29 34 30 35 76 36 31 37 75 38
REMARK SMILES IDX 32 39 33 40 34 41 69 42 35 43 74 44 68 45 70 46 36 47 73 48
REMARK SMILES IDX 67 49 66 50 37 52 59 53 44 54 58 55 45 56 48 57 57 58 71 59
REMARK SMILES IDX 46 60 47 61 56 63 72 64 49 65 38 66 39 67 43 68 40 69 42 70
REMARK SMILES IDX 41 71 60 72 61 73 65 74 62 75 64 76 63 77 50 78 51 79 55 80
REMARK SMILES IDX 52 81 54 82 53 83
REMARK H PARENT 6 12 10 17 14 21 14 22 14 23 70 51 48 62
REMARK Flexibility Score: inf
ROOT
ATOM      1  C   UNL A   1      34.755  21.915  24.289  1.00  0.00     0.261 C 
ENDROOT
BRANCH   1   2
ATOM      2  O   UNL A   1      33.384  21.497  24.327  1.00  0.00    -0.462 OA
BRANCH   2   3
ATOM      3  C   UNL A   1      32.632  21.888  23.258  1.00  0.00     0.328 C 
ATOM      4  O   UNL A   1      32.251  21.160  22.350  1.00  0.00    -0.250 OA
BRANCH   3   5
ATOM      5  C   UNL A   1      32.397  23.392  23.273  1.00  0.00     0.192 C 
BRANCH   5   6
ATOM      6  C   UNL A   1      31.082  23.764  23.978  1.00  0.00     0.040 C 
BRANCH   6   7
ATOM      7  C   UNL A   1      30.944  23.955  25.504  1.00  0.00    -0.015 C 
ATOM      8  C   UNL A   1      30.503  22.715  26.282  1.00  0.00     0.007 C 
ATOM      9  C   UNL A   1      32.325  24.380  26.038  1.00  0.00     0.007 C 
ENDBRANCH   6   7
ENDBRANCH   5   6
BRANCH   5  10
ATOM     10  N   UNL A   1      32.476  23.925  21.898  1.00  0.00    -0.341 N 
ATOM     11  C   UNL A   1      32.666  25.204  21.458  1.00  0.00     0.240 C 
ATOM     12  H   UNL A   1      32.375  23.253  21.187  1.00  0.00     0.164 HD
ATOM     13  O   UNL A   1      33.040  25.354  20.291  1.00  0.00    -0.273 OA
BRANCH  11  14
ATOM     14  C   UNL A   1      32.469  26.419  22.380  1.00  0.00     0.216 C 
BRANCH  14  15
ATOM     15  N   UNL A   1      31.054  26.718  22.537  1.00  0.00    -0.342 N 
ATOM     16  C   UNL A   1      30.362  27.779  23.020  1.00  0.00     0.278 C 
ATOM     17  H   UNL A   1      30.470  25.989  22.223  1.00  0.00     0.164 HD
ATOM     18  O   UNL A   1      29.143  27.594  23.154  1.00  0.00    -0.268 OA
BRANCH  16  19
ATOM     19  C   UNL A   1      30.976  29.153  23.413  1.00  0.00     0.273 C 
BRANCH  19  20
ATOM     20  N   UNL A   1      30.071  30.289  23.146  1.00  0.00    -0.347 N 
ATOM     21  H   UNL A   1      30.596  31.162  23.199  1.00  0.00     0.345 HD
ATOM     22  H   UNL A   1      29.323  30.299  23.839  1.00  0.00     0.345 HD
ATOM     23  H   UNL A   1      29.669  30.192  22.213  1.00  0.00     0.345 HD
ENDBRANCH  19  20
BRANCH  19  24
ATOM     24  C   UNL A   1      31.515  29.115  24.865  1.00  0.00     0.051 C 
ATOM     25  C   UNL A   1      31.179  27.771  25.534  1.00  0.00     0.014 C 
ATOM     26  C   UNL A   1      33.037  29.304  24.934  1.00  0.00     0.014 C 
ENDBRANCH  19  24
ENDBRANCH  16  19
ENDBRANCH  14  15
ENDBRANCH  11  14
ENDBRANCH   5  10
ENDBRANCH   3   5
ENDBRANCH   2   3
ENDBRANCH   1   2
BRANCH   1  27
ATOM     27  C   UNL A   1      35.686  20.931  24.996  1.00  0.00     0.202 C 
BRANCH  27  28
ATOM     28  O   UNL A   1      37.083  21.149  24.835  1.00  0.00    -0.374 OA
BRANCH  28  29
ATOM     29  C   UNL A   1      37.743  22.058  25.715  1.00  0.00     0.202 C 
BRANCH  29  30
ATOM     30  C   UNL A   1      39.228  21.803  25.988  1.00  0.00     0.261 C 
BRANCH  30  31
ATOM     31  O   UNL A   1      39.464  20.454  26.438  1.00  0.00    -0.460 OA
BRANCH  31  32
ATOM     32  C   UNL A   1      40.740  20.030  26.278  1.00  0.00     0.338 C 
ATOM     33  O   UNL A   1      41.118  18.960  25.831  1.00  0.00    -0.246 OA
BRANCH  32  34
ATOM     34  C   UNL A   1      41.685  21.122  26.562  1.00  0.00     0.060 A 
ATOM     35  C   UNL A   1      41.896  21.457  27.906  1.00  0.00     0.016 A 
ATOM     36  C   UNL A   1      42.214  21.908  25.538  1.00  0.00     0.016 A 
ATOM     37  C   UNL A   1      42.576  22.625  28.231  1.00  0.00     0.010 A 
ATOM     38  C   UNL A   1      42.889  23.089  25.867  1.00  0.00     0.010 A 
ATOM     39  C   UNL A   1      43.025  23.476  27.213  1.00  0.00    -0.014 A 
BRANCH  39  40
ATOM     40  C   UNL A   1      43.458  24.848  27.569  1.00  0.00     0.031 A 
ATOM     41  C   UNL A   1      44.904  25.225  27.380  1.00  0.00     0.074 A 
ATOM     42  C   UNL A   1      42.568  25.766  27.983  1.00  0.00     0.049 A 
ATOM     43  N   UNL A   1      45.494  26.374  27.590  1.00  0.00    -0.248 NA
ATOM     44  C   UNL A   1      45.801  24.169  26.882  1.00  0.00     0.031 C 
ATOM     45  C   UNL A   1      41.134  25.540  28.149  1.00  0.00     0.029 A 
ATOM     46  N   UNL A   1      42.748  27.080  28.329  1.00  0.00    -0.354 N 
ATOM     47  C   UNL A   1      46.829  26.178  27.254  1.00  0.00     0.074 A 
ATOM     48  C   UNL A   1      46.967  24.795  26.854  1.00  0.00     0.031 C 
ATOM     49  C   UNL A   1      40.561  26.681  28.564  1.00  0.00     0.029 A 
ATOM     50  C   UNL A   1      41.590  27.708  28.718  1.00  0.00     0.049 A 
ATOM     51  H   UNL A   1      43.622  27.531  28.301  1.00  0.00     0.167 HD
ATOM     52  C   UNL A   1      47.848  27.069  27.271  1.00  0.00     0.031 A 
ATOM     53  C   UNL A   1      41.389  28.964  29.159  1.00  0.00     0.031 A 
ATOM     54  C   UNL A   1      47.718  28.441  27.682  1.00  0.00     0.049 A 
ATOM     55  C   UNL A   1      42.554  29.912  29.247  1.00  0.00     0.074 A 
ATOM     56  C   UNL A   1      48.690  29.426  27.727  1.00  0.00     0.029 A 
ATOM     57  N   UNL A   1      46.540  29.020  28.124  1.00  0.00    -0.354 N 
ATOM     58  N   UNL A   1      43.805  29.720  28.908  1.00  0.00    -0.248 NA
ATOM     59  C   UNL A   1      42.272  31.256  29.772  1.00  0.00     0.031 C 
ATOM     60  C   UNL A   1      48.109  30.588  28.246  1.00  0.00     0.029 A 
ATOM     61  C   UNL A   1      46.765  30.341  28.473  1.00  0.00     0.049 A 
ATOM     62  H   UNL A   1      45.671  28.560  28.184  1.00  0.00     0.167 HD
ATOM     63  C   UNL A   1      44.454  30.924  29.152  1.00  0.00     0.074 A 
ATOM     64  C   UNL A   1      43.454  31.844  29.656  1.00  0.00     0.031 C 
ATOM     65  C   UNL A   1      45.760  31.241  28.973  1.00  0.00     0.031 A 
BRANCH  52  66
ATOM     66  C   UNL A   1      49.206  26.570  26.865  1.00  0.00    -0.014 A 
ATOM     67  C   UNL A   1      50.057  25.940  27.787  1.00  0.00     0.009 A 
ATOM     68  C   UNL A   1      49.631  26.713  25.535  1.00  0.00     0.009 A 
ATOM     69  C   UNL A   1      51.321  25.495  27.392  1.00  0.00     0.001 A 
ATOM     70  C   UNL A   1      50.884  26.244  25.137  1.00  0.00     0.001 A 
ATOM     71  C   UNL A   1      51.731  25.644  26.068  1.00  0.00     0.000 A 
ENDBRANCH  52  66
BRANCH  53  72
ATOM     72  C   UNL A   1      40.028  29.399  29.565  1.00  0.00    -0.014 A 
ATOM     73  C   UNL A   1      39.136  29.933  28.623  1.00  0.00     0.009 A 
ATOM     74  C   UNL A   1      39.621  29.297  30.904  1.00  0.00     0.009 A 
ATOM     75  C   UNL A   1      37.873  30.378  29.019  1.00  0.00     0.001 A 
ATOM     76  C   UNL A   1      38.347  29.718  31.292  1.00  0.00     0.001 A 
ATOM     77  C   UNL A   1      37.478  30.266  30.351  1.00  0.00     0.000 A 
ENDBRANCH  53  72
BRANCH  65  78
ATOM     78  C   UNL A   1      46.173  32.651  29.290  1.00  0.00    -0.014 A 
ATOM     79  C   UNL A   1      46.645  33.005  30.563  1.00  0.00     0.009 A 
ATOM     80  C   UNL A   1      46.119  33.632  28.287  1.00  0.00     0.009 A 
ATOM     81  C   UNL A   1      47.023  34.321  30.835  1.00  0.00     0.001 A 
ATOM     82  C   UNL A   1      46.523  34.940  28.554  1.00  0.00     0.001 A 
ATOM     83  C   UNL A   1      46.966  35.286  29.830  1.00  0.00     0.000 A 
ENDBRANCH  65  78
ENDBRANCH  39  40
ENDBRANCH  32  34
ENDBRANCH  31  32
ENDBRANCH  30  31
ENDBRANCH  29  30
ENDBRANCH  28  29
ENDBRANCH  27  28
ENDBRANCH   1  27
TORSDOF 22
ENDMDL
