MODEL 1
REMARK VINA RESULT:     -12.1      0.000      0.000
REMARK SMILES Cc1ccc(NC(=O)c2ccccc2NC(=O)[C@H]2CCCC[C@H]2C(=O)OCCOCCOC(=O)c2ccc(-c3c4nc(c(-c5ccccc5)c5ccc([nH]5)c(-c5ccccc5)c5nc(c(-c6ccccc6)c6ccc3[nH]6)C=C5)C=C4)cc2)cc1
REMARK SMILES IDX 28 1 27 2 26 3 24 4 25 5 23 6 18 7 19 8 20 9 22 10 21 11
REMARK SMILES IDX 16 12 15 13 17 15 14 16 9 17 10 18 11 19 13 20 12 21 7 22
REMARK SMILES IDX 6 23 8 25 5 26 1 27 2 28 3 29 84 30 4 31 83 32 29 33 30 34
REMARK SMILES IDX 31 35 32 36 33 37 34 38 35 39 36 40 82 41 37 42 81 43 38 44
REMARK SMILES IDX 39 45 40 46 75 47 41 48 80 49 74 50 76 51 42 52 79 53 73 54
REMARK SMILES IDX 72 55 43 57 65 58 50 59 64 60 51 61 54 62 63 63 77 64 52 65
REMARK SMILES IDX 53 66 62 68 78 69 55 70 44 71 45 72 49 73 46 74 48 75 47 76
REMARK SMILES IDX 66 77 67 78 71 79 68 80 70 81 69 82 56 83 57 84 61 85 58 86
REMARK SMILES IDX 60 87 59 88
REMARK H PARENT 15 14 6 24 76 56 54 67
REMARK Flexibility Score: inf
ROOT
ATOM      1  C   UNL A   1      39.336  21.840  26.399  1.00  0.00     0.202 C 
ENDROOT
BRANCH   1   2
ATOM      2  C   UNL A   1      38.258  22.359  25.516  1.00  0.00     0.261 C 
BRANCH   2   3
ATOM      3  O   UNL A   1      36.987  21.780  25.760  1.00  0.00    -0.463 OA
BRANCH   3   4
ATOM      4  C   UNL A   1      35.950  22.632  25.957  1.00  0.00     0.309 C 
ATOM      5  O   UNL A   1      36.006  23.839  26.027  1.00  0.00    -0.252 OA
BRANCH   4   6
ATOM      6  C   UNL A   1      34.672  21.825  26.002  1.00  0.00     0.111 C 
ATOM      7  C   UNL A   1      33.412  22.733  25.867  1.00  0.00     0.093 C 
ATOM      8  C   UNL A   1      32.147  21.872  25.844  1.00  0.00     0.014 C 
ATOM      9  C   UNL A   1      32.242  20.726  24.830  1.00  0.00     0.001 C 
ATOM     10  C   UNL A   1      34.747  20.647  25.036  1.00  0.00     0.016 C 
ATOM     11  C   UNL A   1      33.457  19.839  25.068  1.00  0.00     0.001 C 
BRANCH   7  12
ATOM     12  C   UNL A   1      33.360  23.658  24.639  1.00  0.00     0.228 C 
ATOM     13  N   UNL A   1      33.229  25.018  24.691  1.00  0.00    -0.325 N 
ATOM     14  H   UNL A   1      33.358  25.413  23.799  1.00  0.00     0.169 HD
ATOM     15  O   UNL A   1      33.483  23.177  23.504  1.00  0.00    -0.274 OA
BRANCH  13  16
ATOM     16  C   UNL A   1      32.964  26.028  25.654  1.00  0.00     0.054 A 
ATOM     17  C   UNL A   1      31.647  26.202  26.176  1.00  0.00     0.063 A 
ATOM     18  C   UNL A   1      31.356  27.356  26.942  1.00  0.00     0.016 A 
ATOM     19  C   UNL A   1      32.334  28.300  27.237  1.00  0.00     0.001 A 
ATOM     20  C   UNL A   1      33.949  26.940  26.060  1.00  0.00     0.027 A 
ATOM     21  C   UNL A   1      33.635  28.075  26.817  1.00  0.00     0.002 A 
BRANCH  17  22
ATOM     22  C   UNL A   1      30.431  25.368  25.901  1.00  0.00     0.257 C 
ATOM     23  N   UNL A   1      29.487  25.621  24.932  1.00  0.00    -0.322 N 
ATOM     24  H   UNL A   1      28.692  25.043  24.995  1.00  0.00     0.170 HD
ATOM     25  O   UNL A   1      30.227  24.391  26.627  1.00  0.00    -0.269 OA
BRANCH  23  26
ATOM     26  C   UNL A   1      29.433  26.536  23.877  1.00  0.00     0.041 A 
ATOM     27  C   UNL A   1      29.471  30.286  21.834  1.00  0.00     0.044 C 
ATOM     28  C   UNL A   1      29.401  28.910  22.419  1.00  0.00    -0.051 A 
ATOM     29  C   UNL A   1      30.532  28.086  22.400  1.00  0.00     0.005 A 
ATOM     30  C   UNL A   1      28.236  28.456  23.042  1.00  0.00     0.005 A 
ATOM     31  C   UNL A   1      30.541  26.885  23.111  1.00  0.00     0.026 A 
ATOM     32  C   UNL A   1      28.240  27.248  23.737  1.00  0.00     0.026 A 
ENDBRANCH  23  26
ENDBRANCH  17  22
ENDBRANCH  13  16
ENDBRANCH   7  12
ENDBRANCH   4   6
ENDBRANCH   3   4
ENDBRANCH   2   3
ENDBRANCH   1   2
BRANCH   1  33
ATOM     33  O   UNL A   1      39.641  20.505  26.051  1.00  0.00    -0.374 OA
BRANCH  33  34
ATOM     34  C   UNL A   1      41.017  20.188  26.218  1.00  0.00     0.202 C 
BRANCH  34  35
ATOM     35  C   UNL A   1      41.966  21.389  26.037  1.00  0.00     0.261 C 
BRANCH  35  36
ATOM     36  O   UNL A   1      43.336  20.933  25.940  1.00  0.00    -0.460 OA
BRANCH  36  37
ATOM     37  C   UNL A   1      44.103  21.492  24.958  1.00  0.00     0.338 C 
ATOM     38  O   UNL A   1      44.358  20.979  23.882  1.00  0.00    -0.246 OA
BRANCH  37  39
ATOM     39  C   UNL A   1      44.852  22.665  25.510  1.00  0.00     0.060 A 
ATOM     40  C   UNL A   1      45.328  22.653  26.838  1.00  0.00     0.016 A 
ATOM     41  C   UNL A   1      44.700  23.876  24.851  1.00  0.00     0.016 A 
ATOM     42  C   UNL A   1      45.475  23.857  27.553  1.00  0.00     0.010 A 
ATOM     43  C   UNL A   1      44.681  25.025  25.607  1.00  0.00     0.010 A 
ATOM     44  C   UNL A   1      45.051  25.042  26.965  1.00  0.00    -0.014 A 
BRANCH  44  45
ATOM     45  C   UNL A   1      44.832  26.347  27.619  1.00  0.00     0.031 A 
ATOM     46  C   UNL A   1      43.428  26.825  27.653  1.00  0.00     0.074 A 
ATOM     47  C   UNL A   1      45.762  26.966  28.403  1.00  0.00     0.049 A 
ATOM     48  N   UNL A   1      43.088  28.003  28.030  1.00  0.00    -0.248 NA
ATOM     49  C   UNL A   1      42.270  26.029  27.235  1.00  0.00     0.031 C 
ATOM     50  C   UNL A   1      45.560  27.966  29.459  1.00  0.00     0.029 A 
ATOM     51  N   UNL A   1      47.157  26.844  28.392  1.00  0.00    -0.354 N 
ATOM     52  C   UNL A   1      41.734  28.002  28.241  1.00  0.00     0.074 A 
ATOM     53  C   UNL A   1      41.252  26.794  27.634  1.00  0.00     0.031 C 
ATOM     54  C   UNL A   1      46.726  28.586  29.727  1.00  0.00     0.029 A 
ATOM     55  C   UNL A   1      47.706  28.074  28.787  1.00  0.00     0.049 A 
ATOM     56  H   UNL A   1      47.664  26.036  28.150  1.00  0.00     0.167 HD
ATOM     57  C   UNL A   1      41.213  28.985  29.020  1.00  0.00     0.031 A 
ATOM     58  C   UNL A   1      48.526  28.754  27.943  1.00  0.00     0.031 A 
ATOM     59  C   UNL A   1      42.236  29.996  29.325  1.00  0.00     0.049 A 
ATOM     60  C   UNL A   1      47.824  30.025  27.569  1.00  0.00     0.074 A 
ATOM     61  C   UNL A   1      42.957  30.314  30.463  1.00  0.00     0.029 A 
ATOM     62  N   UNL A   1      42.906  30.599  28.258  1.00  0.00    -0.354 N 
ATOM     63  N   UNL A   1      46.529  30.160  27.683  1.00  0.00    -0.248 NA
ATOM     64  C   UNL A   1      48.483  31.257  27.158  1.00  0.00     0.031 C 
ATOM     65  C   UNL A   1      44.119  31.037  30.049  1.00  0.00     0.029 A 
ATOM     66  C   UNL A   1      44.082  31.196  28.670  1.00  0.00     0.049 A 
ATOM     67  H   UNL A   1      42.581  30.599  27.329  1.00  0.00     0.167 HD
ATOM     68  C   UNL A   1      46.190  31.461  27.504  1.00  0.00     0.074 A 
ATOM     69  C   UNL A   1      47.437  32.104  27.118  1.00  0.00     0.031 C 
ATOM     70  C   UNL A   1      44.922  31.913  27.709  1.00  0.00     0.031 A 
BRANCH  57  71
ATOM     71  C   UNL A   1      39.838  28.946  29.643  1.00  0.00    -0.014 A 
ATOM     72  C   UNL A   1      38.720  29.252  28.849  1.00  0.00     0.009 A 
ATOM     73  C   UNL A   1      39.567  28.690  31.001  1.00  0.00     0.009 A 
ATOM     74  C   UNL A   1      37.420  29.292  29.376  1.00  0.00     0.001 A 
ATOM     75  C   UNL A   1      38.270  28.706  31.532  1.00  0.00     0.001 A 
ATOM     76  C   UNL A   1      37.194  29.011  30.718  1.00  0.00     0.000 A 
ENDBRANCH  57  71
BRANCH  58  77
ATOM     77  C   UNL A   1      49.340  27.806  27.113  1.00  0.00    -0.014 A 
ATOM     78  C   UNL A   1      49.014  27.774  25.734  1.00  0.00     0.009 A 
ATOM     79  C   UNL A   1      50.642  27.436  27.484  1.00  0.00     0.009 A 
ATOM     80  C   UNL A   1      50.010  27.609  24.764  1.00  0.00     0.001 A 
ATOM     81  C   UNL A   1      51.620  27.205  26.497  1.00  0.00     0.001 A 
ATOM     82  C   UNL A   1      51.321  27.354  25.143  1.00  0.00     0.000 A 
ENDBRANCH  58  77
BRANCH  70  83
ATOM     83  C   UNL A   1      44.363  33.117  27.007  1.00  0.00    -0.014 A 
ATOM     84  C   UNL A   1      44.107  33.155  25.630  1.00  0.00     0.009 A 
ATOM     85  C   UNL A   1      43.886  34.200  27.774  1.00  0.00     0.009 A 
ATOM     86  C   UNL A   1      43.457  34.242  25.040  1.00  0.00     0.001 A 
ATOM     87  C   UNL A   1      43.175  35.252  27.202  1.00  0.00     0.001 A 
ATOM     88  C   UNL A   1      42.977  35.282  25.829  1.00  0.00     0.000 A 
ENDBRANCH  70  83
ENDBRANCH  44  45
ENDBRANCH  37  39
ENDBRANCH  36  37
ENDBRANCH  35  36
ENDBRANCH  34  35
ENDBRANCH  33  34
ENDBRANCH   1  33
TORSDOF 18
ENDMDL
MODEL 2
REMARK VINA RESULT:     -11.9      4.175      9.683
REMARK SMILES Cc1ccc(NC(=O)c2ccccc2NC(=O)[C@H]2CCCC[C@H]2C(=O)OCCOCCOC(=O)c2ccc(-c3c4nc(c(-c5ccccc5)c5ccc([nH]5)c(-c5ccccc5)c5nc(c(-c6ccccc6)c6ccc3[nH]6)C=C5)C=C4)cc2)cc1
REMARK SMILES IDX 28 1 27 2 26 3 24 4 25 5 23 6 18 7 19 8 20 9 22 10 21 11
REMARK SMILES IDX 16 12 15 13 17 15 14 16 9 17 10 18 11 19 13 20 12 21 7 22
REMARK SMILES IDX 6 23 8 25 5 26 1 27 2 28 3 29 84 30 4 31 83 32 29 33 30 34
REMARK SMILES IDX 31 35 32 36 33 37 34 38 35 39 36 40 82 41 37 42 81 43 38 44
REMARK SMILES IDX 39 45 40 46 75 47 41 48 80 49 74 50 76 51 42 52 79 53 73 54
REMARK SMILES IDX 72 55 43 57 65 58 50 59 64 60 51 61 54 62 63 63 77 64 52 65
REMARK SMILES IDX 53 66 62 68 78 69 55 70 44 71 45 72 49 73 46 74 48 75 47 76
REMARK SMILES IDX 66 77 67 78 71 79 68 80 70 81 69 82 56 83 57 84 61 85 58 86
REMARK SMILES IDX 60 87 59 88
REMARK H PARENT 15 14 6 24 76 56 54 67
REMARK Flexibility Score: inf
ROOT
ATOM      1  C   UNL A   1      31.917  30.482  26.300  1.00  0.00     0.202 C 
ENDROOT
BRANCH   1   2
ATOM      2  C   UNL A   1      32.827  29.682  25.437  1.00  0.00     0.261 C 
BRANCH   2   3
ATOM      3  O   UNL A   1      32.152  28.863  24.496  1.00  0.00    -0.463 OA
BRANCH   3   4
ATOM      4  C   UNL A   1      32.920  28.071  23.707  1.00  0.00     0.309 C 
ATOM      5  O   UNL A   1      34.064  28.276  23.368  1.00  0.00    -0.252 OA
BRANCH   4   6
ATOM      6  C   UNL A   1      32.131  26.827  23.369  1.00  0.00     0.111 C 
ATOM      7  C   UNL A   1      32.911  25.530  23.743  1.00  0.00     0.093 C 
ATOM      8  C   UNL A   1      32.049  24.299  23.454  1.00  0.00     0.014 C 
ATOM      9  C   UNL A   1      30.645  24.417  24.057  1.00  0.00     0.001 C 
ATOM     10  C   UNL A   1      30.710  26.928  23.916  1.00  0.00     0.016 C 
ATOM     11  C   UNL A   1      29.916  25.670  23.589  1.00  0.00     0.001 C 
BRANCH   7  12
ATOM     12  C   UNL A   1      33.398  25.417  25.198  1.00  0.00     0.228 C 
ATOM     13  N   UNL A   1      34.375  24.565  25.631  1.00  0.00    -0.325 N 
ATOM     14  H   UNL A   1      34.617  24.760  26.565  1.00  0.00     0.169 HD
ATOM     15  O   UNL A   1      32.922  26.166  26.063  1.00  0.00    -0.274 OA
BRANCH  13  16
ATOM     16  C   UNL A   1      35.144  23.481  25.129  1.00  0.00     0.054 A 
ATOM     17  C   UNL A   1      35.067  22.194  25.742  1.00  0.00     0.063 A 
ATOM     18  C   UNL A   1      36.012  21.203  25.386  1.00  0.00     0.016 A 
ATOM     19  C   UNL A   1      36.982  21.437  24.417  1.00  0.00     0.001 A 
ATOM     20  C   UNL A   1      36.062  23.648  24.084  1.00  0.00     0.027 A 
ATOM     21  C   UNL A   1      36.988  22.651  23.749  1.00  0.00     0.002 A 
BRANCH  17  22
ATOM     22  C   UNL A   1      34.174  21.763  26.868  1.00  0.00     0.257 C 
ATOM     23  N   UNL A   1      33.104  20.905  26.759  1.00  0.00    -0.322 N 
ATOM     24  H   UNL A   1      32.556  20.852  27.575  1.00  0.00     0.170 HD
ATOM     25  O   UNL A   1      34.382  22.245  27.985  1.00  0.00    -0.269 OA
BRANCH  23  26
ATOM     26  C   UNL A   1      32.639  20.095  25.718  1.00  0.00     0.041 A 
ATOM     27  C   UNL A   1      32.598  18.010  21.991  1.00  0.00     0.044 C 
ATOM     28  C   UNL A   1      32.460  18.714  23.305  1.00  0.00    -0.051 A 
ATOM     29  C   UNL A   1      32.707  18.023  24.497  1.00  0.00     0.005 A 
ATOM     30  C   UNL A   1      32.145  20.074  23.358  1.00  0.00     0.005 A 
ATOM     31  C   UNL A   1      32.774  18.711  25.709  1.00  0.00     0.026 A 
ATOM     32  C   UNL A   1      32.195  20.757  24.572  1.00  0.00     0.026 A 
ENDBRANCH  23  26
ENDBRANCH  17  22
ENDBRANCH  13  16
ENDBRANCH   7  12
ENDBRANCH   4   6
ENDBRANCH   3   4
ENDBRANCH   2   3
ENDBRANCH   1   2
BRANCH   1  33
ATOM     33  O   UNL A   1      32.652  31.078  27.350  1.00  0.00    -0.374 OA
BRANCH  33  34
ATOM     34  C   UNL A   1      34.044  30.797  27.284  1.00  0.00     0.202 C 
BRANCH  34  35
ATOM     35  C   UNL A   1      34.919  31.755  28.118  1.00  0.00     0.261 C 
BRANCH  35  36
ATOM     36  O   UNL A   1      34.169  32.259  29.248  1.00  0.00    -0.460 OA
BRANCH  36  37
ATOM     37  C   UNL A   1      34.422  33.547  29.630  1.00  0.00     0.338 C 
ATOM     38  O   UNL A   1      33.784  34.525  29.281  1.00  0.00    -0.246 OA
BRANCH  37  39
ATOM     39  C   UNL A   1      35.776  33.627  30.265  1.00  0.00     0.060 A 
ATOM     40  C   UNL A   1      36.870  34.165  29.556  1.00  0.00     0.016 A 
ATOM     41  C   UNL A   1      36.008  32.806  31.358  1.00  0.00     0.016 A 
ATOM     42  C   UNL A   1      38.181  33.734  29.835  1.00  0.00     0.010 A 
ATOM     43  C   UNL A   1      37.265  32.267  31.504  1.00  0.00     0.010 A 
ATOM     44  C   UNL A   1      38.368  32.702  30.746  1.00  0.00    -0.014 A 
BRANCH  44  45
ATOM     45  C   UNL A   1      39.588  31.902  30.967  1.00  0.00     0.031 A 
ATOM     46  C   UNL A   1      39.728  30.691  30.122  1.00  0.00     0.074 A 
ATOM     47  C   UNL A   1      40.670  32.350  31.666  1.00  0.00     0.049 A 
ATOM     48  N   UNL A   1      40.636  29.802  30.300  1.00  0.00    -0.248 NA
ATOM     49  C   UNL A   1      38.836  30.347  29.010  1.00  0.00     0.031 C 
ATOM     50  C   UNL A   1      42.070  31.911  31.583  1.00  0.00     0.029 A 
ATOM     51  N   UNL A   1      40.738  33.321  32.674  1.00  0.00    -0.354 N 
ATOM     52  C   UNL A   1      40.676  29.013  29.180  1.00  0.00     0.074 A 
ATOM     53  C   UNL A   1      39.475  29.316  28.454  1.00  0.00     0.031 C 
ATOM     54  C   UNL A   1      42.742  32.327  32.675  1.00  0.00     0.029 A 
ATOM     55  C   UNL A   1      41.779  32.971  33.549  1.00  0.00     0.049 A 
ATOM     56  H   UNL A   1      40.157  34.111  32.754  1.00  0.00     0.167 HD
ATOM     57  C   UNL A   1      41.800  28.284  28.958  1.00  0.00     0.031 A 
ATOM     58  C   UNL A   1      41.513  32.731  34.860  1.00  0.00     0.031 A 
ATOM     59  C   UNL A   1      42.696  28.354  30.121  1.00  0.00     0.049 A 
ATOM     60  C   UNL A   1      41.800  31.282  35.114  1.00  0.00     0.074 A 
ATOM     61  C   UNL A   1      43.896  28.999  30.366  1.00  0.00     0.029 A 
ATOM     62  N   UNL A   1      42.187  27.992  31.370  1.00  0.00    -0.354 N 
ATOM     63  N   UNL A   1      41.837  30.403  34.148  1.00  0.00    -0.248 NA
ATOM     64  C   UNL A   1      42.175  30.716  36.403  1.00  0.00     0.031 C 
ATOM     65  C   UNL A   1      44.049  29.101  31.784  1.00  0.00     0.029 A 
ATOM     66  C   UNL A   1      42.969  28.481  32.398  1.00  0.00     0.049 A 
ATOM     67  H   UNL A   1      41.372  27.456  31.501  1.00  0.00     0.167 HD
ATOM     68  C   UNL A   1      42.342  29.234  34.615  1.00  0.00     0.074 A 
ATOM     69  C   UNL A   1      42.484  29.454  36.047  1.00  0.00     0.031 C 
ATOM     70  C   UNL A   1      42.626  28.188  33.791  1.00  0.00     0.031 A 
BRANCH  57  71
ATOM     71  C   UNL A   1      42.164  27.651  27.636  1.00  0.00    -0.014 A 
ATOM     72  C   UNL A   1      42.662  26.338  27.620  1.00  0.00     0.009 A 
ATOM     73  C   UNL A   1      42.112  28.296  26.384  1.00  0.00     0.009 A 
ATOM     74  C   UNL A   1      43.073  25.711  26.434  1.00  0.00     0.001 A 
ATOM     75  C   UNL A   1      42.500  27.671  25.192  1.00  0.00     0.001 A 
ATOM     76  C   UNL A   1      42.986  26.376  25.218  1.00  0.00     0.000 A 
ENDBRANCH  57  71
BRANCH  58  77
ATOM     77  C   UNL A   1      40.393  33.605  35.344  1.00  0.00    -0.014 A 
ATOM     78  C   UNL A   1      39.151  32.950  35.533  1.00  0.00     0.009 A 
ATOM     79  C   UNL A   1      40.639  34.767  36.093  1.00  0.00     0.009 A 
ATOM     80  C   UNL A   1      38.303  33.309  36.587  1.00  0.00     0.001 A 
ATOM     81  C   UNL A   1      39.743  35.156  37.107  1.00  0.00     0.001 A 
ATOM     82  C   UNL A   1      38.612  34.394  37.396  1.00  0.00     0.000 A 
ENDBRANCH  58  77
BRANCH  70  83
ATOM     83  C   UNL A   1      42.617  26.760  34.256  1.00  0.00    -0.014 A 
ATOM     84  C   UNL A   1      43.748  25.934  34.232  1.00  0.00     0.009 A 
ATOM     85  C   UNL A   1      41.482  26.265  34.932  1.00  0.00     0.009 A 
ATOM     86  C   UNL A   1      43.733  24.660  34.804  1.00  0.00     0.001 A 
ATOM     87  C   UNL A   1      41.484  25.026  35.566  1.00  0.00     0.001 A 
ATOM     88  C   UNL A   1      42.605  24.214  35.485  1.00  0.00     0.000 A 
ENDBRANCH  70  83
ENDBRANCH  44  45
ENDBRANCH  37  39
ENDBRANCH  36  37
ENDBRANCH  35  36
ENDBRANCH  34  35
ENDBRANCH  33  34
ENDBRANCH   1  33
TORSDOF 18
ENDMDL
MODEL 3
REMARK VINA RESULT:     -11.8      1.859      2.626
REMARK SMILES Cc1ccc(NC(=O)c2ccccc2NC(=O)[C@H]2CCCC[C@H]2C(=O)OCCOCCOC(=O)c2ccc(-c3c4nc(c(-c5ccccc5)c5ccc([nH]5)c(-c5ccccc5)c5nc(c(-c6ccccc6)c6ccc3[nH]6)C=C5)C=C4)cc2)cc1
REMARK SMILES IDX 28 1 27 2 26 3 24 4 25 5 23 6 18 7 19 8 20 9 22 10 21 11
REMARK SMILES IDX 16 12 15 13 17 15 14 16 9 17 10 18 11 19 13 20 12 21 7 22
REMARK SMILES IDX 6 23 8 25 5 26 1 27 2 28 3 29 84 30 4 31 83 32 29 33 30 34
REMARK SMILES IDX 31 35 32 36 33 37 34 38 35 39 36 40 82 41 37 42 81 43 38 44
REMARK SMILES IDX 39 45 40 46 75 47 41 48 80 49 74 50 76 51 42 52 79 53 73 54
REMARK SMILES IDX 72 55 43 57 65 58 50 59 64 60 51 61 54 62 63 63 77 64 52 65
REMARK SMILES IDX 53 66 62 68 78 69 55 70 44 71 45 72 49 73 46 74 48 75 47 76
REMARK SMILES IDX 66 77 67 78 71 79 68 80 70 81 69 82 56 83 57 84 61 85 58 86
REMARK SMILES IDX 60 87 59 88
REMARK H PARENT 15 14 6 24 76 56 54 67
REMARK Flexibility Score: inf
ROOT
ATOM      1  C   UNL A   1      38.092  22.966  25.767  1.00  0.00     0.202 C 
ENDROOT
BRANCH   1   2
ATOM      2  C   UNL A   1      37.012  22.479  24.869  1.00  0.00     0.261 C 
BRANCH   2   3
ATOM      3  O   UNL A   1      35.903  21.922  25.555  1.00  0.00    -0.463 OA
BRANCH   3   4
ATOM      4  C   UNL A   1      34.995  22.791  26.065  1.00  0.00     0.309 C 
ATOM      5  O   UNL A   1      35.205  23.672  26.867  1.00  0.00    -0.252 OA
BRANCH   4   6
ATOM      6  C   UNL A   1      33.661  22.528  25.404  1.00  0.00     0.111 C 
ATOM      7  C   UNL A   1      32.927  23.855  25.040  1.00  0.00     0.093 C 
ATOM      8  C   UNL A   1      31.619  23.545  24.308  1.00  0.00     0.014 C 
ATOM      9  C   UNL A   1      31.820  22.566  23.145  1.00  0.00     0.001 C 
ATOM     10  C   UNL A   1      33.815  21.522  24.267  1.00  0.00     0.016 C 
ATOM     11  C   UNL A   1      32.475  21.264  23.589  1.00  0.00     0.001 C 
BRANCH   7  12
ATOM     12  C   UNL A   1      33.710  24.858  24.175  1.00  0.00     0.228 C 
ATOM     13  N   UNL A   1      33.732  26.210  24.376  1.00  0.00    -0.325 N 
ATOM     14  H   UNL A   1      34.402  26.636  23.794  1.00  0.00     0.169 HD
ATOM     15  O   UNL A   1      34.416  24.445  23.244  1.00  0.00    -0.274 OA
BRANCH  13  16
ATOM     16  C   UNL A   1      33.074  27.181  25.177  1.00  0.00     0.054 A 
ATOM     17  C   UNL A   1      32.830  28.493  24.669  1.00  0.00     0.063 A 
ATOM     18  C   UNL A   1      32.397  29.506  25.557  1.00  0.00     0.016 A 
ATOM     19  C   UNL A   1      32.158  29.242  26.902  1.00  0.00     0.001 A 
ATOM     20  C   UNL A   1      32.721  26.924  26.508  1.00  0.00     0.027 A 
ATOM     21  C   UNL A   1      32.295  27.945  27.368  1.00  0.00     0.002 A 
BRANCH  17  22
ATOM     22  C   UNL A   1      33.113  29.013  23.291  1.00  0.00     0.257 C 
ATOM     23  N   UNL A   1      32.200  29.110  22.266  1.00  0.00    -0.322 N 
ATOM     24  H   UNL A   1      32.603  29.344  21.399  1.00  0.00     0.170 HD
ATOM     25  O   UNL A   1      34.271  29.349  23.029  1.00  0.00    -0.269 OA
BRANCH  23  26
ATOM     26  C   UNL A   1      30.813  28.941  22.213  1.00  0.00     0.041 A 
ATOM     27  C   UNL A   1      26.755  28.759  23.533  1.00  0.00     0.044 C 
ATOM     28  C   UNL A   1      28.130  28.752  22.941  1.00  0.00    -0.051 A 
ATOM     29  C   UNL A   1      28.595  29.872  22.241  1.00  0.00     0.005 A 
ATOM     30  C   UNL A   1      28.984  27.662  23.128  1.00  0.00     0.005 A 
ATOM     31  C   UNL A   1      29.933  29.957  21.855  1.00  0.00     0.026 A 
ATOM     32  C   UNL A   1      30.317  27.741  22.727  1.00  0.00     0.026 A 
ENDBRANCH  23  26
ENDBRANCH  17  22
ENDBRANCH  13  16
ENDBRANCH   7  12
ENDBRANCH   4   6
ENDBRANCH   3   4
ENDBRANCH   2   3
ENDBRANCH   1   2
BRANCH   1  33
ATOM     33  O   UNL A   1      38.633  21.885  26.499  1.00  0.00    -0.374 OA
BRANCH  33  34
ATOM     34  C   UNL A   1      39.020  20.794  25.674  1.00  0.00     0.202 C 
BRANCH  34  35
ATOM     35  C   UNL A   1      40.446  20.273  25.949  1.00  0.00     0.261 C 
BRANCH  35  36
ATOM     36  O   UNL A   1      41.419  21.300  25.646  1.00  0.00    -0.460 OA
BRANCH  36  37
ATOM     37  C   UNL A   1      42.722  21.021  25.948  1.00  0.00     0.338 C 
ATOM     38  O   UNL A   1      43.320  20.007  25.629  1.00  0.00    -0.246 OA
BRANCH  37  39
ATOM     39  C   UNL A   1      43.211  21.971  26.996  1.00  0.00     0.060 A 
ATOM     40  C   UNL A   1      42.604  22.012  28.269  1.00  0.00     0.016 A 
ATOM     41  C   UNL A   1      43.959  23.056  26.562  1.00  0.00     0.016 A 
ATOM     42  C   UNL A   1      42.600  23.203  29.019  1.00  0.00     0.010 A 
ATOM     43  C   UNL A   1      43.801  24.254  27.220  1.00  0.00     0.010 A 
ATOM     44  C   UNL A   1      43.114  24.359  28.445  1.00  0.00    -0.014 A 
BRANCH  44  45
ATOM     45  C   UNL A   1      42.947  25.750  28.909  1.00  0.00     0.031 A 
ATOM     46  C   UNL A   1      41.751  26.463  28.395  1.00  0.00     0.074 A 
ATOM     47  C   UNL A   1      43.641  26.287  29.953  1.00  0.00     0.049 A 
ATOM     48  N   UNL A   1      41.547  27.718  28.564  1.00  0.00    -0.248 NA
ATOM     49  C   UNL A   1      40.682  25.835  27.613  1.00  0.00     0.031 C 
ATOM     50  C   UNL A   1      43.285  27.425  30.811  1.00  0.00     0.029 A 
ATOM     51  N   UNL A   1      44.893  25.926  30.468  1.00  0.00    -0.354 N 
ATOM     52  C   UNL A   1      40.236  27.975  28.256  1.00  0.00     0.074 A 
ATOM     53  C   UNL A   1      39.767  26.805  27.570  1.00  0.00     0.031 C 
ATOM     54  C   UNL A   1      44.379  27.862  31.465  1.00  0.00     0.029 A 
ATOM     55  C   UNL A   1      45.504  27.081  30.982  1.00  0.00     0.049 A 
ATOM     56  H   UNL A   1      45.277  25.020  30.470  1.00  0.00     0.167 HD
ATOM     57  C   UNL A   1      39.684  29.118  28.739  1.00  0.00     0.031 A 
ATOM     58  C   UNL A   1      46.690  27.506  30.474  1.00  0.00     0.031 A 
ATOM     59  C   UNL A   1      40.714  29.966  29.356  1.00  0.00     0.049 A 
ATOM     60  C   UNL A   1      46.442  28.825  29.807  1.00  0.00     0.074 A 
ATOM     61  C   UNL A   1      41.031  30.287  30.664  1.00  0.00     0.029 A 
ATOM     62  N   UNL A   1      41.828  30.316  28.589  1.00  0.00    -0.354 N 
ATOM     63  N   UNL A   1      45.248  29.194  29.424  1.00  0.00    -0.248 NA
ATOM     64  C   UNL A   1      47.440  29.868  29.615  1.00  0.00     0.031 C 
ATOM     65  C   UNL A   1      42.386  30.746  30.680  1.00  0.00     0.029 A 
ATOM     66  C   UNL A   1      42.875  30.745  29.381  1.00  0.00     0.049 A 
ATOM     67  H   UNL A   1      41.862  30.262  27.606  1.00  0.00     0.167 HD
ATOM     68  C   UNL A   1      45.267  30.504  29.072  1.00  0.00     0.074 A 
ATOM     69  C   UNL A   1      46.673  30.872  29.148  1.00  0.00     0.031 C 
ATOM     70  C   UNL A   1      44.129  31.189  28.769  1.00  0.00     0.031 A 
BRANCH  57  71
ATOM     71  C   UNL A   1      38.200  29.391  28.806  1.00  0.00    -0.014 A 
ATOM     72  C   UNL A   1      37.506  29.686  27.621  1.00  0.00     0.009 A 
ATOM     73  C   UNL A   1      37.436  29.444  29.988  1.00  0.00     0.009 A 
ATOM     74  C   UNL A   1      36.139  30.006  27.618  1.00  0.00     0.001 A 
ATOM     75  C   UNL A   1      36.066  29.741  29.993  1.00  0.00     0.001 A 
ATOM     76  C   UNL A   1      35.417  30.026  28.804  1.00  0.00     0.000 A 
ENDBRANCH  57  71
BRANCH  58  77
ATOM     77  C   UNL A   1      47.536  26.340  30.050  1.00  0.00    -0.014 A 
ATOM     78  C   UNL A   1      47.678  26.171  28.650  1.00  0.00     0.009 A 
ATOM     79  C   UNL A   1      48.550  25.830  30.875  1.00  0.00     0.009 A 
ATOM     80  C   UNL A   1      48.884  25.725  28.100  1.00  0.00     0.001 A 
ATOM     81  C   UNL A   1      49.734  25.321  30.308  1.00  0.00     0.001 A 
ATOM     82  C   UNL A   1      49.927  25.328  28.927  1.00  0.00     0.000 A 
ENDBRANCH  58  77
BRANCH  70  83
ATOM     83  C   UNL A   1      44.116  32.380  27.855  1.00  0.00    -0.014 A 
ATOM     84  C   UNL A   1      44.048  33.702  28.313  1.00  0.00     0.009 A 
ATOM     85  C   UNL A   1      44.378  32.194  26.482  1.00  0.00     0.009 A 
ATOM     86  C   UNL A   1      44.181  34.783  27.438  1.00  0.00     0.001 A 
ATOM     87  C   UNL A   1      44.583  33.267  25.619  1.00  0.00     0.001 A 
ATOM     88  C   UNL A   1      44.464  34.565  26.095  1.00  0.00     0.000 A 
ENDBRANCH  70  83
ENDBRANCH  44  45
ENDBRANCH  37  39
ENDBRANCH  36  37
ENDBRANCH  35  36
ENDBRANCH  34  35
ENDBRANCH  33  34
ENDBRANCH   1  33
TORSDOF 18
ENDMDL
