MODEL 1
REMARK VINA RESULT:      -9.5      0.000      0.000
REMARK SMILES CCCC[C@@H](C(=O)OCCOCCOC(=O)c1ccc(-c2c3nc(c(-c4ccccc4)c4ccc([nH]4)c(-c4ccccc4)c4nc(c(-c5ccccc5)c5ccc2[nH]5)C=C4)C=C3)cc1)C1(O)Cc2ccccc2C1
REMARK SMILES IDX 10 1 9 2 8 3 6 4 7 5 5 6 4 7 3 8 2 9 1 10 65 11 67 12 74 13
REMARK SMILES IDX 68 14 73 15 69 16 72 17 70 18 71 19 66 20 11 22 12 23 13 24
REMARK SMILES IDX 14 25 15 26 16 27 17 28 18 29 64 30 19 31 63 32 20 33 21 34
REMARK SMILES IDX 22 35 57 36 23 37 62 38 56 39 58 40 24 41 61 42 55 43 54 44
REMARK SMILES IDX 25 46 47 47 32 48 46 49 33 50 36 51 45 52 59 53 34 54 35 55
REMARK SMILES IDX 44 57 60 58 37 59 26 60 27 61 31 62 28 63 30 64 29 65 48 66
REMARK SMILES IDX 49 67 53 68 50 69 52 70 51 71 38 72 39 73 43 74 40 75 42 76
REMARK SMILES IDX 41 77
REMARK H PARENT 66 21 58 45 36 56
REMARK Flexibility Score: inf
ROOT
ATOM      1  C   UNL A   1      33.698  22.507  24.093  1.00  0.00     0.202 C 
ENDROOT
BRANCH   1   2
ATOM      2  C   UNL A   1      34.099  23.548  23.053  1.00  0.00     0.261 C 
BRANCH   2   3
ATOM      3  O   UNL A   1      32.920  24.282  22.705  1.00  0.00    -0.463 OA
BRANCH   3   4
ATOM      4  C   UNL A   1      33.052  25.616  22.610  1.00  0.00     0.311 C 
ATOM      5  O   UNL A   1      33.918  26.190  21.963  1.00  0.00    -0.252 OA
BRANCH   4   6
ATOM      6  C   UNL A   1      31.940  26.330  23.356  1.00  0.00     0.131 C 
BRANCH   6   7
ATOM      7  C   UNL A   1      31.699  27.781  22.864  1.00  0.00     0.018 C 
BRANCH   7   8
ATOM      8  C   UNL A   1      30.246  28.215  22.585  1.00  0.00     0.001 C 
BRANCH   8   9
ATOM      9  C   UNL A   1      29.998  29.693  22.295  1.00  0.00    -0.003 C 
ATOM     10  C   UNL A   1      29.388  30.443  23.465  1.00  0.00     0.004 C 
ENDBRANCH   8   9
ENDBRANCH   7   8
ENDBRANCH   6   7
BRANCH   6  11
ATOM     11  C   UNL A   1      32.048  26.161  24.921  1.00  0.00     0.086 C 
ATOM     12  C   UNL A   1      33.485  26.368  25.508  1.00  0.00     0.072 C 
ATOM     13  C   UNL A   1      31.151  27.069  25.833  1.00  0.00     0.072 C 
ATOM     14  C   UNL A   1      33.420  27.759  26.055  1.00  0.00    -0.042 A 
ATOM     15  C   UNL A   1      32.103  28.106  26.344  1.00  0.00    -0.042 A 
ATOM     16  C   UNL A   1      34.463  28.628  26.337  1.00  0.00     0.004 A 
ATOM     17  C   UNL A   1      31.805  29.279  27.023  1.00  0.00     0.004 A 
ATOM     18  C   UNL A   1      34.165  29.849  26.946  1.00  0.00     0.000 A 
ATOM     19  C   UNL A   1      32.850  30.159  27.317  1.00  0.00     0.000 A 
BRANCH  11  20
ATOM     20  O   UNL A   1      31.639  24.803  25.207  1.00  0.00    -0.388 OA
ATOM     21  H   UNL A   1      31.565  24.684  26.168  1.00  0.00     0.211 HD
ENDBRANCH  11  20
ENDBRANCH   6  11
ENDBRANCH   4   6
ENDBRANCH   3   4
ENDBRANCH   2   3
ENDBRANCH   1   2
BRANCH   1  22
ATOM     22  O   UNL A   1      34.087  22.777  25.442  1.00  0.00    -0.374 OA
BRANCH  22  23
ATOM     23  C   UNL A   1      35.469  22.672  25.774  1.00  0.00     0.202 C 
BRANCH  23  24
ATOM     24  C   UNL A   1      36.294  23.958  25.867  1.00  0.00     0.261 C 
BRANCH  24  25
ATOM     25  O   UNL A   1      37.573  23.829  25.263  1.00  0.00    -0.460 OA
BRANCH  25  26
ATOM     26  C   UNL A   1      38.495  23.288  26.093  1.00  0.00     0.338 C 
ATOM     27  O   UNL A   1      38.824  22.120  26.201  1.00  0.00    -0.246 OA
BRANCH  26  28
ATOM     28  C   UNL A   1      39.184  24.394  26.765  1.00  0.00     0.060 A 
ATOM     29  C   UNL A   1      38.980  24.554  28.141  1.00  0.00     0.016 A 
ATOM     30  C   UNL A   1      40.018  25.250  26.043  1.00  0.00     0.016 A 
ATOM     31  C   UNL A   1      39.571  25.623  28.799  1.00  0.00     0.010 A 
ATOM     32  C   UNL A   1      40.598  26.326  26.697  1.00  0.00     0.010 A 
ATOM     33  C   UNL A   1      40.334  26.536  28.061  1.00  0.00    -0.014 A 
BRANCH  33  34
ATOM     34  C   UNL A   1      40.644  27.860  28.622  1.00  0.00     0.031 A 
ATOM     35  C   UNL A   1      42.003  28.041  29.231  1.00  0.00     0.074 A 
ATOM     36  C   UNL A   1      39.718  28.828  28.643  1.00  0.00     0.049 A 
ATOM     37  N   UNL A   1      42.462  29.026  29.951  1.00  0.00    -0.248 NA
ATOM     38  C   UNL A   1      42.968  26.947  29.014  1.00  0.00     0.031 C 
ATOM     39  C   UNL A   1      38.390  28.747  28.035  1.00  0.00     0.029 A 
ATOM     40  N   UNL A   1      39.750  30.064  29.228  1.00  0.00    -0.354 N 
ATOM     41  C   UNL A   1      43.760  28.663  30.287  1.00  0.00     0.074 A 
ATOM     42  C   UNL A   1      44.011  27.361  29.715  1.00  0.00     0.031 C 
ATOM     43  C   UNL A   1      37.722  29.883  28.302  1.00  0.00     0.029 A 
ATOM     44  C   UNL A   1      38.562  30.742  29.132  1.00  0.00     0.049 A 
ATOM     45  H   UNL A   1      40.548  30.430  29.674  1.00  0.00     0.167 HD
ATOM     46  C   UNL A   1      44.661  29.358  31.017  1.00  0.00     0.031 A 
ATOM     47  C   UNL A   1      38.197  31.911  29.690  1.00  0.00     0.031 A 
ATOM     48  C   UNL A   1      44.379  30.638  31.601  1.00  0.00     0.049 A 
ATOM     49  C   UNL A   1      39.193  32.637  30.554  1.00  0.00     0.074 A 
ATOM     50  C   UNL A   1      45.199  31.439  32.371  1.00  0.00     0.029 A 
ATOM     51  N   UNL A   1      43.165  31.299  31.474  1.00  0.00    -0.354 N 
ATOM     52  N   UNL A   1      40.420  32.291  30.868  1.00  0.00    -0.248 NA
ATOM     53  C   UNL A   1      38.756  33.911  31.139  1.00  0.00     0.031 C 
ATOM     54  C   UNL A   1      44.467  32.573  32.741  1.00  0.00     0.029 A 
ATOM     55  C   UNL A   1      43.211  32.497  32.158  1.00  0.00     0.049 A 
ATOM     56  H   UNL A   1      42.389  30.964  30.971  1.00  0.00     0.167 HD
ATOM     57  C   UNL A   1      40.915  33.323  31.654  1.00  0.00     0.074 A 
ATOM     58  C   UNL A   1      39.855  34.305  31.769  1.00  0.00     0.031 C 
ATOM     59  C   UNL A   1      42.137  33.455  32.227  1.00  0.00     0.031 A 
BRANCH  46  60
ATOM     60  C   UNL A   1      46.002  28.723  31.243  1.00  0.00    -0.014 A 
ATOM     61  C   UNL A   1      46.203  27.799  32.282  1.00  0.00     0.009 A 
ATOM     62  C   UNL A   1      47.082  29.054  30.410  1.00  0.00     0.009 A 
ATOM     63  C   UNL A   1      47.466  27.247  32.503  1.00  0.00     0.001 A 
ATOM     64  C   UNL A   1      48.337  28.479  30.617  1.00  0.00     0.001 A 
ATOM     65  C   UNL A   1      48.531  27.585  31.670  1.00  0.00     0.000 A 
ENDBRANCH  46  60
BRANCH  47  66
ATOM     66  C   UNL A   1      36.834  32.455  29.461  1.00  0.00    -0.014 A 
ATOM     67  C   UNL A   1      36.535  33.149  28.279  1.00  0.00     0.009 A 
ATOM     68  C   UNL A   1      35.822  32.282  30.419  1.00  0.00     0.009 A 
ATOM     69  C   UNL A   1      35.260  33.680  28.072  1.00  0.00     0.001 A 
ATOM     70  C   UNL A   1      34.541  32.791  30.198  1.00  0.00     0.001 A 
ATOM     71  C   UNL A   1      34.263  33.498  29.030  1.00  0.00     0.000 A 
ENDBRANCH  47  66
BRANCH  59  72
ATOM     72  C   UNL A   1      42.413  34.729  32.968  1.00  0.00    -0.014 A 
ATOM     73  C   UNL A   1      43.090  35.795  32.360  1.00  0.00     0.009 A 
ATOM     74  C   UNL A   1      41.914  34.885  34.271  1.00  0.00     0.009 A 
ATOM     75  C   UNL A   1      43.277  36.992  33.053  1.00  0.00     0.001 A 
ATOM     76  C   UNL A   1      42.081  36.090  34.950  1.00  0.00     0.001 A 
ATOM     77  C   UNL A   1      42.766  37.141  34.343  1.00  0.00     0.000 A 
ENDBRANCH  59  72
ENDBRANCH  33  34
ENDBRANCH  26  28
ENDBRANCH  25  26
ENDBRANCH  24  25
ENDBRANCH  23  24
ENDBRANCH  22  23
ENDBRANCH   1  22
TORSDOF 19
ENDMDL
MODEL 2
REMARK VINA RESULT:      -9.4      2.872      4.724
REMARK SMILES CCCC[C@@H](C(=O)OCCOCCOC(=O)c1ccc(-c2c3nc(c(-c4ccccc4)c4ccc([nH]4)c(-c4ccccc4)c4nc(c(-c5ccccc5)c5ccc2[nH]5)C=C4)C=C3)cc1)C1(O)Cc2ccccc2C1
REMARK SMILES IDX 10 1 9 2 8 3 6 4 7 5 5 6 4 7 3 8 2 9 1 10 65 11 67 12 74 13
REMARK SMILES IDX 68 14 73 15 69 16 72 17 70 18 71 19 66 20 11 22 12 23 13 24
REMARK SMILES IDX 14 25 15 26 16 27 17 28 18 29 64 30 19 31 63 32 20 33 21 34
REMARK SMILES IDX 22 35 57 36 23 37 62 38 56 39 58 40 24 41 61 42 55 43 54 44
REMARK SMILES IDX 25 46 47 47 32 48 46 49 33 50 36 51 45 52 59 53 34 54 35 55
REMARK SMILES IDX 44 57 60 58 37 59 26 60 27 61 31 62 28 63 30 64 29 65 48 66
REMARK SMILES IDX 49 67 53 68 50 69 52 70 51 71 38 72 39 73 43 74 40 75 42 76
REMARK SMILES IDX 41 77
REMARK H PARENT 66 21 58 45 36 56
REMARK Flexibility Score: inf
ROOT
ATOM      1  C   UNL A   1      39.734  20.228  25.722  1.00  0.00     0.202 C 
ENDROOT
BRANCH   1   2
ATOM      2  C   UNL A   1      39.214  21.607  26.115  1.00  0.00     0.261 C 
BRANCH   2   3
ATOM      3  O   UNL A   1      37.913  21.755  25.536  1.00  0.00    -0.463 OA
BRANCH   3   4
ATOM      4  C   UNL A   1      37.314  22.945  25.707  1.00  0.00     0.311 C 
ATOM      5  O   UNL A   1      37.893  23.989  25.976  1.00  0.00    -0.252 OA
BRANCH   4   6
ATOM      6  C   UNL A   1      35.820  22.846  25.455  1.00  0.00     0.131 C 
BRANCH   6   7
ATOM      7  C   UNL A   1      35.214  21.478  25.866  1.00  0.00     0.018 C 
BRANCH   7   8
ATOM      8  C   UNL A   1      33.928  21.486  26.716  1.00  0.00     0.001 C 
BRANCH   8   9
ATOM      9  C   UNL A   1      33.453  22.830  27.260  1.00  0.00    -0.003 C 
ATOM     10  C   UNL A   1      31.954  23.035  27.138  1.00  0.00     0.004 C 
ENDBRANCH   8   9
ENDBRANCH   7   8
ENDBRANCH   6   7
BRANCH   6  11
ATOM     11  C   UNL A   1      35.407  23.359  24.022  1.00  0.00     0.086 C 
ATOM     12  C   UNL A   1      34.351  22.470  23.283  1.00  0.00     0.072 C 
ATOM     13  C   UNL A   1      34.818  24.807  23.889  1.00  0.00     0.072 C 
ATOM     14  C   UNL A   1      33.078  23.229  23.492  1.00  0.00    -0.042 A 
ATOM     15  C   UNL A   1      33.348  24.575  23.721  1.00  0.00    -0.042 A 
ATOM     16  C   UNL A   1      31.774  22.767  23.419  1.00  0.00     0.004 A 
ATOM     17  C   UNL A   1      32.325  25.511  23.770  1.00  0.00     0.004 A 
ATOM     18  C   UNL A   1      30.733  23.689  23.550  1.00  0.00     0.000 A 
ATOM     19  C   UNL A   1      31.006  25.056  23.691  1.00  0.00     0.000 A 
BRANCH  11  20
ATOM     20  O   UNL A   1      36.620  23.362  23.232  1.00  0.00    -0.388 OA
ATOM     21  H   UNL A   1      36.525  23.988  22.497  1.00  0.00     0.211 HD
ENDBRANCH  11  20
ENDBRANCH   6  11
ENDBRANCH   4   6
ENDBRANCH   3   4
ENDBRANCH   2   3
ENDBRANCH   1   2
BRANCH   1  22
ATOM     22  O   UNL A   1      40.953  19.810  26.342  1.00  0.00    -0.374 OA
BRANCH  22  23
ATOM     23  C   UNL A   1      41.835  20.818  26.830  1.00  0.00     0.202 C 
BRANCH  23  24
ATOM     24  C   UNL A   1      42.845  21.434  25.858  1.00  0.00     0.261 C 
BRANCH  24  25
ATOM     25  O   UNL A   1      42.323  22.564  25.174  1.00  0.00    -0.460 OA
BRANCH  25  26
ATOM     26  C   UNL A   1      43.192  23.601  25.133  1.00  0.00     0.338 C 
ATOM     27  O   UNL A   1      44.201  23.717  24.461  1.00  0.00    -0.246 OA
BRANCH  26  28
ATOM     28  C   UNL A   1      42.622  24.684  25.941  1.00  0.00     0.060 A 
ATOM     29  C   UNL A   1      43.246  25.936  25.891  1.00  0.00     0.016 A 
ATOM     30  C   UNL A   1      41.489  24.459  26.725  1.00  0.00     0.016 A 
ATOM     31  C   UNL A   1      42.768  26.969  26.685  1.00  0.00     0.010 A 
ATOM     32  C   UNL A   1      41.019  25.486  27.529  1.00  0.00     0.010 A 
ATOM     33  C   UNL A   1      41.689  26.721  27.543  1.00  0.00    -0.014 A 
BRANCH  33  34
ATOM     34  C   UNL A   1      41.406  27.641  28.656  1.00  0.00     0.031 A 
ATOM     35  C   UNL A   1      42.222  27.471  29.903  1.00  0.00     0.074 A 
ATOM     36  C   UNL A   1      40.414  28.536  28.568  1.00  0.00     0.049 A 
ATOM     37  N   UNL A   1      42.057  28.011  31.080  1.00  0.00    -0.248 NA
ATOM     38  C   UNL A   1      43.370  26.549  29.815  1.00  0.00     0.031 C 
ATOM     39  C   UNL A   1      39.603  28.792  27.377  1.00  0.00     0.029 A 
ATOM     40  N   UNL A   1      39.902  29.378  29.516  1.00  0.00    -0.354 N 
ATOM     41  C   UNL A   1      43.066  27.480  31.873  1.00  0.00     0.074 A 
ATOM     42  C   UNL A   1      43.825  26.561  31.057  1.00  0.00     0.031 C 
ATOM     43  C   UNL A   1      38.674  29.717  27.678  1.00  0.00     0.029 A 
ATOM     44  C   UNL A   1      38.803  30.078  29.087  1.00  0.00     0.049 A 
ATOM     45  H   UNL A   1      40.284  29.472  30.420  1.00  0.00     0.167 HD
ATOM     46  C   UNL A   1      43.330  27.737  33.174  1.00  0.00     0.031 A 
ATOM     47  C   UNL A   1      37.982  30.889  29.778  1.00  0.00     0.031 A 
ATOM     48  C   UNL A   1      42.542  28.632  33.972  1.00  0.00     0.049 A 
ATOM     49  C   UNL A   1      38.254  31.109  31.242  1.00  0.00     0.074 A 
ATOM     50  C   UNL A   1      42.697  28.969  35.303  1.00  0.00     0.029 A 
ATOM     51  N   UNL A   1      41.441  29.332  33.499  1.00  0.00    -0.354 N 
ATOM     52  N   UNL A   1      39.210  30.607  31.989  1.00  0.00    -0.248 NA
ATOM     53  C   UNL A   1      37.337  32.005  31.957  1.00  0.00     0.031 C 
ATOM     54  C   UNL A   1      41.663  29.848  35.646  1.00  0.00     0.029 A 
ATOM     55  C   UNL A   1      40.900  30.095  34.514  1.00  0.00     0.049 A 
ATOM     56  H   UNL A   1      41.099  29.291  32.578  1.00  0.00     0.167 HD
ATOM     57  C   UNL A   1      39.034  31.157  33.252  1.00  0.00     0.074 A 
ATOM     58  C   UNL A   1      37.878  32.028  33.168  1.00  0.00     0.031 C 
ATOM     59  C   UNL A   1      39.760  30.967  34.379  1.00  0.00     0.031 A 
BRANCH  46  60
ATOM     60  C   UNL A   1      44.484  27.011  33.798  1.00  0.00    -0.014 A 
ATOM     61  C   UNL A   1      45.797  27.499  33.688  1.00  0.00     0.009 A 
ATOM     62  C   UNL A   1      44.261  25.818  34.504  1.00  0.00     0.009 A 
ATOM     63  C   UNL A   1      46.864  26.790  34.241  1.00  0.00     0.001 A 
ATOM     64  C   UNL A   1      45.328  25.126  35.079  1.00  0.00     0.001 A 
ATOM     65  C   UNL A   1      46.630  25.606  34.939  1.00  0.00     0.000 A 
ENDBRANCH  46  60
BRANCH  47  66
ATOM     66  C   UNL A   1      36.829  31.536  29.102  1.00  0.00    -0.014 A 
ATOM     67  C   UNL A   1      35.612  30.851  28.960  1.00  0.00     0.009 A 
ATOM     68  C   UNL A   1      36.933  32.843  28.597  1.00  0.00     0.009 A 
ATOM     69  C   UNL A   1      34.534  31.451  28.305  1.00  0.00     0.001 A 
ATOM     70  C   UNL A   1      35.846  33.449  27.966  1.00  0.00     0.001 A 
ATOM     71  C   UNL A   1      34.650  32.750  27.812  1.00  0.00     0.000 A 
ENDBRANCH  47  66
BRANCH  59  72
ATOM     72  C   UNL A   1      39.371  31.762  35.589  1.00  0.00    -0.014 A 
ATOM     73  C   UNL A   1      39.951  33.009  35.860  1.00  0.00     0.009 A 
ATOM     74  C   UNL A   1      38.348  31.283  36.424  1.00  0.00     0.009 A 
ATOM     75  C   UNL A   1      39.523  33.755  36.959  1.00  0.00     0.001 A 
ATOM     76  C   UNL A   1      37.907  32.043  37.505  1.00  0.00     0.001 A 
ATOM     77  C   UNL A   1      38.497  33.276  37.775  1.00  0.00     0.000 A 
ENDBRANCH  59  72
ENDBRANCH  33  34
ENDBRANCH  26  28
ENDBRANCH  25  26
ENDBRANCH  24  25
ENDBRANCH  23  24
ENDBRANCH  22  23
ENDBRANCH   1  22
TORSDOF 19
ENDMDL
MODEL 3
REMARK VINA RESULT:      -9.3      2.950      6.605
REMARK SMILES CCCC[C@@H](C(=O)OCCOCCOC(=O)c1ccc(-c2c3nc(c(-c4ccccc4)c4ccc([nH]4)c(-c4ccccc4)c4nc(c(-c5ccccc5)c5ccc2[nH]5)C=C4)C=C3)cc1)C1(O)Cc2ccccc2C1
REMARK SMILES IDX 10 1 9 2 8 3 6 4 7 5 5 6 4 7 3 8 2 9 1 10 65 11 67 12 74 13
REMARK SMILES IDX 68 14 73 15 69 16 72 17 70 18 71 19 66 20 11 22 12 23 13 24
REMARK SMILES IDX 14 25 15 26 16 27 17 28 18 29 64 30 19 31 63 32 20 33 21 34
REMARK SMILES IDX 22 35 57 36 23 37 62 38 56 39 58 40 24 41 61 42 55 43 54 44
REMARK SMILES IDX 25 46 47 47 32 48 46 49 33 50 36 51 45 52 59 53 34 54 35 55
REMARK SMILES IDX 44 57 60 58 37 59 26 60 27 61 31 62 28 63 30 64 29 65 48 66
REMARK SMILES IDX 49 67 53 68 50 69 52 70 51 71 38 72 39 73 43 74 40 75 42 76
REMARK SMILES IDX 41 77
REMARK H PARENT 66 21 58 45 36 56
REMARK Flexibility Score: inf
ROOT
ATOM      1  C   UNL A   1      34.519  21.447  26.366  1.00  0.00     0.202 C 
ENDROOT
BRANCH   1   2
ATOM      2  C   UNL A   1      33.424  22.120  27.186  1.00  0.00     0.261 C 
BRANCH   2   3
ATOM      3  O   UNL A   1      32.377  22.488  26.282  1.00  0.00    -0.463 OA
BRANCH   3   4
ATOM      4  C   UNL A   1      31.737  23.641  26.544  1.00  0.00     0.311 C 
ATOM      5  O   UNL A   1      30.812  23.763  27.336  1.00  0.00    -0.252 OA
BRANCH   4   6
ATOM      6  C   UNL A   1      32.357  24.797  25.780  1.00  0.00     0.131 C 
BRANCH   6   7
ATOM      7  C   UNL A   1      32.184  26.167  26.487  1.00  0.00     0.018 C 
BRANCH   7   8
ATOM      8  C   UNL A   1      33.331  27.189  26.367  1.00  0.00     0.001 C 
BRANCH   8   9
ATOM      9  C   UNL A   1      32.957  28.627  26.016  1.00  0.00    -0.003 C 
ATOM     10  C   UNL A   1      31.806  29.169  26.843  1.00  0.00     0.004 C 
ENDBRANCH   8   9
ENDBRANCH   7   8
ENDBRANCH   6   7
BRANCH   6  11
ATOM     11  C   UNL A   1      31.990  24.782  24.247  1.00  0.00     0.086 C 
ATOM     12  C   UNL A   1      30.457  24.845  23.935  1.00  0.00     0.072 C 
ATOM     13  C   UNL A   1      32.593  25.899  23.325  1.00  0.00     0.072 C 
ATOM     14  C   UNL A   1      30.254  26.282  23.569  1.00  0.00    -0.042 A 
ATOM     15  C   UNL A   1      31.447  26.840  23.115  1.00  0.00    -0.042 A 
ATOM     16  C   UNL A   1      29.081  27.020  23.578  1.00  0.00     0.004 A 
ATOM     17  C   UNL A   1      31.474  28.108  22.553  1.00  0.00     0.004 A 
ATOM     18  C   UNL A   1      29.115  28.329  23.091  1.00  0.00     0.000 A 
ATOM     19  C   UNL A   1      30.296  28.859  22.552  1.00  0.00     0.000 A 
BRANCH  11  20
ATOM     20  O   UNL A   1      32.500  23.533  23.724  1.00  0.00    -0.388 OA
ATOM     21  H   UNL A   1      33.196  23.716  23.072  1.00  0.00     0.211 HD
ENDBRANCH  11  20
ENDBRANCH   6  11
ENDBRANCH   4   6
ENDBRANCH   3   4
ENDBRANCH   2   3
ENDBRANCH   1   2
BRANCH   1  22
ATOM     22  O   UNL A   1      34.505  21.702  24.959  1.00  0.00    -0.374 OA
BRANCH  22  23
ATOM     23  C   UNL A   1      35.746  21.661  24.259  1.00  0.00     0.202 C 
BRANCH  23  24
ATOM     24  C   UNL A   1      36.986  21.166  25.006  1.00  0.00     0.261 C 
BRANCH  24  25
ATOM     25  O   UNL A   1      37.890  22.216  25.317  1.00  0.00    -0.460 OA
BRANCH  25  26
ATOM     26  C   UNL A   1      38.952  21.798  26.045  1.00  0.00     0.338 C 
ATOM     27  O   UNL A   1      39.458  20.691  26.078  1.00  0.00    -0.246 OA
BRANCH  26  28
ATOM     28  C   UNL A   1      39.527  22.977  26.700  1.00  0.00     0.060 A 
ATOM     29  C   UNL A   1      38.925  24.218  26.460  1.00  0.00     0.016 A 
ATOM     30  C   UNL A   1      40.636  22.850  27.537  1.00  0.00     0.016 A 
ATOM     31  C   UNL A   1      39.475  25.364  27.018  1.00  0.00     0.010 A 
ATOM     32  C   UNL A   1      41.195  23.995  28.084  1.00  0.00     0.010 A 
ATOM     33  C   UNL A   1      40.642  25.251  27.784  1.00  0.00    -0.014 A 
BRANCH  33  34
ATOM     34  C   UNL A   1      41.459  26.443  28.060  1.00  0.00     0.031 A 
ATOM     35  C   UNL A   1      40.844  27.507  28.920  1.00  0.00     0.074 A 
ATOM     36  C   UNL A   1      42.669  26.586  27.501  1.00  0.00     0.049 A 
ATOM     37  N   UNL A   1      41.261  28.719  29.161  1.00  0.00    -0.248 NA
ATOM     38  C   UNL A   1      39.573  27.160  29.582  1.00  0.00     0.031 C 
ATOM     39  C   UNL A   1      43.354  25.582  26.689  1.00  0.00     0.029 A 
ATOM     40  N   UNL A   1      43.522  27.655  27.514  1.00  0.00    -0.354 N 
ATOM     41  C   UNL A   1      40.296  29.283  29.985  1.00  0.00     0.074 A 
ATOM     42  C   UNL A   1      39.262  28.295  30.186  1.00  0.00     0.031 C 
ATOM     43  C   UNL A   1      44.520  26.096  26.258  1.00  0.00     0.029 A 
ATOM     44  C   UNL A   1      44.633  27.473  26.731  1.00  0.00     0.049 A 
ATOM     45  H   UNL A   1      43.354  28.475  28.034  1.00  0.00     0.167 HD
ATOM     46  C   UNL A   1      40.276  30.523  30.523  1.00  0.00     0.031 A 
ATOM     47  C   UNL A   1      45.607  28.345  26.412  1.00  0.00     0.031 A 
ATOM     48  C   UNL A   1      41.301  31.499  30.284  1.00  0.00     0.049 A 
ATOM     49  C   UNL A   1      45.530  29.742  26.966  1.00  0.00     0.074 A 
ATOM     50  C   UNL A   1      41.392  32.794  30.758  1.00  0.00     0.029 A 
ATOM     51  N   UNL A   1      42.418  31.274  29.492  1.00  0.00    -0.354 N 
ATOM     52  N   UNL A   1      44.617  30.272  27.747  1.00  0.00    -0.248 NA
ATOM     53  C   UNL A   1      46.616  30.660  26.598  1.00  0.00     0.031 C 
ATOM     54  C   UNL A   1      42.550  33.366  30.221  1.00  0.00     0.029 A 
ATOM     55  C   UNL A   1      43.203  32.410  29.457  1.00  0.00     0.049 A 
ATOM     56  H   UNL A   1      42.621  30.432  29.026  1.00  0.00     0.167 HD
ATOM     57  C   UNL A   1      45.037  31.572  27.995  1.00  0.00     0.074 A 
ATOM     58  C   UNL A   1      46.286  31.749  27.280  1.00  0.00     0.031 C 
ATOM     59  C   UNL A   1      44.452  32.534  28.749  1.00  0.00     0.031 A 
BRANCH  46  60
ATOM     60  C   UNL A   1      39.096  30.885  31.376  1.00  0.00    -0.014 A 
ATOM     61  C   UNL A   1      37.990  31.564  30.837  1.00  0.00     0.009 A 
ATOM     62  C   UNL A   1      39.088  30.550  32.738  1.00  0.00     0.009 A 
ATOM     63  C   UNL A   1      36.917  31.928  31.653  1.00  0.00     0.001 A 
ATOM     64  C   UNL A   1      38.002  30.891  33.546  1.00  0.00     0.001 A 
ATOM     65  C   UNL A   1      36.922  31.589  33.005  1.00  0.00     0.000 A 
ENDBRANCH  46  60
BRANCH  47  66
ATOM     66  C   UNL A   1      46.720  27.929  25.521  1.00  0.00    -0.014 A 
ATOM     67  C   UNL A   1      47.890  27.370  26.058  1.00  0.00     0.009 A 
ATOM     68  C   UNL A   1      46.621  28.084  24.129  1.00  0.00     0.009 A 
ATOM     69  C   UNL A   1      48.946  26.999  25.222  1.00  0.00     0.001 A 
ATOM     70  C   UNL A   1      47.667  27.688  23.294  1.00  0.00     0.001 A 
ATOM     71  C   UNL A   1      48.832  27.155  23.841  1.00  0.00     0.000 A 
ENDBRANCH  47  66
BRANCH  59  72
ATOM     72  C   UNL A   1      45.184  33.834  28.894  1.00  0.00    -0.014 A 
ATOM     73  C   UNL A   1      46.127  34.030  29.912  1.00  0.00     0.009 A 
ATOM     74  C   UNL A   1      44.979  34.845  27.942  1.00  0.00     0.009 A 
ATOM     75  C   UNL A   1      46.840  35.228  29.983  1.00  0.00     0.001 A 
ATOM     76  C   UNL A   1      45.711  36.029  28.002  1.00  0.00     0.001 A 
ATOM     77  C   UNL A   1      46.637  36.222  29.025  1.00  0.00     0.000 A 
ENDBRANCH  59  72
ENDBRANCH  33  34
ENDBRANCH  26  28
ENDBRANCH  25  26
ENDBRANCH  24  25
ENDBRANCH  23  24
ENDBRANCH  22  23
ENDBRANCH   1  22
TORSDOF 19
ENDMDL
