MODEL 1
REMARK VINA RESULT:     -10.6      0.000      0.000
REMARK SMILES COc1ccc(Nc2c(C(=O)OCCOCCOC(=O)c3ccc(-c4c5nc(c(-c6ccccc6)c6ccc([nH]6)c(-c6ccccc6)c6nc(c(-c7ccccc7)c7ccc4[nH]7)C=C6)C=C5)cc3)[nH]c(=O)[nH]c2=O)cc1
REMARK SMILES IDX 14 1 13 2 12 3 10 4 11 5 9 6 8 7 73 8 69 9 72 10 74 11 70 12
REMARK SMILES IDX 71 15 7 16 6 18 3 19 4 20 76 21 5 22 75 23 2 24 1 25 15 26
REMARK SMILES IDX 16 27 17 28 18 29 19 30 20 31 21 32 22 33 68 34 23 35 67 36
REMARK SMILES IDX 24 37 25 38 26 39 61 40 27 41 66 42 60 43 62 44 28 45 65 46
REMARK SMILES IDX 59 47 58 48 29 50 51 51 36 52 50 53 37 54 40 55 49 56 63 57
REMARK SMILES IDX 38 58 39 59 48 61 64 62 41 63 30 64 31 65 35 66 32 67 34 68
REMARK SMILES IDX 33 69 52 70 53 71 57 72 54 73 56 74 55 75 42 76 43 77 47 78
REMARK SMILES IDX 44 79 46 80 45 81
REMARK H PARENT 69 13 72 14 7 17 62 49 40 60
REMARK Flexibility Score: inf
ROOT
ATOM      1  C   UNL A   1      33.201  22.091  26.029  1.00  0.00     0.202 C 
ENDROOT
BRANCH   1   2
ATOM      2  C   UNL A   1      33.702  23.441  26.553  1.00  0.00     0.261 C 
BRANCH   2   3
ATOM      3  O   UNL A   1      33.174  24.515  25.750  1.00  0.00    -0.459 OA
BRANCH   3   4
ATOM      4  C   UNL A   1      34.029  25.028  24.834  1.00  0.00     0.357 C 
ATOM      5  O   UNL A   1      35.225  24.778  24.750  1.00  0.00    -0.244 OA
BRANCH   4   6
ATOM      6  C   UNL A   1      33.341  25.844  23.782  1.00  0.00     0.158 A 
ATOM      7  C   UNL A   1      32.533  26.906  24.014  1.00  0.00     0.136 A 
ATOM      8  C   UNL A   1      32.077  27.615  22.748  1.00  0.00     0.278 A 
ATOM      9  N   UNL A   1      33.535  25.342  22.513  1.00  0.00    -0.299 N 
ATOM     10  N   UNL A   1      32.175  26.925  21.574  1.00  0.00    -0.272 N 
ATOM     11  O   UNL A   1      31.670  28.774  22.737  1.00  0.00    -0.267 OA
ATOM     12  C   UNL A   1      32.928  25.812  21.395  1.00  0.00     0.326 A 
ATOM     13  H   UNL A   1      34.162  24.589  22.410  1.00  0.00     0.172 HD
ATOM     14  H   UNL A   1      31.664  27.260  20.802  1.00  0.00     0.175 HD
ATOM     15  O   UNL A   1      33.065  25.276  20.303  1.00  0.00    -0.248 OA
BRANCH   7  16
ATOM     16  N   UNL A   1      32.188  27.430  25.255  1.00  0.00    -0.349 N 
ATOM     17  H   UNL A   1      31.483  26.935  25.732  1.00  0.00     0.167 HD
BRANCH  16  18
ATOM     18  C   UNL A   1      32.688  28.558  25.941  1.00  0.00     0.039 A 
ATOM     19  C   UNL A   1      33.529  30.843  27.386  1.00  0.00     0.119 A 
ATOM     20  C   UNL A   1      34.386  29.762  27.213  1.00  0.00     0.048 A 
ATOM     21  C   UNL A   1      32.260  30.806  26.816  1.00  0.00     0.048 A 
ATOM     22  C   UNL A   1      33.966  28.628  26.506  1.00  0.00     0.030 A 
ATOM     23  C   UNL A   1      31.845  29.669  26.108  1.00  0.00     0.030 A 
BRANCH  19  24
ATOM     24  O   UNL A   1      34.036  31.908  28.076  1.00  0.00    -0.497 OA
ATOM     25  C   UNL A   1      35.454  32.027  28.007  1.00  0.00     0.278 C 
ENDBRANCH  19  24
ENDBRANCH  16  18
ENDBRANCH   7  16
ENDBRANCH   4   6
ENDBRANCH   3   4
ENDBRANCH   2   3
ENDBRANCH   1   2
BRANCH   1  26
ATOM     26  O   UNL A   1      34.197  21.295  25.385  1.00  0.00    -0.374 OA
BRANCH  26  27
ATOM     27  C   UNL A   1      35.543  21.453  25.839  1.00  0.00     0.202 C 
BRANCH  27  28
ATOM     28  C   UNL A   1      36.610  20.717  25.024  1.00  0.00     0.261 C 
BRANCH  28  29
ATOM     29  O   UNL A   1      37.811  21.501  24.915  1.00  0.00    -0.460 OA
BRANCH  29  30
ATOM     30  C   UNL A   1      38.789  21.157  25.782  1.00  0.00     0.338 C 
ATOM     31  O   UNL A   1      39.289  20.049  25.932  1.00  0.00    -0.246 OA
BRANCH  30  32
ATOM     32  C   UNL A   1      39.341  22.358  26.436  1.00  0.00     0.060 A 
ATOM     33  C   UNL A   1      38.768  23.587  26.089  1.00  0.00     0.016 A 
ATOM     34  C   UNL A   1      40.427  22.306  27.314  1.00  0.00     0.016 A 
ATOM     35  C   UNL A   1      39.317  24.773  26.568  1.00  0.00     0.010 A 
ATOM     36  C   UNL A   1      40.982  23.502  27.789  1.00  0.00     0.010 A 
ATOM     37  C   UNL A   1      40.451  24.741  27.390  1.00  0.00    -0.014 A 
BRANCH  37  38
ATOM     38  C   UNL A   1      41.120  26.020  27.729  1.00  0.00     0.031 A 
ATOM     39  C   UNL A   1      42.463  26.338  27.127  1.00  0.00     0.074 A 
ATOM     40  C   UNL A   1      40.505  26.922  28.514  1.00  0.00     0.049 A 
ATOM     41  N   UNL A   1      43.175  27.432  27.229  1.00  0.00    -0.248 NA
ATOM     42  C   UNL A   1      43.083  25.291  26.301  1.00  0.00     0.031 C 
ATOM     43  C   UNL A   1      39.196  26.745  29.140  1.00  0.00     0.029 A 
ATOM     44  N   UNL A   1      40.903  28.175  28.911  1.00  0.00    -0.354 N 
ATOM     45  C   UNL A   1      44.327  27.204  26.486  1.00  0.00     0.074 A 
ATOM     46  C   UNL A   1      44.231  25.860  25.958  1.00  0.00     0.031 C 
ATOM     47  C   UNL A   1      38.897  27.850  29.845  1.00  0.00     0.029 A 
ATOM     48  C   UNL A   1      40.000  28.802  29.734  1.00  0.00     0.049 A 
ATOM     49  H   UNL A   1      41.753  28.583  28.633  1.00  0.00     0.167 HD
ATOM     50  C   UNL A   1      45.368  28.040  26.259  1.00  0.00     0.031 A 
ATOM     51  C   UNL A   1      40.059  30.005  30.336  1.00  0.00     0.031 A 
ATOM     52  C   UNL A   1      45.470  29.376  26.782  1.00  0.00     0.049 A 
ATOM     53  C   UNL A   1      41.248  30.897  30.097  1.00  0.00     0.074 A 
ATOM     54  C   UNL A   1      46.466  30.312  26.563  1.00  0.00     0.029 A 
ATOM     55  N   UNL A   1      44.551  29.962  27.636  1.00  0.00    -0.354 N 
ATOM     56  N   UNL A   1      42.296  30.692  29.337  1.00  0.00    -0.248 NA
ATOM     57  C   UNL A   1      41.252  32.193  30.792  1.00  0.00     0.031 C 
ATOM     58  C   UNL A   1      46.179  31.445  27.332  1.00  0.00     0.029 A 
ATOM     59  C   UNL A   1      44.976  31.234  27.986  1.00  0.00     0.049 A 
ATOM     60  H   UNL A   1      43.720  29.538  27.949  1.00  0.00     0.167 HD
ATOM     61  C   UNL A   1      43.071  31.840  29.445  1.00  0.00     0.074 A 
ATOM     62  C   UNL A   1      42.363  32.746  30.325  1.00  0.00     0.031 C 
ATOM     63  C   UNL A   1      44.267  32.119  28.869  1.00  0.00     0.031 A 
BRANCH  50  64
ATOM     64  C   UNL A   1      46.508  27.524  25.427  1.00  0.00    -0.014 A 
ATOM     65  C   UNL A   1      46.675  27.922  24.092  1.00  0.00     0.009 A 
ATOM     66  C   UNL A   1      47.466  26.681  26.012  1.00  0.00     0.009 A 
ATOM     67  C   UNL A   1      47.771  27.468  23.354  1.00  0.00     0.001 A 
ATOM     68  C   UNL A   1      48.571  26.247  25.278  1.00  0.00     0.001 A 
ATOM     69  C   UNL A   1      48.720  26.637  23.949  1.00  0.00     0.000 A 
ENDBRANCH  50  64
BRANCH  51  70
ATOM     70  C   UNL A   1      38.970  30.436  31.250  1.00  0.00    -0.014 A 
ATOM     71  C   UNL A   1      38.926  29.994  32.581  1.00  0.00     0.009 A 
ATOM     72  C   UNL A   1      37.942  31.266  30.774  1.00  0.00     0.009 A 
ATOM     73  C   UNL A   1      37.857  30.350  33.408  1.00  0.00     0.001 A 
ATOM     74  C   UNL A   1      36.891  31.644  31.612  1.00  0.00     0.001 A 
ATOM     75  C   UNL A   1      36.843  31.176  32.924  1.00  0.00     0.000 A 
ENDBRANCH  51  70
BRANCH  63  76
ATOM     76  C   UNL A   1      44.871  33.464  29.162  1.00  0.00    -0.014 A 
ATOM     77  C   UNL A   1      45.763  33.643  30.232  1.00  0.00     0.009 A 
ATOM     78  C   UNL A   1      44.564  34.561  28.342  1.00  0.00     0.009 A 
ATOM     79  C   UNL A   1      46.302  34.902  30.497  1.00  0.00     0.001 A 
ATOM     80  C   UNL A   1      45.127  35.813  28.593  1.00  0.00     0.001 A 
ATOM     81  C   UNL A   1      45.987  35.985  29.677  1.00  0.00     0.000 A 
ENDBRANCH  63  76
ENDBRANCH  37  38
ENDBRANCH  30  32
ENDBRANCH  29  30
ENDBRANCH  28  29
ENDBRANCH  27  28
ENDBRANCH  26  27
ENDBRANCH   1  26
TORSDOF 17
ENDMDL
MODEL 2
REMARK VINA RESULT:     -10.6      1.449      2.344
REMARK SMILES COc1ccc(Nc2c(C(=O)OCCOCCOC(=O)c3ccc(-c4c5nc(c(-c6ccccc6)c6ccc([nH]6)c(-c6ccccc6)c6nc(c(-c7ccccc7)c7ccc4[nH]7)C=C6)C=C5)cc3)[nH]c(=O)[nH]c2=O)cc1
REMARK SMILES IDX 14 1 13 2 12 3 10 4 11 5 9 6 8 7 73 8 69 9 72 10 74 11 70 12
REMARK SMILES IDX 71 15 7 16 6 18 3 19 4 20 76 21 5 22 75 23 2 24 1 25 15 26
REMARK SMILES IDX 16 27 17 28 18 29 19 30 20 31 21 32 22 33 68 34 23 35 67 36
REMARK SMILES IDX 24 37 25 38 26 39 61 40 27 41 66 42 60 43 62 44 28 45 65 46
REMARK SMILES IDX 59 47 58 48 29 50 51 51 36 52 50 53 37 54 40 55 49 56 63 57
REMARK SMILES IDX 38 58 39 59 48 61 64 62 41 63 30 64 31 65 35 66 32 67 34 68
REMARK SMILES IDX 33 69 52 70 53 71 57 72 54 73 56 74 55 75 42 76 43 77 47 78
REMARK SMILES IDX 44 79 46 80 45 81
REMARK H PARENT 69 13 72 14 7 17 62 49 40 60
REMARK Flexibility Score: inf
ROOT
ATOM      1  C   UNL A   1      35.442  23.061  23.540  1.00  0.00     0.202 C 
ENDROOT
BRANCH   1   2
ATOM      2  C   UNL A   1      34.475  24.243  23.421  1.00  0.00     0.261 C 
BRANCH   2   3
ATOM      3  O   UNL A   1      33.321  23.868  22.642  1.00  0.00    -0.459 OA
BRANCH   3   4
ATOM      4  C   UNL A   1      32.135  24.327  23.107  1.00  0.00     0.357 C 
ATOM      5  O   UNL A   1      31.416  25.147  22.551  1.00  0.00    -0.244 OA
BRANCH   4   6
ATOM      6  C   UNL A   1      31.669  23.607  24.336  1.00  0.00     0.158 A 
ATOM      7  C   UNL A   1      31.126  24.190  25.430  1.00  0.00     0.136 A 
ATOM      8  C   UNL A   1      30.632  23.196  26.471  1.00  0.00     0.278 A 
ATOM      9  N   UNL A   1      31.938  22.255  24.290  1.00  0.00    -0.299 N 
ATOM     10  N   UNL A   1      31.118  21.922  26.400  1.00  0.00    -0.272 N 
ATOM     11  O   UNL A   1      29.800  23.480  27.329  1.00  0.00    -0.267 OA
ATOM     12  C   UNL A   1      31.736  21.392  25.316  1.00  0.00     0.326 A 
ATOM     13  H   UNL A   1      32.303  21.890  23.451  1.00  0.00     0.172 HD
ATOM     14  H   UNL A   1      31.011  21.347  27.192  1.00  0.00     0.175 HD
ATOM     15  O   UNL A   1      32.073  20.216  25.257  1.00  0.00    -0.248 OA
BRANCH   7  16
ATOM     16  N   UNL A   1      30.906  25.549  25.623  1.00  0.00    -0.349 N 
ATOM     17  H   UNL A   1      30.003  25.861  25.382  1.00  0.00     0.167 HD
BRANCH  16  18
ATOM     18  C   UNL A   1      31.770  26.554  26.110  1.00  0.00     0.039 A 
ATOM     19  C   UNL A   1      33.609  28.537  26.949  1.00  0.00     0.119 A 
ATOM     20  C   UNL A   1      32.241  28.727  27.113  1.00  0.00     0.048 A 
ATOM     21  C   UNL A   1      34.071  27.346  26.396  1.00  0.00     0.048 A 
ATOM     22  C   UNL A   1      31.332  27.750  26.688  1.00  0.00     0.030 A 
ATOM     23  C   UNL A   1      33.156  26.371  25.973  1.00  0.00     0.030 A 
BRANCH  19  24
ATOM     24  O   UNL A   1      34.415  29.539  27.409  1.00  0.00    -0.497 OA
ATOM     25  C   UNL A   1      33.771  30.807  27.508  1.00  0.00     0.278 C 
ENDBRANCH  19  24
ENDBRANCH  16  18
ENDBRANCH   7  16
ENDBRANCH   4   6
ENDBRANCH   3   4
ENDBRANCH   2   3
ENDBRANCH   1   2
BRANCH   1  26
ATOM     26  O   UNL A   1      35.485  22.453  24.832  1.00  0.00    -0.374 OA
BRANCH  26  27
ATOM     27  C   UNL A   1      35.555  21.026  24.872  1.00  0.00     0.202 C 
BRANCH  27  28
ATOM     28  C   UNL A   1      36.952  20.436  25.082  1.00  0.00     0.261 C 
BRANCH  28  29
ATOM     29  O   UNL A   1      37.948  21.472  25.151  1.00  0.00    -0.460 OA
BRANCH  29  30
ATOM     30  C   UNL A   1      39.011  21.181  25.933  1.00  0.00     0.338 C 
ATOM     31  O   UNL A   1      39.597  20.108  26.015  1.00  0.00    -0.246 OA
BRANCH  30  32
ATOM     32  C   UNL A   1      39.528  22.404  26.574  1.00  0.00     0.060 A 
ATOM     33  C   UNL A   1      38.946  23.617  26.184  1.00  0.00     0.016 A 
ATOM     34  C   UNL A   1      40.591  22.389  27.481  1.00  0.00     0.016 A 
ATOM     35  C   UNL A   1      39.464  24.822  26.651  1.00  0.00     0.010 A 
ATOM     36  C   UNL A   1      41.114  23.603  27.944  1.00  0.00     0.010 A 
ATOM     37  C   UNL A   1      40.576  24.825  27.503  1.00  0.00    -0.014 A 
BRANCH  37  38
ATOM     38  C   UNL A   1      41.217  26.121  27.831  1.00  0.00     0.031 A 
ATOM     39  C   UNL A   1      42.549  26.466  27.221  1.00  0.00     0.074 A 
ATOM     40  C   UNL A   1      40.584  27.014  28.613  1.00  0.00     0.049 A 
ATOM     41  N   UNL A   1      43.236  27.577  27.313  1.00  0.00    -0.248 NA
ATOM     42  C   UNL A   1      43.189  25.428  26.398  1.00  0.00     0.031 C 
ATOM     43  C   UNL A   1      39.282  26.810  29.246  1.00  0.00     0.029 A 
ATOM     44  N   UNL A   1      40.954  28.278  29.000  1.00  0.00    -0.354 N 
ATOM     45  C   UNL A   1      44.389  27.372  26.565  1.00  0.00     0.074 A 
ATOM     46  C   UNL A   1      44.322  26.022  26.046  1.00  0.00     0.031 C 
ATOM     47  C   UNL A   1      38.961  27.913  29.945  1.00  0.00     0.029 A 
ATOM     48  C   UNL A   1      40.042  28.889  29.823  1.00  0.00     0.049 A 
ATOM     49  H   UNL A   1      41.794  28.704  28.715  1.00  0.00     0.167 HD
ATOM     50  C   UNL A   1      45.409  28.230  26.328  1.00  0.00     0.031 A 
ATOM     51  C   UNL A   1      40.075  30.097  30.417  1.00  0.00     0.031 A 
ATOM     52  C   UNL A   1      45.483  29.571  26.842  1.00  0.00     0.049 A 
ATOM     53  C   UNL A   1      41.241  31.015  30.167  1.00  0.00     0.074 A 
ATOM     54  C   UNL A   1      46.456  30.529  26.612  1.00  0.00     0.029 A 
ATOM     55  N   UNL A   1      44.554  30.141  27.697  1.00  0.00    -0.354 N 
ATOM     56  N   UNL A   1      42.290  30.830  29.403  1.00  0.00    -0.248 NA
ATOM     57  C   UNL A   1      41.219  32.315  30.854  1.00  0.00     0.031 C 
ATOM     58  C   UNL A   1      46.146  31.660  27.376  1.00  0.00     0.029 A 
ATOM     59  C   UNL A   1      44.951  31.425  28.036  1.00  0.00     0.049 A 
ATOM     60  H   UNL A   1      43.735  29.700  28.016  1.00  0.00     0.167 HD
ATOM     61  C   UNL A   1      43.040  31.996  29.500  1.00  0.00     0.074 A 
ATOM     62  C   UNL A   1      42.314  32.891  30.378  1.00  0.00     0.031 C 
ATOM     63  C   UNL A   1      44.225  32.299  28.917  1.00  0.00     0.031 A 
BRANCH  50  64
ATOM     64  C   UNL A   1      46.558  27.736  25.494  1.00  0.00    -0.014 A 
ATOM     65  C   UNL A   1      46.640  28.022  24.123  1.00  0.00     0.009 A 
ATOM     66  C   UNL A   1      47.605  27.031  26.107  1.00  0.00     0.009 A 
ATOM     67  C   UNL A   1      47.742  27.594  23.379  1.00  0.00     0.001 A 
ATOM     68  C   UNL A   1      48.715  26.623  25.365  1.00  0.00     0.001 A 
ATOM     69  C   UNL A   1      48.781  26.901  24.001  1.00  0.00     0.000 A 
ENDBRANCH  50  64
BRANCH  51  70
ATOM     70  C   UNL A   1      38.980  30.508  31.334  1.00  0.00    -0.014 A 
ATOM     71  C   UNL A   1      37.865  31.214  30.856  1.00  0.00     0.009 A 
ATOM     72  C   UNL A   1      39.070  30.227  32.707  1.00  0.00     0.009 A 
ATOM     73  C   UNL A   1      36.878  31.656  31.741  1.00  0.00     0.001 A 
ATOM     74  C   UNL A   1      38.067  30.645  33.583  1.00  0.00     0.001 A 
ATOM     75  C   UNL A   1      36.979  31.370  33.101  1.00  0.00     0.000 A 
ENDBRANCH  51  70
BRANCH  63  76
ATOM     76  C   UNL A   1      44.800  33.660  29.199  1.00  0.00    -0.014 A 
ATOM     77  C   UNL A   1      45.671  33.871  30.279  1.00  0.00     0.009 A 
ATOM     78  C   UNL A   1      44.484  34.739  28.358  1.00  0.00     0.009 A 
ATOM     79  C   UNL A   1      46.183  35.145  30.533  1.00  0.00     0.001 A 
ATOM     80  C   UNL A   1      45.020  36.005  28.598  1.00  0.00     0.001 A 
ATOM     81  C   UNL A   1      45.860  36.209  29.692  1.00  0.00     0.000 A 
ENDBRANCH  63  76
ENDBRANCH  37  38
ENDBRANCH  30  32
ENDBRANCH  29  30
ENDBRANCH  28  29
ENDBRANCH  27  28
ENDBRANCH  26  27
ENDBRANCH   1  26
TORSDOF 17
ENDMDL
MODEL 3
REMARK VINA RESULT:     -10.5      3.592      8.899
REMARK SMILES COc1ccc(Nc2c(C(=O)OCCOCCOC(=O)c3ccc(-c4c5nc(c(-c6ccccc6)c6ccc([nH]6)c(-c6ccccc6)c6nc(c(-c7ccccc7)c7ccc4[nH]7)C=C6)C=C5)cc3)[nH]c(=O)[nH]c2=O)cc1
REMARK SMILES IDX 14 1 13 2 12 3 10 4 11 5 9 6 8 7 73 8 69 9 72 10 74 11 70 12
REMARK SMILES IDX 71 15 7 16 6 18 3 19 4 20 76 21 5 22 75 23 2 24 1 25 15 26
REMARK SMILES IDX 16 27 17 28 18 29 19 30 20 31 21 32 22 33 68 34 23 35 67 36
REMARK SMILES IDX 24 37 25 38 26 39 61 40 27 41 66 42 60 43 62 44 28 45 65 46
REMARK SMILES IDX 59 47 58 48 29 50 51 51 36 52 50 53 37 54 40 55 49 56 63 57
REMARK SMILES IDX 38 58 39 59 48 61 64 62 41 63 30 64 31 65 35 66 32 67 34 68
REMARK SMILES IDX 33 69 52 70 53 71 57 72 54 73 56 74 55 75 42 76 43 77 47 78
REMARK SMILES IDX 44 79 46 80 45 81
REMARK H PARENT 69 13 72 14 7 17 62 49 40 60
REMARK Flexibility Score: inf
ROOT
ATOM      1  C   UNL A   1      31.805  28.744  26.091  1.00  0.00     0.202 C 
ENDROOT
BRANCH   1   2
ATOM      2  C   UNL A   1      32.004  27.484  26.941  1.00  0.00     0.261 C 
BRANCH   2   3
ATOM      3  O   UNL A   1      31.093  26.450  26.519  1.00  0.00    -0.459 OA
BRANCH   3   4
ATOM      4  C   UNL A   1      31.604  25.196  26.511  1.00  0.00     0.357 C 
ATOM      5  O   UNL A   1      31.213  24.256  27.191  1.00  0.00    -0.244 OA
BRANCH   4   6
ATOM      6  C   UNL A   1      32.634  24.991  25.442  1.00  0.00     0.158 A 
ATOM      7  C   UNL A   1      32.419  25.109  24.110  1.00  0.00     0.136 A 
ATOM      8  C   UNL A   1      33.681  24.967  23.272  1.00  0.00     0.278 A 
ATOM      9  N   UNL A   1      33.844  24.563  25.947  1.00  0.00    -0.299 N 
ATOM     10  N   UNL A   1      34.758  24.366  23.859  1.00  0.00    -0.272 N 
ATOM     11  O   UNL A   1      33.778  25.397  22.126  1.00  0.00    -0.267 OA
ATOM     12  C   UNL A   1      34.905  24.185  25.195  1.00  0.00     0.326 A 
ATOM     13  H   UNL A   1      33.943  24.532  26.927  1.00  0.00     0.172 HD
ATOM     14  H   UNL A   1      35.479  24.044  23.272  1.00  0.00     0.175 HD
ATOM     15  O   UNL A   1      35.929  23.729  25.690  1.00  0.00    -0.248 OA
BRANCH   7  16
ATOM     16  N   UNL A   1      31.218  25.433  23.489  1.00  0.00    -0.349 N 
ATOM     17  H   UNL A   1      30.669  24.660  23.221  1.00  0.00     0.167 HD
BRANCH  16  18
ATOM     18  C   UNL A   1      30.658  26.692  23.182  1.00  0.00     0.039 A 
ATOM     19  C   UNL A   1      29.440  29.205  22.716  1.00  0.00     0.119 A 
ATOM     20  C   UNL A   1      30.771  28.991  22.375  1.00  0.00     0.048 A 
ATOM     21  C   UNL A   1      28.699  28.162  23.262  1.00  0.00     0.048 A 
ATOM     22  C   UNL A   1      31.375  27.750  22.615  1.00  0.00     0.030 A 
ATOM     23  C   UNL A   1      29.309  26.921  23.500  1.00  0.00     0.030 A 
BRANCH  19  24
ATOM     24  O   UNL A   1      28.937  30.442  22.428  1.00  0.00    -0.497 OA
ATOM     25  C   UNL A   1      28.026  30.462  21.333  1.00  0.00     0.278 C 
ENDBRANCH  19  24
ENDBRANCH  16  18
ENDBRANCH   7  16
ENDBRANCH   4   6
ENDBRANCH   3   4
ENDBRANCH   2   3
ENDBRANCH   1   2
BRANCH   1  26
ATOM     26  O   UNL A   1      31.795  29.966  26.830  1.00  0.00    -0.374 OA
BRANCH  26  27
ATOM     27  C   UNL A   1      31.413  31.146  26.120  1.00  0.00     0.202 C 
BRANCH  27  28
ATOM     28  C   UNL A   1      31.403  32.440  26.939  1.00  0.00     0.261 C 
BRANCH  28  29
ATOM     29  O   UNL A   1      32.640  33.159  26.790  1.00  0.00    -0.460 OA
BRANCH  29  30
ATOM     30  C   UNL A   1      33.133  33.678  27.935  1.00  0.00     0.338 C 
ATOM     31  O   UNL A   1      32.570  34.455  28.698  1.00  0.00    -0.246 OA
BRANCH  30  32
ATOM     32  C   UNL A   1      34.418  33.041  28.278  1.00  0.00     0.060 A 
ATOM     33  C   UNL A   1      34.377  31.689  28.638  1.00  0.00     0.016 A 
ATOM     34  C   UNL A   1      35.624  33.746  28.314  1.00  0.00     0.016 A 
ATOM     35  C   UNL A   1      35.527  31.052  29.095  1.00  0.00     0.010 A 
ATOM     36  C   UNL A   1      36.779  33.106  28.780  1.00  0.00     0.010 A 
ATOM     37  C   UNL A   1      36.727  31.767  29.206  1.00  0.00    -0.014 A 
BRANCH  37  38
ATOM     38  C   UNL A   1      37.883  31.116  29.869  1.00  0.00     0.031 A 
ATOM     39  C   UNL A   1      38.141  31.370  31.330  1.00  0.00     0.074 A 
ATOM     40  C   UNL A   1      38.658  30.251  29.190  1.00  0.00     0.049 A 
ATOM     41  N   UNL A   1      39.045  30.837  32.114  1.00  0.00    -0.248 NA
ATOM     42  C   UNL A   1      37.268  32.348  31.996  1.00  0.00     0.031 C 
ATOM     43  C   UNL A   1      38.500  29.902  27.779  1.00  0.00     0.029 A 
ATOM     44  N   UNL A   1      39.731  29.502  29.606  1.00  0.00    -0.354 N 
ATOM     45  C   UNL A   1      38.852  31.416  33.362  1.00  0.00     0.074 A 
ATOM     46  C   UNL A   1      37.763  32.359  33.227  1.00  0.00     0.031 C 
ATOM     47  C   UNL A   1      39.445  29.006  27.444  1.00  0.00     0.029 A 
ATOM     48  C   UNL A   1      40.282  28.733  28.610  1.00  0.00     0.049 A 
ATOM     49  H   UNL A   1      40.072  29.515  30.528  1.00  0.00     0.167 HD
ATOM     50  C   UNL A   1      39.518  31.181  34.517  1.00  0.00     0.031 A 
ATOM     51  C   UNL A   1      41.345  27.907  28.634  1.00  0.00     0.031 A 
ATOM     52  C   UNL A   1      40.602  30.246  34.658  1.00  0.00     0.049 A 
ATOM     53  C   UNL A   1      42.091  27.695  29.924  1.00  0.00     0.074 A 
ATOM     54  C   UNL A   1      41.303  29.907  35.802  1.00  0.00     0.029 A 
ATOM     55  N   UNL A   1      41.150  29.510  33.620  1.00  0.00    -0.354 N 
ATOM     56  N   UNL A   1      41.852  28.199  31.110  1.00  0.00    -0.248 NA
ATOM     57  C   UNL A   1      43.247  26.787  29.878  1.00  0.00     0.031 C 
ATOM     58  C   UNL A   1      42.315  29.009  35.446  1.00  0.00     0.029 A 
ATOM     59  C   UNL A   1      42.207  28.747  34.089  1.00  0.00     0.049 A 
ATOM     60  H   UNL A   1      40.836  29.528  32.687  1.00  0.00     0.167 HD
ATOM     61  C   UNL A   1      42.812  27.654  31.954  1.00  0.00     0.074 A 
ATOM     62  C   UNL A   1      43.622  26.763  31.149  1.00  0.00     0.031 C 
ATOM     63  C   UNL A   1      43.009  27.874  33.277  1.00  0.00     0.031 A 
BRANCH  50  64
ATOM     64  C   UNL A   1      39.114  31.972  35.729  1.00  0.00    -0.014 A 
ATOM     65  C   UNL A   1      38.153  31.489  36.629  1.00  0.00     0.009 A 
ATOM     66  C   UNL A   1      39.758  33.188  36.007  1.00  0.00     0.009 A 
ATOM     67  C   UNL A   1      37.830  32.221  37.775  1.00  0.00     0.001 A 
ATOM     68  C   UNL A   1      39.449  33.906  37.164  1.00  0.00     0.001 A 
ATOM     69  C   UNL A   1      38.482  33.423  38.045  1.00  0.00     0.000 A 
ENDBRANCH  50  64
BRANCH  51  70
ATOM     70  C   UNL A   1      41.793  27.231  27.389  1.00  0.00    -0.014 A 
ATOM     71  C   UNL A   1      41.354  25.937  27.072  1.00  0.00     0.009 A 
ATOM     72  C   UNL A   1      42.699  27.872  26.529  1.00  0.00     0.009 A 
ATOM     73  C   UNL A   1      41.839  25.286  25.934  1.00  0.00     0.001 A 
ATOM     74  C   UNL A   1      43.159  27.230  25.378  1.00  0.00     0.001 A 
ATOM     75  C   UNL A   1      42.738  25.934  25.088  1.00  0.00     0.000 A 
ENDBRANCH  51  70
BRANCH  63  76
ATOM     76  C   UNL A   1      44.134  27.124  33.936  1.00  0.00    -0.014 A 
ATOM     77  C   UNL A   1      43.960  25.808  34.393  1.00  0.00     0.009 A 
ATOM     78  C   UNL A   1      45.390  27.734  34.080  1.00  0.00     0.009 A 
ATOM     79  C   UNL A   1      45.011  25.134  35.016  1.00  0.00     0.001 A 
ATOM     80  C   UNL A   1      46.447  27.047  34.677  1.00  0.00     0.001 A 
ATOM     81  C   UNL A   1      46.254  25.751  35.155  1.00  0.00     0.000 A 
ENDBRANCH  63  76
ENDBRANCH  37  38
ENDBRANCH  30  32
ENDBRANCH  29  30
ENDBRANCH  28  29
ENDBRANCH  27  28
ENDBRANCH  26  27
ENDBRANCH   1  26
TORSDOF 17
ENDMDL
