MODEL 1
REMARK VINA RESULT:      -8.0      0.000      0.000
REMARK SMILES CCOc1c(F)cccc1C(=O)OCCOCCOC(=O)c1ccc(-c2c3nc(c(-c4ccccc4)c4ccc([nH]4)c(-c4ccccc4)c4nc(c(-c5ccccc5)c5ccc2[nH]5)C=C4)C=C3)cc1
REMARK SMILES IDX 16 1 15 2 14 3 13 4 11 5 12 6 10 7 4 8 5 9 6 10 7 11 9 12
REMARK SMILES IDX 8 13 3 14 2 15 1 16 17 17 18 18 19 19 20 20 21 21 22 22
REMARK SMILES IDX 23 23 69 24 24 25 68 26 25 27 26 28 27 29 62 30 28 31 67 32
REMARK SMILES IDX 61 33 63 34 29 35 66 36 60 37 59 38 30 40 52 41 37 42 51 43
REMARK SMILES IDX 38 44 41 45 50 46 64 47 39 48 40 49 49 51 65 52 42 53 31 54
REMARK SMILES IDX 32 55 36 56 33 57 35 58 34 59 53 60 54 61 58 62 55 63 57 64
REMARK SMILES IDX 56 65 43 66 44 67 48 68 45 69 47 70 46 71
REMARK H PARENT 63 39 41 50
REMARK Flexibility Score: inf
ROOT
ATOM      1  O   UNL A   1      34.344  36.253  32.481  1.00  0.00    -0.374 OA
ENDROOT
BRANCH   1   2
ATOM      2  C   UNL A   1      34.434  35.113  33.335  1.00  0.00     0.202 C 
BRANCH   2   3
ATOM      3  C   UNL A   1      35.829  34.777  33.866  1.00  0.00     0.261 C 
BRANCH   3   4
ATOM      4  O   UNL A   1      35.867  33.450  34.422  1.00  0.00    -0.460 OA
BRANCH   4   5
ATOM      5  C   UNL A   1      36.496  33.359  35.619  1.00  0.00     0.342 C 
ATOM      6  O   UNL A   1      36.005  33.566  36.718  1.00  0.00    -0.246 OA
BRANCH   5   7
ATOM      7  C   UNL A   1      37.825  32.737  35.475  1.00  0.00     0.105 A 
ATOM      8  C   UNL A   1      38.934  33.060  36.261  1.00  0.00     0.169 A 
ATOM      9  C   UNL A   1      40.080  32.267  36.141  1.00  0.00     0.165 A 
ATOM     10  F   UNL A   1      41.116  32.435  36.974  1.00  0.00    -0.203 F 
ATOM     11  C   UNL A   1      40.172  31.247  35.197  1.00  0.00     0.043 A 
ATOM     12  C   UNL A   1      37.917  31.711  34.513  1.00  0.00     0.020 A 
ATOM     13  C   UNL A   1      39.094  30.982  34.360  1.00  0.00     0.004 A 
BRANCH   8  14
ATOM     14  O   UNL A   1      38.867  34.045  37.209  1.00  0.00    -0.490 OA
BRANCH  14  15
ATOM     15  C   UNL A   1      39.339  35.313  36.720  1.00  0.00     0.226 C 
ATOM     16  C   UNL A   1      40.050  36.107  37.806  1.00  0.00     0.049 C 
ENDBRANCH  14  15
ENDBRANCH   8  14
ENDBRANCH   5   7
ENDBRANCH   4   5
ENDBRANCH   3   4
ENDBRANCH   2   3
ENDBRANCH   1   2
BRANCH   1  17
ATOM     17  C   UNL A   1      33.088  36.500  31.847  1.00  0.00     0.202 C 
BRANCH  17  18
ATOM     18  C   UNL A   1      33.002  36.173  30.351  1.00  0.00     0.261 C 
BRANCH  18  19
ATOM     19  O   UNL A   1      32.574  34.820  30.111  1.00  0.00    -0.460 OA
BRANCH  19  20
ATOM     20  C   UNL A   1      33.238  34.183  29.119  1.00  0.00     0.338 C 
ATOM     21  O   UNL A   1      32.896  34.069  27.949  1.00  0.00    -0.246 OA
BRANCH  20  22
ATOM     22  C   UNL A   1      34.570  33.760  29.591  1.00  0.00     0.060 A 
ATOM     23  C   UNL A   1      35.684  34.192  28.861  1.00  0.00     0.016 A 
ATOM     24  C   UNL A   1      34.724  32.900  30.681  1.00  0.00     0.016 A 
ATOM     25  C   UNL A   1      36.955  33.728  29.187  1.00  0.00     0.010 A 
ATOM     26  C   UNL A   1      36.002  32.428  31.001  1.00  0.00     0.010 A 
ATOM     27  C   UNL A   1      37.117  32.813  30.234  1.00  0.00    -0.014 A 
BRANCH  27  28
ATOM     28  C   UNL A   1      38.429  32.151  30.433  1.00  0.00     0.031 A 
ATOM     29  C   UNL A   1      39.470  32.831  31.279  1.00  0.00     0.074 A 
ATOM     30  C   UNL A   1      38.681  30.946  29.892  1.00  0.00     0.049 A 
ATOM     31  N   UNL A   1      40.686  32.443  31.568  1.00  0.00    -0.248 NA
ATOM     32  C   UNL A   1      39.089  34.121  31.879  1.00  0.00     0.031 C 
ATOM     33  C   UNL A   1      37.742  30.162  29.094  1.00  0.00     0.029 A 
ATOM     34  N   UNL A   1      39.815  30.174  29.937  1.00  0.00    -0.354 N 
ATOM     35  C   UNL A   1      41.218  33.443  32.374  1.00  0.00     0.074 A 
ATOM     36  C   UNL A   1      40.204  34.466  32.507  1.00  0.00     0.031 C 
ATOM     37  C   UNL A   1      38.340  29.017  28.720  1.00  0.00     0.029 A 
ATOM     38  C   UNL A   1      39.711  29.004  29.225  1.00  0.00     0.049 A 
ATOM     39  H   UNL A   1      40.625  30.433  30.432  1.00  0.00     0.167 HD
ATOM     40  C   UNL A   1      42.440  33.502  32.954  1.00  0.00     0.031 A 
ATOM     41  C   UNL A   1      40.623  28.042  28.995  1.00  0.00     0.031 A 
ATOM     42  C   UNL A   1      43.455  32.493  32.816  1.00  0.00     0.049 A 
ATOM     43  C   UNL A   1      42.002  28.170  29.586  1.00  0.00     0.074 A 
ATOM     44  C   UNL A   1      44.716  32.454  33.384  1.00  0.00     0.029 A 
ATOM     45  N   UNL A   1      43.325  31.347  32.048  1.00  0.00    -0.354 N 
ATOM     46  N   UNL A   1      42.483  29.107  30.367  1.00  0.00    -0.248 NA
ATOM     47  C   UNL A   1      42.962  27.103  29.264  1.00  0.00     0.031 C 
ATOM     48  C   UNL A   1      45.372  31.310  32.915  1.00  0.00     0.029 A 
ATOM     49  C   UNL A   1      44.496  30.609  32.102  1.00  0.00     0.049 A 
ATOM     50  H   UNL A   1      42.521  31.094  31.541  1.00  0.00     0.167 HD
ATOM     51  C   UNL A   1      43.789  28.727  30.655  1.00  0.00     0.074 A 
ATOM     52  C   UNL A   1      44.020  27.470  29.973  1.00  0.00     0.031 C 
ATOM     53  C   UNL A   1      44.713  29.360  31.418  1.00  0.00     0.031 A 
BRANCH  40  54
ATOM     54  C   UNL A   1      42.759  34.726  33.765  1.00  0.00    -0.014 A 
ATOM     55  C   UNL A   1      43.097  35.943  33.152  1.00  0.00     0.009 A 
ATOM     56  C   UNL A   1      42.692  34.667  35.167  1.00  0.00     0.009 A 
ATOM     57  C   UNL A   1      43.391  37.066  33.926  1.00  0.00     0.001 A 
ATOM     58  C   UNL A   1      42.961  35.800  35.937  1.00  0.00     0.001 A 
ATOM     59  C   UNL A   1      43.319  36.996  35.318  1.00  0.00     0.000 A 
ENDBRANCH  40  54
BRANCH  41  60
ATOM     60  C   UNL A   1      40.274  26.871  28.148  1.00  0.00    -0.014 A 
ATOM     61  C   UNL A   1      39.527  25.807  28.674  1.00  0.00     0.009 A 
ATOM     62  C   UNL A   1      40.705  26.805  26.814  1.00  0.00     0.009 A 
ATOM     63  C   UNL A   1      39.239  24.690  27.887  1.00  0.00     0.001 A 
ATOM     64  C   UNL A   1      40.392  25.699  26.021  1.00  0.00     0.001 A 
ATOM     65  C   UNL A   1      39.668  24.638  26.562  1.00  0.00     0.000 A 
ENDBRANCH  41  60
BRANCH  53  66
ATOM     66  C   UNL A   1      46.045  28.689  31.587  1.00  0.00    -0.014 A 
ATOM     67  C   UNL A   1      46.266  27.751  32.608  1.00  0.00     0.009 A 
ATOM     68  C   UNL A   1      47.084  28.968  30.684  1.00  0.00     0.009 A 
ATOM     69  C   UNL A   1      47.510  27.130  32.740  1.00  0.00     0.001 A 
ATOM     70  C   UNL A   1      48.317  28.325  30.801  1.00  0.00     0.001 A 
ATOM     71  C   UNL A   1      48.532  27.414  31.834  1.00  0.00     0.000 A 
ENDBRANCH  53  66
ENDBRANCH  27  28
ENDBRANCH  20  22
ENDBRANCH  19  20
ENDBRANCH  18  19
ENDBRANCH  17  18
ENDBRANCH   1  17
TORSDOF 16
ENDMDL
MODEL 2
REMARK VINA RESULT:      -7.7      5.904     11.618
REMARK SMILES CCOc1c(F)cccc1C(=O)OCCOCCOC(=O)c1ccc(-c2c3nc(c(-c4ccccc4)c4ccc([nH]4)c(-c4ccccc4)c4nc(c(-c5ccccc5)c5ccc2[nH]5)C=C4)C=C3)cc1
REMARK SMILES IDX 16 1 15 2 14 3 13 4 11 5 12 6 10 7 4 8 5 9 6 10 7 11 9 12
REMARK SMILES IDX 8 13 3 14 2 15 1 16 17 17 18 18 19 19 20 20 21 21 22 22
REMARK SMILES IDX 23 23 69 24 24 25 68 26 25 27 26 28 27 29 62 30 28 31 67 32
REMARK SMILES IDX 61 33 63 34 29 35 66 36 60 37 59 38 30 40 52 41 37 42 51 43
REMARK SMILES IDX 38 44 41 45 50 46 64 47 39 48 40 49 49 51 65 52 42 53 31 54
REMARK SMILES IDX 32 55 36 56 33 57 35 58 34 59 53 60 54 61 58 62 55 63 57 64
REMARK SMILES IDX 56 65 43 66 44 67 48 68 45 69 47 70 46 71
REMARK H PARENT 63 39 41 50
REMARK Flexibility Score: inf
ROOT
ATOM      1  O   UNL A   1      37.567  21.667  24.883  1.00  0.00    -0.374 OA
ENDROOT
BRANCH   1   2
ATOM      2  C   UNL A   1      38.010  22.644  25.826  1.00  0.00     0.202 C 
BRANCH   2   3
ATOM      3  C   UNL A   1      37.129  23.886  25.973  1.00  0.00     0.261 C 
BRANCH   3   4
ATOM      4  O   UNL A   1      36.266  24.048  24.833  1.00  0.00    -0.460 OA
BRANCH   4   5
ATOM      5  C   UNL A   1      34.971  24.307  25.140  1.00  0.00     0.342 C 
ATOM      6  O   UNL A   1      34.522  25.352  25.583  1.00  0.00    -0.246 OA
BRANCH   5   7
ATOM      7  C   UNL A   1      34.085  23.235  24.649  1.00  0.00     0.105 A 
ATOM      8  C   UNL A   1      33.562  23.178  23.354  1.00  0.00     0.169 A 
ATOM      9  C   UNL A   1      32.887  22.015  22.967  1.00  0.00     0.165 A 
ATOM     10  F   UNL A   1      32.498  21.844  21.697  1.00  0.00    -0.203 F 
ATOM     11  C   UNL A   1      32.639  20.978  23.863  1.00  0.00     0.043 A 
ATOM     12  C   UNL A   1      33.829  22.191  25.560  1.00  0.00     0.020 A 
ATOM     13  C   UNL A   1      33.090  21.074  25.173  1.00  0.00     0.004 A 
BRANCH   8  14
ATOM     14  O   UNL A   1      33.805  24.175  22.449  1.00  0.00    -0.490 OA
BRANCH  14  15
ATOM     15  C   UNL A   1      32.697  25.082  22.317  1.00  0.00     0.226 C 
ATOM     16  C   UNL A   1      32.607  25.663  20.914  1.00  0.00     0.049 C 
ENDBRANCH  14  15
ENDBRANCH   8  14
ENDBRANCH   5   7
ENDBRANCH   4   5
ENDBRANCH   3   4
ENDBRANCH   2   3
ENDBRANCH   1   2
BRANCH   1  17
ATOM     17  C   UNL A   1      37.716  20.293  25.244  1.00  0.00     0.202 C 
BRANCH  17  18
ATOM     18  C   UNL A   1      39.047  19.629  24.870  1.00  0.00     0.261 C 
BRANCH  18  19
ATOM     19  O   UNL A   1      39.787  19.201  26.027  1.00  0.00    -0.460 OA
BRANCH  19  20
ATOM     20  C   UNL A   1      41.090  19.570  26.035  1.00  0.00     0.338 C 
ATOM     21  O   UNL A   1      42.038  18.960  25.559  1.00  0.00    -0.246 OA
BRANCH  20  22
ATOM     22  C   UNL A   1      41.225  20.940  26.565  1.00  0.00     0.060 A 
ATOM     23  C   UNL A   1      41.729  21.921  25.703  1.00  0.00     0.016 A 
ATOM     24  C   UNL A   1      40.934  21.245  27.896  1.00  0.00     0.016 A 
ATOM     25  C   UNL A   1      41.991  23.203  26.180  1.00  0.00     0.010 A 
ATOM     26  C   UNL A   1      41.207  22.530  28.377  1.00  0.00     0.010 A 
ATOM     27  C   UNL A   1      41.768  23.504  27.529  1.00  0.00    -0.014 A 
BRANCH  27  28
ATOM     28  C   UNL A   1      42.256  24.789  28.084  1.00  0.00     0.031 A 
ATOM     29  C   UNL A   1      41.275  25.908  28.306  1.00  0.00     0.074 A 
ATOM     30  C   UNL A   1      43.550  24.951  28.412  1.00  0.00     0.049 A 
ATOM     31  N   UNL A   1      41.487  27.117  28.761  1.00  0.00    -0.248 NA
ATOM     32  C   UNL A   1      39.869  25.626  27.972  1.00  0.00     0.031 C 
ATOM     33  C   UNL A   1      44.588  23.931  28.291  1.00  0.00     0.029 A 
ATOM     34  N   UNL A   1      44.207  26.045  28.918  1.00  0.00    -0.354 N 
ATOM     35  C   UNL A   1      40.246  27.742  28.758  1.00  0.00     0.074 A 
ATOM     36  C   UNL A   1      39.292  26.790  28.233  1.00  0.00     0.031 C 
ATOM     37  C   UNL A   1      45.757  24.449  28.708  1.00  0.00     0.029 A 
ATOM     38  C   UNL A   1      45.553  25.843  29.095  1.00  0.00     0.049 A 
ATOM     39  H   UNL A   1      43.755  26.893  29.132  1.00  0.00     0.167 HD
ATOM     40  C   UNL A   1      39.928  28.996  29.160  1.00  0.00     0.031 A 
ATOM     41  C   UNL A   1      46.513  26.692  29.506  1.00  0.00     0.031 A 
ATOM     42  C   UNL A   1      40.875  29.949  29.671  1.00  0.00     0.049 A 
ATOM     43  C   UNL A   1      46.147  28.106  29.872  1.00  0.00     0.074 A 
ATOM     44  C   UNL A   1      40.643  31.237  30.124  1.00  0.00     0.029 A 
ATOM     45  N   UNL A   1      42.236  29.720  29.791  1.00  0.00    -0.354 N 
ATOM     46  N   UNL A   1      44.966  28.676  29.890  1.00  0.00    -0.248 NA
ATOM     47  C   UNL A   1      47.248  28.992  30.277  1.00  0.00     0.031 C 
ATOM     48  C   UNL A   1      41.874  31.807  30.467  1.00  0.00     0.029 A 
ATOM     49  C   UNL A   1      42.863  30.853  30.281  1.00  0.00     0.049 A 
ATOM     50  H   UNL A   1      42.690  28.877  29.562  1.00  0.00     0.167 HD
ATOM     51  C   UNL A   1      45.178  29.974  30.337  1.00  0.00     0.074 A 
ATOM     52  C   UNL A   1      46.598  30.104  30.589  1.00  0.00     0.031 C 
ATOM     53  C   UNL A   1      44.277  30.969  30.526  1.00  0.00     0.031 A 
BRANCH  40  54
ATOM     54  C   UNL A   1      38.493  29.420  29.023  1.00  0.00    -0.014 A 
ATOM     55  C   UNL A   1      37.996  29.945  27.820  1.00  0.00     0.009 A 
ATOM     56  C   UNL A   1      37.617  29.264  30.110  1.00  0.00     0.009 A 
ATOM     57  C   UNL A   1      36.659  30.334  27.717  1.00  0.00     0.001 A 
ATOM     58  C   UNL A   1      36.274  29.630  29.995  1.00  0.00     0.001 A 
ATOM     59  C   UNL A   1      35.798  30.172  28.803  1.00  0.00     0.000 A 
ENDBRANCH  40  54
BRANCH  41  60
ATOM     60  C   UNL A   1      47.927  26.238  29.582  1.00  0.00    -0.014 A 
ATOM     61  C   UNL A   1      48.755  26.290  28.451  1.00  0.00     0.009 A 
ATOM     62  C   UNL A   1      48.447  25.732  30.783  1.00  0.00     0.009 A 
ATOM     63  C   UNL A   1      50.069  25.822  28.517  1.00  0.00     0.001 A 
ATOM     64  C   UNL A   1      49.769  25.289  30.853  1.00  0.00     0.001 A 
ATOM     65  C   UNL A   1      50.576  25.325  29.717  1.00  0.00     0.000 A 
ENDBRANCH  41  60
BRANCH  53  66
ATOM     66  C   UNL A   1      44.792  32.274  31.063  1.00  0.00    -0.014 A 
ATOM     67  C   UNL A   1      45.196  33.309  30.205  1.00  0.00     0.009 A 
ATOM     68  C   UNL A   1      44.835  32.485  32.451  1.00  0.00     0.009 A 
ATOM     69  C   UNL A   1      45.661  34.518  30.728  1.00  0.00     0.001 A 
ATOM     70  C   UNL A   1      45.273  33.704  32.970  1.00  0.00     0.001 A 
ATOM     71  C   UNL A   1      45.694  34.716  32.108  1.00  0.00     0.000 A 
ENDBRANCH  53  66
ENDBRANCH  27  28
ENDBRANCH  20  22
ENDBRANCH  19  20
ENDBRANCH  18  19
ENDBRANCH  17  18
ENDBRANCH   1  17
TORSDOF 16
ENDMDL
MODEL 3
REMARK VINA RESULT:      -7.5      5.692     10.239
REMARK SMILES CCOc1c(F)cccc1C(=O)OCCOCCOC(=O)c1ccc(-c2c3nc(c(-c4ccccc4)c4ccc([nH]4)c(-c4ccccc4)c4nc(c(-c5ccccc5)c5ccc2[nH]5)C=C4)C=C3)cc1
REMARK SMILES IDX 16 1 15 2 14 3 13 4 11 5 12 6 10 7 4 8 5 9 6 10 7 11 9 12
REMARK SMILES IDX 8 13 3 14 2 15 1 16 17 17 18 18 19 19 20 20 21 21 22 22
REMARK SMILES IDX 23 23 69 24 24 25 68 26 25 27 26 28 27 29 62 30 28 31 67 32
REMARK SMILES IDX 61 33 63 34 29 35 66 36 60 37 59 38 30 40 52 41 37 42 51 43
REMARK SMILES IDX 38 44 41 45 50 46 64 47 39 48 40 49 49 51 65 52 42 53 31 54
REMARK SMILES IDX 32 55 36 56 33 57 35 58 34 59 53 60 54 61 58 62 55 63 57 64
REMARK SMILES IDX 56 65 43 66 44 67 48 68 45 69 47 70 46 71
REMARK H PARENT 63 39 41 50
REMARK Flexibility Score: inf
ROOT
ATOM      1  O   UNL A   1      35.478  22.944  25.581  1.00  0.00    -0.374 OA
ENDROOT
BRANCH   1   2
ATOM      2  C   UNL A   1      34.292  23.053  26.368  1.00  0.00     0.202 C 
BRANCH   2   3
ATOM      3  C   UNL A   1      33.153  23.873  25.760  1.00  0.00     0.261 C 
BRANCH   3   4
ATOM      4  O   UNL A   1      33.264  25.263  26.119  1.00  0.00    -0.460 OA
BRANCH   4   5
ATOM      5  C   UNL A   1      33.598  26.084  25.094  1.00  0.00     0.342 C 
ATOM      6  O   UNL A   1      33.961  25.746  23.978  1.00  0.00    -0.246 OA
BRANCH   5   7
ATOM      7  C   UNL A   1      33.243  27.483  25.397  1.00  0.00     0.105 A 
ATOM      8  C   UNL A   1      32.238  28.199  24.743  1.00  0.00     0.169 A 
ATOM      9  C   UNL A   1      31.884  29.453  25.252  1.00  0.00     0.165 A 
ATOM     10  F   UNL A   1      30.829  30.116  24.760  1.00  0.00    -0.203 F 
ATOM     11  C   UNL A   1      32.573  30.035  26.313  1.00  0.00     0.043 A 
ATOM     12  C   UNL A   1      33.947  28.072  26.466  1.00  0.00     0.020 A 
ATOM     13  C   UNL A   1      33.626  29.353  26.910  1.00  0.00     0.004 A 
BRANCH   8  14
ATOM     14  O   UNL A   1      31.533  27.645  23.708  1.00  0.00    -0.490 OA
BRANCH  14  15
ATOM     15  C   UNL A   1      30.294  27.054  24.139  1.00  0.00     0.226 C 
ATOM     16  C   UNL A   1      30.238  25.567  23.823  1.00  0.00     0.049 C 
ENDBRANCH  14  15
ENDBRANCH   8  14
ENDBRANCH   5   7
ENDBRANCH   4   5
ENDBRANCH   3   4
ENDBRANCH   2   3
ENDBRANCH   1   2
BRANCH   1  17
ATOM     17  C   UNL A   1      35.672  21.731  24.852  1.00  0.00     0.202 C 
BRANCH  17  18
ATOM     18  C   UNL A   1      36.796  20.811  25.343  1.00  0.00     0.261 C 
BRANCH  18  19
ATOM     19  O   UNL A   1      38.101  21.312  25.002  1.00  0.00    -0.460 OA
BRANCH  19  20
ATOM     20  C   UNL A   1      39.069  21.033  25.905  1.00  0.00     0.338 C 
ATOM     21  O   UNL A   1      39.573  19.942  26.142  1.00  0.00    -0.246 OA
BRANCH  20  22
ATOM     22  C   UNL A   1      39.594  22.282  26.487  1.00  0.00     0.060 A 
ATOM     23  C   UNL A   1      39.005  23.485  26.079  1.00  0.00     0.016 A 
ATOM     24  C   UNL A   1      40.686  22.284  27.358  1.00  0.00     0.016 A 
ATOM     25  C   UNL A   1      39.536  24.701  26.501  1.00  0.00     0.010 A 
ATOM     26  C   UNL A   1      41.224  23.507  27.774  1.00  0.00     0.010 A 
ATOM     27  C   UNL A   1      40.672  24.720  27.320  1.00  0.00    -0.014 A 
BRANCH  27  28
ATOM     28  C   UNL A   1      41.365  26.003  27.582  1.00  0.00     0.031 A 
ATOM     29  C   UNL A   1      40.699  27.028  28.459  1.00  0.00     0.074 A 
ATOM     30  C   UNL A   1      42.585  26.245  27.070  1.00  0.00     0.049 A 
ATOM     31  N   UNL A   1      41.116  28.221  28.803  1.00  0.00    -0.248 NA
ATOM     32  C   UNL A   1      39.391  26.659  29.024  1.00  0.00     0.031 C 
ATOM     33  C   UNL A   1      43.357  25.317  26.246  1.00  0.00     0.029 A 
ATOM     34  N   UNL A   1      43.387  27.354  27.172  1.00  0.00    -0.354 N 
ATOM     35  C   UNL A   1      40.117  28.747  29.614  1.00  0.00     0.074 A 
ATOM     36  C   UNL A   1      39.066  27.757  29.691  1.00  0.00     0.031 C 
ATOM     37  C   UNL A   1      44.523  25.898  25.913  1.00  0.00     0.029 A 
ATOM     38  C   UNL A   1      44.564  27.247  26.475  1.00  0.00     0.049 A 
ATOM     39  H   UNL A   1      43.141  28.151  27.696  1.00  0.00     0.167 HD
ATOM     40  C   UNL A   1      40.081  29.946  30.243  1.00  0.00     0.031 A 
ATOM     41  C   UNL A   1      45.554  28.141  26.295  1.00  0.00     0.031 A 
ATOM     42  C   UNL A   1      41.120  30.937  30.161  1.00  0.00     0.049 A 
ATOM     43  C   UNL A   1      45.454  29.498  26.940  1.00  0.00     0.074 A 
ATOM     44  C   UNL A   1      41.182  32.174  30.780  1.00  0.00     0.029 A 
ATOM     45  N   UNL A   1      42.274  30.807  29.406  1.00  0.00    -0.354 N 
ATOM     46  N   UNL A   1      44.517  29.973  27.726  1.00  0.00    -0.248 NA
ATOM     47  C   UNL A   1      46.551  30.440  26.674  1.00  0.00     0.031 C 
ATOM     48  C   UNL A   1      42.351  32.816  30.356  1.00  0.00     0.029 A 
ATOM     49  C   UNL A   1      43.042  31.954  29.518  1.00  0.00     0.049 A 
ATOM     50  H   UNL A   1      42.513  30.017  28.870  1.00  0.00     0.167 HD
ATOM     51  C   UNL A   1      44.927  31.255  28.072  1.00  0.00     0.074 A 
ATOM     52  C   UNL A   1      46.200  31.479  27.419  1.00  0.00     0.031 C 
ATOM     53  C   UNL A   1      44.306  32.164  28.862  1.00  0.00     0.031 A 
BRANCH  40  54
ATOM     54  C   UNL A   1      38.853  30.266  31.048  1.00  0.00    -0.014 A 
ATOM     55  C   UNL A   1      38.794  30.005  32.426  1.00  0.00     0.009 A 
ATOM     56  C   UNL A   1      37.749  30.865  30.421  1.00  0.00     0.009 A 
ATOM     57  C   UNL A   1      37.642  30.309  33.153  1.00  0.00     0.001 A 
ATOM     58  C   UNL A   1      36.608  31.191  31.156  1.00  0.00     0.001 A 
ATOM     59  C   UNL A   1      36.551  30.906  32.519  1.00  0.00     0.000 A 
ENDBRANCH  40  54
BRANCH  41  60
ATOM     60  C   UNL A   1      46.729  27.794  25.453  1.00  0.00    -0.014 A 
ATOM     61  C   UNL A   1      47.907  27.307  26.037  1.00  0.00     0.009 A 
ATOM     62  C   UNL A   1      46.681  27.969  24.061  1.00  0.00     0.009 A 
ATOM     63  C   UNL A   1      49.023  27.024  25.245  1.00  0.00     0.001 A 
ATOM     64  C   UNL A   1      47.789  27.660  23.269  1.00  0.00     0.001 A 
ATOM     65  C   UNL A   1      48.962  27.197  23.863  1.00  0.00     0.000 A 
ENDBRANCH  41  60
BRANCH  53  66
ATOM     66  C   UNL A   1      45.011  33.470  29.096  1.00  0.00    -0.014 A 
ATOM     67  C   UNL A   1      44.847  34.555  28.221  1.00  0.00     0.009 A 
ATOM     68  C   UNL A   1      45.818  33.630  30.234  1.00  0.00     0.009 A 
ATOM     69  C   UNL A   1      45.503  35.764  28.465  1.00  0.00     0.001 A 
ATOM     70  C   UNL A   1      46.449  34.848  30.491  1.00  0.00     0.001 A 
ATOM     71  C   UNL A   1      46.299  35.910  29.601  1.00  0.00     0.000 A 
ENDBRANCH  53  66
ENDBRANCH  27  28
ENDBRANCH  20  22
ENDBRANCH  19  20
ENDBRANCH  18  19
ENDBRANCH  17  18
ENDBRANCH   1  17
TORSDOF 16
ENDMDL
