MODEL 1
REMARK VINA RESULT:     -11.9      0.000      0.000
REMARK SMILES Cc1nc(-c2ccccc2Cl)nc2sc(C(=O)OCCOCCOC(=O)c3ccc(-c4c5nc(c(-c6ccccc6)c6ccc([nH]6)c(-c6ccccc6)c6nc(c(-c7ccccc7)c7ccc4[nH]7)C=C6)C=C5)cc3)c(N)c12
REMARK SMILES IDX 22 1 21 2 20 3 19 4 18 5 16 6 17 7 15 8 1 9 2 10 3 11 77 12
REMARK SMILES IDX 4 13 13 14 75 15 12 16 14 17 5 18 6 19 10 20 7 21 9 22 11 23
REMARK SMILES IDX 8 24 76 25 23 28 24 29 25 30 26 31 27 32 28 33 74 34 29 35
REMARK SMILES IDX 73 36 30 37 31 38 32 39 67 40 33 41 72 42 66 43 68 44 34 45
REMARK SMILES IDX 71 46 65 47 64 48 35 50 57 51 42 52 56 53 43 54 46 55 55 56
REMARK SMILES IDX 69 57 44 58 45 59 54 61 70 62 47 63 36 64 37 65 41 66 38 67
REMARK SMILES IDX 40 68 39 69 58 70 59 71 63 72 60 73 62 74 61 75 48 76 49 77
REMARK SMILES IDX 53 78 50 79 52 80 51 81
REMARK H PARENT 76 26 76 27 68 49 46 60
REMARK Flexibility Score: inf
ROOT
ATOM      1  C   UNL A   1      42.482  19.143  26.138  1.00  0.00     0.202 C 
ENDROOT
BRANCH   1   2
ATOM      2  O   UNL A   1      42.466  20.523  26.478  1.00  0.00    -0.374 OA
BRANCH   2   3
ATOM      3  C   UNL A   1      41.370  21.329  26.045  1.00  0.00     0.202 C 
BRANCH   3   4
ATOM      4  C   UNL A   1      40.015  21.049  26.698  1.00  0.00     0.261 C 
BRANCH   4   5
ATOM      5  O   UNL A   1      38.964  21.817  26.094  1.00  0.00    -0.459 OA
BRANCH   5   6
ATOM      6  C   UNL A   1      38.046  21.119  25.359  1.00  0.00     0.350 C 
ATOM      7  O   UNL A   1      38.194  19.967  24.979  1.00  0.00    -0.245 OA
BRANCH   6   8
ATOM      8  C   UNL A   1      36.819  21.885  25.224  1.00  0.00     0.138 A 
ATOM      9  C   UNL A   1      32.311  21.372  24.202  1.00  0.00     0.067 C 
ATOM     10  C   UNL A   1      33.203  22.549  24.463  1.00  0.00     0.052 A 
ATOM     11  N   UNL A   1      32.644  23.781  24.255  1.00  0.00    -0.233 NA
ATOM     12  C   UNL A   1      34.573  22.476  24.804  1.00  0.00     0.057 A 
ATOM     13  C   UNL A   1      33.386  24.886  24.441  1.00  0.00     0.162 A 
ATOM     14  C   UNL A   1      35.205  23.699  24.956  1.00  0.00     0.130 A 
ATOM     15  C   UNL A   1      35.528  21.415  25.024  1.00  0.00     0.069 A 
ATOM     16  N   UNL A   1      34.666  24.909  24.812  1.00  0.00    -0.217 NA
ATOM     17  S   UNL A   1      36.851  23.587  25.327  1.00  0.00    -0.106 S 
BRANCH  13  18
ATOM     18  C   UNL A   1      32.843  26.200  24.093  1.00  0.00     0.038 A 
ATOM     19  C   UNL A   1      33.474  26.922  23.050  1.00  0.00     0.013 A 
ATOM     20  C   UNL A   1      31.807  26.837  24.788  1.00  0.00     0.052 A 
ATOM     21  C   UNL A   1      33.115  28.233  22.738  1.00  0.00     0.001 A 
ATOM     22  C   UNL A   1      31.445  28.155  24.473  1.00  0.00     0.021 A 
ATOM     23  Cl  UNL A   1      30.978  26.091  26.112  1.00  0.00    -0.084 Cl
ATOM     24  C   UNL A   1      32.104  28.853  23.459  1.00  0.00     0.002 A 
ENDBRANCH  13  18
BRANCH  15  25
ATOM     25  N   UNL A   1      35.232  20.096  25.026  1.00  0.00    -0.397 N 
ATOM     26  H   UNL A   1      35.804  19.464  25.520  1.00  0.00     0.156 HD
ATOM     27  H   UNL A   1      34.444  19.767  24.534  1.00  0.00     0.156 HD
ENDBRANCH  15  25
ENDBRANCH   6   8
ENDBRANCH   5   6
ENDBRANCH   4   5
ENDBRANCH   3   4
ENDBRANCH   2   3
ENDBRANCH   1   2
BRANCH   1  28
ATOM     28  C   UNL A   1      43.686  18.612  25.377  1.00  0.00     0.261 C 
BRANCH  28  29
ATOM     29  O   UNL A   1      43.912  19.302  24.155  1.00  0.00    -0.460 OA
BRANCH  29  30
ATOM     30  C   UNL A   1      45.177  19.760  24.019  1.00  0.00     0.338 C 
ATOM     31  O   UNL A   1      46.171  19.112  23.751  1.00  0.00    -0.246 OA
BRANCH  30  32
ATOM     32  C   UNL A   1      45.212  21.158  24.469  1.00  0.00     0.060 A 
ATOM     33  C   UNL A   1      45.928  21.421  25.637  1.00  0.00     0.016 A 
ATOM     34  C   UNL A   1      44.347  22.109  23.904  1.00  0.00     0.016 A 
ATOM     35  C   UNL A   1      45.639  22.573  26.335  1.00  0.00     0.010 A 
ATOM     36  C   UNL A   1      44.053  23.255  24.607  1.00  0.00     0.010 A 
ATOM     37  C   UNL A   1      44.649  23.442  25.849  1.00  0.00    -0.014 A 
BRANCH  37  38
ATOM     38  C   UNL A   1      44.405  24.668  26.580  1.00  0.00     0.031 A 
ATOM     39  C   UNL A   1      45.493  25.641  26.351  1.00  0.00     0.074 A 
ATOM     40  C   UNL A   1      43.310  24.914  27.326  1.00  0.00     0.049 A 
ATOM     41  N   UNL A   1      46.473  25.880  27.154  1.00  0.00    -0.248 NA
ATOM     42  C   UNL A   1      45.659  26.225  25.010  1.00  0.00     0.031 C 
ATOM     43  C   UNL A   1      42.085  24.114  27.425  1.00  0.00     0.029 A 
ATOM     44  N   UNL A   1      43.028  25.995  28.108  1.00  0.00    -0.354 N 
ATOM     45  C   UNL A   1      47.238  26.852  26.526  1.00  0.00     0.074 A 
ATOM     46  C   UNL A   1      46.829  26.855  25.146  1.00  0.00     0.031 C 
ATOM     47  C   UNL A   1      41.115  24.849  28.022  1.00  0.00     0.029 A 
ATOM     48  C   UNL A   1      41.691  26.101  28.484  1.00  0.00     0.049 A 
ATOM     49  H   UNL A   1      43.713  26.645  28.383  1.00  0.00     0.167 HD
ATOM     50  C   UNL A   1      47.860  27.801  27.277  1.00  0.00     0.031 A 
ATOM     51  C   UNL A   1      41.116  27.157  29.114  1.00  0.00     0.031 A 
ATOM     52  C   UNL A   1      47.865  27.423  28.669  1.00  0.00     0.049 A 
ATOM     53  C   UNL A   1      42.197  27.882  29.813  1.00  0.00     0.074 A 
ATOM     54  C   UNL A   1      48.491  26.488  29.462  1.00  0.00     0.029 A 
ATOM     55  N   UNL A   1      46.749  27.854  29.340  1.00  0.00    -0.354 N 
ATOM     56  N   UNL A   1      42.830  27.393  30.839  1.00  0.00    -0.248 NA
ATOM     57  C   UNL A   1      42.836  29.015  29.157  1.00  0.00     0.031 C 
ATOM     58  C   UNL A   1      47.598  26.237  30.545  1.00  0.00     0.029 A 
ATOM     59  C   UNL A   1      46.483  27.066  30.419  1.00  0.00     0.049 A 
ATOM     60  H   UNL A   1      46.208  28.632  29.075  1.00  0.00     0.167 HD
ATOM     61  C   UNL A   1      44.127  27.835  30.671  1.00  0.00     0.074 A 
ATOM     62  C   UNL A   1      44.035  28.959  29.745  1.00  0.00     0.031 C 
ATOM     63  C   UNL A   1      45.176  27.045  31.038  1.00  0.00     0.031 A 
BRANCH  50  64
ATOM     64  C   UNL A   1      47.869  29.272  26.901  1.00  0.00    -0.014 A 
ATOM     65  C   UNL A   1      49.020  30.019  27.221  1.00  0.00     0.009 A 
ATOM     66  C   UNL A   1      46.712  30.007  26.582  1.00  0.00     0.009 A 
ATOM     67  C   UNL A   1      48.984  31.415  27.311  1.00  0.00     0.001 A 
ATOM     68  C   UNL A   1      46.682  31.403  26.639  1.00  0.00     0.001 A 
ATOM     69  C   UNL A   1      47.810  32.105  27.033  1.00  0.00     0.000 A 
ENDBRANCH  50  64
BRANCH  51  70
ATOM     70  C   UNL A   1      39.759  27.744  29.014  1.00  0.00    -0.014 A 
ATOM     71  C   UNL A   1      38.937  27.830  30.153  1.00  0.00     0.009 A 
ATOM     72  C   UNL A   1      39.408  28.520  27.897  1.00  0.00     0.009 A 
ATOM     73  C   UNL A   1      37.849  28.714  30.200  1.00  0.00     0.001 A 
ATOM     74  C   UNL A   1      38.319  29.402  27.944  1.00  0.00     0.001 A 
ATOM     75  C   UNL A   1      37.555  29.517  29.102  1.00  0.00     0.000 A 
ENDBRANCH  51  70
BRANCH  63  76
ATOM     76  C   UNL A   1      44.925  25.951  32.033  1.00  0.00    -0.014 A 
ATOM     77  C   UNL A   1      44.801  26.162  33.415  1.00  0.00     0.009 A 
ATOM     78  C   UNL A   1      44.647  24.678  31.513  1.00  0.00     0.009 A 
ATOM     79  C   UNL A   1      44.397  25.114  34.252  1.00  0.00     0.001 A 
ATOM     80  C   UNL A   1      44.224  23.644  32.344  1.00  0.00     0.001 A 
ATOM     81  C   UNL A   1      44.096  23.863  33.713  1.00  0.00     0.000 A 
ENDBRANCH  63  76
ENDBRANCH  37  38
ENDBRANCH  30  32
ENDBRANCH  29  30
ENDBRANCH  28  29
ENDBRANCH   1  28
TORSDOF 16
ENDMDL
MODEL 2
REMARK VINA RESULT:     -11.1      3.641      5.482
REMARK SMILES Cc1nc(-c2ccccc2Cl)nc2sc(C(=O)OCCOCCOC(=O)c3ccc(-c4c5nc(c(-c6ccccc6)c6ccc([nH]6)c(-c6ccccc6)c6nc(c(-c7ccccc7)c7ccc4[nH]7)C=C6)C=C5)cc3)c(N)c12
REMARK SMILES IDX 22 1 21 2 20 3 19 4 18 5 16 6 17 7 15 8 1 9 2 10 3 11 77 12
REMARK SMILES IDX 4 13 13 14 75 15 12 16 14 17 5 18 6 19 10 20 7 21 9 22 11 23
REMARK SMILES IDX 8 24 76 25 23 28 24 29 25 30 26 31 27 32 28 33 74 34 29 35
REMARK SMILES IDX 73 36 30 37 31 38 32 39 67 40 33 41 72 42 66 43 68 44 34 45
REMARK SMILES IDX 71 46 65 47 64 48 35 50 57 51 42 52 56 53 43 54 46 55 55 56
REMARK SMILES IDX 69 57 44 58 45 59 54 61 70 62 47 63 36 64 37 65 41 66 38 67
REMARK SMILES IDX 40 68 39 69 58 70 59 71 63 72 60 73 62 74 61 75 48 76 49 77
REMARK SMILES IDX 53 78 50 79 52 80 51 81
REMARK H PARENT 76 26 76 27 68 49 46 60
REMARK Flexibility Score: inf
ROOT
ATOM      1  C   UNL A   1      38.466  20.997  25.623  1.00  0.00     0.202 C 
ENDROOT
BRANCH   1   2
ATOM      2  O   UNL A   1      37.745  21.933  24.833  1.00  0.00    -0.374 OA
BRANCH   2   3
ATOM      3  C   UNL A   1      36.323  21.988  24.951  1.00  0.00     0.202 C 
BRANCH   3   4
ATOM      4  C   UNL A   1      35.584  20.648  24.948  1.00  0.00     0.261 C 
BRANCH   4   5
ATOM      5  O   UNL A   1      34.228  20.788  25.393  1.00  0.00    -0.459 OA
BRANCH   5   6
ATOM      6  C   UNL A   1      33.300  21.087  24.433  1.00  0.00     0.350 C 
ATOM      7  O   UNL A   1      32.663  20.258  23.802  1.00  0.00    -0.245 OA
BRANCH   6   8
ATOM      8  C   UNL A   1      33.076  22.522  24.378  1.00  0.00     0.138 A 
ATOM      9  C   UNL A   1      32.805  26.041  21.349  1.00  0.00     0.067 C 
ATOM     10  C   UNL A   1      32.786  25.937  22.844  1.00  0.00     0.052 A 
ATOM     11  N   UNL A   1      32.811  27.123  23.527  1.00  0.00    -0.233 NA
ATOM     12  C   UNL A   1      32.843  24.731  23.581  1.00  0.00     0.057 A 
ATOM     13  C   UNL A   1      32.823  27.115  24.871  1.00  0.00     0.162 A 
ATOM     14  C   UNL A   1      32.855  24.884  24.957  1.00  0.00     0.130 A 
ATOM     15  C   UNL A   1      32.913  23.325  23.258  1.00  0.00     0.069 A 
ATOM     16  N   UNL A   1      32.824  26.027  25.642  1.00  0.00    -0.217 NA
ATOM     17  S   UNL A   1      32.960  23.432  25.815  1.00  0.00    -0.106 S 
BRANCH  13  18
ATOM     18  C   UNL A   1      32.986  28.368  25.609  1.00  0.00     0.038 A 
ATOM     19  C   UNL A   1      34.049  28.455  26.541  1.00  0.00     0.013 A 
ATOM     20  C   UNL A   1      32.101  29.452  25.533  1.00  0.00     0.052 A 
ATOM     21  C   UNL A   1      34.203  29.554  27.385  1.00  0.00     0.001 A 
ATOM     22  C   UNL A   1      32.257  30.558  26.382  1.00  0.00     0.021 A 
ATOM     23  Cl  UNL A   1      30.734  29.463  24.472  1.00  0.00    -0.084 Cl
ATOM     24  C   UNL A   1      33.298  30.604  27.311  1.00  0.00     0.002 A 
ENDBRANCH  13  18
BRANCH  15  25
ATOM     25  N   UNL A   1      32.849  22.815  22.007  1.00  0.00    -0.397 N 
ATOM     26  H   UNL A   1      33.141  23.357  21.238  1.00  0.00     0.156 HD
ATOM     27  H   UNL A   1      32.512  21.900  21.865  1.00  0.00     0.156 HD
ENDBRANCH  15  25
ENDBRANCH   6   8
ENDBRANCH   5   6
ENDBRANCH   4   5
ENDBRANCH   3   4
ENDBRANCH   2   3
ENDBRANCH   1   2
BRANCH   1  28
ATOM     28  C   UNL A   1      39.787  21.445  26.226  1.00  0.00     0.261 C 
BRANCH  28  29
ATOM     29  O   UNL A   1      39.646  22.563  27.093  1.00  0.00    -0.460 OA
BRANCH  29  30
ATOM     30  C   UNL A   1      40.803  22.938  27.685  1.00  0.00     0.338 C 
ATOM     31  O   UNL A   1      41.559  22.239  28.333  1.00  0.00    -0.246 OA
BRANCH  30  32
ATOM     32  C   UNL A   1      40.904  24.401  27.614  1.00  0.00     0.060 A 
ATOM     33  C   UNL A   1      41.811  25.008  28.483  1.00  0.00     0.016 A 
ATOM     34  C   UNL A   1      39.945  25.147  26.909  1.00  0.00     0.016 A 
ATOM     35  C   UNL A   1      41.639  26.343  28.779  1.00  0.00     0.010 A 
ATOM     36  C   UNL A   1      39.769  26.478  27.213  1.00  0.00     0.010 A 
ATOM     37  C   UNL A   1      40.571  27.045  28.197  1.00  0.00    -0.014 A 
BRANCH  37  38
ATOM     38  C   UNL A   1      40.448  28.457  28.490  1.00  0.00     0.031 A 
ATOM     39  C   UNL A   1      41.623  29.201  27.991  1.00  0.00     0.074 A 
ATOM     40  C   UNL A   1      39.384  29.028  29.089  1.00  0.00     0.049 A 
ATOM     41  N   UNL A   1      42.625  29.594  28.702  1.00  0.00    -0.248 NA
ATOM     42  C   UNL A   1      41.838  29.307  26.539  1.00  0.00     0.031 C 
ATOM     43  C   UNL A   1      38.089  28.419  29.405  1.00  0.00     0.029 A 
ATOM     44  N   UNL A   1      39.210  30.324  29.476  1.00  0.00    -0.354 N 
ATOM     45  C   UNL A   1      43.476  30.239  27.816  1.00  0.00     0.074 A 
ATOM     46  C   UNL A   1      43.063  29.837  26.498  1.00  0.00     0.031 C 
ATOM     47  C   UNL A   1      37.196  29.392  29.710  1.00  0.00     0.029 A 
ATOM     48  C   UNL A   1      37.891  30.668  29.763  1.00  0.00     0.049 A 
ATOM     49  H   UNL A   1      39.955  30.963  29.547  1.00  0.00     0.167 HD
ATOM     50  C   UNL A   1      44.189  31.318  28.241  1.00  0.00     0.031 A 
ATOM     51  C   UNL A   1      37.422  31.918  30.007  1.00  0.00     0.031 A 
ATOM     52  C   UNL A   1      44.164  31.408  29.681  1.00  0.00     0.049 A 
ATOM     53  C   UNL A   1      38.570  32.726  30.465  1.00  0.00     0.074 A 
ATOM     54  C   UNL A   1      44.700  30.723  30.747  1.00  0.00     0.029 A 
ATOM     55  N   UNL A   1      43.097  32.131  30.148  1.00  0.00    -0.354 N 
ATOM     56  N   UNL A   1      39.157  32.537  31.611  1.00  0.00    -0.248 NA
ATOM     57  C   UNL A   1      39.311  33.525  29.499  1.00  0.00     0.031 C 
ATOM     58  C   UNL A   1      43.792  30.916  31.830  1.00  0.00     0.029 A 
ATOM     59  C   UNL A   1      42.761  31.759  31.415  1.00  0.00     0.049 A 
ATOM     60  H   UNL A   1      42.631  32.829  29.634  1.00  0.00     0.167 HD
ATOM     61  C   UNL A   1      40.490  32.780  31.345  1.00  0.00     0.074 A 
ATOM     62  C   UNL A   1      40.501  33.551  30.106  1.00  0.00     0.031 C 
ATOM     63  C   UNL A   1      41.460  32.057  31.973  1.00  0.00     0.031 A 
BRANCH  50  64
ATOM     64  C   UNL A   1      44.337  32.583  27.415  1.00  0.00    -0.014 A 
ATOM     65  C   UNL A   1      43.727  33.755  27.903  1.00  0.00     0.009 A 
ATOM     66  C   UNL A   1      44.728  32.595  26.063  1.00  0.00     0.009 A 
ATOM     67  C   UNL A   1      43.439  34.835  27.062  1.00  0.00     0.001 A 
ATOM     68  C   UNL A   1      44.471  33.686  25.227  1.00  0.00     0.001 A 
ATOM     69  C   UNL A   1      43.800  34.794  25.720  1.00  0.00     0.000 A 
ENDBRANCH  50  64
BRANCH  51  70
ATOM     70  C   UNL A   1      36.127  32.563  29.688  1.00  0.00    -0.014 A 
ATOM     71  C   UNL A   1      35.340  33.121  30.713  1.00  0.00     0.009 A 
ATOM     72  C   UNL A   1      35.830  32.932  28.366  1.00  0.00     0.009 A 
ATOM     73  C   UNL A   1      34.344  34.068  30.432  1.00  0.00     0.001 A 
ATOM     74  C   UNL A   1      34.834  33.877  28.086  1.00  0.00     0.001 A 
ATOM     75  C   UNL A   1      34.107  34.463  29.120  1.00  0.00     0.000 A 
ENDBRANCH  51  70
BRANCH  63  76
ATOM     76  C   UNL A   1      41.110  31.368  33.259  1.00  0.00    -0.014 A 
ATOM     77  C   UNL A   1      40.741  30.017  33.349  1.00  0.00     0.009 A 
ATOM     78  C   UNL A   1      41.320  32.095  34.441  1.00  0.00     0.009 A 
ATOM     79  C   UNL A   1      40.598  29.410  34.603  1.00  0.00     0.001 A 
ATOM     80  C   UNL A   1      41.199  31.483  35.685  1.00  0.00     0.001 A 
ATOM     81  C   UNL A   1      40.841  30.140  35.766  1.00  0.00     0.000 A 
ENDBRANCH  63  76
ENDBRANCH  37  38
ENDBRANCH  30  32
ENDBRANCH  29  30
ENDBRANCH  28  29
ENDBRANCH   1  28
TORSDOF 16
ENDMDL
MODEL 3
REMARK VINA RESULT:     -11.0      4.353      8.714
REMARK SMILES Cc1nc(-c2ccccc2Cl)nc2sc(C(=O)OCCOCCOC(=O)c3ccc(-c4c5nc(c(-c6ccccc6)c6ccc([nH]6)c(-c6ccccc6)c6nc(c(-c7ccccc7)c7ccc4[nH]7)C=C6)C=C5)cc3)c(N)c12
REMARK SMILES IDX 22 1 21 2 20 3 19 4 18 5 16 6 17 7 15 8 1 9 2 10 3 11 77 12
REMARK SMILES IDX 4 13 13 14 75 15 12 16 14 17 5 18 6 19 10 20 7 21 9 22 11 23
REMARK SMILES IDX 8 24 76 25 23 28 24 29 25 30 26 31 27 32 28 33 74 34 29 35
REMARK SMILES IDX 73 36 30 37 31 38 32 39 67 40 33 41 72 42 66 43 68 44 34 45
REMARK SMILES IDX 71 46 65 47 64 48 35 50 57 51 42 52 56 53 43 54 46 55 55 56
REMARK SMILES IDX 69 57 44 58 45 59 54 61 70 62 47 63 36 64 37 65 41 66 38 67
REMARK SMILES IDX 40 68 39 69 58 70 59 71 63 72 60 73 62 74 61 75 48 76 49 77
REMARK SMILES IDX 53 78 50 79 52 80 51 81
REMARK H PARENT 76 26 76 27 68 49 46 60
REMARK Flexibility Score: inf
ROOT
ATOM      1  C   UNL A   1      34.046  32.822  28.285  1.00  0.00     0.202 C 
ENDROOT
BRANCH   1   2
ATOM      2  O   UNL A   1      34.546  31.798  27.435  1.00  0.00    -0.374 OA
BRANCH   2   3
ATOM      3  C   UNL A   1      33.817  30.576  27.321  1.00  0.00     0.202 C 
BRANCH   3   4
ATOM      4  C   UNL A   1      32.374  30.684  26.824  1.00  0.00     0.261 C 
BRANCH   4   5
ATOM      5  O   UNL A   1      31.823  29.398  26.507  1.00  0.00    -0.459 OA
BRANCH   5   6
ATOM      6  C   UNL A   1      31.469  29.194  25.201  1.00  0.00     0.350 C 
ATOM      7  O   UNL A   1      30.796  29.966  24.537  1.00  0.00    -0.245 OA
BRANCH   6   8
ATOM      8  C   UNL A   1      32.126  28.008  24.679  1.00  0.00     0.138 A 
ATOM      9  C   UNL A   1      32.695  25.611  20.734  1.00  0.00     0.067 C 
ATOM     10  C   UNL A   1      33.088  25.391  22.164  1.00  0.00     0.052 A 
ATOM     11  N   UNL A   1      33.641  24.173  22.452  1.00  0.00    -0.233 NA
ATOM     12  C   UNL A   1      32.843  26.291  23.227  1.00  0.00     0.057 A 
ATOM     13  C   UNL A   1      33.996  23.887  23.716  1.00  0.00     0.162 A 
ATOM     14  C   UNL A   1      33.260  25.854  24.473  1.00  0.00     0.130 A 
ATOM     15  C   UNL A   1      32.230  27.592  23.358  1.00  0.00     0.069 A 
ATOM     16  N   UNL A   1      33.850  24.696  24.766  1.00  0.00    -0.217 NA
ATOM     17  S   UNL A   1      32.924  26.930  25.733  1.00  0.00    -0.106 S 
BRANCH  13  18
ATOM     18  C   UNL A   1      34.461  22.543  24.061  1.00  0.00     0.038 A 
ATOM     19  C   UNL A   1      33.492  21.517  24.187  1.00  0.00     0.013 A 
ATOM     20  C   UNL A   1      35.789  22.222  24.375  1.00  0.00     0.052 A 
ATOM     21  C   UNL A   1      33.822  20.241  24.641  1.00  0.00     0.001 A 
ATOM     22  C   UNL A   1      36.121  20.937  24.831  1.00  0.00     0.021 A 
ATOM     23  Cl  UNL A   1      37.068  23.386  24.308  1.00  0.00    -0.084 Cl
ATOM     24  C   UNL A   1      35.139  19.954  24.972  1.00  0.00     0.002 A 
ENDBRANCH  13  18
BRANCH  15  25
ATOM     25  N   UNL A   1      31.778  28.342  22.328  1.00  0.00    -0.397 N 
ATOM     26  H   UNL A   1      31.877  29.322  22.352  1.00  0.00     0.156 HD
ATOM     27  H   UNL A   1      31.351  27.909  21.553  1.00  0.00     0.156 HD
ENDBRANCH  15  25
ENDBRANCH   6   8
ENDBRANCH   5   6
ENDBRANCH   4   5
ENDBRANCH   3   4
ENDBRANCH   2   3
ENDBRANCH   1   2
BRANCH   1  28
ATOM     28  C   UNL A   1      34.589  32.897  29.703  1.00  0.00     0.261 C 
BRANCH  28  29
ATOM     29  O   UNL A   1      35.587  31.918  29.962  1.00  0.00    -0.460 OA
BRANCH  29  30
ATOM     30  C   UNL A   1      36.848  32.402  29.903  1.00  0.00     0.338 C 
ATOM     31  O   UNL A   1      37.190  33.569  29.910  1.00  0.00    -0.246 OA
BRANCH  30  32
ATOM     32  C   UNL A   1      37.756  31.288  29.602  1.00  0.00     0.060 A 
ATOM     33  C   UNL A   1      37.220  30.003  29.690  1.00  0.00     0.016 A 
ATOM     34  C   UNL A   1      39.140  31.505  29.504  1.00  0.00     0.016 A 
ATOM     35  C   UNL A   1      38.086  28.944  29.859  1.00  0.00     0.010 A 
ATOM     36  C   UNL A   1      40.003  30.448  29.682  1.00  0.00     0.010 A 
ATOM     37  C   UNL A   1      39.467  29.189  29.929  1.00  0.00    -0.014 A 
BRANCH  37  38
ATOM     38  C   UNL A   1      40.352  28.050  30.057  1.00  0.00     0.031 A 
ATOM     39  C   UNL A   1      41.017  28.048  31.377  1.00  0.00     0.074 A 
ATOM     40  C   UNL A   1      40.512  27.091  29.124  1.00  0.00     0.049 A 
ATOM     41  N   UNL A   1      42.219  28.447  31.618  1.00  0.00    -0.248 NA
ATOM     42  C   UNL A   1      40.206  27.820  32.584  1.00  0.00     0.031 C 
ATOM     43  C   UNL A   1      39.735  26.884  27.898  1.00  0.00     0.029 A 
ATOM     44  N   UNL A   1      41.371  26.033  29.118  1.00  0.00    -0.354 N 
ATOM     45  C   UNL A   1      42.403  28.264  32.980  1.00  0.00     0.074 A 
ATOM     46  C   UNL A   1      41.090  28.101  33.546  1.00  0.00     0.031 C 
ATOM     47  C   UNL A   1      39.997  25.650  27.402  1.00  0.00     0.029 A 
ATOM     48  C   UNL A   1      41.069  25.049  28.180  1.00  0.00     0.049 A 
ATOM     49  H   UNL A   1      42.142  25.970  29.727  1.00  0.00     0.167 HD
ATOM     50  C   UNL A   1      43.629  27.899  33.445  1.00  0.00     0.031 A 
ATOM     51  C   UNL A   1      41.656  23.830  28.077  1.00  0.00     0.031 A 
ATOM     52  C   UNL A   1      44.633  28.078  32.425  1.00  0.00     0.049 A 
ATOM     53  C   UNL A   1      42.984  23.937  28.712  1.00  0.00     0.074 A 
ATOM     54  C   UNL A   1      45.263  29.130  31.799  1.00  0.00     0.029 A 
ATOM     55  N   UNL A   1      44.783  26.973  31.628  1.00  0.00    -0.354 N 
ATOM     56  N   UNL A   1      43.957  24.639  28.208  1.00  0.00    -0.248 NA
ATOM     57  C   UNL A   1      43.140  23.553  30.109  1.00  0.00     0.031 C 
ATOM     58  C   UNL A   1      45.627  28.650  30.506  1.00  0.00     0.029 A 
ATOM     59  C   UNL A   1      45.266  27.308  30.399  1.00  0.00     0.049 A 
ATOM     60  H   UNL A   1      44.569  26.053  31.908  1.00  0.00     0.167 HD
ATOM     61  C   UNL A   1      44.593  25.169  29.313  1.00  0.00     0.074 A 
ATOM     62  C   UNL A   1      44.175  24.334  30.435  1.00  0.00     0.031 C 
ATOM     63  C   UNL A   1      45.131  26.420  29.264  1.00  0.00     0.031 A 
BRANCH  50  64
ATOM     64  C   UNL A   1      43.822  26.827  34.504  1.00  0.00    -0.014 A 
ATOM     65  C   UNL A   1      43.409  25.518  34.188  1.00  0.00     0.009 A 
ATOM     66  C   UNL A   1      44.052  27.102  35.864  1.00  0.00     0.009 A 
ATOM     67  C   UNL A   1      43.148  24.573  35.186  1.00  0.00     0.001 A 
ATOM     68  C   UNL A   1      43.824  26.149  36.861  1.00  0.00     0.001 A 
ATOM     69  C   UNL A   1      43.344  24.893  36.524  1.00  0.00     0.000 A 
ENDBRANCH  50  64
BRANCH  51  70
ATOM     70  C   UNL A   1      41.118  22.509  27.676  1.00  0.00    -0.014 A 
ATOM     71  C   UNL A   1      39.929  22.423  26.927  1.00  0.00     0.009 A 
ATOM     72  C   UNL A   1      41.937  21.369  27.730  1.00  0.00     0.009 A 
ATOM     73  C   UNL A   1      39.610  21.268  26.199  1.00  0.00     0.001 A 
ATOM     74  C   UNL A   1      41.616  20.214  27.004  1.00  0.00     0.001 A 
ATOM     75  C   UNL A   1      40.466  20.171  26.220  1.00  0.00     0.000 A 
ENDBRANCH  51  70
BRANCH  63  76
ATOM     76  C   UNL A   1      45.449  27.002  27.919  1.00  0.00    -0.014 A 
ATOM     77  C   UNL A   1      46.648  26.766  27.227  1.00  0.00     0.009 A 
ATOM     78  C   UNL A   1      44.414  27.690  27.268  1.00  0.00     0.009 A 
ATOM     79  C   UNL A   1      46.794  27.206  25.905  1.00  0.00     0.001 A 
ATOM     80  C   UNL A   1      44.553  28.106  25.947  1.00  0.00     0.001 A 
ATOM     81  C   UNL A   1      45.742  27.861  25.264  1.00  0.00     0.000 A 
ENDBRANCH  63  76
ENDBRANCH  37  38
ENDBRANCH  30  32
ENDBRANCH  29  30
ENDBRANCH  28  29
ENDBRANCH   1  28
TORSDOF 16
ENDMDL
