MODEL 1
REMARK VINA RESULT:     -10.2      0.000      0.000
REMARK SMILES CCc1c(C)nc(Nc2ccc(C(C)=O)cc2)nc1OCC(=O)OCCOCCOC(=O)c1ccc(-c2c3nc(c(-c4ccccc4)c4ccc([nH]4)c(-c4ccccc4)c4nc(c(-c5ccccc5)c5ccc2[nH]5)C=C4)C=C3)cc1
REMARK SMILES IDX 25 1 24 2 22 3 23 4 21 5 20 6 19 7 3 8 4 9 5 10 6 11 18 12
REMARK SMILES IDX 7 13 2 14 1 15 8 16 9 18 10 19 17 20 11 21 16 22 12 23 13 24
REMARK SMILES IDX 14 25 15 26 26 27 27 28 28 29 29 30 30 31 31 32 32 33 33 34
REMARK SMILES IDX 34 35 80 36 35 37 79 38 36 39 37 40 38 41 73 42 39 43 78 44
REMARK SMILES IDX 72 45 74 46 40 47 77 48 71 49 70 50 41 52 63 53 48 54 62 55
REMARK SMILES IDX 49 56 52 57 61 58 75 59 50 60 51 61 60 63 76 64 53 65 42 66
REMARK SMILES IDX 43 67 47 68 44 69 46 70 45 71 64 72 65 73 69 74 66 75 68 76
REMARK SMILES IDX 67 77 54 78 55 79 59 80 56 81 58 82 57 83
REMARK H PARENT 8 17 74 51 52 62
REMARK Flexibility Score: inf
ROOT
ATOM      1  C   UNL A   1      33.048  22.702  27.366  1.00  0.00     0.261 C 
ENDROOT
BRANCH   1   2
ATOM      2  O   UNL A   1      31.732  22.567  26.773  1.00  0.00    -0.461 OA
BRANCH   2   3
ATOM      3  C   UNL A   1      31.231  23.683  26.172  1.00  0.00     0.344 C 
ATOM      4  O   UNL A   1      30.419  24.444  26.688  1.00  0.00    -0.248 OA
BRANCH   3   5
ATOM      5  C   UNL A   1      31.734  23.879  24.739  1.00  0.00     0.353 C 
BRANCH   5   6
ATOM      6  O   UNL A   1      33.008  24.401  24.488  1.00  0.00    -0.465 OA
BRANCH   6   7
ATOM      7  C   UNL A   1      33.369  25.697  24.349  1.00  0.00     0.222 A 
ATOM      8  C   UNL A   1      33.491  26.485  23.201  1.00  0.00     0.035 A 
ATOM      9  C   UNL A   1      33.438  27.861  23.473  1.00  0.00     0.050 A 
ATOM     10  C   UNL A   1      33.191  28.928  22.441  1.00  0.00     0.067 C 
ATOM     11  N   UNL A   1      33.444  28.371  24.718  1.00  0.00    -0.218 NA
ATOM     12  N   UNL A   1      33.434  26.219  25.600  1.00  0.00    -0.177 NA
ATOM     13  C   UNL A   1      33.467  27.538  25.752  1.00  0.00     0.230 A 
BRANCH   8  14
ATOM     14  C   UNL A   1      33.475  26.014  21.770  1.00  0.00     0.040 C 
ATOM     15  C   UNL A   1      32.106  25.671  21.187  1.00  0.00     0.009 C 
ENDBRANCH   8  14
BRANCH  13  16
ATOM     16  N   UNL A   1      33.522  28.057  27.043  1.00  0.00    -0.324 N 
ATOM     17  H   UNL A   1      33.120  27.509  27.755  1.00  0.00     0.170 HD
BRANCH  16  18
ATOM     18  C   UNL A   1      34.086  29.275  27.435  1.00  0.00     0.041 A 
ATOM     19  C   UNL A   1      35.471  29.403  27.561  1.00  0.00     0.027 A 
ATOM     20  C   UNL A   1      33.297  30.420  27.592  1.00  0.00     0.027 A 
ATOM     21  C   UNL A   1      36.063  30.656  27.789  1.00  0.00     0.014 A 
ATOM     22  C   UNL A   1      33.878  31.666  27.848  1.00  0.00     0.014 A 
ATOM     23  C   UNL A   1      35.270  31.802  27.919  1.00  0.00     0.017 A 
BRANCH  23  24
ATOM     24  C   UNL A   1      35.820  33.181  28.109  1.00  0.00     0.159 C 
ATOM     25  C   UNL A   1      34.922  34.390  28.090  1.00  0.00     0.093 C 
ATOM     26  O   UNL A   1      37.028  33.324  28.310  1.00  0.00    -0.295 OA
ENDBRANCH  23  24
ENDBRANCH  16  18
ENDBRANCH  13  16
ENDBRANCH   6   7
ENDBRANCH   5   6
ENDBRANCH   3   5
ENDBRANCH   2   3
ENDBRANCH   1   2
BRANCH   1  27
ATOM     27  C   UNL A   1      34.010  21.601  26.903  1.00  0.00     0.202 C 
BRANCH  27  28
ATOM     28  O   UNL A   1      35.196  22.016  26.216  1.00  0.00    -0.374 OA
BRANCH  28  29
ATOM     29  C   UNL A   1      35.553  21.291  25.050  1.00  0.00     0.202 C 
BRANCH  29  30
ATOM     30  C   UNL A   1      37.010  20.846  24.913  1.00  0.00     0.261 C 
BRANCH  30  31
ATOM     31  O   UNL A   1      37.958  21.866  25.157  1.00  0.00    -0.460 OA
BRANCH  31  32
ATOM     32  C   UNL A   1      38.988  21.450  25.920  1.00  0.00     0.338 C 
ATOM     33  O   UNL A   1      39.555  20.376  25.917  1.00  0.00    -0.246 OA
BRANCH  32  34
ATOM     34  C   UNL A   1      39.458  22.623  26.648  1.00  0.00     0.060 A 
ATOM     35  C   UNL A   1      38.857  23.837  26.318  1.00  0.00     0.016 A 
ATOM     36  C   UNL A   1      40.457  22.525  27.621  1.00  0.00     0.016 A 
ATOM     37  C   UNL A   1      39.323  24.997  26.907  1.00  0.00     0.010 A 
ATOM     38  C   UNL A   1      40.922  23.691  28.216  1.00  0.00     0.010 A 
ATOM     39  C   UNL A   1      40.392  24.928  27.811  1.00  0.00    -0.014 A 
BRANCH  39  40
ATOM     40  C   UNL A   1      41.075  26.185  28.153  1.00  0.00     0.031 A 
ATOM     41  C   UNL A   1      42.395  26.470  27.498  1.00  0.00     0.074 A 
ATOM     42  C   UNL A   1      40.461  27.084  28.936  1.00  0.00     0.049 A 
ATOM     43  N   UNL A   1      43.124  27.553  27.548  1.00  0.00    -0.248 NA
ATOM     44  C   UNL A   1      42.967  25.396  26.667  1.00  0.00     0.031 C 
ATOM     45  C   UNL A   1      39.152  26.903  29.565  1.00  0.00     0.029 A 
ATOM     46  N   UNL A   1      40.844  28.344  29.305  1.00  0.00    -0.354 N 
ATOM     47  C   UNL A   1      44.240  27.286  26.764  1.00  0.00     0.074 A 
ATOM     48  C   UNL A   1      44.112  25.932  26.279  1.00  0.00     0.031 C 
ATOM     49  C   UNL A   1      38.829  28.027  30.226  1.00  0.00     0.029 A 
ATOM     50  C   UNL A   1      39.920  28.987  30.088  1.00  0.00     0.049 A 
ATOM     51  H   UNL A   1      41.700  28.749  29.036  1.00  0.00     0.167 HD
ATOM     52  C   UNL A   1      45.274  28.107  26.470  1.00  0.00     0.031 A 
ATOM     53  C   UNL A   1      39.962  30.217  30.629  1.00  0.00     0.031 A 
ATOM     54  C   UNL A   1      45.384  29.448  26.974  1.00  0.00     0.049 A 
ATOM     55  C   UNL A   1      41.157  31.084  30.341  1.00  0.00     0.074 A 
ATOM     56  C   UNL A   1      46.377  30.380  26.741  1.00  0.00     0.029 A 
ATOM     57  N   UNL A   1      44.462  30.044  27.824  1.00  0.00    -0.354 N 
ATOM     58  N   UNL A   1      42.195  30.836  29.578  1.00  0.00    -0.248 NA
ATOM     59  C   UNL A   1      41.178  32.405  30.979  1.00  0.00     0.031 C 
ATOM     60  C   UNL A   1      46.090  31.517  27.504  1.00  0.00     0.029 A 
ATOM     61  C   UNL A   1      44.880  31.321  28.154  1.00  0.00     0.049 A 
ATOM     62  H   UNL A   1      43.633  29.620  28.145  1.00  0.00     0.167 HD
ATOM     63  C   UNL A   1      42.979  31.981  29.619  1.00  0.00     0.074 A 
ATOM     64  C   UNL A   1      42.284  32.928  30.467  1.00  0.00     0.031 C 
ATOM     65  C   UNL A   1      44.164  32.234  29.008  1.00  0.00     0.031 A 
BRANCH  52  66
ATOM     66  C   UNL A   1      46.378  27.551  25.616  1.00  0.00    -0.014 A 
ATOM     67  C   UNL A   1      46.579  27.983  24.294  1.00  0.00     0.009 A 
ATOM     68  C   UNL A   1      47.237  26.577  26.146  1.00  0.00     0.009 A 
ATOM     69  C   UNL A   1      47.594  27.423  23.512  1.00  0.00     0.001 A 
ATOM     70  C   UNL A   1      48.269  26.041  25.374  1.00  0.00     0.001 A 
ATOM     71  C   UNL A   1      48.440  26.457  24.055  1.00  0.00     0.000 A 
ENDBRANCH  52  66
BRANCH  53  72
ATOM     72  C   UNL A   1      38.847  30.693  31.488  1.00  0.00    -0.014 A 
ATOM     73  C   UNL A   1      38.918  30.586  32.885  1.00  0.00     0.009 A 
ATOM     74  C   UNL A   1      37.699  31.257  30.910  1.00  0.00     0.009 A 
ATOM     75  C   UNL A   1      37.852  31.010  33.682  1.00  0.00     0.001 A 
ATOM     76  C   UNL A   1      36.648  31.708  31.710  1.00  0.00     0.001 A 
ATOM     77  C   UNL A   1      36.720  31.574  33.095  1.00  0.00     0.000 A 
ENDBRANCH  53  72
BRANCH  65  78
ATOM     78  C   UNL A   1      44.754  33.601  29.210  1.00  0.00    -0.014 A 
ATOM     79  C   UNL A   1      45.679  33.854  30.235  1.00  0.00     0.009 A 
ATOM     80  C   UNL A   1      44.399  34.641  28.338  1.00  0.00     0.009 A 
ATOM     81  C   UNL A   1      46.202  35.137  30.408  1.00  0.00     0.001 A 
ATOM     82  C   UNL A   1      44.951  35.912  28.491  1.00  0.00     0.001 A 
ATOM     83  C   UNL A   1      45.842  36.163  29.533  1.00  0.00     0.000 A 
ENDBRANCH  65  78
ENDBRANCH  39  40
ENDBRANCH  32  34
ENDBRANCH  31  32
ENDBRANCH  30  31
ENDBRANCH  29  30
ENDBRANCH  28  29
ENDBRANCH  27  28
ENDBRANCH   1  27
TORSDOF 20
ENDMDL
MODEL 2
REMARK VINA RESULT:     -10.0      0.677      5.786
REMARK SMILES CCc1c(C)nc(Nc2ccc(C(C)=O)cc2)nc1OCC(=O)OCCOCCOC(=O)c1ccc(-c2c3nc(c(-c4ccccc4)c4ccc([nH]4)c(-c4ccccc4)c4nc(c(-c5ccccc5)c5ccc2[nH]5)C=C4)C=C3)cc1
REMARK SMILES IDX 25 1 24 2 22 3 23 4 21 5 20 6 19 7 3 8 4 9 5 10 6 11 18 12
REMARK SMILES IDX 7 13 2 14 1 15 8 16 9 18 10 19 17 20 11 21 16 22 12 23 13 24
REMARK SMILES IDX 14 25 15 26 26 27 27 28 28 29 29 30 30 31 31 32 32 33 33 34
REMARK SMILES IDX 34 35 80 36 35 37 79 38 36 39 37 40 38 41 73 42 39 43 78 44
REMARK SMILES IDX 72 45 74 46 40 47 77 48 71 49 70 50 41 52 63 53 48 54 62 55
REMARK SMILES IDX 49 56 52 57 61 58 75 59 50 60 51 61 60 63 76 64 53 65 42 66
REMARK SMILES IDX 43 67 47 68 44 69 46 70 45 71 64 72 65 73 69 74 66 75 68 76
REMARK SMILES IDX 67 77 54 78 55 79 59 80 56 81 58 82 57 83
REMARK H PARENT 8 17 74 51 52 62
REMARK Flexibility Score: inf
ROOT
ATOM      1  C   UNL A   1      33.594  22.193  27.411  1.00  0.00     0.261 C 
ENDROOT
BRANCH   1   2
ATOM      2  O   UNL A   1      32.198  22.468  27.126  1.00  0.00    -0.461 OA
BRANCH   2   3
ATOM      3  C   UNL A   1      31.923  23.712  26.641  1.00  0.00     0.344 C 
ATOM      4  O   UNL A   1      31.294  24.571  27.249  1.00  0.00    -0.248 OA
BRANCH   3   5
ATOM      5  C   UNL A   1      32.424  23.929  25.210  1.00  0.00     0.353 C 
BRANCH   5   6
ATOM      6  O   UNL A   1      33.603  24.641  24.961  1.00  0.00    -0.465 OA
BRANCH   6   7
ATOM      7  C   UNL A   1      33.744  25.959  24.691  1.00  0.00     0.222 A 
ATOM      8  C   UNL A   1      33.609  26.657  23.488  1.00  0.00     0.035 A 
ATOM      9  C   UNL A   1      33.380  28.029  23.673  1.00  0.00     0.050 A 
ATOM     10  C   UNL A   1      32.854  28.959  22.613  1.00  0.00     0.067 C 
ATOM     11  N   UNL A   1      33.455  28.637  24.870  1.00  0.00    -0.218 NA
ATOM     12  N   UNL A   1      33.875  26.588  25.886  1.00  0.00    -0.177 NA
ATOM     13  C   UNL A   1      33.726  27.907  25.945  1.00  0.00     0.230 A 
BRANCH   8  14
ATOM     14  C   UNL A   1      33.496  26.069  22.105  1.00  0.00     0.040 C 
ATOM     15  C   UNL A   1      32.128  25.515  21.716  1.00  0.00     0.009 C 
ENDBRANCH   8  14
BRANCH  13  16
ATOM     16  N   UNL A   1      33.853  28.535  27.181  1.00  0.00    -0.324 N 
ATOM     17  H   UNL A   1      33.533  28.033  27.965  1.00  0.00     0.170 HD
BRANCH  16  18
ATOM     18  C   UNL A   1      34.387  29.804  27.427  1.00  0.00     0.041 A 
ATOM     19  C   UNL A   1      33.542  30.899  27.618  1.00  0.00     0.027 A 
ATOM     20  C   UNL A   1      35.762  29.987  27.609  1.00  0.00     0.027 A 
ATOM     21  C   UNL A   1      34.053  32.141  28.030  1.00  0.00     0.014 A 
ATOM     22  C   UNL A   1      36.281  31.228  27.990  1.00  0.00     0.014 A 
ATOM     23  C   UNL A   1      35.427  32.311  28.234  1.00  0.00     0.017 A 
BRANCH  23  24
ATOM     24  C   UNL A   1      36.047  33.582  28.725  1.00  0.00     0.159 C 
ATOM     25  C   UNL A   1      37.542  33.721  28.859  1.00  0.00     0.093 C 
ATOM     26  O   UNL A   1      35.321  34.540  28.998  1.00  0.00    -0.295 OA
ENDBRANCH  23  24
ENDBRANCH  16  18
ENDBRANCH  13  16
ENDBRANCH   6   7
ENDBRANCH   5   6
ENDBRANCH   3   5
ENDBRANCH   2   3
ENDBRANCH   1   2
BRANCH   1  27
ATOM     27  C   UNL A   1      34.161  21.085  26.515  1.00  0.00     0.202 C 
BRANCH  27  28
ATOM     28  O   UNL A   1      35.275  21.424  25.683  1.00  0.00    -0.374 OA
BRANCH  28  29
ATOM     29  C   UNL A   1      35.974  20.351  25.073  1.00  0.00     0.202 C 
BRANCH  29  30
ATOM     30  C   UNL A   1      37.461  20.555  24.773  1.00  0.00     0.261 C 
BRANCH  30  31
ATOM     31  O   UNL A   1      38.037  21.677  25.412  1.00  0.00    -0.460 OA
BRANCH  31  32
ATOM     32  C   UNL A   1      39.147  21.367  26.110  1.00  0.00     0.338 C 
ATOM     33  O   UNL A   1      39.745  20.311  26.164  1.00  0.00    -0.246 OA
BRANCH  32  34
ATOM     34  C   UNL A   1      39.647  22.621  26.662  1.00  0.00     0.060 A 
ATOM     35  C   UNL A   1      39.015  23.785  26.223  1.00  0.00     0.016 A 
ATOM     36  C   UNL A   1      40.702  22.645  27.579  1.00  0.00     0.016 A 
ATOM     37  C   UNL A   1      39.502  25.009  26.640  1.00  0.00     0.010 A 
ATOM     38  C   UNL A   1      41.188  23.876  28.000  1.00  0.00     0.010 A 
ATOM     39  C   UNL A   1      40.623  25.053  27.481  1.00  0.00    -0.014 A 
BRANCH  39  40
ATOM     40  C   UNL A   1      41.312  26.345  27.628  1.00  0.00     0.031 A 
ATOM     41  C   UNL A   1      40.734  27.347  28.583  1.00  0.00     0.074 A 
ATOM     42  C   UNL A   1      42.484  26.548  27.007  1.00  0.00     0.049 A 
ATOM     43  N   UNL A   1      41.221  28.496  28.968  1.00  0.00    -0.248 NA
ATOM     44  C   UNL A   1      39.437  27.007  29.195  1.00  0.00     0.031 C 
ATOM     45  C   UNL A   1      43.138  25.598  26.106  1.00  0.00     0.029 A 
ATOM     46  N   UNL A   1      43.346  27.607  27.069  1.00  0.00    -0.354 N 
ATOM     47  C   UNL A   1      40.289  29.016  29.858  1.00  0.00     0.074 A 
ATOM     48  C   UNL A   1      39.193  28.079  29.930  1.00  0.00     0.031 C 
ATOM     49  C   UNL A   1      44.317  26.111  25.717  1.00  0.00     0.029 A 
ATOM     50  C   UNL A   1      44.480  27.431  26.319  1.00  0.00     0.049 A 
ATOM     51  H   UNL A   1      43.169  28.417  27.601  1.00  0.00     0.167 HD
ATOM     52  C   UNL A   1      40.351  30.172  30.558  1.00  0.00     0.031 A 
ATOM     53  C   UNL A   1      45.528  28.254  26.144  1.00  0.00     0.031 A 
ATOM     54  C   UNL A   1      41.449  31.094  30.461  1.00  0.00     0.049 A 
ATOM     55  C   UNL A   1      45.540  29.564  26.883  1.00  0.00     0.074 A 
ATOM     56  C   UNL A   1      41.632  32.292  31.125  1.00  0.00     0.029 A 
ATOM     57  N   UNL A   1      42.550  30.917  29.635  1.00  0.00    -0.354 N 
ATOM     58  N   UNL A   1      44.668  30.037  27.742  1.00  0.00    -0.248 NA
ATOM     59  C   UNL A   1      46.686  30.447  26.636  1.00  0.00     0.031 C 
ATOM     60  C   UNL A   1      42.814  32.872  30.651  1.00  0.00     0.029 A 
ATOM     61  C   UNL A   1      43.403  32.001  29.746  1.00  0.00     0.049 A 
ATOM     62  H   UNL A   1      42.702  30.136  29.055  1.00  0.00     0.167 HD
ATOM     63  C   UNL A   1      45.175  31.259  28.163  1.00  0.00     0.074 A 
ATOM     64  C   UNL A   1      46.439  31.442  27.477  1.00  0.00     0.031 C 
ATOM     65  C   UNL A   1      44.650  32.151  29.041  1.00  0.00     0.031 A 
BRANCH  52  66
ATOM     66  C   UNL A   1      39.180  30.515  31.435  1.00  0.00    -0.014 A 
ATOM     67  C   UNL A   1      37.981  31.020  30.903  1.00  0.00     0.009 A 
ATOM     68  C   UNL A   1      39.278  30.326  32.822  1.00  0.00     0.009 A 
ATOM     69  C   UNL A   1      36.921  31.362  31.747  1.00  0.00     0.001 A 
ATOM     70  C   UNL A   1      38.206  30.640  33.660  1.00  0.00     0.001 A 
ATOM     71  C   UNL A   1      37.033  31.167  33.124  1.00  0.00     0.000 A 
ENDBRANCH  52  66
BRANCH  53  72
ATOM     72  C   UNL A   1      46.641  27.864  25.239  1.00  0.00    -0.014 A 
ATOM     73  C   UNL A   1      47.761  27.177  25.730  1.00  0.00     0.009 A 
ATOM     74  C   UNL A   1      46.587  28.182  23.873  1.00  0.00     0.009 A 
ATOM     75  C   UNL A   1      48.815  26.841  24.877  1.00  0.00     0.001 A 
ATOM     76  C   UNL A   1      47.627  27.817  23.016  1.00  0.00     0.001 A 
ATOM     77  C   UNL A   1      48.745  27.157  23.521  1.00  0.00     0.000 A 
ENDBRANCH  53  72
BRANCH  65  78
ATOM     78  C   UNL A   1      45.466  33.379  29.331  1.00  0.00    -0.014 A 
ATOM     79  C   UNL A   1      46.571  33.337  30.195  1.00  0.00     0.009 A 
ATOM     80  C   UNL A   1      45.139  34.590  28.699  1.00  0.00     0.009 A 
ATOM     81  C   UNL A   1      47.304  34.496  30.456  1.00  0.00     0.001 A 
ATOM     82  C   UNL A   1      45.896  35.737  28.934  1.00  0.00     0.001 A 
ATOM     83  C   UNL A   1      46.969  35.693  29.822  1.00  0.00     0.000 A 
ENDBRANCH  65  78
ENDBRANCH  39  40
ENDBRANCH  32  34
ENDBRANCH  31  32
ENDBRANCH  30  31
ENDBRANCH  29  30
ENDBRANCH  28  29
ENDBRANCH  27  28
ENDBRANCH   1  27
TORSDOF 20
ENDMDL
MODEL 3
REMARK VINA RESULT:      -9.8      2.130      4.870
REMARK SMILES CCc1c(C)nc(Nc2ccc(C(C)=O)cc2)nc1OCC(=O)OCCOCCOC(=O)c1ccc(-c2c3nc(c(-c4ccccc4)c4ccc([nH]4)c(-c4ccccc4)c4nc(c(-c5ccccc5)c5ccc2[nH]5)C=C4)C=C3)cc1
REMARK SMILES IDX 25 1 24 2 22 3 23 4 21 5 20 6 19 7 3 8 4 9 5 10 6 11 18 12
REMARK SMILES IDX 7 13 2 14 1 15 8 16 9 18 10 19 17 20 11 21 16 22 12 23 13 24
REMARK SMILES IDX 14 25 15 26 26 27 27 28 28 29 29 30 30 31 31 32 32 33 33 34
REMARK SMILES IDX 34 35 80 36 35 37 79 38 36 39 37 40 38 41 73 42 39 43 78 44
REMARK SMILES IDX 72 45 74 46 40 47 77 48 71 49 70 50 41 52 63 53 48 54 62 55
REMARK SMILES IDX 49 56 52 57 61 58 75 59 50 60 51 61 60 63 76 64 53 65 42 66
REMARK SMILES IDX 43 67 47 68 44 69 46 70 45 71 64 72 65 73 69 74 66 75 68 76
REMARK SMILES IDX 67 77 54 78 55 79 59 80 56 81 58 82 57 83
REMARK H PARENT 8 17 74 51 52 62
REMARK Flexibility Score: inf
ROOT
ATOM      1  C   UNL A   1      34.009  24.422  25.907  1.00  0.00     0.261 C 
ENDROOT
BRANCH   1   2
ATOM      2  O   UNL A   1      33.015  24.533  26.957  1.00  0.00    -0.461 OA
BRANCH   2   3
ATOM      3  C   UNL A   1      31.754  24.133  26.628  1.00  0.00     0.344 C 
ATOM      4  O   UNL A   1      31.377  22.966  26.614  1.00  0.00    -0.248 OA
BRANCH   3   5
ATOM      5  C   UNL A   1      30.842  25.289  26.207  1.00  0.00     0.353 C 
BRANCH   5   6
ATOM      6  O   UNL A   1      30.398  25.411  24.886  1.00  0.00    -0.465 OA
BRANCH   6   7
ATOM      7  C   UNL A   1      31.133  25.634  23.772  1.00  0.00     0.222 A 
ATOM      8  C   UNL A   1      31.696  26.814  23.279  1.00  0.00     0.035 A 
ATOM      9  C   UNL A   1      32.746  26.585  22.377  1.00  0.00     0.050 A 
ATOM     10  C   UNL A   1      33.756  27.620  21.959  1.00  0.00     0.067 C 
ATOM     11  N   UNL A   1      33.064  25.367  21.904  1.00  0.00    -0.218 NA
ATOM     12  N   UNL A   1      31.422  24.416  23.248  1.00  0.00    -0.177 NA
ATOM     13  C   UNL A   1      32.378  24.314  22.331  1.00  0.00     0.230 A 
BRANCH   8  14
ATOM     14  C   UNL A   1      31.422  28.218  23.753  1.00  0.00     0.040 C 
ATOM     15  C   UNL A   1      29.982  28.707  23.619  1.00  0.00     0.009 C 
ENDBRANCH   8  14
BRANCH  13  16
ATOM     16  N   UNL A   1      32.669  23.055  21.812  1.00  0.00    -0.324 N 
ATOM     17  H   UNL A   1      33.024  23.028  20.895  1.00  0.00     0.170 HD
BRANCH  16  18
ATOM     18  C   UNL A   1      32.509  21.824  22.457  1.00  0.00     0.041 A 
ATOM     19  C   UNL A   1      32.105  20.698  21.737  1.00  0.00     0.027 A 
ATOM     20  C   UNL A   1      32.864  21.660  23.801  1.00  0.00     0.027 A 
ATOM     21  C   UNL A   1      32.101  19.424  22.330  1.00  0.00     0.014 A 
ATOM     22  C   UNL A   1      32.835  20.400  24.406  1.00  0.00     0.014 A 
ATOM     23  C   UNL A   1      32.481  19.263  23.667  1.00  0.00     0.017 A 
BRANCH  23  24
ATOM     24  C   UNL A   1      32.559  17.939  24.359  1.00  0.00     0.159 C 
ATOM     25  C   UNL A   1      33.191  16.744  23.693  1.00  0.00     0.093 C 
ATOM     26  O   UNL A   1      32.119  17.833  25.506  1.00  0.00    -0.295 OA
ENDBRANCH  23  24
ENDBRANCH  16  18
ENDBRANCH  13  16
ENDBRANCH   6   7
ENDBRANCH   5   6
ENDBRANCH   3   5
ENDBRANCH   2   3
ENDBRANCH   1   2
BRANCH   1  27
ATOM     27  C   UNL A   1      34.999  23.278  26.164  1.00  0.00     0.202 C 
BRANCH  27  28
ATOM     28  O   UNL A   1      36.020  23.066  25.183  1.00  0.00    -0.374 OA
BRANCH  28  29
ATOM     29  C   UNL A   1      36.230  21.731  24.750  1.00  0.00     0.202 C 
BRANCH  29  30
ATOM     30  C   UNL A   1      37.476  21.009  25.266  1.00  0.00     0.261 C 
BRANCH  30  31
ATOM     31  O   UNL A   1      38.652  21.795  25.263  1.00  0.00    -0.460 OA
BRANCH  31  32
ATOM     32  C   UNL A   1      39.534  21.418  26.209  1.00  0.00     0.338 C 
ATOM     33  O   UNL A   1      40.049  20.332  26.383  1.00  0.00    -0.246 OA
BRANCH  32  34
ATOM     34  C   UNL A   1      39.936  22.637  26.902  1.00  0.00     0.060 A 
ATOM     35  C   UNL A   1      39.226  23.794  26.581  1.00  0.00     0.016 A 
ATOM     36  C   UNL A   1      40.978  22.635  27.834  1.00  0.00     0.016 A 
ATOM     37  C   UNL A   1      39.620  24.996  27.135  1.00  0.00     0.010 A 
ATOM     38  C   UNL A   1      41.370  23.844  28.394  1.00  0.00     0.010 A 
ATOM     39  C   UNL A   1      40.726  25.028  27.996  1.00  0.00    -0.014 A 
BRANCH  39  40
ATOM     40  C   UNL A   1      41.319  26.341  28.294  1.00  0.00     0.031 A 
ATOM     41  C   UNL A   1      42.628  26.686  27.646  1.00  0.00     0.074 A 
ATOM     42  C   UNL A   1      40.632  27.229  29.027  1.00  0.00     0.049 A 
ATOM     43  N   UNL A   1      43.283  27.816  27.660  1.00  0.00    -0.248 NA
ATOM     44  C   UNL A   1      43.284  25.618  26.871  1.00  0.00     0.031 C 
ATOM     45  C   UNL A   1      39.327  26.987  29.644  1.00  0.00     0.029 A 
ATOM     46  N   UNL A   1      40.924  28.526  29.348  1.00  0.00    -0.354 N 
ATOM     47  C   UNL A   1      44.427  27.592  26.905  1.00  0.00     0.074 A 
ATOM     48  C   UNL A   1      44.398  26.213  26.478  1.00  0.00     0.031 C 
ATOM     49  C   UNL A   1      38.918  28.114  30.251  1.00  0.00     0.029 A 
ATOM     50  C   UNL A   1      39.946  29.138  30.088  1.00  0.00     0.049 A 
ATOM     51  H   UNL A   1      41.757  28.976  29.074  1.00  0.00     0.167 HD
ATOM     52  C   UNL A   1      45.410  28.467  26.592  1.00  0.00     0.031 A 
ATOM     53  C   UNL A   1      39.896  30.390  30.576  1.00  0.00     0.031 A 
ATOM     54  C   UNL A   1      45.422  29.833  27.039  1.00  0.00     0.049 A 
ATOM     55  C   UNL A   1      41.036  31.322  30.268  1.00  0.00     0.074 A 
ATOM     56  C   UNL A   1      46.355  30.818  26.781  1.00  0.00     0.029 A 
ATOM     57  N   UNL A   1      44.447  30.400  27.848  1.00  0.00    -0.354 N 
ATOM     58  N   UNL A   1      42.102  31.112  29.532  1.00  0.00    -0.248 NA
ATOM     59  C   UNL A   1      40.959  32.668  30.849  1.00  0.00     0.031 C 
ATOM     60  C   UNL A   1      45.980  31.965  27.490  1.00  0.00     0.029 A 
ATOM     61  C   UNL A   1      44.774  31.715  28.129  1.00  0.00     0.049 A 
ATOM     62  H   UNL A   1      43.643  29.936  28.175  1.00  0.00     0.167 HD
ATOM     63  C   UNL A   1      42.808  32.308  29.535  1.00  0.00     0.074 A 
ATOM     64  C   UNL A   1      42.036  33.242  30.332  1.00  0.00     0.031 C 
ATOM     65  C   UNL A   1      43.985  32.613  28.932  1.00  0.00     0.031 A 
BRANCH  52  66
ATOM     66  C   UNL A   1      46.564  27.951  25.779  1.00  0.00    -0.014 A 
ATOM     67  C   UNL A   1      47.721  27.432  26.385  1.00  0.00     0.009 A 
ATOM     68  C   UNL A   1      46.491  27.984  24.379  1.00  0.00     0.009 A 
ATOM     69  C   UNL A   1      48.792  26.991  25.602  1.00  0.00     0.001 A 
ATOM     70  C   UNL A   1      47.549  27.514  23.599  1.00  0.00     0.001 A 
ATOM     71  C   UNL A   1      48.703  27.028  24.211  1.00  0.00     0.000 A 
ENDBRANCH  52  66
BRANCH  53  72
ATOM     72  C   UNL A   1      38.737  30.826  31.397  1.00  0.00    -0.014 A 
ATOM     73  C   UNL A   1      38.736  30.653  32.789  1.00  0.00     0.009 A 
ATOM     74  C   UNL A   1      37.620  31.418  30.786  1.00  0.00     0.009 A 
ATOM     75  C   UNL A   1      37.628  31.040  33.548  1.00  0.00     0.001 A 
ATOM     76  C   UNL A   1      36.528  31.832  31.551  1.00  0.00     0.001 A 
ATOM     77  C   UNL A   1      36.528  31.632  32.930  1.00  0.00     0.000 A 
ENDBRANCH  53  72
BRANCH  65  78
ATOM     78  C   UNL A   1      44.479  34.024  29.084  1.00  0.00    -0.014 A 
ATOM     79  C   UNL A   1      43.980  35.064  28.285  1.00  0.00     0.009 A 
ATOM     80  C   UNL A   1      45.436  34.318  30.068  1.00  0.00     0.009 A 
ATOM     81  C   UNL A   1      44.466  36.364  28.439  1.00  0.00     0.001 A 
ATOM     82  C   UNL A   1      45.893  35.623  30.243  1.00  0.00     0.001 A 
ATOM     83  C   UNL A   1      45.418  36.643  29.421  1.00  0.00     0.000 A 
ENDBRANCH  65  78
ENDBRANCH  39  40
ENDBRANCH  32  34
ENDBRANCH  31  32
ENDBRANCH  30  31
ENDBRANCH  29  30
ENDBRANCH  28  29
ENDBRANCH  27  28
ENDBRANCH   1  27
TORSDOF 20
ENDMDL
