MODEL 1
REMARK VINA RESULT:     -11.2      0.000      0.000
REMARK SMILES O=C(Nc1cccc(C(=O)OCCOCCOC(=O)c2ccc(-c3c4nc(c(-c5ccccc5)c5ccc([nH]5)c(-c5ccccc5)c5nc(c(-c6ccccc6)c6ccc3[nH]6)C=C5)C=C4)cc2)c1)Nc1cc(Cl)c(Cl)cc1Cl
REMARK SMILES IDX 14 1 13 2 12 3 11 4 9 5 10 6 8 7 4 8 5 9 68 10 6 11 7 12
REMARK SMILES IDX 3 13 1 14 2 15 69 16 70 19 71 20 77 21 72 22 76 23 78 24
REMARK SMILES IDX 73 25 74 26 75 27 15 28 16 29 17 30 18 31 19 32 20 33 21 34
REMARK SMILES IDX 67 35 22 36 66 37 23 38 24 39 25 40 60 41 26 42 65 43 59 44
REMARK SMILES IDX 61 45 27 46 64 47 58 48 57 49 28 51 50 52 35 53 49 54 36 55
REMARK SMILES IDX 39 56 48 57 62 58 37 59 38 60 47 62 63 63 40 64 29 65 30 66
REMARK SMILES IDX 34 67 31 68 33 69 32 70 51 71 52 72 56 73 53 74 55 75 54 76
REMARK SMILES IDX 41 77 42 78 46 79 43 80 45 81 44 82
REMARK H PARENT 3 17 69 18 61 50 39 61
REMARK Flexibility Score: inf
ROOT
ATOM      1  O   UNL A   1      32.697  34.939  31.825  1.00  0.00    -0.374 OA
ENDROOT
BRANCH   1   2
ATOM      2  C   UNL A   1      33.091  35.485  30.568  1.00  0.00     0.202 C 
BRANCH   2   3
ATOM      3  C   UNL A   1      34.324  34.876  29.891  1.00  0.00     0.261 C 
BRANCH   3   4
ATOM      4  O   UNL A   1      34.048  33.565  29.375  1.00  0.00    -0.460 OA
BRANCH   4   5
ATOM      5  C   UNL A   1      34.465  33.347  28.103  1.00  0.00     0.338 C 
ATOM      6  O   UNL A   1      34.720  34.191  27.259  1.00  0.00    -0.246 OA
BRANCH   5   7
ATOM      7  C   UNL A   1      34.730  31.904  27.904  1.00  0.00     0.062 A 
ATOM      8  C   UNL A   1      34.003  29.597  27.766  1.00  0.00     0.043 A 
ATOM      9  C   UNL A   1      35.327  29.208  27.536  1.00  0.00     0.026 A 
ATOM     10  C   UNL A   1      33.721  30.944  28.019  1.00  0.00     0.041 A 
ATOM     11  C   UNL A   1      36.343  30.162  27.458  1.00  0.00     0.003 A 
ATOM     12  C   UNL A   1      36.041  31.512  27.616  1.00  0.00     0.016 A 
BRANCH   8  13
ATOM     13  N   UNL A   1      33.015  28.597  27.718  1.00  0.00    -0.308 N 
ATOM     14  O   UNL A   1      31.185  27.496  27.043  1.00  0.00    -0.248 OA
ATOM     15  C   UNL A   1      32.009  28.375  26.810  1.00  0.00     0.323 C 
ATOM     16  N   UNL A   1      32.114  29.062  25.631  1.00  0.00    -0.306 N 
ATOM     17  H   UNL A   1      33.051  27.948  28.458  1.00  0.00     0.171 HD
ATOM     18  H   UNL A   1      32.966  29.533  25.483  1.00  0.00     0.171 HD
BRANCH  16  19
ATOM     19  C   UNL A   1      31.157  29.179  24.605  1.00  0.00     0.063 A 
ATOM     20  C   UNL A   1      30.462  30.400  24.583  1.00  0.00     0.049 A 
ATOM     21  C   UNL A   1      30.833  28.200  23.650  1.00  0.00     0.066 A 
ATOM     22  C   UNL A   1      29.547  30.688  23.568  1.00  0.00     0.061 A 
ATOM     23  C   UNL A   1      29.929  28.499  22.623  1.00  0.00     0.044 A 
ATOM     24  Cl  UNL A   1      31.337  26.550  23.758  1.00  0.00    -0.082 Cl
ATOM     25  Cl  UNL A   1      28.756  32.223  23.613  1.00  0.00    -0.083 Cl
ATOM     26  C   UNL A   1      29.307  29.748  22.566  1.00  0.00     0.061 A 
ATOM     27  Cl  UNL A   1      28.248  30.067  21.245  1.00  0.00    -0.083 Cl
ENDBRANCH  16  19
ENDBRANCH   8  13
ENDBRANCH   5   7
ENDBRANCH   4   5
ENDBRANCH   3   4
ENDBRANCH   2   3
ENDBRANCH   1   2
BRANCH   1  28
ATOM     28  C   UNL A   1      33.672  34.895  32.866  1.00  0.00     0.202 C 
BRANCH  28  29
ATOM     29  C   UNL A   1      34.117  33.517  33.373  1.00  0.00     0.261 C 
BRANCH  29  30
ATOM     30  O   UNL A   1      35.202  32.966  32.608  1.00  0.00    -0.460 OA
BRANCH  30  31
ATOM     31  C   UNL A   1      36.244  32.519  33.350  1.00  0.00     0.338 C 
ATOM     32  O   UNL A   1      36.359  32.547  34.563  1.00  0.00    -0.246 OA
BRANCH  31  33
ATOM     33  C   UNL A   1      37.194  31.798  32.483  1.00  0.00     0.060 A 
ATOM     34  C   UNL A   1      38.140  30.970  33.101  1.00  0.00     0.016 A 
ATOM     35  C   UNL A   1      37.201  31.980  31.101  1.00  0.00     0.016 A 
ATOM     36  C   UNL A   1      39.124  30.345  32.338  1.00  0.00     0.010 A 
ATOM     37  C   UNL A   1      38.195  31.359  30.337  1.00  0.00     0.010 A 
ATOM     38  C   UNL A   1      39.176  30.561  30.955  1.00  0.00    -0.014 A 
BRANCH  38  39
ATOM     39  C   UNL A   1      40.320  30.045  30.168  1.00  0.00     0.031 A 
ATOM     40  C   UNL A   1      41.517  30.928  29.942  1.00  0.00     0.074 A 
ATOM     41  C   UNL A   1      40.297  28.798  29.667  1.00  0.00     0.049 A 
ATOM     42  N   UNL A   1      42.594  30.698  29.234  1.00  0.00    -0.248 NA
ATOM     43  C   UNL A   1      41.495  32.244  30.599  1.00  0.00     0.031 C 
ATOM     44  C   UNL A   1      39.217  27.829  29.852  1.00  0.00     0.029 A 
ATOM     45  N   UNL A   1      41.214  28.137  28.889  1.00  0.00    -0.354 N 
ATOM     46  C   UNL A   1      43.371  31.843  29.349  1.00  0.00     0.074 A 
ATOM     47  C   UNL A   1      42.630  32.777  30.170  1.00  0.00     0.031 C 
ATOM     48  C   UNL A   1      39.531  26.697  29.197  1.00  0.00     0.029 A 
ATOM     49  C   UNL A   1      40.810  26.878  28.516  1.00  0.00     0.049 A 
ATOM     50  H   UNL A   1      42.078  28.527  28.624  1.00  0.00     0.167 HD
ATOM     51  C   UNL A   1      44.594  32.094  28.823  1.00  0.00     0.031 A 
ATOM     52  C   UNL A   1      41.395  25.986  27.695  1.00  0.00     0.031 A 
ATOM     53  C   UNL A   1      45.321  31.174  27.989  1.00  0.00     0.049 A 
ATOM     54  C   UNL A   1      42.707  26.327  27.043  1.00  0.00     0.074 A 
ATOM     55  C   UNL A   1      46.573  31.329  27.419  1.00  0.00     0.029 A 
ATOM     56  N   UNL A   1      44.856  29.927  27.597  1.00  0.00    -0.354 N 
ATOM     57  N   UNL A   1      43.444  27.404  27.176  1.00  0.00    -0.248 NA
ATOM     58  C   UNL A   1      43.269  25.324  26.127  1.00  0.00     0.031 C 
ATOM     59  C   UNL A   1      46.836  30.208  26.627  1.00  0.00     0.029 A 
ATOM     60  C   UNL A   1      45.781  29.319  26.764  1.00  0.00     0.049 A 
ATOM     61  H   UNL A   1      43.996  29.533  27.870  1.00  0.00     0.167 HD
ATOM     62  C   UNL A   1      44.566  27.195  26.384  1.00  0.00     0.074 A 
ATOM     63  C   UNL A   1      44.421  25.884  25.787  1.00  0.00     0.031 C 
ATOM     64  C   UNL A   1      45.623  28.016  26.171  1.00  0.00     0.031 A 
BRANCH  51  65
ATOM     65  C   UNL A   1      45.207  33.440  29.102  1.00  0.00    -0.014 A 
ATOM     66  C   UNL A   1      46.179  33.609  30.100  1.00  0.00     0.009 A 
ATOM     67  C   UNL A   1      44.830  34.549  28.327  1.00  0.00     0.009 A 
ATOM     68  C   UNL A   1      46.733  34.869  30.341  1.00  0.00     0.001 A 
ATOM     69  C   UNL A   1      45.410  35.800  28.549  1.00  0.00     0.001 A 
ATOM     70  C   UNL A   1      46.352  35.961  29.562  1.00  0.00     0.000 A 
ENDBRANCH  51  65
BRANCH  52  71
ATOM     71  C   UNL A   1      40.727  24.693  27.404  1.00  0.00    -0.014 A 
ATOM     72  C   UNL A   1      41.228  23.492  27.931  1.00  0.00     0.009 A 
ATOM     73  C   UNL A   1      39.608  24.649  26.560  1.00  0.00     0.009 A 
ATOM     74  C   UNL A   1      40.632  22.273  27.601  1.00  0.00     0.001 A 
ATOM     75  C   UNL A   1      39.006  23.430  26.247  1.00  0.00     0.001 A 
ATOM     76  C   UNL A   1      39.519  22.243  26.764  1.00  0.00     0.000 A 
ENDBRANCH  52  71
BRANCH  64  77
ATOM     77  C   UNL A   1      46.729  27.506  25.288  1.00  0.00    -0.014 A 
ATOM     78  C   UNL A   1      46.837  27.902  23.946  1.00  0.00     0.009 A 
ATOM     79  C   UNL A   1      47.703  26.647  25.823  1.00  0.00     0.009 A 
ATOM     80  C   UNL A   1      47.879  27.422  23.149  1.00  0.00     0.001 A 
ATOM     81  C   UNL A   1      48.763  26.196  25.033  1.00  0.00     0.001 A 
ATOM     82  C   UNL A   1      48.844  26.575  23.696  1.00  0.00     0.000 A 
ENDBRANCH  64  77
ENDBRANCH  38  39
ENDBRANCH  31  33
ENDBRANCH  30  31
ENDBRANCH  29  30
ENDBRANCH  28  29
ENDBRANCH   1  28
TORSDOF 16
ENDMDL
MODEL 2
REMARK VINA RESULT:     -10.8      4.386      7.157
REMARK SMILES O=C(Nc1cccc(C(=O)OCCOCCOC(=O)c2ccc(-c3c4nc(c(-c5ccccc5)c5ccc([nH]5)c(-c5ccccc5)c5nc(c(-c6ccccc6)c6ccc3[nH]6)C=C5)C=C4)cc2)c1)Nc1cc(Cl)c(Cl)cc1Cl
REMARK SMILES IDX 14 1 13 2 12 3 11 4 9 5 10 6 8 7 4 8 5 9 68 10 6 11 7 12
REMARK SMILES IDX 3 13 1 14 2 15 69 16 70 19 71 20 77 21 72 22 76 23 78 24
REMARK SMILES IDX 73 25 74 26 75 27 15 28 16 29 17 30 18 31 19 32 20 33 21 34
REMARK SMILES IDX 67 35 22 36 66 37 23 38 24 39 25 40 60 41 26 42 65 43 59 44
REMARK SMILES IDX 61 45 27 46 64 47 58 48 57 49 28 51 50 52 35 53 49 54 36 55
REMARK SMILES IDX 39 56 48 57 62 58 37 59 38 60 47 62 63 63 40 64 29 65 30 66
REMARK SMILES IDX 34 67 31 68 33 69 32 70 51 71 52 72 56 73 53 74 55 75 54 76
REMARK SMILES IDX 41 77 42 78 46 79 43 80 45 81 44 82
REMARK H PARENT 3 17 69 18 61 50 39 61
REMARK Flexibility Score: inf
ROOT
ATOM      1  O   UNL A   1      32.602  34.591  29.179  1.00  0.00    -0.374 OA
ENDROOT
BRANCH   1   2
ATOM      2  C   UNL A   1      33.218  35.653  29.905  1.00  0.00     0.202 C 
BRANCH   2   3
ATOM      3  C   UNL A   1      33.079  35.637  31.431  1.00  0.00     0.261 C 
BRANCH   3   4
ATOM      4  O   UNL A   1      34.298  35.227  32.068  1.00  0.00    -0.460 OA
BRANCH   4   5
ATOM      5  C   UNL A   1      34.241  34.032  32.705  1.00  0.00     0.338 C 
ATOM      6  O   UNL A   1      33.237  33.423  33.037  1.00  0.00    -0.246 OA
BRANCH   5   7
ATOM      7  C   UNL A   1      35.603  33.461  32.820  1.00  0.00     0.062 A 
ATOM      8  C   UNL A   1      37.314  32.244  34.028  1.00  0.00     0.043 A 
ATOM      9  C   UNL A   1      38.190  32.437  32.954  1.00  0.00     0.026 A 
ATOM     10  C   UNL A   1      36.040  32.820  33.982  1.00  0.00     0.041 A 
ATOM     11  C   UNL A   1      37.767  33.111  31.806  1.00  0.00     0.003 A 
ATOM     12  C   UNL A   1      36.466  33.599  31.728  1.00  0.00     0.016 A 
BRANCH   8  13
ATOM     13  N   UNL A   1      37.769  31.459  35.102  1.00  0.00    -0.308 N 
ATOM     14  O   UNL A   1      38.974  29.933  36.215  1.00  0.00    -0.248 OA
ATOM     15  C   UNL A   1      38.844  30.609  35.199  1.00  0.00     0.323 C 
ATOM     16  N   UNL A   1      39.773  30.716  34.200  1.00  0.00    -0.306 N 
ATOM     17  H   UNL A   1      37.228  31.531  35.922  1.00  0.00     0.171 HD
ATOM     18  H   UNL A   1      39.664  31.481  33.591  1.00  0.00     0.171 HD
BRANCH  16  19
ATOM     19  C   UNL A   1      40.864  29.866  33.933  1.00  0.00     0.063 A 
ATOM     20  C   UNL A   1      42.116  30.375  34.318  1.00  0.00     0.049 A 
ATOM     21  C   UNL A   1      40.809  28.606  33.313  1.00  0.00     0.066 A 
ATOM     22  C   UNL A   1      43.274  29.605  34.194  1.00  0.00     0.061 A 
ATOM     23  C   UNL A   1      41.969  27.828  33.208  1.00  0.00     0.044 A 
ATOM     24  Cl  UNL A   1      39.418  28.006  32.481  1.00  0.00    -0.082 Cl
ATOM     25  Cl  UNL A   1      44.764  30.308  34.713  1.00  0.00    -0.083 Cl
ATOM     26  C   UNL A   1      43.193  28.315  33.671  1.00  0.00     0.061 A 
ATOM     27  Cl  UNL A   1      44.570  27.284  33.560  1.00  0.00    -0.083 Cl
ENDBRANCH  16  19
ENDBRANCH   8  13
ENDBRANCH   5   7
ENDBRANCH   4   5
ENDBRANCH   3   4
ENDBRANCH   2   3
ENDBRANCH   1   2
BRANCH   1  28
ATOM     28  C   UNL A   1      33.330  34.015  28.096  1.00  0.00     0.202 C 
BRANCH  28  29
ATOM     29  C   UNL A   1      34.684  33.364  28.409  1.00  0.00     0.261 C 
BRANCH  29  30
ATOM     30  O   UNL A   1      34.555  32.120  29.116  1.00  0.00    -0.460 OA
BRANCH  30  31
ATOM     31  C   UNL A   1      34.591  31.018  28.328  1.00  0.00     0.338 C 
ATOM     32  O   UNL A   1      33.761  30.664  27.508  1.00  0.00    -0.246 OA
BRANCH  31  33
ATOM     33  C   UNL A   1      35.903  30.358  28.459  1.00  0.00     0.060 A 
ATOM     34  C   UNL A   1      36.269  29.886  29.726  1.00  0.00     0.016 A 
ATOM     35  C   UNL A   1      36.782  30.264  27.381  1.00  0.00     0.016 A 
ATOM     36  C   UNL A   1      37.538  29.346  29.928  1.00  0.00     0.010 A 
ATOM     37  C   UNL A   1      38.058  29.730  27.588  1.00  0.00     0.010 A 
ATOM     38  C   UNL A   1      38.451  29.294  28.867  1.00  0.00    -0.014 A 
BRANCH  38  39
ATOM     39  C   UNL A   1      39.854  28.887  29.117  1.00  0.00     0.031 A 
ATOM     40  C   UNL A   1      40.809  29.874  29.732  1.00  0.00     0.074 A 
ATOM     41  C   UNL A   1      40.270  27.647  28.808  1.00  0.00     0.049 A 
ATOM     42  N   UNL A   1      42.088  29.745  29.977  1.00  0.00    -0.248 NA
ATOM     43  C   UNL A   1      40.247  31.177  30.119  1.00  0.00     0.031 C 
ATOM     44  C   UNL A   1      39.433  26.586  28.248  1.00  0.00     0.029 A 
ATOM     45  N   UNL A   1      41.513  27.076  28.915  1.00  0.00    -0.354 N 
ATOM     46  C   UNL A   1      42.487  30.954  30.534  1.00  0.00     0.074 A 
ATOM     47  C   UNL A   1      41.322  31.811  30.564  1.00  0.00     0.031 C 
ATOM     48  C   UNL A   1      40.191  25.492  28.054  1.00  0.00     0.029 A 
ATOM     49  C   UNL A   1      41.569  25.791  28.436  1.00  0.00     0.049 A 
ATOM     50  H   UNL A   1      42.290  27.543  29.299  1.00  0.00     0.167 HD
ATOM     51  C   UNL A   1      43.712  31.316  30.985  1.00  0.00     0.031 A 
ATOM     52  C   UNL A   1      42.618  24.960  28.296  1.00  0.00     0.031 A 
ATOM     53  C   UNL A   1      44.876  30.470  30.935  1.00  0.00     0.049 A 
ATOM     54  C   UNL A   1      43.989  25.421  28.712  1.00  0.00     0.074 A 
ATOM     55  C   UNL A   1      46.158  30.740  31.379  1.00  0.00     0.029 A 
ATOM     56  N   UNL A   1      44.900  29.191  30.399  1.00  0.00    -0.354 N 
ATOM     57  N   UNL A   1      44.352  26.557  29.258  1.00  0.00    -0.248 NA
ATOM     58  C   UNL A   1      45.097  24.478  28.493  1.00  0.00     0.031 C 
ATOM     59  C   UNL A   1      46.974  29.652  31.050  1.00  0.00     0.029 A 
ATOM     60  C   UNL A   1      46.183  28.674  30.469  1.00  0.00     0.049 A 
ATOM     61  H   UNL A   1      44.120  28.720  30.024  1.00  0.00     0.167 HD
ATOM     62  C   UNL A   1      45.720  26.455  29.472  1.00  0.00     0.074 A 
ATOM     63  C   UNL A   1      46.121  25.141  29.013  1.00  0.00     0.031 C 
ATOM     64  C   UNL A   1      46.570  27.367  30.004  1.00  0.00     0.031 A 
BRANCH  51  65
ATOM     65  C   UNL A   1      43.866  32.707  31.535  1.00  0.00    -0.014 A 
ATOM     66  C   UNL A   1      43.676  32.981  32.899  1.00  0.00     0.009 A 
ATOM     67  C   UNL A   1      44.243  33.756  30.680  1.00  0.00     0.009 A 
ATOM     68  C   UNL A   1      43.823  34.281  33.387  1.00  0.00     0.001 A 
ATOM     69  C   UNL A   1      44.421  35.048  31.177  1.00  0.00     0.001 A 
ATOM     70  C   UNL A   1      44.201  35.312  32.527  1.00  0.00     0.000 A 
ENDBRANCH  51  65
BRANCH  52  71
ATOM     71  C   UNL A   1      42.430  23.616  27.695  1.00  0.00    -0.014 A 
ATOM     72  C   UNL A   1      42.655  23.404  26.326  1.00  0.00     0.009 A 
ATOM     73  C   UNL A   1      41.983  22.545  28.484  1.00  0.00     0.009 A 
ATOM     74  C   UNL A   1      42.415  22.152  25.756  1.00  0.00     0.001 A 
ATOM     75  C   UNL A   1      41.761  21.292  27.913  1.00  0.00     0.001 A 
ATOM     76  C   UNL A   1      41.974  21.096  26.550  1.00  0.00     0.000 A 
ENDBRANCH  52  71
BRANCH  64  77
ATOM     77  C   UNL A   1      48.011  26.963  30.157  1.00  0.00    -0.014 A 
ATOM     78  C   UNL A   1      48.442  26.176  31.237  1.00  0.00     0.009 A 
ATOM     79  C   UNL A   1      48.944  27.342  29.178  1.00  0.00     0.009 A 
ATOM     80  C   UNL A   1      49.784  25.806  31.350  1.00  0.00     0.001 A 
ATOM     81  C   UNL A   1      50.279  26.942  29.276  1.00  0.00     0.001 A 
ATOM     82  C   UNL A   1      50.699  26.184  30.367  1.00  0.00     0.000 A 
ENDBRANCH  64  77
ENDBRANCH  38  39
ENDBRANCH  31  33
ENDBRANCH  30  31
ENDBRANCH  29  30
ENDBRANCH  28  29
ENDBRANCH   1  28
TORSDOF 16
ENDMDL
MODEL 3
REMARK VINA RESULT:     -10.7      4.465      7.424
REMARK SMILES O=C(Nc1cccc(C(=O)OCCOCCOC(=O)c2ccc(-c3c4nc(c(-c5ccccc5)c5ccc([nH]5)c(-c5ccccc5)c5nc(c(-c6ccccc6)c6ccc3[nH]6)C=C5)C=C4)cc2)c1)Nc1cc(Cl)c(Cl)cc1Cl
REMARK SMILES IDX 14 1 13 2 12 3 11 4 9 5 10 6 8 7 4 8 5 9 68 10 6 11 7 12
REMARK SMILES IDX 3 13 1 14 2 15 69 16 70 19 71 20 77 21 72 22 76 23 78 24
REMARK SMILES IDX 73 25 74 26 75 27 15 28 16 29 17 30 18 31 19 32 20 33 21 34
REMARK SMILES IDX 67 35 22 36 66 37 23 38 24 39 25 40 60 41 26 42 65 43 59 44
REMARK SMILES IDX 61 45 27 46 64 47 58 48 57 49 28 51 50 52 35 53 49 54 36 55
REMARK SMILES IDX 39 56 48 57 62 58 37 59 38 60 47 62 63 63 40 64 29 65 30 66
REMARK SMILES IDX 34 67 31 68 33 69 32 70 51 71 52 72 56 73 53 74 55 75 54 76
REMARK SMILES IDX 41 77 42 78 46 79 43 80 45 81 44 82
REMARK H PARENT 3 17 69 18 61 50 39 61
REMARK Flexibility Score: inf
ROOT
ATOM      1  O   UNL A   1      33.551  33.755  28.356  1.00  0.00    -0.374 OA
ENDROOT
BRANCH   1   2
ATOM      2  C   UNL A   1      34.182  32.504  28.621  1.00  0.00     0.202 C 
BRANCH   2   3
ATOM      3  C   UNL A   1      34.215  31.476  27.485  1.00  0.00     0.261 C 
BRANCH   3   4
ATOM      4  O   UNL A   1      33.173  30.499  27.629  1.00  0.00    -0.460 OA
BRANCH   4   5
ATOM      5  C   UNL A   1      32.079  30.707  26.857  1.00  0.00     0.338 C 
ATOM      6  O   UNL A   1      31.542  31.775  26.615  1.00  0.00    -0.246 OA
BRANCH   5   7
ATOM      7  C   UNL A   1      31.688  29.442  26.192  1.00  0.00     0.062 A 
ATOM      8  C   UNL A   1      31.308  27.049  26.207  1.00  0.00     0.043 A 
ATOM      9  C   UNL A   1      30.959  27.110  24.854  1.00  0.00     0.026 A 
ATOM     10  C   UNL A   1      31.740  28.212  26.854  1.00  0.00     0.041 A 
ATOM     11  C   UNL A   1      30.943  28.333  24.180  1.00  0.00     0.003 A 
ATOM     12  C   UNL A   1      31.282  29.502  24.855  1.00  0.00     0.016 A 
BRANCH   8  13
ATOM     13  N   UNL A   1      31.192  25.805  26.851  1.00  0.00    -0.308 N 
ATOM     14  O   UNL A   1      31.570  23.645  27.313  1.00  0.00    -0.248 OA
ATOM     15  C   UNL A   1      31.938  24.658  26.726  1.00  0.00     0.323 C 
ATOM     16  N   UNL A   1      33.133  24.799  26.074  1.00  0.00    -0.306 N 
ATOM     17  H   UNL A   1      30.452  25.745  27.499  1.00  0.00     0.171 HD
ATOM     18  H   UNL A   1      33.414  25.723  25.886  1.00  0.00     0.171 HD
BRANCH  16  19
ATOM     19  C   UNL A   1      34.010  23.787  25.639  1.00  0.00     0.063 A 
ATOM     20  C   UNL A   1      35.364  24.012  25.935  1.00  0.00     0.049 A 
ATOM     21  C   UNL A   1      33.657  22.624  24.934  1.00  0.00     0.066 A 
ATOM     22  C   UNL A   1      36.334  23.051  25.640  1.00  0.00     0.061 A 
ATOM     23  C   UNL A   1      34.628  21.653  24.657  1.00  0.00     0.044 A 
ATOM     24  Cl  UNL A   1      32.111  22.377  24.200  1.00  0.00    -0.082 Cl
ATOM     25  Cl  UNL A   1      37.971  23.409  26.061  1.00  0.00    -0.083 Cl
ATOM     26  C   UNL A   1      35.958  21.854  25.032  1.00  0.00     0.061 A 
ATOM     27  Cl  UNL A   1      37.091  20.596  24.709  1.00  0.00    -0.083 Cl
ENDBRANCH  16  19
ENDBRANCH   8  13
ENDBRANCH   5   7
ENDBRANCH   4   5
ENDBRANCH   3   4
ENDBRANCH   2   3
ENDBRANCH   1   2
BRANCH   1  28
ATOM     28  C   UNL A   1      33.992  34.893  29.095  1.00  0.00     0.202 C 
BRANCH  28  29
ATOM     29  C   UNL A   1      32.924  35.798  29.722  1.00  0.00     0.261 C 
BRANCH  29  30
ATOM     30  O   UNL A   1      33.324  36.335  30.994  1.00  0.00    -0.460 OA
BRANCH  30  31
ATOM     31  C   UNL A   1      32.950  35.590  32.063  1.00  0.00     0.338 C 
ATOM     32  O   UNL A   1      31.820  35.404  32.479  1.00  0.00    -0.246 OA
BRANCH  31  33
ATOM     33  C   UNL A   1      34.115  34.852  32.583  1.00  0.00     0.060 A 
ATOM     34  C   UNL A   1      35.370  35.466  32.488  1.00  0.00     0.016 A 
ATOM     35  C   UNL A   1      33.991  33.560  33.092  1.00  0.00     0.016 A 
ATOM     36  C   UNL A   1      36.517  34.773  32.871  1.00  0.00     0.010 A 
ATOM     37  C   UNL A   1      35.144  32.862  33.468  1.00  0.00     0.010 A 
ATOM     38  C   UNL A   1      36.413  33.456  33.333  1.00  0.00    -0.014 A 
BRANCH  38  39
ATOM     39  C   UNL A   1      37.637  32.656  33.573  1.00  0.00     0.031 A 
ATOM     40  C   UNL A   1      38.426  32.877  34.835  1.00  0.00     0.074 A 
ATOM     41  C   UNL A   1      38.036  31.734  32.681  1.00  0.00     0.049 A 
ATOM     42  N   UNL A   1      39.555  32.333  35.212  1.00  0.00    -0.248 NA
ATOM     43  C   UNL A   1      37.870  33.842  35.796  1.00  0.00     0.031 C 
ATOM     44  C   UNL A   1      37.337  31.393  31.442  1.00  0.00     0.029 A 
ATOM     45  N   UNL A   1      39.140  30.919  32.680  1.00  0.00    -0.354 N 
ATOM     46  C   UNL A   1      39.851  32.897  36.446  1.00  0.00     0.074 A 
ATOM     47  C   UNL A   1      38.799  33.847  36.740  1.00  0.00     0.031 C 
ATOM     48  C   UNL A   1      38.035  30.443  30.796  1.00  0.00     0.029 A 
ATOM     49  C   UNL A   1      39.246  30.141  31.554  1.00  0.00     0.049 A 
ATOM     50  H   UNL A   1      39.794  30.896  33.416  1.00  0.00     0.167 HD
ATOM     51  C   UNL A   1      40.901  32.645  37.264  1.00  0.00     0.031 A 
ATOM     52  C   UNL A   1      40.225  29.302  31.166  1.00  0.00     0.031 A 
ATOM     53  C   UNL A   1      41.958  31.716  36.961  1.00  0.00     0.049 A 
ATOM     54  C   UNL A   1      41.431  29.112  32.046  1.00  0.00     0.074 A 
ATOM     55  C   UNL A   1      43.058  31.380  37.730  1.00  0.00     0.029 A 
ATOM     56  N   UNL A   1      42.052  30.982  35.788  1.00  0.00    -0.354 N 
ATOM     57  N   UNL A   1      41.690  29.633  33.221  1.00  0.00    -0.248 NA
ATOM     58  C   UNL A   1      42.479  28.212  31.543  1.00  0.00     0.031 C 
ATOM     59  C   UNL A   1      43.853  30.495  36.995  1.00  0.00     0.029 A 
ATOM     60  C   UNL A   1      43.210  30.221  35.799  1.00  0.00     0.049 A 
ATOM     61  H   UNL A   1      41.394  30.999  35.056  1.00  0.00     0.167 HD
ATOM     62  C   UNL A   1      42.915  29.105  33.608  1.00  0.00     0.074 A 
ATOM     63  C   UNL A   1      43.339  28.210  32.551  1.00  0.00     0.031 C 
ATOM     64  C   UNL A   1      43.625  29.338  34.739  1.00  0.00     0.031 A 
BRANCH  51  65
ATOM     65  C   UNL A   1      40.980  33.419  38.552  1.00  0.00    -0.014 A 
ATOM     66  C   UNL A   1      40.323  32.979  39.711  1.00  0.00     0.009 A 
ATOM     67  C   UNL A   1      41.755  34.589  38.614  1.00  0.00     0.009 A 
ATOM     68  C   UNL A   1      40.410  33.715  40.896  1.00  0.00     0.001 A 
ATOM     69  C   UNL A   1      41.866  35.304  39.808  1.00  0.00     0.001 A 
ATOM     70  C   UNL A   1      41.185  34.873  40.944  1.00  0.00     0.000 A 
ENDBRANCH  51  65
BRANCH  52  71
ATOM     71  C   UNL A   1      40.132  28.601  29.861  1.00  0.00    -0.014 A 
ATOM     72  C   UNL A   1      39.544  27.330  29.769  1.00  0.00     0.009 A 
ATOM     73  C   UNL A   1      40.672  29.185  28.705  1.00  0.00     0.009 A 
ATOM     74  C   UNL A   1      39.518  26.651  28.549  1.00  0.00     0.001 A 
ATOM     75  C   UNL A   1      40.628  28.510  27.486  1.00  0.00     0.001 A 
ATOM     76  C   UNL A   1      40.055  27.242  27.408  1.00  0.00     0.000 A 
ENDBRANCH  52  71
BRANCH  64  77
ATOM     77  C   UNL A   1      44.915  28.585  34.914  1.00  0.00    -0.014 A 
ATOM     78  C   UNL A   1      46.145  29.139  34.528  1.00  0.00     0.009 A 
ATOM     79  C   UNL A   1      44.900  27.318  35.517  1.00  0.00     0.009 A 
ATOM     80  C   UNL A   1      47.331  28.423  34.711  1.00  0.00     0.001 A 
ATOM     81  C   UNL A   1      46.091  26.618  35.731  1.00  0.00     0.001 A 
ATOM     82  C   UNL A   1      47.302  27.167  35.318  1.00  0.00     0.000 A 
ENDBRANCH  64  77
ENDBRANCH  38  39
ENDBRANCH  31  33
ENDBRANCH  30  31
ENDBRANCH  29  30
ENDBRANCH  28  29
ENDBRANCH   1  28
TORSDOF 16
ENDMDL
