MODEL 1
REMARK VINA RESULT:     -10.4      0.000      0.000
REMARK SMILES Cn1cc(S(=O)(=O)NC[C@H]2CC[C@@H](C(=O)OCCOCCOC(=O)c3ccc(-c4c5nc(c(-c6ccccc6)c6ccc([nH]6)c(-c6ccccc6)c6nc(c(-c7ccccc7)c7ccc4[nH]7)C=C6)C=C5)cc3)CC2)cn1
REMARK SMILES IDX 18 1 17 2 16 3 14 4 15 5 13 6 10 7 11 8 74 9 12 10 73 11
REMARK SMILES IDX 9 12 8 13 5 15 6 16 7 17 4 18 1 19 2 20 3 21 76 22 75 23
REMARK SMILES IDX 19 24 20 25 21 26 22 27 23 28 24 29 25 30 26 31 72 32 27 33
REMARK SMILES IDX 71 34 28 35 29 36 30 37 65 38 31 39 70 40 64 41 66 42 32 43
REMARK SMILES IDX 69 44 63 45 62 46 33 48 55 49 40 50 54 51 41 52 44 53 53 54
REMARK SMILES IDX 67 55 42 56 43 57 52 59 68 60 45 61 34 62 35 63 39 64 36 65
REMARK SMILES IDX 38 66 37 67 56 68 57 69 61 70 58 71 60 72 59 73 46 74 47 75
REMARK SMILES IDX 51 76 48 77 50 78 49 79
REMARK H PARENT 8 14 66 47 44 58
REMARK Flexibility Score: inf
ROOT
ATOM      1  C   UNL A   1      40.152  21.279  26.616  1.00  0.00     0.202 C 
ENDROOT
BRANCH   1   2
ATOM      2  C   UNL A   1      38.912  21.519  25.750  1.00  0.00     0.261 C 
BRANCH   2   3
ATOM      3  O   UNL A   1      38.217  22.725  26.111  1.00  0.00    -0.463 OA
BRANCH   3   4
ATOM      4  C   UNL A   1      36.893  22.771  25.809  1.00  0.00     0.309 C 
ATOM      5  O   UNL A   1      36.058  23.437  26.409  1.00  0.00    -0.252 OA
BRANCH   4   6
ATOM      6  C   UNL A   1      36.515  21.887  24.618  1.00  0.00     0.099 C 
ATOM      7  C   UNL A   1      33.926  22.917  23.570  1.00  0.00     0.004 C 
ATOM      8  C   UNL A   1      35.257  23.638  23.314  1.00  0.00     0.006 C 
ATOM      9  C   UNL A   1      33.953  21.874  24.695  1.00  0.00     0.006 C 
ATOM     10  C   UNL A   1      36.471  22.719  23.339  1.00  0.00     0.015 C 
ATOM     11  C   UNL A   1      35.236  21.051  24.732  1.00  0.00     0.015 C 
BRANCH   7  12
ATOM     12  C   UNL A   1      32.749  23.894  23.713  1.00  0.00     0.102 C 
BRANCH  12  13
ATOM     13  N   UNL A   1      32.171  24.417  22.464  1.00  0.00    -0.211 NA
ATOM     14  H   UNL A   1      32.536  23.821  21.722  1.00  0.00     0.141 HD
BRANCH  13  15
ATOM     15  S   UNL A   1      32.369  25.993  21.919  1.00  0.00     0.243 S 
ATOM     16  O   UNL A   1      31.166  26.377  21.222  1.00  0.00    -0.207 OA
ATOM     17  O   UNL A   1      33.650  26.051  21.252  1.00  0.00    -0.207 OA
BRANCH  15  18
ATOM     18  C   UNL A   1      32.510  27.104  23.201  1.00  0.00     0.120 A 
ATOM     19  C   UNL A   1      31.620  29.715  25.493  1.00  0.00     0.173 C 
ATOM     20  N   UNL A   1      32.181  28.650  24.698  1.00  0.00    -0.274 N 
ATOM     21  C   UNL A   1      31.544  27.928  23.732  1.00  0.00     0.130 A 
ATOM     22  N   UNL A   1      33.475  28.314  24.859  1.00  0.00    -0.180 NA
ATOM     23  C   UNL A   1      33.669  27.355  23.947  1.00  0.00     0.156 A 
ENDBRANCH  15  18
ENDBRANCH  13  15
ENDBRANCH  12  13
ENDBRANCH   7  12
ENDBRANCH   4   6
ENDBRANCH   3   4
ENDBRANCH   2   3
ENDBRANCH   1   2
BRANCH   1  24
ATOM     24  O   UNL A   1      41.261  20.618  26.013  1.00  0.00    -0.374 OA
BRANCH  24  25
ATOM     25  C   UNL A   1      42.570  20.986  26.436  1.00  0.00     0.202 C 
BRANCH  25  26
ATOM     26  C   UNL A   1      43.436  21.792  25.455  1.00  0.00     0.261 C 
BRANCH  26  27
ATOM     27  O   UNL A   1      42.786  22.959  24.916  1.00  0.00    -0.460 OA
BRANCH  27  28
ATOM     28  C   UNL A   1      43.487  24.109  25.076  1.00  0.00     0.338 C 
ATOM     29  O   UNL A   1      44.560  24.397  24.570  1.00  0.00    -0.246 OA
BRANCH  28  30
ATOM     30  C   UNL A   1      42.729  25.091  25.870  1.00  0.00     0.060 A 
ATOM     31  C   UNL A   1      43.316  26.346  26.077  1.00  0.00     0.016 A 
ATOM     32  C   UNL A   1      41.564  24.733  26.551  1.00  0.00     0.016 A 
ATOM     33  C   UNL A   1      42.778  27.221  27.017  1.00  0.00     0.010 A 
ATOM     34  C   UNL A   1      41.025  25.617  27.496  1.00  0.00     0.010 A 
ATOM     35  C   UNL A   1      41.658  26.844  27.770  1.00  0.00    -0.014 A 
BRANCH  35  36
ATOM     36  C   UNL A   1      41.252  27.672  28.935  1.00  0.00     0.031 A 
ATOM     37  C   UNL A   1      42.029  27.580  30.221  1.00  0.00     0.074 A 
ATOM     38  C   UNL A   1      40.234  28.546  28.838  1.00  0.00     0.049 A 
ATOM     39  N   UNL A   1      41.845  28.219  31.350  1.00  0.00    -0.248 NA
ATOM     40  C   UNL A   1      43.164  26.643  30.239  1.00  0.00     0.031 C 
ATOM     41  C   UNL A   1      39.436  28.773  27.638  1.00  0.00     0.029 A 
ATOM     42  N   UNL A   1      39.701  29.409  29.764  1.00  0.00    -0.354 N 
ATOM     43  C   UNL A   1      42.833  27.758  32.211  1.00  0.00     0.074 A 
ATOM     44  C   UNL A   1      43.593  26.761  31.488  1.00  0.00     0.031 C 
ATOM     45  C   UNL A   1      38.510  29.710  27.897  1.00  0.00     0.029 A 
ATOM     46  C   UNL A   1      38.633  30.131  29.289  1.00  0.00     0.049 A 
ATOM     47  H   UNL A   1      40.051  29.501  30.680  1.00  0.00     0.167 HD
ATOM     48  C   UNL A   1      43.091  28.136  33.486  1.00  0.00     0.031 A 
ATOM     49  C   UNL A   1      37.836  31.022  29.909  1.00  0.00     0.031 A 
ATOM     50  C   UNL A   1      42.336  29.125  34.211  1.00  0.00     0.049 A 
ATOM     51  C   UNL A   1      38.100  31.372  31.349  1.00  0.00     0.074 A 
ATOM     52  C   UNL A   1      42.535  29.586  35.501  1.00  0.00     0.029 A 
ATOM     53  N   UNL A   1      41.235  29.802  33.710  1.00  0.00    -0.354 N 
ATOM     54  N   UNL A   1      39.049  30.943  32.144  1.00  0.00    -0.248 NA
ATOM     55  C   UNL A   1      37.187  32.343  31.970  1.00  0.00     0.031 C 
ATOM     56  C   UNL A   1      41.518  30.497  35.802  1.00  0.00     0.029 A 
ATOM     57  C   UNL A   1      40.726  30.655  34.676  1.00  0.00     0.049 A 
ATOM     58  H   UNL A   1      40.870  29.692  32.803  1.00  0.00     0.167 HD
ATOM     59  C   UNL A   1      38.868  31.614  33.348  1.00  0.00     0.074 A 
ATOM     60  C   UNL A   1      37.728  32.489  33.172  1.00  0.00     0.031 C 
ATOM     61  C   UNL A   1      39.586  31.517  34.494  1.00  0.00     0.031 A 
BRANCH  48  62
ATOM     62  C   UNL A   1      44.224  27.447  34.197  1.00  0.00    -0.014 A 
ATOM     63  C   UNL A   1      44.066  26.176  34.771  1.00  0.00     0.009 A 
ATOM     64  C   UNL A   1      45.483  28.068  34.261  1.00  0.00     0.009 A 
ATOM     65  C   UNL A   1      45.136  25.556  35.423  1.00  0.00     0.001 A 
ATOM     66  C   UNL A   1      46.556  27.434  34.887  1.00  0.00     0.001 A 
ATOM     67  C   UNL A   1      46.379  26.183  35.476  1.00  0.00     0.000 A 
ENDBRANCH  48  62
BRANCH  49  68
ATOM     68  C   UNL A   1      36.698  31.637  29.178  1.00  0.00    -0.014 A 
ATOM     69  C   UNL A   1      36.799  32.933  28.648  1.00  0.00     0.009 A 
ATOM     70  C   UNL A   1      35.492  30.935  29.023  1.00  0.00     0.009 A 
ATOM     71  C   UNL A   1      35.708  33.522  28.004  1.00  0.00     0.001 A 
ATOM     72  C   UNL A   1      34.413  31.514  28.352  1.00  0.00     0.001 A 
ATOM     73  C   UNL A   1      34.518  32.810  27.852  1.00  0.00     0.000 A 
ENDBRANCH  49  68
BRANCH  61  74
ATOM     74  C   UNL A   1      39.183  32.408  35.636  1.00  0.00    -0.014 A 
ATOM     75  C   UNL A   1      38.270  31.982  36.612  1.00  0.00     0.009 A 
ATOM     76  C   UNL A   1      39.752  33.687  35.751  1.00  0.00     0.009 A 
ATOM     77  C   UNL A   1      37.902  32.834  37.657  1.00  0.00     0.001 A 
ATOM     78  C   UNL A   1      39.408  34.524  36.814  1.00  0.00     0.001 A 
ATOM     79  C   UNL A   1      38.475  34.102  37.759  1.00  0.00     0.000 A 
ENDBRANCH  61  74
ENDBRANCH  35  36
ENDBRANCH  28  30
ENDBRANCH  27  28
ENDBRANCH  26  27
ENDBRANCH  25  26
ENDBRANCH  24  25
ENDBRANCH   1  24
TORSDOF 18
ENDMDL
MODEL 2
REMARK VINA RESULT:     -10.1      4.274      9.604
REMARK SMILES Cn1cc(S(=O)(=O)NC[C@H]2CC[C@@H](C(=O)OCCOCCOC(=O)c3ccc(-c4c5nc(c(-c6ccccc6)c6ccc([nH]6)c(-c6ccccc6)c6nc(c(-c7ccccc7)c7ccc4[nH]7)C=C6)C=C5)cc3)CC2)cn1
REMARK SMILES IDX 18 1 17 2 16 3 14 4 15 5 13 6 10 7 11 8 74 9 12 10 73 11
REMARK SMILES IDX 9 12 8 13 5 15 6 16 7 17 4 18 1 19 2 20 3 21 76 22 75 23
REMARK SMILES IDX 19 24 20 25 21 26 22 27 23 28 24 29 25 30 26 31 72 32 27 33
REMARK SMILES IDX 71 34 28 35 29 36 30 37 65 38 31 39 70 40 64 41 66 42 32 43
REMARK SMILES IDX 69 44 63 45 62 46 33 48 55 49 40 50 54 51 41 52 44 53 53 54
REMARK SMILES IDX 67 55 42 56 43 57 52 59 68 60 45 61 34 62 35 63 39 64 36 65
REMARK SMILES IDX 38 66 37 67 56 68 57 69 61 70 58 71 60 72 59 73 46 74 47 75
REMARK SMILES IDX 51 76 48 77 50 78 49 79
REMARK H PARENT 8 14 66 47 44 58
REMARK Flexibility Score: inf
ROOT
ATOM      1  C   UNL A   1      34.908  33.706  28.145  1.00  0.00     0.202 C 
ENDROOT
BRANCH   1   2
ATOM      2  C   UNL A   1      34.997  32.234  27.735  1.00  0.00     0.261 C 
BRANCH   2   3
ATOM      3  O   UNL A   1      33.765  31.527  27.960  1.00  0.00    -0.463 OA
BRANCH   3   4
ATOM      4  C   UNL A   1      33.727  30.234  27.544  1.00  0.00     0.309 C 
ATOM      5  O   UNL A   1      34.694  29.482  27.500  1.00  0.00    -0.252 OA
BRANCH   4   6
ATOM      6  C   UNL A   1      32.331  29.777  27.117  1.00  0.00     0.099 C 
ATOM      7  C   UNL A   1      32.706  27.791  24.931  1.00  0.00     0.004 C 
ATOM      8  C   UNL A   1      32.967  27.446  26.403  1.00  0.00     0.006 C 
ATOM      9  C   UNL A   1      32.619  29.291  24.616  1.00  0.00     0.006 C 
ATOM     10  C   UNL A   1      32.160  28.285  27.386  1.00  0.00     0.015 C 
ATOM     11  C   UNL A   1      31.887  30.096  25.685  1.00  0.00     0.015 C 
BRANCH   7  12
ATOM     12  C   UNL A   1      33.660  27.054  23.978  1.00  0.00     0.102 C 
BRANCH  12  13
ATOM     13  N   UNL A   1      33.044  26.118  23.024  1.00  0.00    -0.211 NA
ATOM     14  H   UNL A   1      32.050  26.344  23.020  1.00  0.00     0.141 HD
BRANCH  13  15
ATOM     15  S   UNL A   1      33.130  24.447  23.149  1.00  0.00     0.243 S 
ATOM     16  O   UNL A   1      34.453  24.036  22.750  1.00  0.00    -0.207 OA
ATOM     17  O   UNL A   1      31.965  23.913  22.479  1.00  0.00    -0.207 OA
BRANCH  15  18
ATOM     18  C   UNL A   1      32.969  23.914  24.758  1.00  0.00     0.120 A 
ATOM     19  C   UNL A   1      33.784  22.300  27.856  1.00  0.00     0.173 C 
ATOM     20  N   UNL A   1      33.260  23.025  26.724  1.00  0.00    -0.274 N 
ATOM     21  C   UNL A   1      33.902  23.281  25.549  1.00  0.00     0.130 A 
ATOM     22  N   UNL A   1      31.998  23.492  26.763  1.00  0.00    -0.180 NA
ATOM     23  C   UNL A   1      31.828  24.048  25.559  1.00  0.00     0.156 A 
ENDBRANCH  15  18
ENDBRANCH  13  15
ENDBRANCH  12  13
ENDBRANCH   7  12
ENDBRANCH   4   6
ENDBRANCH   3   4
ENDBRANCH   2   3
ENDBRANCH   1   2
BRANCH   1  24
ATOM     24  O   UNL A   1      35.247  34.038  29.489  1.00  0.00    -0.374 OA
BRANCH  24  25
ATOM     25  C   UNL A   1      34.184  34.251  30.413  1.00  0.00     0.202 C 
BRANCH  25  26
ATOM     26  C   UNL A   1      34.477  34.017  31.903  1.00  0.00     0.261 C 
BRANCH  26  27
ATOM     27  O   UNL A   1      34.578  32.628  32.273  1.00  0.00    -0.460 OA
BRANCH  27  28
ATOM     28  C   UNL A   1      35.681  32.327  33.004  1.00  0.00     0.338 C 
ATOM     29  O   UNL A   1      35.904  32.628  34.165  1.00  0.00    -0.246 OA
BRANCH  28  30
ATOM     30  C   UNL A   1      36.590  31.440  32.257  1.00  0.00     0.060 A 
ATOM     31  C   UNL A   1      37.764  31.029  32.901  1.00  0.00     0.016 A 
ATOM     32  C   UNL A   1      36.393  31.170  30.902  1.00  0.00     0.016 A 
ATOM     33  C   UNL A   1      38.776  30.406  32.175  1.00  0.00     0.010 A 
ATOM     34  C   UNL A   1      37.414  30.543  30.174  1.00  0.00     0.010 A 
ATOM     35  C   UNL A   1      38.631  30.204  30.796  1.00  0.00    -0.014 A 
BRANCH  35  36
ATOM     36  C   UNL A   1      39.808  29.776  29.995  1.00  0.00     0.031 A 
ATOM     37  C   UNL A   1      40.952  30.731  29.785  1.00  0.00     0.074 A 
ATOM     38  C   UNL A   1      39.889  28.527  29.503  1.00  0.00     0.049 A 
ATOM     39  N   UNL A   1      42.071  30.553  29.127  1.00  0.00    -0.248 NA
ATOM     40  C   UNL A   1      40.820  32.063  30.397  1.00  0.00     0.031 C 
ATOM     41  C   UNL A   1      38.878  27.490  29.679  1.00  0.00     0.029 A 
ATOM     42  N   UNL A   1      40.869  27.918  28.759  1.00  0.00    -0.354 N 
ATOM     43  C   UNL A   1      42.770  31.749  29.240  1.00  0.00     0.074 A 
ATOM     44  C   UNL A   1      41.936  32.656  30.000  1.00  0.00     0.031 C 
ATOM     45  C   UNL A   1      39.284  26.370  29.059  1.00  0.00     0.029 A 
ATOM     46  C   UNL A   1      40.572  26.620  28.419  1.00  0.00     0.049 A 
ATOM     47  H   UNL A   1      41.704  28.368  28.495  1.00  0.00     0.167 HD
ATOM     48  C   UNL A   1      43.998  32.062  28.763  1.00  0.00     0.031 A 
ATOM     49  C   UNL A   1      41.255  25.736  27.666  1.00  0.00     0.031 A 
ATOM     50  C   UNL A   1      44.830  31.164  28.004  1.00  0.00     0.049 A 
ATOM     51  C   UNL A   1      42.586  26.133  27.087  1.00  0.00     0.074 A 
ATOM     52  C   UNL A   1      46.097  31.388  27.493  1.00  0.00     0.029 A 
ATOM     53  N   UNL A   1      44.476  29.874  27.642  1.00  0.00    -0.354 N 
ATOM     54  N   UNL A   1      43.244  27.260  27.219  1.00  0.00    -0.248 NA
ATOM     55  C   UNL A   1      43.276  25.127  26.266  1.00  0.00     0.031 C 
ATOM     56  C   UNL A   1      46.484  30.254  26.771  1.00  0.00     0.029 A 
ATOM     57  C   UNL A   1      45.487  29.300  26.890  1.00  0.00     0.049 A 
ATOM     58  H   UNL A   1      43.630  29.432  27.885  1.00  0.00     0.167 HD
ATOM     59  C   UNL A   1      44.435  27.087  26.525  1.00  0.00     0.074 A 
ATOM     60  C   UNL A   1      44.417  25.742  25.988  1.00  0.00     0.031 C 
ATOM     61  C   UNL A   1      45.456  27.962  26.354  1.00  0.00     0.031 A 
BRANCH  48  62
ATOM     62  C   UNL A   1      44.507  33.455  29.019  1.00  0.00    -0.014 A 
ATOM     63  C   UNL A   1      45.288  33.756  30.145  1.00  0.00     0.009 A 
ATOM     64  C   UNL A   1      44.227  34.476  28.094  1.00  0.00     0.009 A 
ATOM     65  C   UNL A   1      45.750  35.058  30.358  1.00  0.00     0.001 A 
ATOM     66  C   UNL A   1      44.716  35.767  28.295  1.00  0.00     0.001 A 
ATOM     67  C   UNL A   1      45.468  36.059  29.431  1.00  0.00     0.000 A 
ENDBRANCH  48  62
BRANCH  49  68
ATOM     68  C   UNL A   1      40.686  24.389  27.400  1.00  0.00    -0.014 A 
ATOM     69  C   UNL A   1      41.232  23.245  28.003  1.00  0.00     0.009 A 
ATOM     70  C   UNL A   1      39.601  24.239  26.522  1.00  0.00     0.009 A 
ATOM     71  C   UNL A   1      40.722  21.978  27.710  1.00  0.00     0.001 A 
ATOM     72  C   UNL A   1      39.072  22.974  26.255  1.00  0.00     0.001 A 
ATOM     73  C   UNL A   1      39.640  21.845  26.840  1.00  0.00     0.000 A 
ENDBRANCH  49  68
BRANCH  61  74
ATOM     74  C   UNL A   1      46.656  27.481  25.585  1.00  0.00    -0.014 A 
ATOM     75  C   UNL A   1      47.624  26.655  26.176  1.00  0.00     0.009 A 
ATOM     76  C   UNL A   1      46.801  27.839  24.235  1.00  0.00     0.009 A 
ATOM     77  C   UNL A   1      48.735  26.232  25.442  1.00  0.00     0.001 A 
ATOM     78  C   UNL A   1      47.896  27.388  23.495  1.00  0.00     0.001 A 
ATOM     79  C   UNL A   1      48.867  26.595  24.102  1.00  0.00     0.000 A 
ENDBRANCH  61  74
ENDBRANCH  35  36
ENDBRANCH  28  30
ENDBRANCH  27  28
ENDBRANCH  26  27
ENDBRANCH  25  26
ENDBRANCH  24  25
ENDBRANCH   1  24
TORSDOF 18
ENDMDL
MODEL 3
REMARK VINA RESULT:      -9.9      3.843      5.903
REMARK SMILES Cn1cc(S(=O)(=O)NC[C@H]2CC[C@@H](C(=O)OCCOCCOC(=O)c3ccc(-c4c5nc(c(-c6ccccc6)c6ccc([nH]6)c(-c6ccccc6)c6nc(c(-c7ccccc7)c7ccc4[nH]7)C=C6)C=C5)cc3)CC2)cn1
REMARK SMILES IDX 18 1 17 2 16 3 14 4 15 5 13 6 10 7 11 8 74 9 12 10 73 11
REMARK SMILES IDX 9 12 8 13 5 15 6 16 7 17 4 18 1 19 2 20 3 21 76 22 75 23
REMARK SMILES IDX 19 24 20 25 21 26 22 27 23 28 24 29 25 30 26 31 72 32 27 33
REMARK SMILES IDX 71 34 28 35 29 36 30 37 65 38 31 39 70 40 64 41 66 42 32 43
REMARK SMILES IDX 69 44 63 45 62 46 33 48 55 49 40 50 54 51 41 52 44 53 53 54
REMARK SMILES IDX 67 55 42 56 43 57 52 59 68 60 45 61 34 62 35 63 39 64 36 65
REMARK SMILES IDX 38 66 37 67 56 68 57 69 61 70 58 71 60 72 59 73 46 74 47 75
REMARK SMILES IDX 51 76 48 77 50 78 49 79
REMARK H PARENT 8 14 66 47 44 58
REMARK Flexibility Score: inf
ROOT
ATOM      1  C   UNL A   1      36.705  23.600  25.426  1.00  0.00     0.202 C 
ENDROOT
BRANCH   1   2
ATOM      2  C   UNL A   1      35.186  23.793  25.403  1.00  0.00     0.261 C 
BRANCH   2   3
ATOM      3  O   UNL A   1      34.806  25.090  24.912  1.00  0.00    -0.463 OA
BRANCH   3   4
ATOM      4  C   UNL A   1      33.531  25.483  25.173  1.00  0.00     0.309 C 
ATOM      5  O   UNL A   1      33.043  25.583  26.292  1.00  0.00    -0.252 OA
BRANCH   4   6
ATOM      6  C   UNL A   1      32.726  25.797  23.911  1.00  0.00     0.099 C 
ATOM      7  C   UNL A   1      32.013  23.185  22.673  1.00  0.00     0.004 C 
ATOM      8  C   UNL A   1      31.300  23.719  23.922  1.00  0.00     0.006 C 
ATOM      9  C   UNL A   1      33.343  23.872  22.334  1.00  0.00     0.006 C 
ATOM     10  C   UNL A   1      31.311  25.238  24.037  1.00  0.00     0.015 C 
ATOM     11  C   UNL A   1      33.325  25.379  22.564  1.00  0.00     0.015 C 
BRANCH   7  12
ATOM     12  C   UNL A   1      32.137  21.654  22.679  1.00  0.00     0.102 C 
BRANCH  12  13
ATOM     13  N   UNL A   1      33.210  21.083  23.509  1.00  0.00    -0.211 NA
ATOM     14  H   UNL A   1      33.727  20.453  22.895  1.00  0.00     0.141 HD
BRANCH  13  15
ATOM     15  S   UNL A   1      32.952  20.223  24.927  1.00  0.00     0.243 S 
ATOM     16  O   UNL A   1      31.623  20.527  25.398  1.00  0.00    -0.207 OA
ATOM     17  O   UNL A   1      34.099  20.457  25.776  1.00  0.00    -0.207 OA
BRANCH  15  18
ATOM     18  C   UNL A   1      32.956  18.540  24.669  1.00  0.00     0.120 A 
ATOM     19  C   UNL A   1      32.787  15.033  25.398  1.00  0.00     0.173 C 
ATOM     20  N   UNL A   1      32.871  16.375  24.876  1.00  0.00    -0.274 N 
ATOM     21  C   UNL A   1      32.677  17.535  25.566  1.00  0.00     0.130 A 
ATOM     22  N   UNL A   1      33.206  16.564  23.585  1.00  0.00    -0.180 NA
ATOM     23  C   UNL A   1      33.244  17.895  23.459  1.00  0.00     0.156 A 
ENDBRANCH  15  18
ENDBRANCH  13  15
ENDBRANCH  12  13
ENDBRANCH   7  12
ENDBRANCH   4   6
ENDBRANCH   3   4
ENDBRANCH   2   3
ENDBRANCH   1   2
BRANCH   1  24
ATOM     24  O   UNL A   1      37.208  22.286  25.202  1.00  0.00    -0.374 OA
BRANCH  24  25
ATOM     25  C   UNL A   1      38.431  21.922  25.832  1.00  0.00     0.202 C 
BRANCH  25  26
ATOM     26  C   UNL A   1      39.119  20.630  25.363  1.00  0.00     0.261 C 
BRANCH  26  27
ATOM     27  O   UNL A   1      39.933  19.997  26.370  1.00  0.00    -0.460 OA
BRANCH  27  28
ATOM     28  C   UNL A   1      41.255  19.958  26.069  1.00  0.00     0.338 C 
ATOM     29  O   UNL A   1      41.830  19.143  25.367  1.00  0.00    -0.246 OA
BRANCH  28  30
ATOM     30  C   UNL A   1      41.959  21.136  26.604  1.00  0.00     0.060 A 
ATOM     31  C   UNL A   1      41.881  21.365  27.983  1.00  0.00     0.016 A 
ATOM     32  C   UNL A   1      42.521  22.093  25.757  1.00  0.00     0.016 A 
ATOM     33  C   UNL A   1      42.303  22.582  28.513  1.00  0.00     0.010 A 
ATOM     34  C   UNL A   1      42.945  23.317  26.294  1.00  0.00     0.010 A 
ATOM     35  C   UNL A   1      42.791  23.587  27.667  1.00  0.00    -0.014 A 
BRANCH  35  36
ATOM     36  C   UNL A   1      42.996  24.957  28.207  1.00  0.00     0.031 A 
ATOM     37  C   UNL A   1      44.381  25.407  28.588  1.00  0.00     0.074 A 
ATOM     38  C   UNL A   1      41.969  25.819  28.306  1.00  0.00     0.049 A 
ATOM     39  N   UNL A   1      44.776  26.559  29.070  1.00  0.00    -0.248 NA
ATOM     40  C   UNL A   1      45.466  24.430  28.403  1.00  0.00     0.031 C 
ATOM     41  C   UNL A   1      40.592  25.529  27.922  1.00  0.00     0.029 A 
ATOM     42  N   UNL A   1      41.926  27.116  28.756  1.00  0.00    -0.354 N 
ATOM     43  C   UNL A   1      46.149  26.444  29.250  1.00  0.00     0.074 A 
ATOM     44  C   UNL A   1      46.515  25.099  28.860  1.00  0.00     0.031 C 
ATOM     45  C   UNL A   1      39.834  26.613  28.154  1.00  0.00     0.029 A 
ATOM     46  C   UNL A   1      40.667  27.664  28.728  1.00  0.00     0.049 A 
ATOM     47  H   UNL A   1      42.723  27.605  29.068  1.00  0.00     0.167 HD
ATOM     48  C   UNL A   1      47.028  27.374  29.693  1.00  0.00     0.031 A 
ATOM     49  C   UNL A   1      40.232  28.874  29.132  1.00  0.00     0.031 A 
ATOM     50  C   UNL A   1      46.668  28.712  30.086  1.00  0.00     0.049 A 
ATOM     51  C   UNL A   1      41.219  29.865  29.687  1.00  0.00     0.074 A 
ATOM     52  C   UNL A   1      47.493  29.731  30.531  1.00  0.00     0.029 A 
ATOM     53  N   UNL A   1      45.377  29.216  30.086  1.00  0.00    -0.354 N 
ATOM     54  N   UNL A   1      42.516  29.749  29.833  1.00  0.00    -0.248 NA
ATOM     55  C   UNL A   1      40.678  31.163  30.119  1.00  0.00     0.031 C 
ATOM     56  C   UNL A   1      46.694  30.831  30.857  1.00  0.00     0.029 A 
ATOM     57  C   UNL A   1      45.378  30.520  30.551  1.00  0.00     0.049 A 
ATOM     58  H   UNL A   1      44.577  28.719  29.797  1.00  0.00     0.167 HD
ATOM     59  C   UNL A   1      42.951  30.966  30.344  1.00  0.00     0.074 A 
ATOM     60  C   UNL A   1      41.781  31.811  30.467  1.00  0.00     0.031 C 
ATOM     61  C   UNL A   1      44.208  31.351  30.675  1.00  0.00     0.031 A 
BRANCH  48  62
ATOM     62  C   UNL A   1      48.471  26.963  29.812  1.00  0.00    -0.014 A 
ATOM     63  C   UNL A   1      48.968  26.356  30.975  1.00  0.00     0.009 A 
ATOM     64  C   UNL A   1      49.338  27.156  28.723  1.00  0.00     0.009 A 
ATOM     65  C   UNL A   1      50.312  25.982  31.058  1.00  0.00     0.001 A 
ATOM     66  C   UNL A   1      50.672  26.754  28.798  1.00  0.00     0.001 A 
ATOM     67  C   UNL A   1      51.160  26.176  29.969  1.00  0.00     0.000 A 
ENDBRANCH  48  62
BRANCH  49  68
ATOM     68  C   UNL A   1      38.788  29.213  29.041  1.00  0.00    -0.014 A 
ATOM     69  C   UNL A   1      38.243  29.730  27.856  1.00  0.00     0.009 A 
ATOM     70  C   UNL A   1      37.948  29.039  30.153  1.00  0.00     0.009 A 
ATOM     71  C   UNL A   1      36.895  30.091  27.795  1.00  0.00     0.001 A 
ATOM     72  C   UNL A   1      36.594  29.372  30.080  1.00  0.00     0.001 A 
ATOM     73  C   UNL A   1      36.071  29.907  28.906  1.00  0.00     0.000 A 
ENDBRANCH  49  68
BRANCH  61  74
ATOM     74  C   UNL A   1      44.390  32.760  31.168  1.00  0.00    -0.014 A 
ATOM     75  C   UNL A   1      44.342  33.072  32.535  1.00  0.00     0.009 A 
ATOM     76  C   UNL A   1      44.642  33.789  30.245  1.00  0.00     0.009 A 
ATOM     77  C   UNL A   1      44.501  34.392  32.965  1.00  0.00     0.001 A 
ATOM     78  C   UNL A   1      44.833  35.101  30.681  1.00  0.00     0.001 A 
ATOM     79  C   UNL A   1      44.751  35.404  32.038  1.00  0.00     0.000 A 
ENDBRANCH  61  74
ENDBRANCH  35  36
ENDBRANCH  28  30
ENDBRANCH  27  28
ENDBRANCH  26  27
ENDBRANCH  25  26
ENDBRANCH  24  25
ENDBRANCH   1  24
TORSDOF 18
ENDMDL
