MODEL 1
REMARK VINA RESULT:     -10.0      0.000      0.000
REMARK SMILES O=C(OCCOCCOC(=O)[C@@H]1C[C@@H](O)CN1C(=O)c1ccccc1)c1ccc(-c2c3nc(c(-c4ccccc4)c4ccc([nH]4)c(-c4ccccc4)c4nc(c(-c5ccccc5)c5ccc2[nH]5)C=C4)C=C3)cc1
REMARK SMILES IDX 6 1 5 2 4 3 3 4 2 5 1 6 26 7 27 8 73 9 28 10 72 11 29 12
REMARK SMILES IDX 30 13 31 14 66 15 32 16 71 17 65 18 67 19 33 20 70 21 64 22
REMARK SMILES IDX 63 23 34 25 56 26 41 27 55 28 42 29 45 30 54 31 68 32 43 33
REMARK SMILES IDX 44 34 53 36 69 37 46 38 35 39 36 40 40 41 37 42 39 43 38 44
REMARK SMILES IDX 57 45 58 46 62 47 59 48 61 49 60 50 47 51 48 52 52 53 49 54
REMARK SMILES IDX 51 55 50 56 7 57 8 58 9 59 10 60 11 61 12 62 13 63 17 64
REMARK SMILES IDX 14 65 16 66 18 67 19 68 20 69 21 70 25 71 22 72 24 73 23 74
REMARK SMILES IDX 15 75
REMARK H PARENT 67 24 45 35 15 76
REMARK Flexibility Score: inf
ROOT
ATOM      1  O   UNL A   1      38.489  21.824  25.653  1.00  0.00    -0.374 OA
ENDROOT
BRANCH   1   2
ATOM      2  C   UNL A   1      38.247  20.531  25.089  1.00  0.00     0.202 C 
BRANCH   2   3
ATOM      3  C   UNL A   1      38.980  19.328  25.728  1.00  0.00     0.261 C 
BRANCH   3   4
ATOM      4  O   UNL A   1      40.379  19.249  25.389  1.00  0.00    -0.460 OA
BRANCH   4   5
ATOM      5  C   UNL A   1      41.446  19.653  26.122  1.00  0.00     0.338 C 
ATOM      6  O   UNL A   1      42.311  18.830  26.424  1.00  0.00    -0.246 OA
BRANCH   5   7
ATOM      7  C   UNL A   1      41.633  21.063  26.576  1.00  0.00     0.060 A 
ATOM      8  C   UNL A   1      41.992  22.106  25.731  1.00  0.00     0.016 A 
ATOM      9  C   UNL A   1      41.394  21.371  27.925  1.00  0.00     0.016 A 
ATOM     10  C   UNL A   1      42.231  23.377  26.194  1.00  0.00     0.010 A 
ATOM     11  C   UNL A   1      41.579  22.676  28.404  1.00  0.00     0.010 A 
ATOM     12  C   UNL A   1      42.037  23.670  27.534  1.00  0.00    -0.014 A 
BRANCH  12  13
ATOM     13  C   UNL A   1      42.514  24.996  27.946  1.00  0.00     0.031 A 
ATOM     14  C   UNL A   1      41.483  26.038  28.254  1.00  0.00     0.074 A 
ATOM     15  C   UNL A   1      43.798  25.126  28.328  1.00  0.00     0.049 A 
ATOM     16  N   UNL A   1      41.644  27.232  28.754  1.00  0.00    -0.248 NA
ATOM     17  C   UNL A   1      40.078  25.672  27.998  1.00  0.00     0.031 C 
ATOM     18  C   UNL A   1      44.811  24.065  28.247  1.00  0.00     0.029 A 
ATOM     19  N   UNL A   1      44.444  26.156  28.951  1.00  0.00    -0.354 N 
ATOM     20  C   UNL A   1      40.368  27.775  28.826  1.00  0.00     0.074 A 
ATOM     21  C   UNL A   1      39.441  26.779  28.343  1.00  0.00     0.031 C 
ATOM     22  C   UNL A   1      45.926  24.477  28.868  1.00  0.00     0.029 A 
ATOM     23  C   UNL A   1      45.735  25.853  29.312  1.00  0.00     0.049 A 
ATOM     24  H   UNL A   1      44.026  27.030  29.125  1.00  0.00     0.167 HD
ATOM     25  C   UNL A   1      40.016  29.011  29.243  1.00  0.00     0.031 A 
ATOM     26  C   UNL A   1      46.659  26.618  29.918  1.00  0.00     0.031 A 
ATOM     27  C   UNL A   1      40.965  29.975  29.718  1.00  0.00     0.049 A 
ATOM     28  C   UNL A   1      46.265  28.022  30.277  1.00  0.00     0.074 A 
ATOM     29  C   UNL A   1      40.768  31.299  30.056  1.00  0.00     0.029 A 
ATOM     30  N   UNL A   1      42.310  29.696  29.933  1.00  0.00    -0.354 N 
ATOM     31  N   UNL A   1      45.081  28.588  30.210  1.00  0.00    -0.248 NA
ATOM     32  C   UNL A   1      47.332  28.903  30.763  1.00  0.00     0.031 C 
ATOM     33  C   UNL A   1      42.005  31.833  30.439  1.00  0.00     0.029 A 
ATOM     34  C   UNL A   1      42.960  30.827  30.386  1.00  0.00     0.049 A 
ATOM     35  H   UNL A   1      42.735  28.821  29.783  1.00  0.00     0.167 HD
ATOM     36  C   UNL A   1      45.259  29.891  30.644  1.00  0.00     0.074 A 
ATOM     37  C   UNL A   1      46.660  30.021  31.002  1.00  0.00     0.031 C 
ATOM     38  C   UNL A   1      44.357  30.901  30.728  1.00  0.00     0.031 A 
BRANCH  25  39
ATOM     39  C   UNL A   1      38.574  29.391  29.071  1.00  0.00    -0.014 A 
ATOM     40  C   UNL A   1      37.656  29.325  30.131  1.00  0.00     0.009 A 
ATOM     41  C   UNL A   1      38.117  29.755  27.795  1.00  0.00     0.009 A 
ATOM     42  C   UNL A   1      36.300  29.579  29.904  1.00  0.00     0.001 A 
ATOM     43  C   UNL A   1      36.766  30.029  27.576  1.00  0.00     0.001 A 
ATOM     44  C   UNL A   1      35.857  29.929  28.628  1.00  0.00     0.000 A 
ENDBRANCH  25  39
BRANCH  26  45
ATOM     45  C   UNL A   1      48.037  26.106  30.146  1.00  0.00    -0.014 A 
ATOM     46  C   UNL A   1      48.975  26.051  29.105  1.00  0.00     0.009 A 
ATOM     47  C   UNL A   1      48.422  25.657  31.421  1.00  0.00     0.009 A 
ATOM     48  C   UNL A   1      50.260  25.546  29.334  1.00  0.00     0.001 A 
ATOM     49  C   UNL A   1      49.713  25.182  31.656  1.00  0.00     0.001 A 
ATOM     50  C   UNL A   1      50.630  25.119  30.609  1.00  0.00     0.000 A 
ENDBRANCH  26  45
BRANCH  38  51
ATOM     51  C   UNL A   1      44.868  32.209  31.247  1.00  0.00    -0.014 A 
ATOM     52  C   UNL A   1      44.861  32.493  32.620  1.00  0.00     0.009 A 
ATOM     53  C   UNL A   1      45.394  33.150  30.350  1.00  0.00     0.009 A 
ATOM     54  C   UNL A   1      45.346  33.714  33.084  1.00  0.00     0.001 A 
ATOM     55  C   UNL A   1      45.900  34.360  30.820  1.00  0.00     0.001 A 
ATOM     56  C   UNL A   1      45.868  34.645  32.184  1.00  0.00     0.000 A 
ENDBRANCH  38  51
ENDBRANCH  12  13
ENDBRANCH   5   7
ENDBRANCH   4   5
ENDBRANCH   3   4
ENDBRANCH   2   3
ENDBRANCH   1   2
BRANCH   1  57
ATOM     57  C   UNL A   1      37.530  22.837  25.334  1.00  0.00     0.202 C 
BRANCH  57  58
ATOM     58  C   UNL A   1      36.108  22.288  25.357  1.00  0.00     0.261 C 
BRANCH  58  59
ATOM     59  O   UNL A   1      35.502  22.699  26.592  1.00  0.00    -0.462 OA
BRANCH  59  60
ATOM     60  C   UNL A   1      34.253  22.213  26.813  1.00  0.00     0.329 C 
ATOM     61  O   UNL A   1      33.968  21.348  27.634  1.00  0.00    -0.250 OA
BRANCH  60  62
ATOM     62  C   UNL A   1      33.208  22.883  25.914  1.00  0.00     0.198 C 
ATOM     63  C   UNL A   1      32.299  23.740  26.801  1.00  0.00     0.071 C 
ATOM     64  N   UNL A   1      32.289  21.995  25.169  1.00  0.00    -0.322 N 
ATOM     65  C   UNL A   1      30.927  23.580  26.164  1.00  0.00     0.136 C 
ATOM     66  C   UNL A   1      30.935  22.126  25.685  1.00  0.00     0.152 C 
BRANCH  64  67
ATOM     67  C   UNL A   1      32.653  21.416  23.970  1.00  0.00     0.254 C 
ATOM     68  O   UNL A   1      32.796  22.047  22.929  1.00  0.00    -0.269 OA
BRANCH  67  69
ATOM     69  C   UNL A   1      32.859  19.966  23.867  1.00  0.00     0.040 A 
ATOM     70  C   UNL A   1      33.863  19.368  24.637  1.00  0.00     0.014 A 
ATOM     71  C   UNL A   1      32.228  19.257  22.842  1.00  0.00     0.014 A 
ATOM     72  C   UNL A   1      34.207  18.036  24.401  1.00  0.00     0.001 A 
ATOM     73  C   UNL A   1      32.573  17.926  22.615  1.00  0.00     0.001 A 
ATOM     74  C   UNL A   1      33.561  17.317  23.393  1.00  0.00     0.000 A 
ENDBRANCH  67  69
ENDBRANCH  64  67
BRANCH  65  75
ATOM     75  O   UNL A   1      30.818  24.471  25.050  1.00  0.00    -0.391 OA
ATOM     76  H   UNL A   1      31.086  24.011  24.240  1.00  0.00     0.211 HD
ENDBRANCH  65  75
ENDBRANCH  60  62
ENDBRANCH  59  60
ENDBRANCH  58  59
ENDBRANCH  57  58
ENDBRANCH   1  57
TORSDOF 17
ENDMDL
MODEL 2
REMARK VINA RESULT:     -10.0      1.484      6.777
REMARK SMILES O=C(OCCOCCOC(=O)[C@@H]1C[C@@H](O)CN1C(=O)c1ccccc1)c1ccc(-c2c3nc(c(-c4ccccc4)c4ccc([nH]4)c(-c4ccccc4)c4nc(c(-c5ccccc5)c5ccc2[nH]5)C=C4)C=C3)cc1
REMARK SMILES IDX 6 1 5 2 4 3 3 4 2 5 1 6 26 7 27 8 73 9 28 10 72 11 29 12
REMARK SMILES IDX 30 13 31 14 66 15 32 16 71 17 65 18 67 19 33 20 70 21 64 22
REMARK SMILES IDX 63 23 34 25 56 26 41 27 55 28 42 29 45 30 54 31 68 32 43 33
REMARK SMILES IDX 44 34 53 36 69 37 46 38 35 39 36 40 40 41 37 42 39 43 38 44
REMARK SMILES IDX 57 45 58 46 62 47 59 48 61 49 60 50 47 51 48 52 52 53 49 54
REMARK SMILES IDX 51 55 50 56 7 57 8 58 9 59 10 60 11 61 12 62 13 63 17 64
REMARK SMILES IDX 14 65 16 66 18 67 19 68 20 69 21 70 25 71 22 72 24 73 23 74
REMARK SMILES IDX 15 75
REMARK H PARENT 67 24 45 35 15 76
REMARK Flexibility Score: inf
ROOT
ATOM      1  O   UNL A   1      36.984  21.448  25.679  1.00  0.00    -0.374 OA
ENDROOT
BRANCH   1   2
ATOM      2  C   UNL A   1      38.389  21.280  25.461  1.00  0.00     0.202 C 
BRANCH   2   3
ATOM      3  C   UNL A   1      38.902  19.843  25.206  1.00  0.00     0.261 C 
BRANCH   3   4
ATOM      4  O   UNL A   1      40.000  19.455  26.058  1.00  0.00    -0.460 OA
BRANCH   4   5
ATOM      5  C   UNL A   1      41.305  19.813  25.963  1.00  0.00     0.338 C 
ATOM      6  O   UNL A   1      42.085  19.076  25.361  1.00  0.00    -0.246 OA
BRANCH   5   7
ATOM      7  C   UNL A   1      41.845  21.075  26.549  1.00  0.00     0.060 A 
ATOM      8  C   UNL A   1      42.182  21.224  27.889  1.00  0.00     0.016 A 
ATOM      9  C   UNL A   1      42.068  22.170  25.697  1.00  0.00     0.016 A 
ATOM     10  C   UNL A   1      42.603  22.422  28.412  1.00  0.00     0.010 A 
ATOM     11  C   UNL A   1      42.551  23.385  26.204  1.00  0.00     0.010 A 
ATOM     12  C   UNL A   1      42.782  23.514  27.577  1.00  0.00    -0.014 A 
BRANCH  12  13
ATOM     13  C   UNL A   1      43.037  24.781  28.273  1.00  0.00     0.031 A 
ATOM     14  C   UNL A   1      44.461  25.224  28.405  1.00  0.00     0.074 A 
ATOM     15  C   UNL A   1      42.005  25.622  28.475  1.00  0.00     0.049 A 
ATOM     16  N   UNL A   1      44.934  26.352  28.858  1.00  0.00    -0.248 NA
ATOM     17  C   UNL A   1      45.491  24.283  27.927  1.00  0.00     0.031 C 
ATOM     18  C   UNL A   1      40.602  25.320  28.164  1.00  0.00     0.029 A 
ATOM     19  N   UNL A   1      41.983  26.926  28.884  1.00  0.00    -0.354 N 
ATOM     20  C   UNL A   1      46.314  26.237  28.765  1.00  0.00     0.074 A 
ATOM     21  C   UNL A   1      46.607  24.944  28.194  1.00  0.00     0.031 C 
ATOM     22  C   UNL A   1      39.869  26.433  28.324  1.00  0.00     0.029 A 
ATOM     23  C   UNL A   1      40.733  27.495  28.827  1.00  0.00     0.049 A 
ATOM     24  H   UNL A   1      42.783  27.409  29.190  1.00  0.00     0.167 HD
ATOM     25  C   UNL A   1      47.249  27.133  29.149  1.00  0.00     0.031 A 
ATOM     26  C   UNL A   1      40.339  28.735  29.164  1.00  0.00     0.031 A 
ATOM     27  C   UNL A   1      46.921  28.411  29.713  1.00  0.00     0.049 A 
ATOM     28  C   UNL A   1      41.388  29.675  29.683  1.00  0.00     0.074 A 
ATOM     29  C   UNL A   1      47.758  29.365  30.255  1.00  0.00     0.029 A 
ATOM     30  N   UNL A   1      45.627  28.912  29.791  1.00  0.00    -0.354 N 
ATOM     31  N   UNL A   1      42.691  29.511  29.731  1.00  0.00    -0.248 NA
ATOM     32  C   UNL A   1      40.918  30.956  30.222  1.00  0.00     0.031 C 
ATOM     33  C   UNL A   1      46.964  30.430  30.698  1.00  0.00     0.029 A 
ATOM     34  C   UNL A   1      45.639  30.158  30.386  1.00  0.00     0.049 A 
ATOM     35  H   UNL A   1      44.821  28.447  29.470  1.00  0.00     0.167 HD
ATOM     36  C   UNL A   1      43.197  30.665  30.306  1.00  0.00     0.074 A 
ATOM     37  C   UNL A   1      42.061  31.534  30.560  1.00  0.00     0.031 C 
ATOM     38  C   UNL A   1      44.480  30.981  30.615  1.00  0.00     0.031 A 
BRANCH  25  39
ATOM     39  C   UNL A   1      48.679  26.685  29.075  1.00  0.00    -0.014 A 
ATOM     40  C   UNL A   1      49.277  25.934  30.099  1.00  0.00     0.009 A 
ATOM     41  C   UNL A   1      49.461  27.091  27.982  1.00  0.00     0.009 A 
ATOM     42  C   UNL A   1      50.642  25.633  30.045  1.00  0.00     0.001 A 
ATOM     43  C   UNL A   1      50.818  26.770  27.920  1.00  0.00     0.001 A 
ATOM     44  C   UNL A   1      51.409  26.051  28.958  1.00  0.00     0.000 A 
ENDBRANCH  25  39
BRANCH  26  45
ATOM     45  C   UNL A   1      38.903  29.119  29.094  1.00  0.00    -0.014 A 
ATOM     46  C   UNL A   1      38.064  29.004  30.212  1.00  0.00     0.009 A 
ATOM     47  C   UNL A   1      38.359  29.602  27.892  1.00  0.00     0.009 A 
ATOM     48  C   UNL A   1      36.711  29.350  30.121  1.00  0.00     0.001 A 
ATOM     49  C   UNL A   1      37.017  29.976  27.811  1.00  0.00     0.001 A 
ATOM     50  C   UNL A   1      36.191  29.842  28.925  1.00  0.00     0.000 A 
ENDBRANCH  26  45
BRANCH  38  51
ATOM     51  C   UNL A   1      44.704  32.326  31.234  1.00  0.00    -0.014 A 
ATOM     52  C   UNL A   1      44.679  32.492  32.626  1.00  0.00     0.009 A 
ATOM     53  C   UNL A   1      44.977  33.428  30.412  1.00  0.00     0.009 A 
ATOM     54  C   UNL A   1      44.896  33.751  33.184  1.00  0.00     0.001 A 
ATOM     55  C   UNL A   1      45.217  34.680  30.974  1.00  0.00     0.001 A 
ATOM     56  C   UNL A   1      45.167  34.843  32.358  1.00  0.00     0.000 A 
ENDBRANCH  38  51
ENDBRANCH  12  13
ENDBRANCH   5   7
ENDBRANCH   4   5
ENDBRANCH   3   4
ENDBRANCH   2   3
ENDBRANCH   1   2
BRANCH   1  57
ATOM     57  C   UNL A   1      36.221  21.874  24.546  1.00  0.00     0.202 C 
BRANCH  57  58
ATOM     58  C   UNL A   1      34.723  21.775  24.811  1.00  0.00     0.261 C 
BRANCH  58  59
ATOM     59  O   UNL A   1      34.248  23.094  25.126  1.00  0.00    -0.462 OA
BRANCH  59  60
ATOM     60  C   UNL A   1      33.953  23.305  26.435  1.00  0.00     0.329 C 
ATOM     61  O   UNL A   1      34.728  23.129  27.369  1.00  0.00    -0.250 OA
BRANCH  60  62
ATOM     62  C   UNL A   1      32.518  23.808  26.628  1.00  0.00     0.198 C 
ATOM     63  C   UNL A   1      31.666  22.634  27.120  1.00  0.00     0.071 C 
ATOM     64  N   UNL A   1      31.814  24.316  25.429  1.00  0.00    -0.322 N 
ATOM     65  C   UNL A   1      30.327  22.854  26.432  1.00  0.00     0.136 C 
ATOM     66  C   UNL A   1      30.727  23.420  25.068  1.00  0.00     0.152 C 
BRANCH  64  67
ATOM     67  C   UNL A   1      31.990  25.608  24.978  1.00  0.00     0.254 C 
ATOM     68  O   UNL A   1      31.897  25.934  23.801  1.00  0.00    -0.269 OA
BRANCH  67  69
ATOM     69  C   UNL A   1      32.344  26.687  25.910  1.00  0.00     0.040 A 
ATOM     70  C   UNL A   1      31.329  27.308  26.645  1.00  0.00     0.014 A 
ATOM     71  C   UNL A   1      33.629  27.233  25.866  1.00  0.00     0.014 A 
ATOM     72  C   UNL A   1      31.617  28.462  27.374  1.00  0.00     0.001 A 
ATOM     73  C   UNL A   1      33.912  28.383  26.601  1.00  0.00     0.001 A 
ATOM     74  C   UNL A   1      32.907  28.996  27.353  1.00  0.00     0.000 A 
ENDBRANCH  67  69
ENDBRANCH  64  67
BRANCH  65  75
ATOM     75  O   UNL A   1      29.571  23.819  27.170  1.00  0.00    -0.391 OA
ATOM     76  H   UNL A   1      28.658  23.832  26.846  1.00  0.00     0.211 HD
ENDBRANCH  65  75
ENDBRANCH  60  62
ENDBRANCH  59  60
ENDBRANCH  58  59
ENDBRANCH  57  58
ENDBRANCH   1  57
TORSDOF 17
ENDMDL
MODEL 3
REMARK VINA RESULT:      -9.9      2.902      7.009
REMARK SMILES O=C(OCCOCCOC(=O)[C@@H]1C[C@@H](O)CN1C(=O)c1ccccc1)c1ccc(-c2c3nc(c(-c4ccccc4)c4ccc([nH]4)c(-c4ccccc4)c4nc(c(-c5ccccc5)c5ccc2[nH]5)C=C4)C=C3)cc1
REMARK SMILES IDX 6 1 5 2 4 3 3 4 2 5 1 6 26 7 27 8 73 9 28 10 72 11 29 12
REMARK SMILES IDX 30 13 31 14 66 15 32 16 71 17 65 18 67 19 33 20 70 21 64 22
REMARK SMILES IDX 63 23 34 25 56 26 41 27 55 28 42 29 45 30 54 31 68 32 43 33
REMARK SMILES IDX 44 34 53 36 69 37 46 38 35 39 36 40 40 41 37 42 39 43 38 44
REMARK SMILES IDX 57 45 58 46 62 47 59 48 61 49 60 50 47 51 48 52 52 53 49 54
REMARK SMILES IDX 51 55 50 56 7 57 8 58 9 59 10 60 11 61 12 62 13 63 17 64
REMARK SMILES IDX 14 65 16 66 18 67 19 68 20 69 21 70 25 71 22 72 24 73 23 74
REMARK SMILES IDX 15 75
REMARK H PARENT 67 24 45 35 15 76
REMARK Flexibility Score: inf
ROOT
ATOM      1  O   UNL A   1      36.212  23.700  24.381  1.00  0.00    -0.374 OA
ENDROOT
BRANCH   1   2
ATOM      2  C   UNL A   1      36.012  22.292  24.212  1.00  0.00     0.202 C 
BRANCH   2   3
ATOM      3  C   UNL A   1      37.248  21.375  24.372  1.00  0.00     0.261 C 
BRANCH   3   4
ATOM      4  O   UNL A   1      37.784  21.345  25.710  1.00  0.00    -0.460 OA
BRANCH   4   5
ATOM      5  C   UNL A   1      39.077  21.472  26.101  1.00  0.00     0.338 C 
ATOM      6  O   UNL A   1      39.856  20.540  25.903  1.00  0.00    -0.246 OA
BRANCH   5   7
ATOM      7  C   UNL A   1      39.610  22.703  26.755  1.00  0.00     0.060 A 
ATOM      8  C   UNL A   1      39.093  23.976  26.547  1.00  0.00     0.016 A 
ATOM      9  C   UNL A   1      40.670  22.573  27.668  1.00  0.00     0.016 A 
ATOM     10  C   UNL A   1      39.657  25.098  27.104  1.00  0.00     0.010 A 
ATOM     11  C   UNL A   1      41.221  23.703  28.290  1.00  0.00     0.010 A 
ATOM     12  C   UNL A   1      40.730  24.972  27.971  1.00  0.00    -0.014 A 
BRANCH  12  13
ATOM     13  C   UNL A   1      41.370  26.241  28.341  1.00  0.00     0.031 A 
ATOM     14  C   UNL A   1      42.630  26.616  27.623  1.00  0.00     0.074 A 
ATOM     15  C   UNL A   1      40.659  27.136  29.051  1.00  0.00     0.049 A 
ATOM     16  N   UNL A   1      43.308  27.729  27.677  1.00  0.00    -0.248 NA
ATOM     17  C   UNL A   1      43.181  25.615  26.691  1.00  0.00     0.031 C 
ATOM     18  C   UNL A   1      39.319  26.896  29.603  1.00  0.00     0.029 A 
ATOM     19  N   UNL A   1      40.908  28.448  29.340  1.00  0.00    -0.354 N 
ATOM     20  C   UNL A   1      44.388  27.543  26.825  1.00  0.00     0.074 A 
ATOM     21  C   UNL A   1      44.269  26.225  26.249  1.00  0.00     0.031 C 
ATOM     22  C   UNL A   1      38.837  28.047  30.097  1.00  0.00     0.029 A 
ATOM     23  C   UNL A   1      39.863  29.076  29.973  1.00  0.00     0.049 A 
ATOM     24  H   UNL A   1      41.754  28.898  29.117  1.00  0.00     0.167 HD
ATOM     25  C   UNL A   1      45.400  28.401  26.571  1.00  0.00     0.031 A 
ATOM     26  C   UNL A   1      39.765  30.342  30.416  1.00  0.00     0.031 A 
ATOM     27  C   UNL A   1      45.485  29.706  27.162  1.00  0.00     0.049 A 
ATOM     28  C   UNL A   1      40.949  31.241  30.207  1.00  0.00     0.074 A 
ATOM     29  C   UNL A   1      46.509  30.630  27.091  1.00  0.00     0.029 A 
ATOM     30  N   UNL A   1      44.479  30.272  27.935  1.00  0.00    -0.354 N 
ATOM     31  N   UNL A   1      42.044  31.014  29.517  1.00  0.00    -0.248 NA
ATOM     32  C   UNL A   1      40.903  32.554  30.857  1.00  0.00     0.031 C 
ATOM     33  C   UNL A   1      46.136  31.742  27.855  1.00  0.00     0.029 A 
ATOM     34  C   UNL A   1      44.861  31.529  28.359  1.00  0.00     0.049 A 
ATOM     35  H   UNL A   1      43.620  29.840  28.147  1.00  0.00     0.167 HD
ATOM     36  C   UNL A   1      42.819  32.154  29.651  1.00  0.00     0.074 A 
ATOM     37  C   UNL A   1      42.052  33.083  30.462  1.00  0.00     0.031 C 
ATOM     38  C   UNL A   1      44.059  32.412  29.165  1.00  0.00     0.031 A 
BRANCH  25  39
ATOM     39  C   UNL A   1      46.523  27.881  25.722  1.00  0.00    -0.014 A 
ATOM     40  C   UNL A   1      46.553  28.069  24.332  1.00  0.00     0.009 A 
ATOM     41  C   UNL A   1      47.537  27.123  26.330  1.00  0.00     0.009 A 
ATOM     42  C   UNL A   1      47.557  27.472  23.563  1.00  0.00     0.001 A 
ATOM     43  C   UNL A   1      48.550  26.548  25.562  1.00  0.00     0.001 A 
ATOM     44  C   UNL A   1      48.553  26.713  24.178  1.00  0.00     0.000 A 
ENDBRANCH  25  39
BRANCH  26  45
ATOM     45  C   UNL A   1      38.554  30.795  31.153  1.00  0.00    -0.014 A 
ATOM     46  C   UNL A   1      37.478  31.398  30.486  1.00  0.00     0.009 A 
ATOM     47  C   UNL A   1      38.472  30.628  32.546  1.00  0.00     0.009 A 
ATOM     48  C   UNL A   1      36.357  31.837  31.199  1.00  0.00     0.001 A 
ATOM     49  C   UNL A   1      37.340  31.038  33.252  1.00  0.00     0.001 A 
ATOM     50  C   UNL A   1      36.286  31.651  32.579  1.00  0.00     0.000 A 
ENDBRANCH  26  45
BRANCH  38  51
ATOM     51  C   UNL A   1      44.632  33.758  29.486  1.00  0.00    -0.014 A 
ATOM     52  C   UNL A   1      44.591  34.802  28.550  1.00  0.00     0.009 A 
ATOM     53  C   UNL A   1      45.185  33.990  30.754  1.00  0.00     0.009 A 
ATOM     54  C   UNL A   1      45.125  36.049  28.869  1.00  0.00     0.001 A 
ATOM     55  C   UNL A   1      45.696  35.245  31.077  1.00  0.00     0.001 A 
ATOM     56  C   UNL A   1      45.674  36.270  30.133  1.00  0.00     0.000 A 
ENDBRANCH  38  51
ENDBRANCH  12  13
ENDBRANCH   5   7
ENDBRANCH   4   5
ENDBRANCH   3   4
ENDBRANCH   2   3
ENDBRANCH   1   2
BRANCH   1  57
ATOM     57  C   UNL A   1      35.451  24.321  25.421  1.00  0.00     0.202 C 
BRANCH  57  58
ATOM     58  C   UNL A   1      34.197  23.518  25.752  1.00  0.00     0.261 C 
BRANCH  58  59
ATOM     59  O   UNL A   1      33.062  24.288  25.325  1.00  0.00    -0.462 OA
BRANCH  59  60
ATOM     60  C   UNL A   1      32.216  23.647  24.477  1.00  0.00     0.329 C 
ATOM     61  O   UNL A   1      31.809  22.499  24.622  1.00  0.00    -0.250 OA
BRANCH  60  62
ATOM     62  C   UNL A   1      31.803  24.533  23.297  1.00  0.00     0.198 C 
ATOM     63  C   UNL A   1      32.773  24.267  22.143  1.00  0.00     0.071 C 
ATOM     64  N   UNL A   1      31.848  25.998  23.505  1.00  0.00    -0.322 N 
ATOM     65  C   UNL A   1      32.946  25.636  21.500  1.00  0.00     0.136 C 
ATOM     66  C   UNL A   1      32.904  26.587  22.698  1.00  0.00     0.152 C 
BRANCH  64  67
ATOM     67  C   UNL A   1      30.810  26.676  24.114  1.00  0.00     0.254 C 
ATOM     68  O   UNL A   1      29.633  26.527  23.810  1.00  0.00    -0.269 OA
BRANCH  67  69
ATOM     69  C   UNL A   1      31.076  27.666  25.165  1.00  0.00     0.040 A 
ATOM     70  C   UNL A   1      31.271  29.003  24.803  1.00  0.00     0.014 A 
ATOM     71  C   UNL A   1      31.368  27.227  26.458  1.00  0.00     0.014 A 
ATOM     72  C   UNL A   1      31.725  29.914  25.758  1.00  0.00     0.001 A 
ATOM     73  C   UNL A   1      31.816  28.143  27.409  1.00  0.00     0.001 A 
ATOM     74  C   UNL A   1      31.994  29.483  27.059  1.00  0.00     0.000 A 
ENDBRANCH  67  69
ENDBRANCH  64  67
BRANCH  65  75
ATOM     75  O   UNL A   1      31.843  25.887  20.624  1.00  0.00    -0.391 OA
ATOM     76  H   UNL A   1      31.275  26.573  21.007  1.00  0.00     0.211 HD
ENDBRANCH  65  75
ENDBRANCH  60  62
ENDBRANCH  59  60
ENDBRANCH  58  59
ENDBRANCH  57  58
ENDBRANCH   1  57
TORSDOF 17
ENDMDL
