MODEL 1
REMARK VINA RESULT:     -11.8      0.000      0.000
REMARK SMILES O=C(OCCOCCOC(=O)c1nn(Cc2ccc(F)cc2)c2c1CN(C(=O)[C@H]1CC1(F)F)CC2)c1ccc(-c2c3nc(c(-c4ccccc4)c4ccc([nH]4)c(-c4ccccc4)c4nc(c(-c5ccccc5)c5ccc2[nH]5)C=C4)C=C3)cc1
REMARK SMILES IDX 6 1 5 2 4 3 3 4 2 5 1 6 36 7 37 8 83 9 38 10 82 11 39 12
REMARK SMILES IDX 40 13 41 14 76 15 42 16 81 17 75 18 77 19 43 20 80 21 74 22
REMARK SMILES IDX 73 23 44 25 66 26 51 27 65 28 52 29 55 30 64 31 78 32 53 33
REMARK SMILES IDX 54 34 63 36 79 37 56 38 45 39 46 40 50 41 47 42 49 43 48 44
REMARK SMILES IDX 67 45 68 46 72 47 69 48 71 49 70 50 57 51 58 52 62 53 59 54
REMARK SMILES IDX 61 55 60 56 7 57 8 58 9 59 10 60 11 61 12 62 13 63 24 64
REMARK SMILES IDX 14 65 23 66 25 67 35 68 26 69 34 70 15 71 16 72 17 73 22 74
REMARK SMILES IDX 18 75 21 76 19 77 20 78 27 79 28 80 29 81 30 82 31 83 32 84
REMARK SMILES IDX 33 85
REMARK H PARENT 77 24 55 35
REMARK Flexibility Score: inf
ROOT
ATOM      1  O   UNL A   1      40.753  21.257  27.105  1.00  0.00    -0.374 OA
ENDROOT
BRANCH   1   2
ATOM      2  C   UNL A   1      41.045  19.940  26.652  1.00  0.00     0.202 C 
BRANCH   2   3
ATOM      3  C   UNL A   1      42.502  19.571  26.364  1.00  0.00     0.261 C 
BRANCH   3   4
ATOM      4  O   UNL A   1      42.810  19.584  24.961  1.00  0.00    -0.460 OA
BRANCH   4   5
ATOM      5  C   UNL A   1      43.999  19.970  24.446  1.00  0.00     0.338 C 
ATOM      6  O   UNL A   1      44.509  19.341  23.523  1.00  0.00    -0.246 OA
BRANCH   5   7
ATOM      7  C   UNL A   1      44.535  21.306  24.808  1.00  0.00     0.060 A 
ATOM      8  C   UNL A   1      45.604  21.529  25.676  1.00  0.00     0.016 A 
ATOM      9  C   UNL A   1      43.774  22.393  24.363  1.00  0.00     0.016 A 
ATOM     10  C   UNL A   1      45.668  22.702  26.386  1.00  0.00     0.010 A 
ATOM     11  C   UNL A   1      43.901  23.611  24.993  1.00  0.00     0.010 A 
ATOM     12  C   UNL A   1      44.741  23.693  26.100  1.00  0.00    -0.014 A 
BRANCH  12  13
ATOM     13  C   UNL A   1      44.679  24.812  27.016  1.00  0.00     0.031 A 
ATOM     14  C   UNL A   1      45.852  25.718  26.980  1.00  0.00     0.074 A 
ATOM     15  C   UNL A   1      43.578  25.003  27.764  1.00  0.00     0.049 A 
ATOM     16  N   UNL A   1      46.590  26.126  27.961  1.00  0.00    -0.248 NA
ATOM     17  C   UNL A   1      46.328  26.135  25.649  1.00  0.00     0.031 C 
ATOM     18  C   UNL A   1      42.301  24.284  27.688  1.00  0.00     0.029 A 
ATOM     19  N   UNL A   1      43.315  26.006  28.641  1.00  0.00    -0.354 N 
ATOM     20  C   UNL A   1      47.525  26.985  27.391  1.00  0.00     0.074 A 
ATOM     21  C   UNL A   1      47.407  26.845  25.962  1.00  0.00     0.031 C 
ATOM     22  C   UNL A   1      41.336  25.048  28.242  1.00  0.00     0.029 A 
ATOM     23  C   UNL A   1      41.959  26.225  28.823  1.00  0.00     0.049 A 
ATOM     24  H   UNL A   1      44.015  26.523  29.100  1.00  0.00     0.167 HD
ATOM     25  C   UNL A   1      48.176  27.935  28.113  1.00  0.00     0.031 A 
ATOM     26  C   UNL A   1      41.390  27.358  29.295  1.00  0.00     0.031 A 
ATOM     27  C   UNL A   1      48.188  27.650  29.519  1.00  0.00     0.049 A 
ATOM     28  C   UNL A   1      42.443  28.133  29.995  1.00  0.00     0.074 A 
ATOM     29  C   UNL A   1      48.710  26.639  30.300  1.00  0.00     0.029 A 
ATOM     30  N   UNL A   1      47.280  28.307  30.314  1.00  0.00    -0.354 N 
ATOM     31  N   UNL A   1      43.014  27.734  31.096  1.00  0.00    -0.248 NA
ATOM     32  C   UNL A   1      43.187  29.128  29.235  1.00  0.00     0.031 C 
ATOM     33  C   UNL A   1      47.751  26.441  31.336  1.00  0.00     0.029 A 
ATOM     34  C   UNL A   1      46.726  27.370  31.148  1.00  0.00     0.049 A 
ATOM     35  H   UNL A   1      47.069  29.268  30.290  1.00  0.00     0.167 HD
ATOM     36  C   UNL A   1      44.348  28.090  30.957  1.00  0.00     0.074 A 
ATOM     37  C   UNL A   1      44.373  29.040  29.846  1.00  0.00     0.031 C 
ATOM     38  C   UNL A   1      45.340  27.369  31.560  1.00  0.00     0.031 A 
BRANCH  25  39
ATOM     39  C   UNL A   1      48.436  29.310  27.558  1.00  0.00    -0.014 A 
ATOM     40  C   UNL A   1      49.752  29.796  27.509  1.00  0.00     0.009 A 
ATOM     41  C   UNL A   1      47.403  30.247  27.345  1.00  0.00     0.009 A 
ATOM     42  C   UNL A   1      50.011  31.158  27.309  1.00  0.00     0.001 A 
ATOM     43  C   UNL A   1      47.658  31.596  27.104  1.00  0.00     0.001 A 
ATOM     44  C   UNL A   1      48.966  32.057  27.112  1.00  0.00     0.000 A 
ENDBRANCH  25  39
BRANCH  26  45
ATOM     45  C   UNL A   1      40.107  27.943  28.851  1.00  0.00    -0.014 A 
ATOM     46  C   UNL A   1      39.041  28.107  29.743  1.00  0.00     0.009 A 
ATOM     47  C   UNL A   1      40.004  28.555  27.585  1.00  0.00     0.009 A 
ATOM     48  C   UNL A   1      37.919  28.869  29.385  1.00  0.00     0.001 A 
ATOM     49  C   UNL A   1      38.884  29.307  27.224  1.00  0.00     0.001 A 
ATOM     50  C   UNL A   1      37.845  29.473  28.131  1.00  0.00     0.000 A 
ENDBRANCH  26  45
BRANCH  38  51
ATOM     51  C   UNL A   1      44.928  26.276  32.517  1.00  0.00    -0.014 A 
ATOM     52  C   UNL A   1      44.660  24.963  32.087  1.00  0.00     0.009 A 
ATOM     53  C   UNL A   1      44.971  26.525  33.895  1.00  0.00     0.009 A 
ATOM     54  C   UNL A   1      44.412  23.939  33.006  1.00  0.00     0.001 A 
ATOM     55  C   UNL A   1      44.742  25.499  34.815  1.00  0.00     0.001 A 
ATOM     56  C   UNL A   1      44.457  24.208  34.371  1.00  0.00     0.000 A 
ENDBRANCH  38  51
ENDBRANCH  12  13
ENDBRANCH   5   7
ENDBRANCH   4   5
ENDBRANCH   3   4
ENDBRANCH   2   3
ENDBRANCH   1   2
BRANCH   1  57
ATOM     57  C   UNL A   1      39.725  21.975  26.408  1.00  0.00     0.202 C 
BRANCH  57  58
ATOM     58  C   UNL A   1      38.640  21.186  25.655  1.00  0.00     0.261 C 
BRANCH  58  59
ATOM     59  O   UNL A   1      37.765  22.019  24.874  1.00  0.00    -0.458 OA
BRANCH  59  60
ATOM     60  C   UNL A   1      36.752  22.643  25.559  1.00  0.00     0.359 C 
ATOM     61  O   UNL A   1      36.917  23.548  26.359  1.00  0.00    -0.244 OA
BRANCH  60  62
ATOM     62  C   UNL A   1      35.423  22.264  25.046  1.00  0.00     0.175 A 
ATOM     63  N   UNL A   1      34.799  21.132  25.425  1.00  0.00    -0.165 NA
ATOM     64  C   UNL A   1      34.639  22.974  24.089  1.00  0.00     0.028 A 
ATOM     65  N   UNL A   1      33.634  21.126  24.737  1.00  0.00    -0.264 N 
ATOM     66  C   UNL A   1      33.520  22.192  23.897  1.00  0.00     0.046 A 
ATOM     67  C   UNL A   1      34.898  24.243  23.348  1.00  0.00     0.159 C 
ATOM     68  C   UNL A   1      32.410  22.521  22.967  1.00  0.00     0.078 C 
ATOM     69  N   UNL A   1      33.699  24.631  22.587  1.00  0.00    -0.337 N 
ATOM     70  C   UNL A   1      32.932  23.545  21.938  1.00  0.00     0.126 C 
BRANCH  65  71
ATOM     71  C   UNL A   1      32.613  20.138  25.061  1.00  0.00     0.180 C 
BRANCH  71  72
ATOM     72  C   UNL A   1      33.138  18.723  25.055  1.00  0.00    -0.026 A 
ATOM     73  C   UNL A   1      34.273  18.392  24.293  1.00  0.00     0.008 A 
ATOM     74  C   UNL A   1      32.532  17.729  25.840  1.00  0.00     0.008 A 
ATOM     75  C   UNL A   1      34.799  17.102  24.328  1.00  0.00     0.039 A 
ATOM     76  C   UNL A   1      33.065  16.439  25.875  1.00  0.00     0.039 A 
ATOM     77  C   UNL A   1      34.194  16.138  25.123  1.00  0.00     0.123 A 
ATOM     78  F   UNL A   1      34.709  14.902  25.171  1.00  0.00    -0.207 F 
ENDBRANCH  71  72
ENDBRANCH  65  71
BRANCH  69  79
ATOM     79  C   UNL A   1      33.470  25.985  22.391  1.00  0.00     0.232 C 
ATOM     80  O   UNL A   1      33.708  26.563  21.339  1.00  0.00    -0.274 OA
BRANCH  79  81
ATOM     81  C   UNL A   1      32.885  26.736  23.518  1.00  0.00     0.154 C 
ATOM     82  C   UNL A   1      33.703  26.955  24.783  1.00  0.00     0.097 C 
ATOM     83  C   UNL A   1      33.404  28.080  23.865  1.00  0.00     0.260 C 
ATOM     84  F   UNL A   1      34.441  28.686  23.199  1.00  0.00    -0.206 F 
ATOM     85  F   UNL A   1      32.552  29.074  24.292  1.00  0.00    -0.206 F 
ENDBRANCH  79  81
ENDBRANCH  69  79
ENDBRANCH  60  62
ENDBRANCH  59  60
ENDBRANCH  58  59
ENDBRANCH  57  58
ENDBRANCH   1  57
TORSDOF 18
ENDMDL
MODEL 2
REMARK VINA RESULT:     -11.7      3.886      7.678
REMARK SMILES O=C(OCCOCCOC(=O)c1nn(Cc2ccc(F)cc2)c2c1CN(C(=O)[C@H]1CC1(F)F)CC2)c1ccc(-c2c3nc(c(-c4ccccc4)c4ccc([nH]4)c(-c4ccccc4)c4nc(c(-c5ccccc5)c5ccc2[nH]5)C=C4)C=C3)cc1
REMARK SMILES IDX 6 1 5 2 4 3 3 4 2 5 1 6 36 7 37 8 83 9 38 10 82 11 39 12
REMARK SMILES IDX 40 13 41 14 76 15 42 16 81 17 75 18 77 19 43 20 80 21 74 22
REMARK SMILES IDX 73 23 44 25 66 26 51 27 65 28 52 29 55 30 64 31 78 32 53 33
REMARK SMILES IDX 54 34 63 36 79 37 56 38 45 39 46 40 50 41 47 42 49 43 48 44
REMARK SMILES IDX 67 45 68 46 72 47 69 48 71 49 70 50 57 51 58 52 62 53 59 54
REMARK SMILES IDX 61 55 60 56 7 57 8 58 9 59 10 60 11 61 12 62 13 63 24 64
REMARK SMILES IDX 14 65 23 66 25 67 35 68 26 69 34 70 15 71 16 72 17 73 22 74
REMARK SMILES IDX 18 75 21 76 19 77 20 78 27 79 28 80 29 81 30 82 31 83 32 84
REMARK SMILES IDX 33 85
REMARK H PARENT 77 24 55 35
REMARK Flexibility Score: inf
ROOT
ATOM      1  O   UNL A   1      35.497  29.733  28.298  1.00  0.00    -0.374 OA
ENDROOT
BRANCH   1   2
ATOM      2  C   UNL A   1      36.851  30.166  28.353  1.00  0.00     0.202 C 
BRANCH   2   3
ATOM      3  C   UNL A   1      37.136  31.666  28.469  1.00  0.00     0.261 C 
BRANCH   3   4
ATOM      4  O   UNL A   1      36.989  32.155  29.811  1.00  0.00    -0.460 OA
BRANCH   4   5
ATOM      5  C   UNL A   1      38.008  32.619  30.569  1.00  0.00     0.338 C 
ATOM      6  O   UNL A   1      37.907  33.692  31.157  1.00  0.00    -0.246 OA
BRANCH   5   7
ATOM      7  C   UNL A   1      39.123  31.699  30.908  1.00  0.00     0.060 A 
ATOM      8  C   UNL A   1      40.439  31.842  30.468  1.00  0.00     0.016 A 
ATOM      9  C   UNL A   1      38.744  30.525  31.571  1.00  0.00     0.016 A 
ATOM     10  C   UNL A   1      41.232  30.730  30.327  1.00  0.00     0.010 A 
ATOM     11  C   UNL A   1      39.576  29.429  31.534  1.00  0.00     0.010 A 
ATOM     12  C   UNL A   1      40.740  29.513  30.773  1.00  0.00    -0.014 A 
BRANCH  12  13
ATOM     13  C   UNL A   1      41.487  28.331  30.400  1.00  0.00     0.031 A 
ATOM     14  C   UNL A   1      42.386  27.798  31.451  1.00  0.00     0.074 A 
ATOM     15  C   UNL A   1      41.279  27.761  29.199  1.00  0.00     0.049 A 
ATOM     16  N   UNL A   1      43.645  27.511  31.370  1.00  0.00    -0.248 NA
ATOM     17  C   UNL A   1      41.821  27.675  32.807  1.00  0.00     0.031 C 
ATOM     18  C   UNL A   1      40.252  28.097  28.207  1.00  0.00     0.029 A 
ATOM     19  N   UNL A   1      41.845  26.638  28.688  1.00  0.00    -0.354 N 
ATOM     20  C   UNL A   1      43.994  27.014  32.623  1.00  0.00     0.074 A 
ATOM     21  C   UNL A   1      42.879  27.266  33.500  1.00  0.00     0.031 C 
ATOM     22  C   UNL A   1      40.073  27.040  27.388  1.00  0.00     0.029 A 
ATOM     23  C   UNL A   1      41.062  26.030  27.719  1.00  0.00     0.049 A 
ATOM     24  H   UNL A   1      42.720  26.292  28.974  1.00  0.00     0.167 HD
ATOM     25  C   UNL A   1      45.076  26.213  32.812  1.00  0.00     0.031 A 
ATOM     26  C   UNL A   1      41.145  24.739  27.320  1.00  0.00     0.031 A 
ATOM     27  C   UNL A   1      46.048  26.340  31.764  1.00  0.00     0.049 A 
ATOM     28  C   UNL A   1      42.468  24.220  27.745  1.00  0.00     0.074 A 
ATOM     29  C   UNL A   1      46.838  27.368  31.293  1.00  0.00     0.029 A 
ATOM     30  N   UNL A   1      46.066  25.374  30.787  1.00  0.00    -0.354 N 
ATOM     31  N   UNL A   1      43.596  24.644  27.250  1.00  0.00    -0.248 NA
ATOM     32  C   UNL A   1      42.567  23.560  29.039  1.00  0.00     0.031 C 
ATOM     33  C   UNL A   1      46.886  27.178  29.881  1.00  0.00     0.029 A 
ATOM     34  C   UNL A   1      46.159  26.025  29.583  1.00  0.00     0.049 A 
ATOM     35  H   UNL A   1      46.021  24.401  30.925  1.00  0.00     0.167 HD
ATOM     36  C   UNL A   1      44.465  24.692  28.331  1.00  0.00     0.074 A 
ATOM     37  C   UNL A   1      43.811  23.911  29.379  1.00  0.00     0.031 C 
ATOM     38  C   UNL A   1      45.491  25.595  28.375  1.00  0.00     0.031 A 
BRANCH  25  39
ATOM     39  C   UNL A   1      45.033  25.033  33.745  1.00  0.00    -0.014 A 
ATOM     40  C   UNL A   1      44.249  23.918  33.410  1.00  0.00     0.009 A 
ATOM     41  C   UNL A   1      45.512  25.100  35.070  1.00  0.00     0.009 A 
ATOM     42  C   UNL A   1      43.923  22.951  34.370  1.00  0.00     0.001 A 
ATOM     43  C   UNL A   1      45.225  24.118  36.018  1.00  0.00     0.001 A 
ATOM     44  C   UNL A   1      44.405  23.054  35.673  1.00  0.00     0.000 A 
ENDBRANCH  25  39
BRANCH  26  45
ATOM     45  C   UNL A   1      40.014  23.869  26.936  1.00  0.00    -0.014 A 
ATOM     46  C   UNL A   1      38.782  24.413  26.555  1.00  0.00     0.009 A 
ATOM     47  C   UNL A   1      40.216  22.490  26.725  1.00  0.00     0.009 A 
ATOM     48  C   UNL A   1      37.794  23.607  25.969  1.00  0.00     0.001 A 
ATOM     49  C   UNL A   1      39.230  21.684  26.151  1.00  0.00     0.001 A 
ATOM     50  C   UNL A   1      38.022  22.247  25.762  1.00  0.00     0.000 A 
ENDBRANCH  26  45
BRANCH  38  51
ATOM     51  C   UNL A   1      45.750  26.421  27.138  1.00  0.00    -0.014 A 
ATOM     52  C   UNL A   1      45.129  27.665  26.921  1.00  0.00     0.009 A 
ATOM     53  C   UNL A   1      46.761  26.024  26.253  1.00  0.00     0.009 A 
ATOM     54  C   UNL A   1      45.485  28.471  25.836  1.00  0.00     0.001 A 
ATOM     55  C   UNL A   1      47.132  26.837  25.179  1.00  0.00     0.001 A 
ATOM     56  C   UNL A   1      46.490  28.057  24.967  1.00  0.00     0.000 A 
ENDBRANCH  38  51
ENDBRANCH  12  13
ENDBRANCH   5   7
ENDBRANCH   4   5
ENDBRANCH   3   4
ENDBRANCH   2   3
ENDBRANCH   1   2
BRANCH   1  57
ATOM     57  C   UNL A   1      34.604  30.485  27.463  1.00  0.00     0.202 C 
BRANCH  57  58
ATOM     58  C   UNL A   1      33.290  29.834  26.998  1.00  0.00     0.261 C 
BRANCH  58  59
ATOM     59  O   UNL A   1      33.242  28.415  27.229  1.00  0.00    -0.458 OA
BRANCH  59  60
ATOM     60  C   UNL A   1      31.996  27.876  27.437  1.00  0.00     0.359 C 
ATOM     61  O   UNL A   1      31.224  28.244  28.305  1.00  0.00    -0.244 OA
BRANCH  60  62
ATOM     62  C   UNL A   1      31.598  26.969  26.346  1.00  0.00     0.175 A 
ATOM     63  N   UNL A   1      31.595  25.629  26.487  1.00  0.00    -0.165 NA
ATOM     64  C   UNL A   1      31.208  27.337  25.024  1.00  0.00     0.028 A 
ATOM     65  N   UNL A   1      31.196  25.151  25.286  1.00  0.00    -0.264 N 
ATOM     66  C   UNL A   1      30.994  26.141  24.372  1.00  0.00     0.046 A 
ATOM     67  C   UNL A   1      31.090  28.671  24.365  1.00  0.00     0.159 C 
ATOM     68  C   UNL A   1      30.581  26.017  22.951  1.00  0.00     0.078 C 
ATOM     69  N   UNL A   1      30.497  28.516  23.027  1.00  0.00    -0.337 N 
ATOM     70  C   UNL A   1      30.919  27.340  22.235  1.00  0.00     0.126 C 
BRANCH  65  71
ATOM     71  C   UNL A   1      30.883  23.734  25.144  1.00  0.00     0.180 C 
BRANCH  71  72
ATOM     72  C   UNL A   1      32.107  22.879  24.930  1.00  0.00    -0.026 A 
ATOM     73  C   UNL A   1      33.320  23.465  24.524  1.00  0.00     0.008 A 
ATOM     74  C   UNL A   1      32.068  21.497  25.174  1.00  0.00     0.008 A 
ATOM     75  C   UNL A   1      34.470  22.690  24.381  1.00  0.00     0.039 A 
ATOM     76  C   UNL A   1      33.223  20.725  25.033  1.00  0.00     0.039 A 
ATOM     77  C   UNL A   1      34.413  21.328  24.643  1.00  0.00     0.123 A 
ATOM     78  F   UNL A   1      35.521  20.586  24.523  1.00  0.00    -0.207 F 
ENDBRANCH  71  72
ENDBRANCH  65  71
BRANCH  69  79
ATOM     79  C   UNL A   1      29.724  29.560  22.540  1.00  0.00     0.232 C 
ATOM     80  O   UNL A   1      29.620  29.822  21.349  1.00  0.00    -0.274 OA
BRANCH  79  81
ATOM     81  C   UNL A   1      28.980  30.361  23.530  1.00  0.00     0.154 C 
ATOM     82  C   UNL A   1      29.304  31.838  23.701  1.00  0.00     0.097 C 
ATOM     83  C   UNL A   1      28.030  31.405  23.080  1.00  0.00     0.260 C 
ATOM     84  F   UNL A   1      27.803  31.702  21.758  1.00  0.00    -0.206 F 
ATOM     85  F   UNL A   1      26.853  31.626  23.759  1.00  0.00    -0.206 F 
ENDBRANCH  79  81
ENDBRANCH  69  79
ENDBRANCH  60  62
ENDBRANCH  59  60
ENDBRANCH  58  59
ENDBRANCH  57  58
ENDBRANCH   1  57
TORSDOF 18
ENDMDL
MODEL 3
REMARK VINA RESULT:     -11.4      3.559      7.761
REMARK SMILES O=C(OCCOCCOC(=O)c1nn(Cc2ccc(F)cc2)c2c1CN(C(=O)[C@H]1CC1(F)F)CC2)c1ccc(-c2c3nc(c(-c4ccccc4)c4ccc([nH]4)c(-c4ccccc4)c4nc(c(-c5ccccc5)c5ccc2[nH]5)C=C4)C=C3)cc1
REMARK SMILES IDX 6 1 5 2 4 3 3 4 2 5 1 6 36 7 37 8 83 9 38 10 82 11 39 12
REMARK SMILES IDX 40 13 41 14 76 15 42 16 81 17 75 18 77 19 43 20 80 21 74 22
REMARK SMILES IDX 73 23 44 25 66 26 51 27 65 28 52 29 55 30 64 31 78 32 53 33
REMARK SMILES IDX 54 34 63 36 79 37 56 38 45 39 46 40 50 41 47 42 49 43 48 44
REMARK SMILES IDX 67 45 68 46 72 47 69 48 71 49 70 50 57 51 58 52 62 53 59 54
REMARK SMILES IDX 61 55 60 56 7 57 8 58 9 59 10 60 11 61 12 62 13 63 24 64
REMARK SMILES IDX 14 65 23 66 25 67 35 68 26 69 34 70 15 71 16 72 17 73 22 74
REMARK SMILES IDX 18 75 21 76 19 77 20 78 27 79 28 80 29 81 30 82 31 83 32 84
REMARK SMILES IDX 33 85
REMARK H PARENT 77 24 55 35
REMARK Flexibility Score: inf
ROOT
ATOM      1  O   UNL A   1      33.237  29.742  24.950  1.00  0.00    -0.374 OA
ENDROOT
BRANCH   1   2
ATOM      2  C   UNL A   1      33.127  29.642  26.365  1.00  0.00     0.202 C 
BRANCH   2   3
ATOM      3  C   UNL A   1      33.750  30.743  27.227  1.00  0.00     0.261 C 
BRANCH   3   4
ATOM      4  O   UNL A   1      34.948  30.314  27.893  1.00  0.00    -0.460 OA
BRANCH   4   5
ATOM      5  C   UNL A   1      36.011  31.113  28.137  1.00  0.00     0.338 C 
ATOM      6  O   UNL A   1      35.978  32.302  27.831  1.00  0.00    -0.246 OA
BRANCH   5   7
ATOM      7  C   UNL A   1      37.092  30.614  29.023  1.00  0.00     0.060 A 
ATOM      8  C   UNL A   1      38.352  31.200  29.157  1.00  0.00     0.016 A 
ATOM      9  C   UNL A   1      36.849  29.368  29.614  1.00  0.00     0.016 A 
ATOM     10  C   UNL A   1      39.429  30.422  29.501  1.00  0.00     0.010 A 
ATOM     11  C   UNL A   1      37.910  28.615  30.066  1.00  0.00     0.010 A 
ATOM     12  C   UNL A   1      39.198  29.101  29.854  1.00  0.00    -0.014 A 
BRANCH  12  13
ATOM     13  C   UNL A   1      40.360  28.247  29.979  1.00  0.00     0.031 A 
ATOM     14  C   UNL A   1      40.994  28.242  31.319  1.00  0.00     0.074 A 
ATOM     15  C   UNL A   1      40.740  27.480  28.942  1.00  0.00     0.049 A 
ATOM     16  N   UNL A   1      42.234  28.441  31.628  1.00  0.00    -0.248 NA
ATOM     17  C   UNL A   1      40.094  28.105  32.479  1.00  0.00     0.031 C 
ATOM     18  C   UNL A   1      40.035  27.265  27.673  1.00  0.00     0.029 A 
ATOM     19  N   UNL A   1      41.765  26.593  28.878  1.00  0.00    -0.354 N 
ATOM     20  C   UNL A   1      42.303  28.291  33.010  1.00  0.00     0.074 A 
ATOM     21  C   UNL A   1      40.946  28.224  33.492  1.00  0.00     0.031 C 
ATOM     22  C   UNL A   1      40.473  26.116  27.119  1.00  0.00     0.029 A 
ATOM     23  C   UNL A   1      41.571  25.608  27.923  1.00  0.00     0.049 A 
ATOM     24  H   UNL A   1      42.565  26.645  29.450  1.00  0.00     0.167 HD
ATOM     25  C   UNL A   1      43.462  27.990  33.653  1.00  0.00     0.031 A 
ATOM     26  C   UNL A   1      42.182  24.401  27.885  1.00  0.00     0.031 A 
ATOM     27  C   UNL A   1      44.625  28.326  32.884  1.00  0.00     0.049 A 
ATOM     28  C   UNL A   1      43.391  24.481  28.740  1.00  0.00     0.074 A 
ATOM     29  C   UNL A   1      45.155  29.500  32.388  1.00  0.00     0.029 A 
ATOM     30  N   UNL A   1      45.260  27.312  32.208  1.00  0.00    -0.354 N 
ATOM     31  N   UNL A   1      44.422  25.225  28.455  1.00  0.00    -0.248 NA
ATOM     32  C   UNL A   1      43.274  24.093  30.139  1.00  0.00     0.031 C 
ATOM     33  C   UNL A   1      45.710  29.148  31.124  1.00  0.00     0.029 A 
ATOM     34  C   UNL A   1      45.523  27.776  30.944  1.00  0.00     0.049 A 
ATOM     35  H   UNL A   1      45.486  26.423  32.563  1.00  0.00     0.167 HD
ATOM     36  C   UNL A   1      44.836  25.745  29.673  1.00  0.00     0.074 A 
ATOM     37  C   UNL A   1      44.164  24.929  30.682  1.00  0.00     0.031 C 
ATOM     38  C   UNL A   1      45.451  26.964  29.750  1.00  0.00     0.031 A 
BRANCH  25  39
ATOM     39  C   UNL A   1      43.498  27.021  34.805  1.00  0.00    -0.014 A 
ATOM     40  C   UNL A   1      42.553  25.986  34.865  1.00  0.00     0.009 A 
ATOM     41  C   UNL A   1      44.253  27.264  35.972  1.00  0.00     0.009 A 
ATOM     42  C   UNL A   1      42.341  25.270  36.051  1.00  0.00     0.001 A 
ATOM     43  C   UNL A   1      44.075  26.525  37.142  1.00  0.00     0.001 A 
ATOM     44  C   UNL A   1      43.097  25.543  37.188  1.00  0.00     0.000 A 
ENDBRANCH  25  39
BRANCH  26  45
ATOM     45  C   UNL A   1      41.572  23.125  27.454  1.00  0.00    -0.014 A 
ATOM     46  C   UNL A   1      40.193  23.021  27.239  1.00  0.00     0.009 A 
ATOM     47  C   UNL A   1      42.386  22.054  27.033  1.00  0.00     0.009 A 
ATOM     48  C   UNL A   1      39.651  21.890  26.610  1.00  0.00     0.001 A 
ATOM     49  C   UNL A   1      41.846  20.924  26.415  1.00  0.00     0.001 A 
ATOM     50  C   UNL A   1      40.477  20.848  26.193  1.00  0.00     0.000 A 
ENDBRANCH  26  45
BRANCH  38  51
ATOM     51  C   UNL A   1      45.816  27.647  28.454  1.00  0.00    -0.014 A 
ATOM     52  C   UNL A   1      47.080  27.494  27.853  1.00  0.00     0.009 A 
ATOM     53  C   UNL A   1      44.819  28.320  27.735  1.00  0.00     0.009 A 
ATOM     54  C   UNL A   1      47.346  28.027  26.589  1.00  0.00     0.001 A 
ATOM     55  C   UNL A   1      45.079  28.836  26.463  1.00  0.00     0.001 A 
ATOM     56  C   UNL A   1      46.343  28.694  25.893  1.00  0.00     0.000 A 
ENDBRANCH  38  51
ENDBRANCH  12  13
ENDBRANCH   5   7
ENDBRANCH   4   5
ENDBRANCH   3   4
ENDBRANCH   2   3
ENDBRANCH   1   2
BRANCH   1  57
ATOM     57  C   UNL A   1      33.691  28.577  24.246  1.00  0.00     0.202 C 
BRANCH  57  58
ATOM     58  C   UNL A   1      33.769  28.616  22.710  1.00  0.00     0.261 C 
BRANCH  58  59
ATOM     59  O   UNL A   1      34.201  27.373  22.128  1.00  0.00    -0.458 OA
BRANCH  59  60
ATOM     60  C   UNL A   1      33.208  26.494  21.769  1.00  0.00     0.359 C 
ATOM     61  O   UNL A   1      33.129  25.954  20.679  1.00  0.00    -0.244 OA
BRANCH  60  62
ATOM     62  C   UNL A   1      32.384  26.091  22.922  1.00  0.00     0.175 A 
ATOM     63  N   UNL A   1      32.820  25.217  23.851  1.00  0.00    -0.165 NA
ATOM     64  C   UNL A   1      31.050  26.506  23.210  1.00  0.00     0.028 A 
ATOM     65  N   UNL A   1      31.793  25.088  24.722  1.00  0.00    -0.264 N 
ATOM     66  C   UNL A   1      30.701  25.814  24.350  1.00  0.00     0.046 A 
ATOM     67  C   UNL A   1      30.122  27.420  22.481  1.00  0.00     0.159 C 
ATOM     68  C   UNL A   1      29.383  25.912  25.026  1.00  0.00     0.078 C 
ATOM     69  N   UNL A   1      28.906  27.638  23.281  1.00  0.00    -0.337 N 
ATOM     70  C   UNL A   1      28.364  26.473  24.015  1.00  0.00     0.126 C 
BRANCH  65  71
ATOM     71  C   UNL A   1      31.997  24.368  25.972  1.00  0.00     0.180 C 
BRANCH  71  72
ATOM     72  C   UNL A   1      33.120  23.364  25.898  1.00  0.00    -0.026 A 
ATOM     73  C   UNL A   1      32.899  22.094  25.334  1.00  0.00     0.008 A 
ATOM     74  C   UNL A   1      34.409  23.694  26.347  1.00  0.00     0.008 A 
ATOM     75  C   UNL A   1      33.946  21.182  25.208  1.00  0.00     0.039 A 
ATOM     76  C   UNL A   1      35.456  22.778  26.215  1.00  0.00     0.039 A 
ATOM     77  C   UNL A   1      35.216  21.535  25.644  1.00  0.00     0.123 A 
ATOM     78  F   UNL A   1      36.226  20.665  25.507  1.00  0.00    -0.207 F 
ENDBRANCH  71  72
ENDBRANCH  65  71
BRANCH  69  79
ATOM     79  C   UNL A   1      28.264  28.861  23.156  1.00  0.00     0.232 C 
ATOM     80  O   UNL A   1      27.047  28.980  23.102  1.00  0.00    -0.274 OA
BRANCH  79  81
ATOM     81  C   UNL A   1      29.116  30.064  23.115  1.00  0.00     0.154 C 
ATOM     82  C   UNL A   1      28.854  31.139  22.070  1.00  0.00     0.097 C 
ATOM     83  C   UNL A   1      28.561  31.383  23.502  1.00  0.00     0.260 C 
ATOM     84  F   UNL A   1      27.256  31.570  23.889  1.00  0.00    -0.206 F 
ATOM     85  F   UNL A   1      29.329  32.296  24.188  1.00  0.00    -0.206 F 
ENDBRANCH  79  81
ENDBRANCH  69  79
ENDBRANCH  60  62
ENDBRANCH  59  60
ENDBRANCH  58  59
ENDBRANCH  57  58
ENDBRANCH   1  57
TORSDOF 18
ENDMDL
