MODEL 1
REMARK VINA RESULT:      -8.4      0.000      0.000
REMARK SMILES C#CC[N@H+](CC(=O)OCCOCCOC(=O)c1ccc(-c2c3nc(c(-c4ccccc4)c4ccc([nH]4)c(-c4ccccc4)c4nc(c(-c5ccccc5)c5ccc2[nH]5)C=C4)C=C3)cc1)[C@H](C)C(=O)NCCC
REMARK SMILES IDX 9 1 8 2 6 3 7 4 5 5 4 6 3 8 2 9 1 10 65 11 66 12 67 13 68 14
REMARK SMILES IDX 69 15 70 17 71 18 72 19 10 20 11 21 12 22 13 23 14 24 15 25
REMARK SMILES IDX 16 26 17 27 18 28 64 29 19 30 63 31 20 32 21 33 22 34 57 35
REMARK SMILES IDX 23 36 62 37 56 38 58 39 24 40 61 41 55 42 54 43 25 45 47 46
REMARK SMILES IDX 32 47 46 48 33 49 36 50 45 51 59 52 34 53 35 54 44 56 60 57
REMARK SMILES IDX 37 58 26 59 27 60 31 61 28 62 30 63 29 64 48 65 49 66 53 67
REMARK SMILES IDX 50 68 52 69 51 70 38 71 39 72 43 73 40 74 42 75 41 76
REMARK H PARENT 4 7 69 16 58 44 36 55
REMARK Flexibility Score: inf
ROOT
ATOM      1  C   UNL A   1      37.073  23.520  26.064  1.00  0.00     0.261 C 
ENDROOT
BRANCH   1   2
ATOM      2  O   UNL A   1      36.906  23.897  24.687  1.00  0.00    -0.459 OA
BRANCH   2   3
ATOM      3  C   UNL A   1      36.015  23.160  23.972  1.00  0.00     0.361 C 
ATOM      4  O   UNL A   1      35.998  23.094  22.749  1.00  0.00    -0.245 OA
BRANCH   3   5
ATOM      5  C   UNL A   1      34.970  22.499  24.861  1.00  0.00     0.387 C 
BRANCH   5   6
ATOM      6  N   UNL A   1      33.622  23.144  25.025  1.00  0.00    -0.306 N 
ATOM      7  H   UNL A   1      33.638  24.081  24.623  1.00  0.00     0.350 HD
BRANCH   6   8
ATOM      8  C   UNL A   1      32.561  22.547  24.210  1.00  0.00     0.355 C 
BRANCH   8   9
ATOM      9  C   UNL A   1      32.505  21.070  24.264  1.00  0.00    -0.047 C 
ATOM     10  C   UNL A   1      32.482  19.871  24.258  1.00  0.00     0.010 C 
ENDBRANCH   8   9
ENDBRANCH   6   8
BRANCH   6  11
ATOM     11  C   UNL A   1      33.342  23.316  26.500  1.00  0.00     0.272 C 
ATOM     12  C   UNL A   1      33.854  22.236  27.471  1.00  0.00     0.086 C 
BRANCH  11  13
ATOM     13  C   UNL A   1      31.929  23.779  26.921  1.00  0.00     0.278 C 
ATOM     14  O   UNL A   1      31.127  22.987  27.430  1.00  0.00    -0.268 OA
ATOM     15  N   UNL A   1      31.482  25.054  26.684  1.00  0.00    -0.351 N 
ATOM     16  H   UNL A   1      30.504  25.168  26.710  1.00  0.00     0.163 HD
BRANCH  15  17
ATOM     17  C   UNL A   1      32.237  26.260  26.400  1.00  0.00     0.116 C 
BRANCH  17  18
ATOM     18  C   UNL A   1      31.495  27.544  26.728  1.00  0.00     0.018 C 
ATOM     19  C   UNL A   1      31.640  28.585  25.628  1.00  0.00     0.006 C 
ENDBRANCH  17  18
ENDBRANCH  15  17
ENDBRANCH  11  13
ENDBRANCH   6  11
ENDBRANCH   5   6
ENDBRANCH   3   5
ENDBRANCH   2   3
ENDBRANCH   1   2
BRANCH   1  20
ATOM     20  C   UNL A   1      38.538  23.196  26.370  1.00  0.00     0.202 C 
BRANCH  20  21
ATOM     21  O   UNL A   1      39.151  22.174  25.590  1.00  0.00    -0.374 OA
BRANCH  21  22
ATOM     22  C   UNL A   1      38.533  20.885  25.576  1.00  0.00     0.202 C 
BRANCH  22  23
ATOM     23  C   UNL A   1      39.459  19.660  25.571  1.00  0.00     0.261 C 
BRANCH  23  24
ATOM     24  O   UNL A   1      40.496  19.739  26.566  1.00  0.00    -0.460 OA
BRANCH  24  25
ATOM     25  C   UNL A   1      41.755  19.901  26.099  1.00  0.00     0.338 C 
ATOM     26  O   UNL A   1      42.342  19.195  25.299  1.00  0.00    -0.246 OA
BRANCH  25  27
ATOM     27  C   UNL A   1      42.275  21.213  26.545  1.00  0.00     0.060 A 
ATOM     28  C   UNL A   1      42.237  21.495  27.916  1.00  0.00     0.016 A 
ATOM     29  C   UNL A   1      42.746  22.169  25.644  1.00  0.00     0.016 A 
ATOM     30  C   UNL A   1      42.613  22.754  28.386  1.00  0.00     0.010 A 
ATOM     31  C   UNL A   1      43.128  23.430  26.117  1.00  0.00     0.010 A 
ATOM     32  C   UNL A   1      43.022  23.744  27.485  1.00  0.00    -0.014 A 
BRANCH  32  33
ATOM     33  C   UNL A   1      43.184  25.151  27.937  1.00  0.00     0.031 A 
ATOM     34  C   UNL A   1      44.563  25.651  28.279  1.00  0.00     0.074 A 
ATOM     35  C   UNL A   1      42.129  25.979  28.040  1.00  0.00     0.049 A 
ATOM     36  N   UNL A   1      44.929  26.804  28.778  1.00  0.00    -0.248 NA
ATOM     37  C   UNL A   1      45.678  24.722  28.029  1.00  0.00     0.031 C 
ATOM     38  C   UNL A   1      40.751  25.646  27.688  1.00  0.00     0.029 A 
ATOM     39  N   UNL A   1      42.058  27.277  28.486  1.00  0.00    -0.354 N 
ATOM     40  C   UNL A   1      46.309  26.732  28.921  1.00  0.00     0.074 A 
ATOM     41  C   UNL A   1      46.712  25.412  28.486  1.00  0.00     0.031 C 
ATOM     42  C   UNL A   1      39.968  26.710  27.940  1.00  0.00     0.029 A 
ATOM     43  C   UNL A   1      40.780  27.779  28.517  1.00  0.00     0.049 A 
ATOM     44  H   UNL A   1      42.849  27.798  28.757  1.00  0.00     0.167 HD
ATOM     45  C   UNL A   1      47.167  27.678  29.373  1.00  0.00     0.031 A 
ATOM     46  C   UNL A   1      40.313  28.953  28.988  1.00  0.00     0.031 A 
ATOM     47  C   UNL A   1      46.767  28.988  29.816  1.00  0.00     0.049 A 
ATOM     48  C   UNL A   1      41.273  29.954  29.577  1.00  0.00     0.074 A 
ATOM     49  C   UNL A   1      47.565  30.023  30.270  1.00  0.00     0.029 A 
ATOM     50  N   UNL A   1      45.457  29.439  29.868  1.00  0.00    -0.354 N 
ATOM     51  N   UNL A   1      42.578  29.882  29.689  1.00  0.00    -0.248 NA
ATOM     52  C   UNL A   1      40.696  31.201  30.102  1.00  0.00     0.031 C 
ATOM     53  C   UNL A   1      46.733  31.071  30.673  1.00  0.00     0.029 A 
ATOM     54  C   UNL A   1      45.423  30.722  30.385  1.00  0.00     0.049 A 
ATOM     55  H   UNL A   1      44.669  28.923  29.581  1.00  0.00     0.167 HD
ATOM     56  C   UNL A   1      42.977  31.087  30.257  1.00  0.00     0.074 A 
ATOM     57  C   UNL A   1      41.781  31.873  30.461  1.00  0.00     0.031 C 
ATOM     58  C   UNL A   1      44.228  31.504  30.576  1.00  0.00     0.031 A 
BRANCH  45  59
ATOM     59  C   UNL A   1      48.626  27.317  29.457  1.00  0.00    -0.014 A 
ATOM     60  C   UNL A   1      49.170  26.707  30.597  1.00  0.00     0.009 A 
ATOM     61  C   UNL A   1      49.461  27.554  28.352  1.00  0.00     0.009 A 
ATOM     62  C   UNL A   1      50.527  26.378  30.644  1.00  0.00     0.001 A 
ATOM     63  C   UNL A   1      50.808  27.190  28.388  1.00  0.00     0.001 A 
ATOM     64  C   UNL A   1      51.343  26.613  29.538  1.00  0.00     0.000 A 
ENDBRANCH  45  59
BRANCH  46  65
ATOM     65  C   UNL A   1      38.853  29.240  28.956  1.00  0.00    -0.014 A 
ATOM     66  C   UNL A   1      38.249  29.775  27.807  1.00  0.00     0.009 A 
ATOM     67  C   UNL A   1      38.055  29.004  30.088  1.00  0.00     0.009 A 
ATOM     68  C   UNL A   1      36.890  30.094  27.803  1.00  0.00     0.001 A 
ATOM     69  C   UNL A   1      36.689  29.289  30.069  1.00  0.00     0.001 A 
ATOM     70  C   UNL A   1      36.109  29.846  28.932  1.00  0.00     0.000 A 
ENDBRANCH  46  65
BRANCH  58  71
ATOM     71  C   UNL A   1      44.387  32.896  31.125  1.00  0.00    -0.014 A 
ATOM     72  C   UNL A   1      44.412  33.148  32.505  1.00  0.00     0.009 A 
ATOM     73  C   UNL A   1      44.597  33.965  30.237  1.00  0.00     0.009 A 
ATOM     74  C   UNL A   1      44.618  34.445  32.983  1.00  0.00     0.001 A 
ATOM     75  C   UNL A   1      44.837  35.253  30.717  1.00  0.00     0.001 A 
ATOM     76  C   UNL A   1      44.840  35.493  32.090  1.00  0.00     0.000 A 
ENDBRANCH  58  71
ENDBRANCH  32  33
ENDBRANCH  25  27
ENDBRANCH  24  25
ENDBRANCH  23  24
ENDBRANCH  22  23
ENDBRANCH  21  22
ENDBRANCH  20  21
ENDBRANCH   1  20
TORSDOF 21
ENDMDL
MODEL 2
REMARK VINA RESULT:      -8.2      1.101      2.355
REMARK SMILES C#CC[N@H+](CC(=O)OCCOCCOC(=O)c1ccc(-c2c3nc(c(-c4ccccc4)c4ccc([nH]4)c(-c4ccccc4)c4nc(c(-c5ccccc5)c5ccc2[nH]5)C=C4)C=C3)cc1)[C@H](C)C(=O)NCCC
REMARK SMILES IDX 9 1 8 2 6 3 7 4 5 5 4 6 3 8 2 9 1 10 65 11 66 12 67 13 68 14
REMARK SMILES IDX 69 15 70 17 71 18 72 19 10 20 11 21 12 22 13 23 14 24 15 25
REMARK SMILES IDX 16 26 17 27 18 28 64 29 19 30 63 31 20 32 21 33 22 34 57 35
REMARK SMILES IDX 23 36 62 37 56 38 58 39 24 40 61 41 55 42 54 43 25 45 47 46
REMARK SMILES IDX 32 47 46 48 33 49 36 50 45 51 59 52 34 53 35 54 44 56 60 57
REMARK SMILES IDX 37 58 26 59 27 60 31 61 28 62 30 63 29 64 48 65 49 66 53 67
REMARK SMILES IDX 50 68 52 69 51 70 38 71 39 72 43 73 40 74 42 75 41 76
REMARK H PARENT 4 7 69 16 58 44 36 55
REMARK Flexibility Score: inf
ROOT
ATOM      1  C   UNL A   1      37.043  23.448  25.839  1.00  0.00     0.261 C 
ENDROOT
BRANCH   1   2
ATOM      2  O   UNL A   1      37.177  23.738  24.437  1.00  0.00    -0.459 OA
BRANCH   2   3
ATOM      3  C   UNL A   1      36.400  23.002  23.599  1.00  0.00     0.361 C 
ATOM      4  O   UNL A   1      36.547  22.954  22.384  1.00  0.00    -0.245 OA
BRANCH   3   5
ATOM      5  C   UNL A   1      35.254  22.315  24.332  1.00  0.00     0.387 C 
BRANCH   5   6
ATOM      6  N   UNL A   1      33.898  22.963  24.358  1.00  0.00    -0.306 N 
ATOM      7  H   UNL A   1      34.002  23.976  24.408  1.00  0.00     0.350 HD
BRANCH   6   8
ATOM      8  C   UNL A   1      33.151  22.855  23.103  1.00  0.00     0.355 C 
BRANCH   8   9
ATOM      9  C   UNL A   1      32.466  24.099  22.690  1.00  0.00    -0.047 C 
ATOM     10  C   UNL A   1      31.911  25.125  22.407  1.00  0.00     0.010 C 
ENDBRANCH   8   9
ENDBRANCH   6   8
BRANCH   6  11
ATOM     11  C   UNL A   1      33.185  22.544  25.623  1.00  0.00     0.272 C 
ATOM     12  C   UNL A   1      32.753  23.640  26.615  1.00  0.00     0.086 C 
BRANCH  11  13
ATOM     13  C   UNL A   1      33.731  21.319  26.391  1.00  0.00     0.278 C 
ATOM     14  O   UNL A   1      34.377  21.463  27.436  1.00  0.00    -0.268 OA
ATOM     15  N   UNL A   1      33.588  20.041  25.916  1.00  0.00    -0.351 N 
ATOM     16  H   UNL A   1      34.205  19.378  26.302  1.00  0.00     0.163 HD
BRANCH  15  17
ATOM     17  C   UNL A   1      32.660  19.521  24.929  1.00  0.00     0.116 C 
BRANCH  17  18
ATOM     18  C   UNL A   1      32.930  18.081  24.527  1.00  0.00     0.018 C 
ATOM     19  C   UNL A   1      34.414  17.808  24.338  1.00  0.00     0.006 C 
ENDBRANCH  17  18
ENDBRANCH  15  17
ENDBRANCH  11  13
ENDBRANCH   6  11
ENDBRANCH   5   6
ENDBRANCH   3   5
ENDBRANCH   2   3
ENDBRANCH   1   2
BRANCH   1  20
ATOM     20  C   UNL A   1      38.402  23.124  26.466  1.00  0.00     0.202 C 
BRANCH  20  21
ATOM     21  O   UNL A   1      39.184  22.118  25.829  1.00  0.00    -0.374 OA
BRANCH  21  22
ATOM     22  C   UNL A   1      38.581  20.839  25.619  1.00  0.00     0.202 C 
BRANCH  22  23
ATOM     23  C   UNL A   1      39.518  19.625  25.536  1.00  0.00     0.261 C 
BRANCH  23  24
ATOM     24  O   UNL A   1      40.563  19.657  26.525  1.00  0.00    -0.460 OA
BRANCH  24  25
ATOM     25  C   UNL A   1      41.820  19.813  26.052  1.00  0.00     0.338 C 
ATOM     26  O   UNL A   1      42.399  19.110  25.244  1.00  0.00    -0.246 OA
BRANCH  25  27
ATOM     27  C   UNL A   1      42.353  21.117  26.507  1.00  0.00     0.060 A 
ATOM     28  C   UNL A   1      42.305  21.396  27.879  1.00  0.00     0.016 A 
ATOM     29  C   UNL A   1      42.845  22.070  25.614  1.00  0.00     0.016 A 
ATOM     30  C   UNL A   1      42.693  22.649  28.355  1.00  0.00     0.010 A 
ATOM     31  C   UNL A   1      43.238  23.325  26.093  1.00  0.00     0.010 A 
ATOM     32  C   UNL A   1      43.123  23.637  27.461  1.00  0.00    -0.014 A 
BRANCH  32  33
ATOM     33  C   UNL A   1      43.299  25.039  27.919  1.00  0.00     0.031 A 
ATOM     34  C   UNL A   1      44.683  25.526  28.259  1.00  0.00     0.074 A 
ATOM     35  C   UNL A   1      42.251  25.877  28.028  1.00  0.00     0.049 A 
ATOM     36  N   UNL A   1      45.060  26.674  28.762  1.00  0.00    -0.248 NA
ATOM     37  C   UNL A   1      45.789  24.589  28.003  1.00  0.00     0.031 C 
ATOM     38  C   UNL A   1      40.869  25.557  27.678  1.00  0.00     0.029 A 
ATOM     39  N   UNL A   1      42.193  27.173  28.480  1.00  0.00    -0.354 N 
ATOM     40  C   UNL A   1      46.440  26.589  28.902  1.00  0.00     0.074 A 
ATOM     41  C   UNL A   1      46.830  25.268  28.461  1.00  0.00     0.031 C 
ATOM     42  C   UNL A   1      40.096  26.626  27.936  1.00  0.00     0.029 A 
ATOM     43  C   UNL A   1      40.919  27.687  28.516  1.00  0.00     0.049 A 
ATOM     44  H   UNL A   1      42.989  27.686  28.751  1.00  0.00     0.167 HD
ATOM     45  C   UNL A   1      47.307  27.526  29.355  1.00  0.00     0.031 A 
ATOM     46  C   UNL A   1      40.463  28.862  28.992  1.00  0.00     0.031 A 
ATOM     47  C   UNL A   1      46.920  28.838  29.804  1.00  0.00     0.049 A 
ATOM     48  C   UNL A   1      41.434  29.853  29.584  1.00  0.00     0.074 A 
ATOM     49  C   UNL A   1      47.728  29.864  30.261  1.00  0.00     0.029 A 
ATOM     50  N   UNL A   1      45.614  29.299  29.862  1.00  0.00    -0.354 N 
ATOM     51  N   UNL A   1      42.738  29.769  29.692  1.00  0.00    -0.248 NA
ATOM     52  C   UNL A   1      40.869  31.103  30.114  1.00  0.00     0.031 C 
ATOM     53  C   UNL A   1      46.906  30.917  30.670  1.00  0.00     0.029 A 
ATOM     54  C   UNL A   1      45.593  30.581  30.384  1.00  0.00     0.049 A 
ATOM     55  H   UNL A   1      44.820  28.792  29.574  1.00  0.00     0.167 HD
ATOM     56  C   UNL A   1      43.150  30.968  30.264  1.00  0.00     0.074 A 
ATOM     57  C   UNL A   1      41.961  31.763  30.474  1.00  0.00     0.031 C 
ATOM     58  C   UNL A   1      44.405  31.372  30.581  1.00  0.00     0.031 A 
BRANCH  45  59
ATOM     59  C   UNL A   1      48.763  27.152  29.434  1.00  0.00    -0.014 A 
ATOM     60  C   UNL A   1      49.289  26.465  30.539  1.00  0.00     0.009 A 
ATOM     61  C   UNL A   1      49.614  27.456  28.359  1.00  0.00     0.009 A 
ATOM     62  C   UNL A   1      50.643  26.125  30.581  1.00  0.00     0.001 A 
ATOM     63  C   UNL A   1      50.959  27.083  28.388  1.00  0.00     0.001 A 
ATOM     64  C   UNL A   1      51.475  26.429  29.504  1.00  0.00     0.000 A 
ENDBRANCH  45  59
BRANCH  46  65
ATOM     65  C   UNL A   1      39.006  29.162  28.965  1.00  0.00    -0.014 A 
ATOM     66  C   UNL A   1      38.408  29.724  27.827  1.00  0.00     0.009 A 
ATOM     67  C   UNL A   1      38.205  28.912  30.093  1.00  0.00     0.009 A 
ATOM     68  C   UNL A   1      37.051  30.055  27.828  1.00  0.00     0.001 A 
ATOM     69  C   UNL A   1      36.841  29.209  30.079  1.00  0.00     0.001 A 
ATOM     70  C   UNL A   1      36.268  29.792  28.952  1.00  0.00     0.000 A 
ENDBRANCH  46  65
BRANCH  58  71
ATOM     71  C   UNL A   1      44.577  32.761  31.136  1.00  0.00    -0.014 A 
ATOM     72  C   UNL A   1      44.730  33.877  30.301  1.00  0.00     0.009 A 
ATOM     73  C   UNL A   1      44.504  32.959  32.526  1.00  0.00     0.009 A 
ATOM     74  C   UNL A   1      44.831  35.160  30.847  1.00  0.00     0.001 A 
ATOM     75  C   UNL A   1      44.570  34.243  33.066  1.00  0.00     0.001 A 
ATOM     76  C   UNL A   1      44.741  35.342  32.227  1.00  0.00     0.000 A 
ENDBRANCH  58  71
ENDBRANCH  32  33
ENDBRANCH  25  27
ENDBRANCH  24  25
ENDBRANCH  23  24
ENDBRANCH  22  23
ENDBRANCH  21  22
ENDBRANCH  20  21
ENDBRANCH   1  20
TORSDOF 21
ENDMDL
MODEL 3
REMARK VINA RESULT:      -8.0      5.704     10.438
REMARK SMILES C#CC[N@H+](CC(=O)OCCOCCOC(=O)c1ccc(-c2c3nc(c(-c4ccccc4)c4ccc([nH]4)c(-c4ccccc4)c4nc(c(-c5ccccc5)c5ccc2[nH]5)C=C4)C=C3)cc1)[C@H](C)C(=O)NCCC
REMARK SMILES IDX 9 1 8 2 6 3 7 4 5 5 4 6 3 8 2 9 1 10 65 11 66 12 67 13 68 14
REMARK SMILES IDX 69 15 70 17 71 18 72 19 10 20 11 21 12 22 13 23 14 24 15 25
REMARK SMILES IDX 16 26 17 27 18 28 64 29 19 30 63 31 20 32 21 33 22 34 57 35
REMARK SMILES IDX 23 36 62 37 56 38 58 39 24 40 61 41 55 42 54 43 25 45 47 46
REMARK SMILES IDX 32 47 46 48 33 49 36 50 45 51 59 52 34 53 35 54 44 56 60 57
REMARK SMILES IDX 37 58 26 59 27 60 31 61 28 62 30 63 29 64 48 65 49 66 53 67
REMARK SMILES IDX 50 68 52 69 51 70 38 71 39 72 43 73 40 74 42 75 41 76
REMARK H PARENT 4 7 69 16 58 44 36 55
REMARK Flexibility Score: inf
ROOT
ATOM      1  C   UNL A   1      33.175  31.658  27.238  1.00  0.00     0.261 C 
ENDROOT
BRANCH   1   2
ATOM      2  O   UNL A   1      33.154  30.251  27.528  1.00  0.00    -0.459 OA
BRANCH   2   3
ATOM      3  C   UNL A   1      32.072  29.565  27.072  1.00  0.00     0.361 C 
ATOM      4  O   UNL A   1      31.607  28.569  27.613  1.00  0.00    -0.245 OA
BRANCH   3   5
ATOM      5  C   UNL A   1      31.556  30.117  25.749  1.00  0.00     0.387 C 
BRANCH   5   6
ATOM      6  N   UNL A   1      31.928  29.430  24.465  1.00  0.00    -0.306 N 
ATOM      7  H   UNL A   1      32.157  30.127  23.756  1.00  0.00     0.350 HD
BRANCH   6   8
ATOM      8  C   UNL A   1      33.198  28.703  24.513  1.00  0.00     0.355 C 
BRANCH   8   9
ATOM      9  C   UNL A   1      33.805  28.443  23.189  1.00  0.00    -0.047 C 
ATOM     10  C   UNL A   1      34.249  28.207  22.100  1.00  0.00     0.010 C 
ENDBRANCH   8   9
ENDBRANCH   6   8
BRANCH   6  11
ATOM     11  C   UNL A   1      30.722  28.678  23.950  1.00  0.00     0.272 C 
ATOM     12  C   UNL A   1      30.441  27.275  24.518  1.00  0.00     0.086 C 
BRANCH  11  13
ATOM     13  C   UNL A   1      30.451  28.698  22.429  1.00  0.00     0.278 C 
ATOM     14  O   UNL A   1      30.651  27.693  21.736  1.00  0.00    -0.268 OA
ATOM     15  N   UNL A   1      30.051  29.836  21.777  1.00  0.00    -0.351 N 
ATOM     16  H   UNL A   1      30.189  29.833  20.802  1.00  0.00     0.163 HD
BRANCH  15  17
ATOM     17  C   UNL A   1      29.455  31.045  22.313  1.00  0.00     0.116 C 
BRANCH  17  18
ATOM     18  C   UNL A   1      28.073  31.349  21.760  1.00  0.00     0.018 C 
ATOM     19  C   UNL A   1      28.027  32.686  21.037  1.00  0.00     0.006 C 
ENDBRANCH  17  18
ENDBRANCH  15  17
ENDBRANCH  11  13
ENDBRANCH   6  11
ENDBRANCH   5   6
ENDBRANCH   3   5
ENDBRANCH   2   3
ENDBRANCH   1   2
BRANCH   1  20
ATOM     20  C   UNL A   1      34.294  32.362  28.011  1.00  0.00     0.202 C 
BRANCH  20  21
ATOM     21  O   UNL A   1      34.581  33.709  27.649  1.00  0.00    -0.374 OA
BRANCH  21  22
ATOM     22  C   UNL A   1      34.726  34.665  28.702  1.00  0.00     0.202 C 
BRANCH  22  23
ATOM     23  C   UNL A   1      33.469  35.440  29.128  1.00  0.00     0.261 C 
BRANCH  23  24
ATOM     24  O   UNL A   1      32.751  34.795  30.195  1.00  0.00    -0.460 OA
BRANCH  24  25
ATOM     25  C   UNL A   1      32.900  35.342  31.424  1.00  0.00     0.338 C 
ATOM     26  O   UNL A   1      32.138  36.104  31.990  1.00  0.00    -0.246 OA
BRANCH  25  27
ATOM     27  C   UNL A   1      34.053  34.708  32.102  1.00  0.00     0.060 A 
ATOM     28  C   UNL A   1      35.163  35.513  32.386  1.00  0.00     0.016 A 
ATOM     29  C   UNL A   1      34.075  33.348  32.413  1.00  0.00     0.016 A 
ATOM     30  C   UNL A   1      36.320  34.950  32.927  1.00  0.00     0.010 A 
ATOM     31  C   UNL A   1      35.234  32.784  32.959  1.00  0.00     0.010 A 
ATOM     32  C   UNL A   1      36.378  33.574  33.179  1.00  0.00    -0.014 A 
BRANCH  32  33
ATOM     33  C   UNL A   1      37.673  32.926  33.515  1.00  0.00     0.031 A 
ATOM     34  C   UNL A   1      38.248  31.912  32.561  1.00  0.00     0.074 A 
ATOM     35  C   UNL A   1      38.336  33.232  34.645  1.00  0.00     0.049 A 
ATOM     36  N   UNL A   1      39.310  31.159  32.691  1.00  0.00    -0.248 NA
ATOM     37  C   UNL A   1      37.524  31.719  31.294  1.00  0.00     0.031 C 
ATOM     38  C   UNL A   1      37.925  34.234  35.625  1.00  0.00     0.029 A 
ATOM     39  N   UNL A   1      39.500  32.714  35.160  1.00  0.00    -0.354 N 
ATOM     40  C   UNL A   1      39.370  30.389  31.536  1.00  0.00     0.074 A 
ATOM     41  C   UNL A   1      38.221  30.743  30.731  1.00  0.00     0.031 C 
ATOM     42  C   UNL A   1      38.819  34.252  36.630  1.00  0.00     0.029 A 
ATOM     43  C   UNL A   1      39.835  33.229  36.388  1.00  0.00     0.049 A 
ATOM     44  H   UNL A   1      40.042  32.037  34.693  1.00  0.00     0.167 HD
ATOM     45  C   UNL A   1      40.297  29.470  31.174  1.00  0.00     0.031 A 
ATOM     46  C   UNL A   1      40.827  32.893  37.236  1.00  0.00     0.031 A 
ATOM     47  C   UNL A   1      41.435  29.109  31.978  1.00  0.00     0.049 A 
ATOM     48  C   UNL A   1      41.792  31.798  36.858  1.00  0.00     0.074 A 
ATOM     49  C   UNL A   1      42.441  28.205  31.687  1.00  0.00     0.029 A 
ATOM     50  N   UNL A   1      41.712  29.627  33.233  1.00  0.00    -0.354 N 
ATOM     51  N   UNL A   1      41.849  31.092  35.754  1.00  0.00    -0.248 NA
ATOM     52  C   UNL A   1      42.832  31.458  37.840  1.00  0.00     0.031 C 
ATOM     53  C   UNL A   1      43.283  28.116  32.798  1.00  0.00     0.029 A 
ATOM     54  C   UNL A   1      42.852  29.031  33.745  1.00  0.00     0.049 A 
ATOM     55  H   UNL A   1      41.179  30.316  33.692  1.00  0.00     0.167 HD
ATOM     56  C   UNL A   1      42.951  30.255  35.895  1.00  0.00     0.074 A 
ATOM     57  C   UNL A   1      43.537  30.546  37.185  1.00  0.00     0.031 C 
ATOM     58  C   UNL A   1      43.436  29.333  35.027  1.00  0.00     0.031 A 
BRANCH  45  59
ATOM     59  C   UNL A   1      40.096  28.751  29.867  1.00  0.00    -0.014 A 
ATOM     60  C   UNL A   1      40.603  29.259  28.661  1.00  0.00     0.009 A 
ATOM     61  C   UNL A   1      39.423  27.519  29.852  1.00  0.00     0.009 A 
ATOM     62  C   UNL A   1      40.406  28.567  27.463  1.00  0.00     0.001 A 
ATOM     63  C   UNL A   1      39.259  26.811  28.660  1.00  0.00     0.001 A 
ATOM     64  C   UNL A   1      39.741  27.342  27.465  1.00  0.00     0.000 A 
ENDBRANCH  45  59
BRANCH  46  65
ATOM     65  C   UNL A   1      40.945  33.577  38.553  1.00  0.00    -0.014 A 
ATOM     66  C   UNL A   1      41.761  34.708  38.706  1.00  0.00     0.009 A 
ATOM     67  C   UNL A   1      40.260  33.083  39.677  1.00  0.00     0.009 A 
ATOM     68  C   UNL A   1      41.911  35.311  39.958  1.00  0.00     0.001 A 
ATOM     69  C   UNL A   1      40.382  33.709  40.918  1.00  0.00     0.001 A 
ATOM     70  C   UNL A   1      41.217  34.815  41.061  1.00  0.00     0.000 A 
ENDBRANCH  46  65
BRANCH  58  71
ATOM     71  C   UNL A   1      44.697  28.603  35.407  1.00  0.00    -0.014 A 
ATOM     72  C   UNL A   1      45.967  29.124  35.119  1.00  0.00     0.009 A 
ATOM     73  C   UNL A   1      44.604  27.407  36.139  1.00  0.00     0.009 A 
ATOM     74  C   UNL A   1      47.118  28.449  35.536  1.00  0.00     0.001 A 
ATOM     75  C   UNL A   1      45.753  26.754  36.585  1.00  0.00     0.001 A 
ATOM     76  C   UNL A   1      47.010  27.271  36.276  1.00  0.00     0.000 A 
ENDBRANCH  58  71
ENDBRANCH  32  33
ENDBRANCH  25  27
ENDBRANCH  24  25
ENDBRANCH  23  24
ENDBRANCH  22  23
ENDBRANCH  21  22
ENDBRANCH  20  21
ENDBRANCH   1  20
TORSDOF 21
ENDMDL
