MODEL 1
REMARK VINA RESULT:     -11.3      0.000      0.000
REMARK SMILES COc1ccc(-c2cc(Cl)cc3c2O[C@@H](C(F)(F)F)C(C(=O)OCCOCCOC(=O)c2ccc(-c4c5nc(c(-c6ccccc6)c6ccc([nH]6)c(-c6ccccc6)c6nc(c(-c7ccccc7)c7ccc4[nH]7)C=C6)C=C5)cc2)=C3)cc1C
REMARK SMILES IDX 26 1 25 2 24 3 23 4 21 5 22 6 20 7 7 8 8 9 13 10 9 11 12 12
REMARK SMILES IDX 14 13 10 14 11 15 80 16 15 17 6 18 3 19 4 20 82 21 5 22
REMARK SMILES IDX 81 23 83 24 2 25 1 26 16 27 17 28 18 29 19 30 27 31 28 32
REMARK SMILES IDX 29 33 30 34 31 35 32 36 33 37 79 38 34 39 78 40 35 41 36 42
REMARK SMILES IDX 37 43 72 44 38 45 77 46 71 47 73 48 39 49 76 50 70 51 69 52
REMARK SMILES IDX 40 54 62 55 47 56 61 57 48 58 51 59 60 60 74 61 49 62 50 63
REMARK SMILES IDX 59 65 75 66 52 67 41 68 42 69 46 70 43 71 45 72 44 73 63 74
REMARK SMILES IDX 64 75 68 76 65 77 67 78 66 79 53 80 54 81 58 82 55 83 57 84
REMARK SMILES IDX 56 85
REMARK H PARENT 73 53 51 64
REMARK Flexibility Score: inf
ROOT
ATOM      1  O   UNL A   1      33.954  28.922  26.581  1.00  0.00    -0.374 OA
ENDROOT
BRANCH   1   2
ATOM      2  C   UNL A   1      33.271  27.684  26.541  1.00  0.00     0.202 C 
BRANCH   2   3
ATOM      3  C   UNL A   1      33.950  26.761  25.570  1.00  0.00     0.261 C 
BRANCH   3   4
ATOM      4  O   UNL A   1      34.676  25.632  26.105  1.00  0.00    -0.460 OA
BRANCH   4   5
ATOM      5  C   UNL A   1      35.011  24.574  25.293  1.00  0.00     0.338 C 
ATOM      6  O   UNL A   1      35.527  24.617  24.197  1.00  0.00    -0.246 OA
BRANCH   5   7
ATOM      7  C   UNL A   1      34.941  23.310  26.148  1.00  0.00     0.087 C 
ATOM      8  C   UNL A   1      31.267  23.737  24.636  1.00  0.00     0.026 A 
ATOM      9  C   UNL A   1      30.147  23.406  25.442  1.00  0.00     0.033 A 
ATOM     10  C   UNL A   1      32.502  23.200  25.080  1.00  0.00     0.135 A 
ATOM     11  C   UNL A   1      30.280  22.823  26.701  1.00  0.00     0.042 A 
ATOM     12  C   UNL A   1      32.645  22.978  26.479  1.00  0.00     0.019 A 
ATOM     13  O   UNL A   1      33.601  22.767  24.258  1.00  0.00    -0.475 OA
ATOM     14  Cl  UNL A   1      28.879  22.459  27.626  1.00  0.00    -0.084 Cl
ATOM     15  C   UNL A   1      31.536  22.686  27.263  1.00  0.00     0.032 A 
ATOM     16  C   UNL A   1      33.997  23.132  27.094  1.00  0.00     0.027 C 
ATOM     17  C   UNL A   1      34.744  22.233  25.099  1.00  0.00     0.316 C 
BRANCH   8  18
ATOM     18  C   UNL A   1      30.991  24.969  23.790  1.00  0.00    -0.014 A 
ATOM     19  C   UNL A   1      30.873  27.584  22.545  1.00  0.00     0.121 A 
ATOM     20  C   UNL A   1      29.848  27.106  23.363  1.00  0.00     0.047 A 
ATOM     21  C   UNL A   1      32.037  26.831  22.446  1.00  0.00    -0.008 A 
ATOM     22  C   UNL A   1      29.916  25.831  23.991  1.00  0.00     0.013 A 
ATOM     23  C   UNL A   1      32.046  25.509  22.981  1.00  0.00     0.016 A 
ATOM     24  C   UNL A   1      33.320  27.475  21.994  1.00  0.00     0.048 C 
BRANCH  19  25
ATOM     25  O   UNL A   1      30.751  28.858  22.047  1.00  0.00    -0.496 OA
ATOM     26  C   UNL A   1      29.483  29.468  22.310  1.00  0.00     0.278 C 
ENDBRANCH  19  25
ENDBRANCH   8  18
BRANCH  17  27
ATOM     27  C   UNL A   1      36.178  21.794  24.622  1.00  0.00     0.430 C 
ATOM     28  F   UNL A   1      37.152  22.212  25.487  1.00  0.00    -0.167 F 
ATOM     29  F   UNL A   1      36.280  20.438  24.627  1.00  0.00    -0.167 F 
ATOM     30  F   UNL A   1      36.561  22.188  23.402  1.00  0.00    -0.167 F 
ENDBRANCH  17  27
ENDBRANCH   5   7
ENDBRANCH   4   5
ENDBRANCH   3   4
ENDBRANCH   2   3
ENDBRANCH   1   2
BRANCH   1  31
ATOM     31  C   UNL A   1      33.075  30.028  26.744  1.00  0.00     0.202 C 
BRANCH  31  32
ATOM     32  C   UNL A   1      33.662  31.146  27.625  1.00  0.00     0.261 C 
BRANCH  32  33
ATOM     33  O   UNL A   1      35.086  31.239  27.396  1.00  0.00    -0.460 OA
BRANCH  33  34
ATOM     34  C   UNL A   1      35.881  31.346  28.501  1.00  0.00     0.338 C 
ATOM     35  O   UNL A   1      36.112  32.382  29.105  1.00  0.00    -0.246 OA
BRANCH  34  36
ATOM     36  C   UNL A   1      36.670  30.085  28.693  1.00  0.00     0.060 A 
ATOM     37  C   UNL A   1      36.694  29.413  29.923  1.00  0.00     0.016 A 
ATOM     38  C   UNL A   1      37.632  29.760  27.751  1.00  0.00     0.016 A 
ATOM     39  C   UNL A   1      37.778  28.571  30.258  1.00  0.00     0.010 A 
ATOM     40  C   UNL A   1      38.712  28.964  28.091  1.00  0.00     0.010 A 
ATOM     41  C   UNL A   1      38.847  28.424  29.376  1.00  0.00    -0.014 A 
BRANCH  41  42
ATOM     42  C   UNL A   1      40.204  27.916  29.689  1.00  0.00     0.031 A 
ATOM     43  C   UNL A   1      40.648  26.644  29.076  1.00  0.00     0.074 A 
ATOM     44  C   UNL A   1      41.154  28.728  30.225  1.00  0.00     0.049 A 
ATOM     45  N   UNL A   1      41.822  26.148  29.222  1.00  0.00    -0.248 NA
ATOM     46  C   UNL A   1      39.798  25.790  28.255  1.00  0.00     0.031 C 
ATOM     47  C   UNL A   1      42.623  28.637  30.161  1.00  0.00     0.029 A 
ATOM     48  N   UNL A   1      40.990  29.914  30.931  1.00  0.00    -0.354 N 
ATOM     49  C   UNL A   1      41.995  25.138  28.313  1.00  0.00     0.074 A 
ATOM     50  C   UNL A   1      40.674  24.885  27.804  1.00  0.00     0.031 C 
ATOM     51  C   UNL A   1      43.185  29.510  31.020  1.00  0.00     0.029 A 
ATOM     52  C   UNL A   1      42.099  30.118  31.763  1.00  0.00     0.049 A 
ATOM     53  H   UNL A   1      40.215  30.516  30.859  1.00  0.00     0.167 HD
ATOM     54  C   UNL A   1      43.269  24.720  28.067  1.00  0.00     0.031 A 
ATOM     55  C   UNL A   1      41.898  30.160  33.102  1.00  0.00     0.031 A 
ATOM     56  C   UNL A   1      44.187  25.283  29.075  1.00  0.00     0.049 A 
ATOM     57  C   UNL A   1      42.514  28.879  33.600  1.00  0.00     0.074 A 
ATOM     58  C   UNL A   1      45.181  26.247  29.064  1.00  0.00     0.029 A 
ATOM     59  N   UNL A   1      43.866  25.085  30.423  1.00  0.00    -0.354 N 
ATOM     60  N   UNL A   1      42.578  27.784  32.879  1.00  0.00    -0.248 NA
ATOM     61  C   UNL A   1      43.359  28.831  34.787  1.00  0.00     0.031 C 
ATOM     62  C   UNL A   1      45.342  26.715  30.413  1.00  0.00     0.029 A 
ATOM     63  C   UNL A   1      44.462  26.027  31.242  1.00  0.00     0.049 A 
ATOM     64  H   UNL A   1      43.284  24.360  30.750  1.00  0.00     0.167 HD
ATOM     65  C   UNL A   1      43.612  27.028  33.342  1.00  0.00     0.074 A 
ATOM     66  C   UNL A   1      44.005  27.669  34.591  1.00  0.00     0.031 C 
ATOM     67  C   UNL A   1      44.225  25.999  32.688  1.00  0.00     0.031 A 
BRANCH  54  68
ATOM     68  C   UNL A   1      43.702  23.930  26.848  1.00  0.00    -0.014 A 
ATOM     69  C   UNL A   1      44.415  24.565  25.815  1.00  0.00     0.009 A 
ATOM     70  C   UNL A   1      43.384  22.577  26.614  1.00  0.00     0.009 A 
ATOM     71  C   UNL A   1      44.767  23.898  24.626  1.00  0.00     0.001 A 
ATOM     72  C   UNL A   1      43.728  21.904  25.431  1.00  0.00     0.001 A 
ATOM     73  C   UNL A   1      44.420  22.567  24.432  1.00  0.00     0.000 A 
ENDBRANCH  54  68
BRANCH  55  74
ATOM     74  C   UNL A   1      40.602  30.870  33.394  1.00  0.00    -0.014 A 
ATOM     75  C   UNL A   1      40.521  32.215  32.932  1.00  0.00     0.009 A 
ATOM     76  C   UNL A   1      39.392  30.188  33.581  1.00  0.00     0.009 A 
ATOM     77  C   UNL A   1      39.308  32.785  32.517  1.00  0.00     0.001 A 
ATOM     78  C   UNL A   1      38.171  30.779  33.190  1.00  0.00     0.001 A 
ATOM     79  C   UNL A   1      38.135  32.049  32.611  1.00  0.00     0.000 A 
ENDBRANCH  55  74
BRANCH  67  80
ATOM     80  C   UNL A   1      44.584  24.775  33.479  1.00  0.00    -0.014 A 
ATOM     81  C   UNL A   1      43.641  23.774  33.768  1.00  0.00     0.009 A 
ATOM     82  C   UNL A   1      45.932  24.495  33.767  1.00  0.00     0.009 A 
ATOM     83  C   UNL A   1      44.014  22.578  34.373  1.00  0.00     0.001 A 
ATOM     84  C   UNL A   1      46.317  23.272  34.312  1.00  0.00     0.001 A 
ATOM     85  C   UNL A   1      45.354  22.322  34.633  1.00  0.00     0.000 A 
ENDBRANCH  67  80
ENDBRANCH  41  42
ENDBRANCH  34  36
ENDBRANCH  33  34
ENDBRANCH  32  33
ENDBRANCH  31  32
ENDBRANCH   1  31
TORSDOF 17
ENDMDL
MODEL 2
REMARK VINA RESULT:     -11.3      2.681      4.705
REMARK SMILES COc1ccc(-c2cc(Cl)cc3c2O[C@@H](C(F)(F)F)C(C(=O)OCCOCCOC(=O)c2ccc(-c4c5nc(c(-c6ccccc6)c6ccc([nH]6)c(-c6ccccc6)c6nc(c(-c7ccccc7)c7ccc4[nH]7)C=C6)C=C5)cc2)=C3)cc1C
REMARK SMILES IDX 26 1 25 2 24 3 23 4 21 5 22 6 20 7 7 8 8 9 13 10 9 11 12 12
REMARK SMILES IDX 14 13 10 14 11 15 80 16 15 17 6 18 3 19 4 20 82 21 5 22
REMARK SMILES IDX 81 23 83 24 2 25 1 26 16 27 17 28 18 29 19 30 27 31 28 32
REMARK SMILES IDX 29 33 30 34 31 35 32 36 33 37 79 38 34 39 78 40 35 41 36 42
REMARK SMILES IDX 37 43 72 44 38 45 77 46 71 47 73 48 39 49 76 50 70 51 69 52
REMARK SMILES IDX 40 54 62 55 47 56 61 57 48 58 51 59 60 60 74 61 49 62 50 63
REMARK SMILES IDX 59 65 75 66 52 67 41 68 42 69 46 70 43 71 45 72 44 73 63 74
REMARK SMILES IDX 64 75 68 76 65 77 67 78 66 79 53 80 54 81 58 82 55 83 57 84
REMARK SMILES IDX 56 85
REMARK H PARENT 73 53 51 64
REMARK Flexibility Score: inf
ROOT
ATOM      1  O   UNL A   1      30.951  26.643  27.022  1.00  0.00    -0.374 OA
ENDROOT
BRANCH   1   2
ATOM      2  C   UNL A   1      30.318  25.730  26.145  1.00  0.00     0.202 C 
BRANCH   2   3
ATOM      3  C   UNL A   1      30.720  24.326  26.500  1.00  0.00     0.261 C 
BRANCH   3   4
ATOM      4  O   UNL A   1      32.082  23.925  26.235  1.00  0.00    -0.460 OA
BRANCH   4   5
ATOM      5  C   UNL A   1      32.521  23.767  24.942  1.00  0.00     0.338 C 
ATOM      6  O   UNL A   1      31.993  23.130  24.055  1.00  0.00    -0.246 OA
BRANCH   5   7
ATOM      7  C   UNL A   1      33.609  24.811  24.703  1.00  0.00     0.087 C 
ATOM      8  C   UNL A   1      35.522  21.303  24.681  1.00  0.00     0.026 A 
ATOM      9  C   UNL A   1      36.817  21.220  25.256  1.00  0.00     0.033 A 
ATOM     10  C   UNL A   1      35.087  22.618  24.376  1.00  0.00     0.135 A 
ATOM     11  C   UNL A   1      37.499  22.342  25.722  1.00  0.00     0.042 A 
ATOM     12  C   UNL A   1      35.600  23.672  25.184  1.00  0.00     0.019 A 
ATOM     13  O   UNL A   1      34.249  23.017  23.276  1.00  0.00    -0.475 OA
ATOM     14  Cl  UNL A   1      39.060  22.164  26.416  1.00  0.00    -0.084 Cl
ATOM     15  C   UNL A   1      36.856  23.565  25.767  1.00  0.00     0.032 A 
ATOM     16  C   UNL A   1      34.735  24.861  25.444  1.00  0.00     0.027 C 
ATOM     17  C   UNL A   1      34.018  24.515  23.273  1.00  0.00     0.316 C 
BRANCH   8  18
ATOM     18  C   UNL A   1      34.709  20.054  24.975  1.00  0.00    -0.014 A 
ATOM     19  C   UNL A   1      33.003  17.709  24.948  1.00  0.00     0.121 A 
ATOM     20  C   UNL A   1      32.606  18.907  25.543  1.00  0.00     0.047 A 
ATOM     21  C   UNL A   1      34.195  17.697  24.231  1.00  0.00    -0.008 A 
ATOM     22  C   UNL A   1      33.435  20.064  25.538  1.00  0.00     0.013 A 
ATOM     23  C   UNL A   1      35.066  18.821  24.333  1.00  0.00     0.016 A 
ATOM     24  C   UNL A   1      34.448  16.631  23.200  1.00  0.00     0.048 C 
BRANCH  19  25
ATOM     25  O   UNL A   1      32.103  16.672  24.936  1.00  0.00    -0.496 OA
ATOM     26  C   UNL A   1      32.483  15.562  25.754  1.00  0.00     0.278 C 
ENDBRANCH  19  25
ENDBRANCH   8  18
BRANCH  17  27
ATOM     27  C   UNL A   1      33.059  25.348  22.344  1.00  0.00     0.430 C 
ATOM     28  F   UNL A   1      32.281  24.540  21.561  1.00  0.00    -0.167 F 
ATOM     29  F   UNL A   1      32.169  26.049  23.095  1.00  0.00    -0.167 F 
ATOM     30  F   UNL A   1      33.629  26.237  21.521  1.00  0.00    -0.167 F 
ENDBRANCH  17  27
ENDBRANCH   5   7
ENDBRANCH   4   5
ENDBRANCH   3   4
ENDBRANCH   2   3
ENDBRANCH   1   2
BRANCH   1  31
ATOM     31  C   UNL A   1      31.681  27.649  26.331  1.00  0.00     0.202 C 
BRANCH  31  32
ATOM     32  C   UNL A   1      31.885  28.929  27.160  1.00  0.00     0.261 C 
BRANCH  32  33
ATOM     33  O   UNL A   1      33.196  28.902  27.769  1.00  0.00    -0.460 OA
BRANCH  33  34
ATOM     34  C   UNL A   1      34.252  29.240  26.972  1.00  0.00     0.338 C 
ATOM     35  O   UNL A   1      34.371  28.936  25.795  1.00  0.00    -0.246 OA
BRANCH  34  36
ATOM     36  C   UNL A   1      35.379  29.769  27.806  1.00  0.00     0.060 A 
ATOM     37  C   UNL A   1      36.476  30.425  27.229  1.00  0.00     0.016 A 
ATOM     38  C   UNL A   1      35.496  29.327  29.114  1.00  0.00     0.016 A 
ATOM     39  C   UNL A   1      37.721  30.463  27.898  1.00  0.00     0.010 A 
ATOM     40  C   UNL A   1      36.724  29.331  29.754  1.00  0.00     0.010 A 
ATOM     41  C   UNL A   1      37.874  29.822  29.126  1.00  0.00    -0.014 A 
BRANCH  41  42
ATOM     42  C   UNL A   1      39.145  29.430  29.779  1.00  0.00     0.031 A 
ATOM     43  C   UNL A   1      39.899  28.276  29.238  1.00  0.00     0.074 A 
ATOM     44  C   UNL A   1      39.801  30.281  30.613  1.00  0.00     0.049 A 
ATOM     45  N   UNL A   1      41.040  27.893  29.679  1.00  0.00    -0.248 NA
ATOM     46  C   UNL A   1      39.422  27.421  28.156  1.00  0.00     0.031 C 
ATOM     47  C   UNL A   1      41.230  30.350  30.963  1.00  0.00     0.029 A 
ATOM     48  N   UNL A   1      39.301  31.369  31.317  1.00  0.00    -0.354 N 
ATOM     49  C   UNL A   1      41.583  26.998  28.795  1.00  0.00     0.074 A 
ATOM     50  C   UNL A   1      40.497  26.661  27.916  1.00  0.00     0.031 C 
ATOM     51  C   UNL A   1      41.419  31.189  32.000  1.00  0.00     0.029 A 
ATOM     52  C   UNL A   1      40.103  31.606  32.441  1.00  0.00     0.049 A 
ATOM     53  H   UNL A   1      38.505  31.892  31.066  1.00  0.00     0.167 HD
ATOM     54  C   UNL A   1      42.918  26.741  28.896  1.00  0.00     0.031 A 
ATOM     55  C   UNL A   1      39.537  31.498  33.668  1.00  0.00     0.031 A 
ATOM     56  C   UNL A   1      43.445  27.296  30.156  1.00  0.00     0.049 A 
ATOM     57  C   UNL A   1      40.150  30.246  34.238  1.00  0.00     0.074 A 
ATOM     58  C   UNL A   1      44.273  28.355  30.489  1.00  0.00     0.029 A 
ATOM     59  N   UNL A   1      42.793  26.937  31.342  1.00  0.00    -0.354 N 
ATOM     60  N   UNL A   1      40.548  29.238  33.496  1.00  0.00    -0.248 NA
ATOM     61  C   UNL A   1      40.635  30.171  35.611  1.00  0.00     0.031 C 
ATOM     62  C   UNL A   1      43.996  28.705  31.855  1.00  0.00     0.029 A 
ATOM     63  C   UNL A   1      43.017  27.852  32.355  1.00  0.00     0.049 A 
ATOM     64  H   UNL A   1      42.241  26.127  31.443  1.00  0.00     0.167 HD
ATOM     65  C   UNL A   1      41.503  28.552  34.185  1.00  0.00     0.074 A 
ATOM     66  C   UNL A   1      41.453  29.106  35.533  1.00  0.00     0.031 C 
ATOM     67  C   UNL A   1      42.397  27.661  33.669  1.00  0.00     0.031 A 
BRANCH  54  68
ATOM     68  C   UNL A   1      43.766  26.121  27.802  1.00  0.00    -0.014 A 
ATOM     69  C   UNL A   1      44.770  25.193  28.132  1.00  0.00     0.009 A 
ATOM     70  C   UNL A   1      43.682  26.455  26.436  1.00  0.00     0.009 A 
ATOM     71  C   UNL A   1      45.640  24.653  27.165  1.00  0.00     0.001 A 
ATOM     72  C   UNL A   1      44.546  25.924  25.465  1.00  0.00     0.001 A 
ATOM     73  C   UNL A   1      45.530  25.021  25.831  1.00  0.00     0.000 A 
ENDBRANCH  54  68
BRANCH  55  74
ATOM     74  C   UNL A   1      38.132  32.038  33.624  1.00  0.00    -0.014 A 
ATOM     75  C   UNL A   1      38.022  33.453  33.502  1.00  0.00     0.009 A 
ATOM     76  C   UNL A   1      37.042  31.275  33.182  1.00  0.00     0.009 A 
ATOM     77  C   UNL A   1      36.955  34.057  32.820  1.00  0.00     0.001 A 
ATOM     78  C   UNL A   1      35.958  31.892  32.524  1.00  0.00     0.001 A 
ATOM     79  C   UNL A   1      35.939  33.270  32.296  1.00  0.00     0.000 A 
ENDBRANCH  55  74
BRANCH  67  80
ATOM     80  C   UNL A   1      42.677  26.410  34.450  1.00  0.00    -0.014 A 
ATOM     81  C   UNL A   1      41.664  25.721  35.139  1.00  0.00     0.009 A 
ATOM     82  C   UNL A   1      43.926  25.773  34.333  1.00  0.00     0.009 A 
ATOM     83  C   UNL A   1      41.902  24.488  35.737  1.00  0.00     0.001 A 
ATOM     84  C   UNL A   1      44.147  24.509  34.874  1.00  0.00     0.001 A 
ATOM     85  C   UNL A   1      43.140  23.876  35.594  1.00  0.00     0.000 A 
ENDBRANCH  67  80
ENDBRANCH  41  42
ENDBRANCH  34  36
ENDBRANCH  33  34
ENDBRANCH  32  33
ENDBRANCH  31  32
ENDBRANCH   1  31
TORSDOF 17
ENDMDL
MODEL 3
REMARK VINA RESULT:     -11.2      2.456      4.492
REMARK SMILES COc1ccc(-c2cc(Cl)cc3c2O[C@@H](C(F)(F)F)C(C(=O)OCCOCCOC(=O)c2ccc(-c4c5nc(c(-c6ccccc6)c6ccc([nH]6)c(-c6ccccc6)c6nc(c(-c7ccccc7)c7ccc4[nH]7)C=C6)C=C5)cc2)=C3)cc1C
REMARK SMILES IDX 26 1 25 2 24 3 23 4 21 5 22 6 20 7 7 8 8 9 13 10 9 11 12 12
REMARK SMILES IDX 14 13 10 14 11 15 80 16 15 17 6 18 3 19 4 20 82 21 5 22
REMARK SMILES IDX 81 23 83 24 2 25 1 26 16 27 17 28 18 29 19 30 27 31 28 32
REMARK SMILES IDX 29 33 30 34 31 35 32 36 33 37 79 38 34 39 78 40 35 41 36 42
REMARK SMILES IDX 37 43 72 44 38 45 77 46 71 47 73 48 39 49 76 50 70 51 69 52
REMARK SMILES IDX 40 54 62 55 47 56 61 57 48 58 51 59 60 60 74 61 49 62 50 63
REMARK SMILES IDX 59 65 75 66 52 67 41 68 42 69 46 70 43 71 45 72 44 73 63 74
REMARK SMILES IDX 64 75 68 76 65 77 67 78 66 79 53 80 54 81 58 82 55 83 57 84
REMARK SMILES IDX 56 85
REMARK H PARENT 73 53 51 64
REMARK Flexibility Score: inf
ROOT
ATOM      1  O   UNL A   1      33.675  28.027  23.724  1.00  0.00    -0.374 OA
ENDROOT
BRANCH   1   2
ATOM      2  C   UNL A   1      33.843  27.683  22.362  1.00  0.00     0.202 C 
BRANCH   2   3
ATOM      3  C   UNL A   1      33.300  26.304  22.118  1.00  0.00     0.261 C 
BRANCH   3   4
ATOM      4  O   UNL A   1      34.028  25.184  22.668  1.00  0.00    -0.460 OA
BRANCH   4   5
ATOM      5  C   UNL A   1      33.565  24.539  23.792  1.00  0.00     0.338 C 
ATOM      6  O   UNL A   1      34.035  24.572  24.909  1.00  0.00    -0.246 OA
BRANCH   5   7
ATOM      7  C   UNL A   1      32.154  24.046  23.480  1.00  0.00     0.087 C 
ATOM      8  C   UNL A   1      34.020  20.893  25.074  1.00  0.00     0.026 A 
ATOM      9  C   UNL A   1      33.746  19.599  24.562  1.00  0.00     0.033 A 
ATOM     10  C   UNL A   1      33.059  21.882  24.744  1.00  0.00     0.135 A 
ATOM     11  C   UNL A   1      32.760  19.368  23.604  1.00  0.00     0.042 A 
ATOM     12  C   UNL A   1      32.349  21.711  23.521  1.00  0.00     0.019 A 
ATOM     13  O   UNL A   1      32.654  22.998  25.557  1.00  0.00    -0.475 OA
ATOM     14  Cl  UNL A   1      32.491  17.775  23.023  1.00  0.00    -0.084 Cl
ATOM     15  C   UNL A   1      32.115  20.439  23.015  1.00  0.00     0.032 A 
ATOM     16  C   UNL A   1      31.923  22.926  22.765  1.00  0.00     0.027 C 
ATOM     17  C   UNL A   1      31.586  23.825  24.868  1.00  0.00     0.316 C 
BRANCH   8  18
ATOM     18  C   UNL A   1      35.491  21.046  25.423  1.00  0.00    -0.014 A 
ATOM     19  C   UNL A   1      38.290  21.767  25.653  1.00  0.00     0.121 A 
ATOM     20  C   UNL A   1      37.878  20.576  25.052  1.00  0.00     0.047 A 
ATOM     21  C   UNL A   1      37.314  22.686  26.022  1.00  0.00    -0.008 A 
ATOM     22  C   UNL A   1      36.504  20.233  24.921  1.00  0.00     0.013 A 
ATOM     23  C   UNL A   1      35.947  22.282  25.994  1.00  0.00     0.016 A 
ATOM     24  C   UNL A   1      37.674  24.133  26.223  1.00  0.00     0.048 C 
BRANCH  19  25
ATOM     25  O   UNL A   1      39.635  22.045  25.663  1.00  0.00    -0.496 OA
ATOM     26  C   UNL A   1      40.373  21.317  26.649  1.00  0.00     0.278 C 
ENDBRANCH  19  25
ENDBRANCH   8  18
BRANCH  17  27
ATOM     27  C   UNL A   1      30.970  25.197  25.332  1.00  0.00     0.430 C 
ATOM     28  F   UNL A   1      30.482  25.919  24.278  1.00  0.00    -0.167 F 
ATOM     29  F   UNL A   1      29.886  24.981  26.125  1.00  0.00    -0.167 F 
ATOM     30  F   UNL A   1      31.770  26.022  26.018  1.00  0.00    -0.167 F 
ENDBRANCH  17  27
ENDBRANCH   5   7
ENDBRANCH   4   5
ENDBRANCH   3   4
ENDBRANCH   2   3
ENDBRANCH   1   2
BRANCH   1  31
ATOM     31  C   UNL A   1      32.545  28.861  23.943  1.00  0.00     0.202 C 
BRANCH  31  32
ATOM     32  C   UNL A   1      32.594  29.612  25.286  1.00  0.00     0.261 C 
BRANCH  32  33
ATOM     33  O   UNL A   1      33.924  29.508  25.845  1.00  0.00    -0.460 OA
BRANCH  33  34
ATOM     34  C   UNL A   1      34.018  29.040  27.124  1.00  0.00     0.338 C 
ATOM     35  O   UNL A   1      33.141  28.435  27.720  1.00  0.00    -0.246 OA
BRANCH  34  36
ATOM     36  C   UNL A   1      35.220  29.630  27.801  1.00  0.00     0.060 A 
ATOM     37  C   UNL A   1      36.324  30.089  27.070  1.00  0.00     0.016 A 
ATOM     38  C   UNL A   1      35.376  29.425  29.162  1.00  0.00     0.016 A 
ATOM     39  C   UNL A   1      37.602  30.158  27.669  1.00  0.00     0.010 A 
ATOM     40  C   UNL A   1      36.634  29.457  29.741  1.00  0.00     0.010 A 
ATOM     41  C   UNL A   1      37.779  29.741  28.987  1.00  0.00    -0.014 A 
BRANCH  41  42
ATOM     42  C   UNL A   1      39.055  29.383  29.650  1.00  0.00     0.031 A 
ATOM     43  C   UNL A   1      39.799  28.196  29.172  1.00  0.00     0.074 A 
ATOM     44  C   UNL A   1      39.722  30.280  30.426  1.00  0.00     0.049 A 
ATOM     45  N   UNL A   1      40.944  27.836  29.624  1.00  0.00    -0.248 NA
ATOM     46  C   UNL A   1      39.309  27.281  28.148  1.00  0.00     0.031 C 
ATOM     47  C   UNL A   1      41.154  30.364  30.758  1.00  0.00     0.029 A 
ATOM     48  N   UNL A   1      39.232  31.410  31.069  1.00  0.00    -0.354 N 
ATOM     49  C   UNL A   1      41.475  26.888  28.790  1.00  0.00     0.074 A 
ATOM     50  C   UNL A   1      40.379  26.503  27.943  1.00  0.00     0.031 C 
ATOM     51  C   UNL A   1      41.356  31.263  31.742  1.00  0.00     0.029 A 
ATOM     52  C   UNL A   1      40.045  31.711  32.169  1.00  0.00     0.049 A 
ATOM     53  H   UNL A   1      38.435  31.921  30.795  1.00  0.00     0.167 HD
ATOM     54  C   UNL A   1      42.809  26.632  28.893  1.00  0.00     0.031 A 
ATOM     55  C   UNL A   1      39.492  31.677  33.405  1.00  0.00     0.031 A 
ATOM     56  C   UNL A   1      43.351  27.259  30.113  1.00  0.00     0.049 A 
ATOM     57  C   UNL A   1      40.106  30.459  34.043  1.00  0.00     0.074 A 
ATOM     58  C   UNL A   1      44.186  28.332  30.375  1.00  0.00     0.029 A 
ATOM     59  N   UNL A   1      42.709  26.974  31.325  1.00  0.00    -0.354 N 
ATOM     60  N   UNL A   1      40.493  29.408  33.359  1.00  0.00    -0.248 NA
ATOM     61  C   UNL A   1      40.604  30.464  35.414  1.00  0.00     0.031 C 
ATOM     62  C   UNL A   1      43.923  28.765  31.720  1.00  0.00     0.029 A 
ATOM     63  C   UNL A   1      42.946  27.947  32.279  1.00  0.00     0.049 A 
ATOM     64  H   UNL A   1      42.155  26.174  31.479  1.00  0.00     0.167 HD
ATOM     65  C   UNL A   1      41.452  28.760  34.079  1.00  0.00     0.074 A 
ATOM     66  C   UNL A   1      41.417  29.394  35.392  1.00  0.00     0.031 C 
ATOM     67  C   UNL A   1      42.339  27.836  33.608  1.00  0.00     0.031 A 
BRANCH  54  68
ATOM     68  C   UNL A   1      43.645  25.945  27.831  1.00  0.00    -0.014 A 
ATOM     69  C   UNL A   1      43.801  26.540  26.565  1.00  0.00     0.009 A 
ATOM     70  C   UNL A   1      44.248  24.681  27.978  1.00  0.00     0.009 A 
ATOM     71  C   UNL A   1      44.496  25.905  25.518  1.00  0.00     0.001 A 
ATOM     72  C   UNL A   1      44.941  24.038  26.939  1.00  0.00     0.001 A 
ATOM     73  C   UNL A   1      45.063  24.651  25.704  1.00  0.00     0.000 A 
ENDBRANCH  54  68
BRANCH  55  74
ATOM     74  C   UNL A   1      38.088  32.219  33.343  1.00  0.00    -0.014 A 
ATOM     75  C   UNL A   1      37.978  33.604  33.024  1.00  0.00     0.009 A 
ATOM     76  C   UNL A   1      36.978  31.412  33.060  1.00  0.00     0.009 A 
ATOM     77  C   UNL A   1      36.886  34.115  32.308  1.00  0.00     0.001 A 
ATOM     78  C   UNL A   1      35.869  31.940  32.366  1.00  0.00     0.001 A 
ATOM     79  C   UNL A   1      35.845  33.271  31.944  1.00  0.00     0.000 A 
ENDBRANCH  55  74
BRANCH  67  80
ATOM     80  C   UNL A   1      42.622  26.633  34.459  1.00  0.00    -0.014 A 
ATOM     81  C   UNL A   1      41.602  25.951  35.146  1.00  0.00     0.009 A 
ATOM     82  C   UNL A   1      43.890  26.026  34.418  1.00  0.00     0.009 A 
ATOM     83  C   UNL A   1      41.849  24.755  35.812  1.00  0.00     0.001 A 
ATOM     84  C   UNL A   1      44.124  24.796  35.029  1.00  0.00     0.001 A 
ATOM     85  C   UNL A   1      43.107  24.171  35.743  1.00  0.00     0.000 A 
ENDBRANCH  67  80
ENDBRANCH  41  42
ENDBRANCH  34  36
ENDBRANCH  33  34
ENDBRANCH  32  33
ENDBRANCH  31  32
ENDBRANCH   1  31
TORSDOF 17
ENDMDL
