MODEL 1
REMARK VINA RESULT:     -10.8      0.000      0.000
REMARK SMILES Cc1cc(C)c(C(N)=O)c(N[C@H]2C=C[C@H](C(=O)OCCOCCOC(=O)c3ccc(-c4c5nc(c(-c6ccccc6)c6ccc([nH]6)c(-c6ccccc6)c6nc(c(-c7ccccc7)c7ccc4[nH]7)C=C6)C=C5)cc3)C2)n1
REMARK SMILES IDX 20 1 19 2 18 3 16 4 17 5 15 6 12 7 13 8 75 9 14 10 11 11
REMARK SMILES IDX 10 13 1 14 2 15 3 16 76 17 4 18 5 19 6 20 7 21 8 22 9 23
REMARK SMILES IDX 21 26 22 27 23 28 24 29 25 30 26 31 27 32 28 33 74 34 29 35
REMARK SMILES IDX 73 36 30 37 31 38 32 39 67 40 33 41 72 42 66 43 68 44 34 45
REMARK SMILES IDX 71 46 65 47 64 48 35 50 57 51 42 52 56 53 43 54 46 55 55 56
REMARK SMILES IDX 69 57 44 58 45 59 54 61 70 62 47 63 36 64 37 65 41 66 38 67
REMARK SMILES IDX 40 68 39 69 58 70 59 71 63 72 60 73 62 74 61 75 48 76 49 77
REMARK SMILES IDX 53 78 50 79 52 80 51 81
REMARK H PARENT 11 12 8 24 8 25 68 49 46 60
REMARK Flexibility Score: inf
ROOT
ATOM      1  C   UNL A   1      34.690  32.950  29.263  1.00  0.00     0.202 C 
ENDROOT
BRANCH   1   2
ATOM      2  C   UNL A   1      35.031  32.147  28.006  1.00  0.00     0.261 C 
BRANCH   2   3
ATOM      3  O   UNL A   1      34.161  31.010  27.908  1.00  0.00    -0.463 OA
BRANCH   3   4
ATOM      4  C   UNL A   1      34.763  29.838  27.561  1.00  0.00     0.312 C 
ATOM      5  O   UNL A   1      35.954  29.588  27.695  1.00  0.00    -0.252 OA
BRANCH   4   6
ATOM      6  C   UNL A   1      33.719  28.839  27.086  1.00  0.00     0.124 C 
ATOM      7  C   UNL A   1      32.811  29.621  24.977  1.00  0.00     0.104 C 
ATOM      8  C   UNL A   1      31.837  29.823  26.093  1.00  0.00    -0.006 C 
ATOM      9  C   UNL A   1      33.851  28.661  25.564  1.00  0.00     0.048 C 
ATOM     10  C   UNL A   1      32.337  29.391  27.258  1.00  0.00    -0.014 C 
BRANCH   7  11
ATOM     11  N   UNL A   1      32.192  29.148  23.757  1.00  0.00    -0.363 N 
ATOM     12  H   UNL A   1      32.602  29.421  22.905  1.00  0.00     0.162 HD
BRANCH  11  13
ATOM     13  C   UNL A   1      31.064  28.339  23.693  1.00  0.00     0.139 A 
ATOM     14  C   UNL A   1      30.414  24.746  24.188  1.00  0.00     0.067 C 
ATOM     15  C   UNL A   1      30.156  26.198  23.928  1.00  0.00     0.040 A 
ATOM     16  C   UNL A   1      28.878  26.652  23.648  1.00  0.00     0.028 A 
ATOM     17  N   UNL A   1      31.221  27.025  23.968  1.00  0.00    -0.236 NA
ATOM     18  C   UNL A   1      28.675  28.014  23.395  1.00  0.00    -0.033 A 
ATOM     19  C   UNL A   1      27.271  28.470  23.112  1.00  0.00     0.045 C 
ATOM     20  C   UNL A   1      29.795  28.872  23.394  1.00  0.00     0.084 A 
BRANCH  20  21
ATOM     21  C   UNL A   1      29.632  30.312  23.045  1.00  0.00     0.252 C 
ATOM     22  N   UNL A   1      29.857  30.672  21.744  1.00  0.00    -0.365 N 
ATOM     23  O   UNL A   1      29.308  31.153  23.874  1.00  0.00    -0.269 OA
ATOM     24  H   UNL A   1      30.118  29.992  21.084  1.00  0.00     0.159 HD
ATOM     25  H   UNL A   1      29.758  31.613  21.469  1.00  0.00     0.159 HD
ENDBRANCH  20  21
ENDBRANCH  11  13
ENDBRANCH   7  11
ENDBRANCH   4   6
ENDBRANCH   3   4
ENDBRANCH   2   3
ENDBRANCH   1   2
BRANCH   1  26
ATOM     26  O   UNL A   1      34.967  34.350  29.191  1.00  0.00    -0.374 OA
BRANCH  26  27
ATOM     27  C   UNL A   1      33.968  35.194  28.613  1.00  0.00     0.202 C 
BRANCH  27  28
ATOM     28  C   UNL A   1      33.119  36.011  29.593  1.00  0.00     0.261 C 
BRANCH  28  29
ATOM     29  O   UNL A   1      32.554  35.181  30.626  1.00  0.00    -0.460 OA
BRANCH  29  30
ATOM     30  C   UNL A   1      32.721  35.648  31.885  1.00  0.00     0.338 C 
ATOM     31  O   UNL A   1      31.986  36.412  32.497  1.00  0.00    -0.246 OA
BRANCH  30  32
ATOM     32  C   UNL A   1      33.853  34.965  32.533  1.00  0.00     0.060 A 
ATOM     33  C   UNL A   1      35.082  35.636  32.557  1.00  0.00     0.016 A 
ATOM     34  C   UNL A   1      33.745  33.660  33.019  1.00  0.00     0.016 A 
ATOM     35  C   UNL A   1      36.225  34.983  33.009  1.00  0.00     0.010 A 
ATOM     36  C   UNL A   1      34.897  33.001  33.464  1.00  0.00     0.010 A 
ATOM     37  C   UNL A   1      36.147  33.646  33.419  1.00  0.00    -0.014 A 
BRANCH  37  38
ATOM     38  C   UNL A   1      37.398  32.878  33.618  1.00  0.00     0.031 A 
ATOM     39  C   UNL A   1      38.183  33.090  34.885  1.00  0.00     0.074 A 
ATOM     40  C   UNL A   1      37.809  31.974  32.712  1.00  0.00     0.049 A 
ATOM     41  N   UNL A   1      39.301  32.532  35.272  1.00  0.00    -0.248 NA
ATOM     42  C   UNL A   1      37.628  34.060  35.845  1.00  0.00     0.031 C 
ATOM     43  C   UNL A   1      37.113  31.641  31.471  1.00  0.00     0.029 A 
ATOM     44  N   UNL A   1      38.918  31.167  32.707  1.00  0.00    -0.354 N 
ATOM     45  C   UNL A   1      39.588  33.086  36.513  1.00  0.00     0.074 A 
ATOM     46  C   UNL A   1      38.542  34.042  36.804  1.00  0.00     0.031 C 
ATOM     47  C   UNL A   1      37.817  30.699  30.819  1.00  0.00     0.029 A 
ATOM     48  C   UNL A   1      39.022  30.385  31.584  1.00  0.00     0.049 A 
ATOM     49  H   UNL A   1      39.577  31.151  33.438  1.00  0.00     0.167 HD
ATOM     50  C   UNL A   1      40.624  32.819  37.341  1.00  0.00     0.031 A 
ATOM     51  C   UNL A   1      39.988  29.525  31.210  1.00  0.00     0.031 A 
ATOM     52  C   UNL A   1      41.672  31.878  37.051  1.00  0.00     0.049 A 
ATOM     53  C   UNL A   1      41.170  29.298  32.114  1.00  0.00     0.074 A 
ATOM     54  C   UNL A   1      42.762  31.533  37.830  1.00  0.00     0.029 A 
ATOM     55  N   UNL A   1      41.760  31.135  35.884  1.00  0.00    -0.354 N 
ATOM     56  N   UNL A   1      41.419  29.814  33.294  1.00  0.00    -0.248 NA
ATOM     57  C   UNL A   1      42.199  28.364  31.637  1.00  0.00     0.031 C 
ATOM     58  C   UNL A   1      43.536  30.614  37.114  1.00  0.00     0.029 A 
ATOM     59  C   UNL A   1      42.900  30.350  35.912  1.00  0.00     0.049 A 
ATOM     60  H   UNL A   1      41.111  31.163  35.146  1.00  0.00     0.167 HD
ATOM     61  C   UNL A   1      42.616  29.245  33.712  1.00  0.00     0.074 A 
ATOM     62  C   UNL A   1      43.038  28.339  32.665  1.00  0.00     0.031 C 
ATOM     63  C   UNL A   1      43.303  29.452  34.863  1.00  0.00     0.031 A 
BRANCH  50  64
ATOM     64  C   UNL A   1      40.689  33.587  38.630  1.00  0.00    -0.014 A 
ATOM     65  C   UNL A   1      41.363  34.816  38.712  1.00  0.00     0.009 A 
ATOM     66  C   UNL A   1      40.048  33.084  39.773  1.00  0.00     0.009 A 
ATOM     67  C   UNL A   1      41.421  35.509  39.924  1.00  0.00     0.001 A 
ATOM     68  C   UNL A   1      40.087  33.792  40.975  1.00  0.00     0.001 A 
ATOM     69  C   UNL A   1      40.779  34.999  41.051  1.00  0.00     0.000 A 
ENDBRANCH  50  64
BRANCH  51  70
ATOM     70  C   UNL A   1      39.892  28.819  29.906  1.00  0.00    -0.014 A 
ATOM     71  C   UNL A   1      39.379  27.515  29.834  1.00  0.00     0.009 A 
ATOM     72  C   UNL A   1      40.335  29.441  28.728  1.00  0.00     0.009 A 
ATOM     73  C   UNL A   1      39.333  26.841  28.610  1.00  0.00     0.001 A 
ATOM     74  C   UNL A   1      40.263  28.774  27.505  1.00  0.00     0.001 A 
ATOM     75  C   UNL A   1      39.771  27.472  27.448  1.00  0.00     0.000 A 
ENDBRANCH  51  70
BRANCH  63  76
ATOM     76  C   UNL A   1      44.560  28.655  35.066  1.00  0.00    -0.014 A 
ATOM     77  C   UNL A   1      44.530  27.382  35.655  1.00  0.00     0.009 A 
ATOM     78  C   UNL A   1      45.787  29.171  34.619  1.00  0.00     0.009 A 
ATOM     79  C   UNL A   1      45.710  26.654  35.819  1.00  0.00     0.001 A 
ATOM     80  C   UNL A   1      46.961  28.429  34.761  1.00  0.00     0.001 A 
ATOM     81  C   UNL A   1      46.923  27.176  35.368  1.00  0.00     0.000 A 
ENDBRANCH  63  76
ENDBRANCH  37  38
ENDBRANCH  30  32
ENDBRANCH  29  30
ENDBRANCH  28  29
ENDBRANCH  27  28
ENDBRANCH  26  27
ENDBRANCH   1  26
TORSDOF 17
ENDMDL
MODEL 2
REMARK VINA RESULT:     -10.4      4.530     10.281
REMARK SMILES Cc1cc(C)c(C(N)=O)c(N[C@H]2C=C[C@H](C(=O)OCCOCCOC(=O)c3ccc(-c4c5nc(c(-c6ccccc6)c6ccc([nH]6)c(-c6ccccc6)c6nc(c(-c7ccccc7)c7ccc4[nH]7)C=C6)C=C5)cc3)C2)n1
REMARK SMILES IDX 20 1 19 2 18 3 16 4 17 5 15 6 12 7 13 8 75 9 14 10 11 11
REMARK SMILES IDX 10 13 1 14 2 15 3 16 76 17 4 18 5 19 6 20 7 21 8 22 9 23
REMARK SMILES IDX 21 26 22 27 23 28 24 29 25 30 26 31 27 32 28 33 74 34 29 35
REMARK SMILES IDX 73 36 30 37 31 38 32 39 67 40 33 41 72 42 66 43 68 44 34 45
REMARK SMILES IDX 71 46 65 47 64 48 35 50 57 51 42 52 56 53 43 54 46 55 55 56
REMARK SMILES IDX 69 57 44 58 45 59 54 61 70 62 47 63 36 64 37 65 41 66 38 67
REMARK SMILES IDX 40 68 39 69 58 70 59 71 63 72 60 73 62 74 61 75 48 76 49 77
REMARK SMILES IDX 53 78 50 79 52 80 51 81
REMARK H PARENT 11 12 8 24 8 25 68 49 46 60
REMARK Flexibility Score: inf
ROOT
ATOM      1  C   UNL A   1      34.058  35.195  33.328  1.00  0.00     0.202 C 
ENDROOT
BRANCH   1   2
ATOM      2  C   UNL A   1      35.105  34.884  34.400  1.00  0.00     0.261 C 
BRANCH   2   3
ATOM      3  O   UNL A   1      36.376  34.645  33.780  1.00  0.00    -0.463 OA
BRANCH   3   4
ATOM      4  C   UNL A   1      37.379  34.268  34.621  1.00  0.00     0.312 C 
ATOM      5  O   UNL A   1      38.257  35.005  35.050  1.00  0.00    -0.252 OA
BRANCH   4   6
ATOM      6  C   UNL A   1      37.184  32.820  35.045  1.00  0.00     0.124 C 
ATOM      7  C   UNL A   1      39.365  31.841  35.456  1.00  0.00     0.104 C 
ATOM      8  C   UNL A   1      38.783  31.346  34.172  1.00  0.00    -0.006 C 
ATOM      9  C   UNL A   1      38.177  32.490  36.173  1.00  0.00     0.048 C 
ATOM     10  C   UNL A   1      37.579  31.886  33.944  1.00  0.00    -0.014 C 
BRANCH   7  11
ATOM     11  N   UNL A   1      40.023  30.804  36.223  1.00  0.00    -0.363 N 
ATOM     12  H   UNL A   1      39.590  30.513  37.057  1.00  0.00     0.162 HD
BRANCH  11  13
ATOM     13  C   UNL A   1      41.219  30.188  35.875  1.00  0.00     0.139 A 
ATOM     14  C   UNL A   1      42.167  27.479  33.564  1.00  0.00     0.067 C 
ATOM     15  C   UNL A   1      42.304  28.588  34.561  1.00  0.00     0.040 A 
ATOM     16  C   UNL A   1      43.544  28.935  35.070  1.00  0.00     0.028 A 
ATOM     17  N   UNL A   1      41.170  29.212  34.940  1.00  0.00    -0.236 NA
ATOM     18  C   UNL A   1      43.634  29.967  36.012  1.00  0.00    -0.033 A 
ATOM     19  C   UNL A   1      45.000  30.325  36.528  1.00  0.00     0.045 C 
ATOM     20  C   UNL A   1      42.444  30.590  36.441  1.00  0.00     0.084 A 
BRANCH  20  21
ATOM     21  C   UNL A   1      42.489  31.633  37.505  1.00  0.00     0.252 C 
ATOM     22  N   UNL A   1      42.529  32.941  37.102  1.00  0.00    -0.365 N 
ATOM     23  O   UNL A   1      42.486  31.352  38.698  1.00  0.00    -0.269 OA
ATOM     24  H   UNL A   1      42.532  33.159  36.143  1.00  0.00     0.159 HD
ATOM     25  H   UNL A   1      42.557  33.662  37.772  1.00  0.00     0.159 HD
ENDBRANCH  20  21
ENDBRANCH  11  13
ENDBRANCH   7  11
ENDBRANCH   4   6
ENDBRANCH   3   4
ENDBRANCH   2   3
ENDBRANCH   1   2
BRANCH   1  26
ATOM     26  O   UNL A   1      34.364  36.300  32.474  1.00  0.00    -0.374 OA
BRANCH  26  27
ATOM     27  C   UNL A   1      33.278  36.926  31.787  1.00  0.00     0.202 C 
BRANCH  27  28
ATOM     28  C   UNL A   1      33.024  36.457  30.349  1.00  0.00     0.261 C 
BRANCH  28  29
ATOM     29  O   UNL A   1      32.822  35.032  30.283  1.00  0.00    -0.460 OA
BRANCH  29  30
ATOM     30  C   UNL A   1      33.100  34.475  29.082  1.00  0.00     0.338 C 
ATOM     31  O   UNL A   1      32.523  34.671  28.021  1.00  0.00    -0.246 OA
BRANCH  30  32
ATOM     32  C   UNL A   1      34.348  33.697  29.161  1.00  0.00     0.060 A 
ATOM     33  C   UNL A   1      34.543  32.908  30.303  1.00  0.00     0.016 A 
ATOM     34  C   UNL A   1      35.348  33.808  28.194  1.00  0.00     0.016 A 
ATOM     35  C   UNL A   1      35.765  32.276  30.513  1.00  0.00     0.010 A 
ATOM     36  C   UNL A   1      36.580  33.181  28.412  1.00  0.00     0.010 A 
ATOM     37  C   UNL A   1      36.806  32.450  29.593  1.00  0.00    -0.014 A 
BRANCH  37  38
ATOM     38  C   UNL A   1      38.176  32.023  29.963  1.00  0.00     0.031 A 
ATOM     39  C   UNL A   1      38.678  30.694  29.466  1.00  0.00     0.074 A 
ATOM     40  C   UNL A   1      38.978  32.819  30.690  1.00  0.00     0.049 A 
ATOM     41  N   UNL A   1      39.836  30.117  29.664  1.00  0.00    -0.248 NA
ATOM     42  C   UNL A   1      37.750  29.914  28.629  1.00  0.00     0.031 C 
ATOM     43  C   UNL A   1      38.628  34.148  31.189  1.00  0.00     0.029 A 
ATOM     44  N   UNL A   1      40.261  32.618  31.132  1.00  0.00    -0.354 N 
ATOM     45  C   UNL A   1      39.774  28.907  28.985  1.00  0.00     0.074 A 
ATOM     46  C   UNL A   1      38.457  28.819  28.391  1.00  0.00     0.031 C 
ATOM     47  C   UNL A   1      39.674  34.643  31.875  1.00  0.00     0.029 A 
ATOM     48  C   UNL A   1      40.751  33.656  31.884  1.00  0.00     0.049 A 
ATOM     49  H   UNL A   1      40.781  31.807  30.928  1.00  0.00     0.167 HD
ATOM     50  C   UNL A   1      40.728  27.955  28.860  1.00  0.00     0.031 A 
ATOM     51  C   UNL A   1      41.931  33.787  32.521  1.00  0.00     0.031 A 
ATOM     52  C   UNL A   1      42.033  28.034  29.457  1.00  0.00     0.049 A 
ATOM     53  C   UNL A   1      42.950  32.682  32.428  1.00  0.00     0.074 A 
ATOM     54  C   UNL A   1      43.072  27.122  29.382  1.00  0.00     0.029 A 
ATOM     55  N   UNL A   1      42.475  29.084  30.245  1.00  0.00    -0.354 N 
ATOM     56  N   UNL A   1      42.886  31.551  31.767  1.00  0.00    -0.248 NA
ATOM     57  C   UNL A   1      44.207  32.879  33.164  1.00  0.00     0.031 C 
ATOM     58  C   UNL A   1      44.128  27.601  30.165  1.00  0.00     0.029 A 
ATOM     59  C   UNL A   1      43.764  28.834  30.683  1.00  0.00     0.049 A 
ATOM     60  H   UNL A   1      41.951  29.887  30.463  1.00  0.00     0.167 HD
ATOM     61  C   UNL A   1      44.103  30.916  31.983  1.00  0.00     0.074 A 
ATOM     62  C   UNL A   1      44.889  31.791  32.827  1.00  0.00     0.031 C 
ATOM     63  C   UNL A   1      44.533  29.716  31.520  1.00  0.00     0.031 A 
BRANCH  50  64
ATOM     64  C   UNL A   1      40.375  26.728  28.070  1.00  0.00    -0.014 A 
ATOM     65  C   UNL A   1      39.611  25.694  28.634  1.00  0.00     0.009 A 
ATOM     66  C   UNL A   1      40.794  26.616  26.735  1.00  0.00     0.009 A 
ATOM     67  C   UNL A   1      39.303  24.555  27.885  1.00  0.00     0.001 A 
ATOM     68  C   UNL A   1      40.463  25.488  25.982  1.00  0.00     0.001 A 
ATOM     69  C   UNL A   1      39.725  24.456  26.560  1.00  0.00     0.000 A 
ENDBRANCH  50  64
BRANCH  51  70
ATOM     70  C   UNL A   1      42.214  35.006  33.320  1.00  0.00    -0.014 A 
ATOM     71  C   UNL A   1      43.014  36.035  32.798  1.00  0.00     0.009 A 
ATOM     72  C   UNL A   1      41.701  35.137  34.620  1.00  0.00     0.009 A 
ATOM     73  C   UNL A   1      43.312  37.160  33.573  1.00  0.00     0.001 A 
ATOM     74  C   UNL A   1      41.980  36.274  35.380  1.00  0.00     0.001 A 
ATOM     75  C   UNL A   1      42.792  37.279  34.860  1.00  0.00     0.000 A 
ENDBRANCH  51  70
BRANCH  63  76
ATOM     76  C   UNL A   1      45.929  29.299  31.883  1.00  0.00    -0.014 A 
ATOM     77  C   UNL A   1      46.194  28.579  33.057  1.00  0.00     0.009 A 
ATOM     78  C   UNL A   1      46.989  29.593  31.011  1.00  0.00     0.009 A 
ATOM     79  C   UNL A   1      47.498  28.187  33.366  1.00  0.00     0.001 A 
ATOM     80  C   UNL A   1      48.288  29.178  31.308  1.00  0.00     0.001 A 
ATOM     81  C   UNL A   1      48.543  28.483  32.489  1.00  0.00     0.000 A 
ENDBRANCH  63  76
ENDBRANCH  37  38
ENDBRANCH  30  32
ENDBRANCH  29  30
ENDBRANCH  28  29
ENDBRANCH  27  28
ENDBRANCH  26  27
ENDBRANCH   1  26
TORSDOF 17
ENDMDL
MODEL 3
REMARK VINA RESULT:     -10.4      4.522      6.884
REMARK SMILES Cc1cc(C)c(C(N)=O)c(N[C@H]2C=C[C@H](C(=O)OCCOCCOC(=O)c3ccc(-c4c5nc(c(-c6ccccc6)c6ccc([nH]6)c(-c6ccccc6)c6nc(c(-c7ccccc7)c7ccc4[nH]7)C=C6)C=C5)cc3)C2)n1
REMARK SMILES IDX 20 1 19 2 18 3 16 4 17 5 15 6 12 7 13 8 75 9 14 10 11 11
REMARK SMILES IDX 10 13 1 14 2 15 3 16 76 17 4 18 5 19 6 20 7 21 8 22 9 23
REMARK SMILES IDX 21 26 22 27 23 28 24 29 25 30 26 31 27 32 28 33 74 34 29 35
REMARK SMILES IDX 73 36 30 37 31 38 32 39 67 40 33 41 72 42 66 43 68 44 34 45
REMARK SMILES IDX 71 46 65 47 64 48 35 50 57 51 42 52 56 53 43 54 46 55 55 56
REMARK SMILES IDX 69 57 44 58 45 59 54 61 70 62 47 63 36 64 37 65 41 66 38 67
REMARK SMILES IDX 40 68 39 69 58 70 59 71 63 72 60 73 62 74 61 75 48 76 49 77
REMARK SMILES IDX 53 78 50 79 52 80 51 81
REMARK H PARENT 11 12 8 24 8 25 68 49 46 60
REMARK Flexibility Score: inf
ROOT
ATOM      1  C   UNL A   1      33.373  34.051  28.310  1.00  0.00     0.202 C 
ENDROOT
BRANCH   1   2
ATOM      2  C   UNL A   1      34.235  32.825  28.002  1.00  0.00     0.261 C 
BRANCH   2   3
ATOM      3  O   UNL A   1      33.400  31.749  27.549  1.00  0.00    -0.463 OA
BRANCH   3   4
ATOM      4  C   UNL A   1      34.029  30.556  27.362  1.00  0.00     0.312 C 
ATOM      5  O   UNL A   1      35.242  30.390  27.348  1.00  0.00    -0.252 OA
BRANCH   4   6
ATOM      6  C   UNL A   1      33.004  29.435  27.287  1.00  0.00     0.124 C 
ATOM      7  C   UNL A   1      33.203  28.354  25.125  1.00  0.00     0.104 C 
ATOM      8  C   UNL A   1      31.981  29.213  25.190  1.00  0.00    -0.006 C 
ATOM      9  C   UNL A   1      33.638  28.220  26.588  1.00  0.00     0.048 C 
ATOM     10  C   UNL A   1      31.870  29.809  26.384  1.00  0.00    -0.014 C 
BRANCH   7  11
ATOM     11  N   UNL A   1      32.978  27.090  24.457  1.00  0.00    -0.363 N 
ATOM     12  H   UNL A   1      32.602  27.118  23.548  1.00  0.00     0.162 HD
BRANCH  11  13
ATOM     13  C   UNL A   1      33.252  25.840  24.997  1.00  0.00     0.139 A 
ATOM     14  C   UNL A   1      36.231  23.675  25.157  1.00  0.00     0.067 C 
ATOM     15  C   UNL A   1      34.832  24.161  25.384  1.00  0.00     0.040 A 
ATOM     16  C   UNL A   1      33.918  23.389  26.082  1.00  0.00     0.028 A 
ATOM     17  N   UNL A   1      34.512  25.366  24.870  1.00  0.00    -0.236 NA
ATOM     18  C   UNL A   1      32.615  23.867  26.263  1.00  0.00    -0.033 A 
ATOM     19  C   UNL A   1      31.657  23.006  27.040  1.00  0.00     0.045 C 
ATOM     20  C   UNL A   1      32.268  25.107  25.688  1.00  0.00     0.084 A 
BRANCH  20  21
ATOM     21  C   UNL A   1      30.868  25.610  25.786  1.00  0.00     0.252 C 
ATOM     22  N   UNL A   1      30.000  25.249  24.791  1.00  0.00    -0.365 N 
ATOM     23  O   UNL A   1      30.489  26.315  26.713  1.00  0.00    -0.269 OA
ATOM     24  H   UNL A   1      30.311  24.683  24.049  1.00  0.00     0.159 HD
ATOM     25  H   UNL A   1      29.065  25.556  24.818  1.00  0.00     0.159 HD
ENDBRANCH  20  21
ENDBRANCH  11  13
ENDBRANCH   7  11
ENDBRANCH   4   6
ENDBRANCH   3   4
ENDBRANCH   2   3
ENDBRANCH   1   2
BRANCH   1  26
ATOM     26  O   UNL A   1      33.845  34.881  29.373  1.00  0.00    -0.374 OA
BRANCH  26  27
ATOM     27  C   UNL A   1      34.859  34.349  30.229  1.00  0.00     0.202 C 
BRANCH  27  28
ATOM     28  C   UNL A   1      34.393  33.839  31.597  1.00  0.00     0.261 C 
BRANCH  28  29
ATOM     29  O   UNL A   1      34.675  32.436  31.766  1.00  0.00    -0.460 OA
BRANCH  29  30
ATOM     30  C   UNL A   1      35.729  32.161  32.568  1.00  0.00     0.338 C 
ATOM     31  O   UNL A   1      35.847  32.425  33.757  1.00  0.00    -0.246 OA
BRANCH  30  32
ATOM     32  C   UNL A   1      36.699  31.311  31.856  1.00  0.00     0.060 A 
ATOM     33  C   UNL A   1      37.739  30.750  32.609  1.00  0.00     0.016 A 
ATOM     34  C   UNL A   1      36.654  31.144  30.470  1.00  0.00     0.016 A 
ATOM     35  C   UNL A   1      38.774  30.072  31.973  1.00  0.00     0.010 A 
ATOM     36  C   UNL A   1      37.700  30.471  29.831  1.00  0.00     0.010 A 
ATOM     37  C   UNL A   1      38.785  29.971  30.576  1.00  0.00    -0.014 A 
BRANCH  37  38
ATOM     38  C   UNL A   1      40.018  29.511  29.895  1.00  0.00     0.031 A 
ATOM     39  C   UNL A   1      41.165  30.474  29.748  1.00  0.00     0.074 A 
ATOM     40  C   UNL A   1      40.136  28.248  29.454  1.00  0.00     0.049 A 
ATOM     41  N   UNL A   1      42.334  30.294  29.189  1.00  0.00    -0.248 NA
ATOM     42  C   UNL A   1      40.966  31.822  30.310  1.00  0.00     0.031 C 
ATOM     43  C   UNL A   1      39.118  27.206  29.580  1.00  0.00     0.029 A 
ATOM     44  N   UNL A   1      41.177  27.628  28.810  1.00  0.00    -0.354 N 
ATOM     45  C   UNL A   1      43.007  31.501  29.326  1.00  0.00     0.074 A 
ATOM     46  C   UNL A   1      42.108  32.416  29.996  1.00  0.00     0.031 C 
ATOM     47  C   UNL A   1      39.585  26.074  29.025  1.00  0.00     0.029 A 
ATOM     48  C   UNL A   1      40.919  26.320  28.483  1.00  0.00     0.049 A 
ATOM     49  H   UNL A   1      42.028  28.078  28.603  1.00  0.00     0.167 HD
ATOM     50  C   UNL A   1      44.263  31.821  28.937  1.00  0.00     0.031 A 
ATOM     51  C   UNL A   1      41.671  25.428  27.809  1.00  0.00     0.031 A 
ATOM     52  C   UNL A   1      45.156  30.918  28.261  1.00  0.00     0.049 A 
ATOM     53  C   UNL A   1      43.037  25.829  27.320  1.00  0.00     0.074 A 
ATOM     54  C   UNL A   1      46.451  31.148  27.831  1.00  0.00     0.029 A 
ATOM     55  N   UNL A   1      44.841  29.615  27.913  1.00  0.00    -0.354 N 
ATOM     56  N   UNL A   1      43.669  26.968  27.473  1.00  0.00    -0.248 NA
ATOM     57  C   UNL A   1      43.796  24.816  26.573  1.00  0.00     0.031 C 
ATOM     58  C   UNL A   1      46.904  29.995  27.180  1.00  0.00     0.029 A 
ATOM     59  C   UNL A   1      45.909  29.033  27.252  1.00  0.00     0.049 A 
ATOM     60  H   UNL A   1      43.985  29.169  28.105  1.00  0.00     0.167 HD
ATOM     61  C   UNL A   1      44.908  26.799  26.868  1.00  0.00     0.074 A 
ATOM     62  C   UNL A   1      44.943  25.446  26.354  1.00  0.00     0.031 C 
ATOM     63  C   UNL A   1      45.928  27.685  26.750  1.00  0.00     0.031 A 
BRANCH  50  64
ATOM     64  C   UNL A   1      44.730  33.223  29.204  1.00  0.00    -0.014 A 
ATOM     65  C   UNL A   1      44.477  34.260  28.293  1.00  0.00     0.009 A 
ATOM     66  C   UNL A   1      45.413  33.513  30.395  1.00  0.00     0.009 A 
ATOM     67  C   UNL A   1      44.929  35.556  28.557  1.00  0.00     0.001 A 
ATOM     68  C   UNL A   1      45.842  34.813  30.667  1.00  0.00     0.001 A 
ATOM     69  C   UNL A   1      45.607  35.831  29.744  1.00  0.00     0.000 A 
ENDBRANCH  50  64
BRANCH  51  70
ATOM     70  C   UNL A   1      41.145  24.066  27.539  1.00  0.00    -0.014 A 
ATOM     71  C   UNL A   1      40.084  23.873  26.640  1.00  0.00     0.009 A 
ATOM     72  C   UNL A   1      41.690  22.952  28.197  1.00  0.00     0.009 A 
ATOM     73  C   UNL A   1      39.566  22.592  26.424  1.00  0.00     0.001 A 
ATOM     74  C   UNL A   1      41.186  21.672  27.959  1.00  0.00     0.001 A 
ATOM     75  C   UNL A   1      40.119  21.495  27.081  1.00  0.00     0.000 A 
ENDBRANCH  51  70
BRANCH  63  76
ATOM     76  C   UNL A   1      47.182  27.205  26.076  1.00  0.00    -0.014 A 
ATOM     77  C   UNL A   1      47.258  27.078  24.682  1.00  0.00     0.009 A 
ATOM     78  C   UNL A   1      48.319  26.922  26.850  1.00  0.00     0.009 A 
ATOM     79  C   UNL A   1      48.440  26.645  24.077  1.00  0.00     0.001 A 
ATOM     80  C   UNL A   1      49.507  26.515  26.241  1.00  0.00     0.001 A 
ATOM     81  C   UNL A   1      49.564  26.369  24.856  1.00  0.00     0.000 A 
ENDBRANCH  63  76
ENDBRANCH  37  38
ENDBRANCH  30  32
ENDBRANCH  29  30
ENDBRANCH  28  29
ENDBRANCH  27  28
ENDBRANCH  26  27
ENDBRANCH   1  26
TORSDOF 17
ENDMDL
