MODEL 1
REMARK VINA RESULT:     -10.1      0.000      0.000
REMARK SMILES CC[C@@](C)([NH2+]CC(=O)Nc1ccc(Br)cc1F)C(=O)OCCOCCOC(=O)c1ccc(-c2c3nc(c(-c4ccccc4)c4ccc([nH]4)c(-c4ccccc4)c4nc(c(-c5ccccc5)c5ccc2[nH]5)C=C4)C=C3)cc1
REMARK SMILES IDX 22 1 21 2 20 3 18 4 19 5 3 6 4 7 2 8 1 9 5 10 6 13 7 14 8 15
REMARK SMILES IDX 9 16 10 18 11 19 16 20 12 21 15 22 17 23 13 24 14 25 23 26
REMARK SMILES IDX 24 27 25 28 26 29 27 30 28 31 29 32 30 33 76 34 31 35 75 36
REMARK SMILES IDX 32 37 33 38 34 39 69 40 35 41 74 42 68 43 70 44 36 45 73 46
REMARK SMILES IDX 67 47 66 48 37 50 59 51 44 52 58 53 45 54 48 55 57 56 71 57
REMARK SMILES IDX 46 58 47 59 56 61 72 62 49 63 38 64 39 65 43 66 40 67 42 68
REMARK SMILES IDX 41 69 60 70 61 71 65 72 62 73 64 74 63 75 50 76 51 77 55 78
REMARK SMILES IDX 52 79 54 80 53 81
REMARK H PARENT 5 11 5 12 9 17 70 49 48 60
REMARK Flexibility Score: inf
ROOT
ATOM      1  C   UNL A   1      33.757  21.091  24.305  1.00  0.00     0.202 C 
ENDROOT
BRANCH   1   2
ATOM      2  C   UNL A   1      32.515  20.897  25.169  1.00  0.00     0.261 C 
BRANCH   2   3
ATOM      3  O   UNL A   1      31.614  22.013  25.091  1.00  0.00    -0.459 OA
BRANCH   3   4
ATOM      4  C   UNL A   1      31.961  23.226  25.623  1.00  0.00     0.367 C 
ATOM      5  O   UNL A   1      32.525  23.321  26.705  1.00  0.00    -0.245 OA
BRANCH   4   6
ATOM      6  C   UNL A   1      31.674  24.440  24.628  1.00  0.00     0.191 C 
ATOM      7  C   UNL A   1      30.450  24.557  23.688  1.00  0.00     0.092 C 
BRANCH   6   8
ATOM      8  C   UNL A   1      31.511  25.667  25.600  1.00  0.00     0.077 C 
ATOM      9  C   UNL A   1      30.044  25.946  26.021  1.00  0.00     0.011 C 
ENDBRANCH   6   8
BRANCH   6  10
ATOM     10  N   UNL A   1      32.831  24.576  23.691  1.00  0.00    -0.325 N 
ATOM     11  H   UNL A   1      33.501  23.843  23.923  1.00  0.00     0.347 HD
ATOM     12  H   UNL A   1      33.167  25.529  23.827  1.00  0.00     0.347 HD
BRANCH  10  13
ATOM     13  C   UNL A   1      32.540  24.474  22.218  1.00  0.00     0.363 C 
BRANCH  13  14
ATOM     14  C   UNL A   1      32.800  25.661  21.257  1.00  0.00     0.279 C 
ATOM     15  O   UNL A   1      33.128  25.392  20.088  1.00  0.00    -0.268 OA
ATOM     16  N   UNL A   1      32.640  27.008  21.504  1.00  0.00    -0.319 N 
ATOM     17  H   UNL A   1      32.640  27.542  20.677  1.00  0.00     0.170 HD
BRANCH  16  18
ATOM     18  C   UNL A   1      32.476  27.806  22.657  1.00  0.00     0.077 A 
ATOM     19  C   UNL A   1      33.561  27.999  23.510  1.00  0.00     0.030 A 
ATOM     20  C   UNL A   1      31.210  28.193  23.144  1.00  0.00     0.147 A 
ATOM     21  C   UNL A   1      33.416  28.754  24.690  1.00  0.00     0.018 A 
ATOM     22  C   UNL A   1      31.063  28.999  24.276  1.00  0.00     0.057 A 
ATOM     23  F   UNL A   1      30.085  27.844  22.509  1.00  0.00    -0.205 F 
ATOM     24  C   UNL A   1      32.183  29.312  25.025  1.00  0.00     0.021 A 
ATOM     25  Br  UNL A   1      32.044  30.524  26.467  1.00  0.00    -0.051 Br
ENDBRANCH  16  18
ENDBRANCH  13  14
ENDBRANCH  10  13
ENDBRANCH   6  10
ENDBRANCH   4   6
ENDBRANCH   3   4
ENDBRANCH   2   3
ENDBRANCH   1   2
BRANCH   1  26
ATOM     26  O   UNL A   1      35.000  21.223  24.984  1.00  0.00    -0.374 OA
BRANCH  26  27
ATOM     27  C   UNL A   1      35.876  20.098  24.962  1.00  0.00     0.202 C 
BRANCH  27  28
ATOM     28  C   UNL A   1      37.373  20.371  24.784  1.00  0.00     0.261 C 
BRANCH  28  29
ATOM     29  O   UNL A   1      37.848  21.494  25.546  1.00  0.00    -0.460 OA
BRANCH  29  30
ATOM     30  C   UNL A   1      39.078  21.317  26.087  1.00  0.00     0.338 C 
ATOM     31  O   UNL A   1      39.801  20.344  25.987  1.00  0.00    -0.246 OA
BRANCH  30  32
ATOM     32  C   UNL A   1      39.534  22.566  26.725  1.00  0.00     0.060 A 
ATOM     33  C   UNL A   1      38.967  23.764  26.273  1.00  0.00     0.016 A 
ATOM     34  C   UNL A   1      40.576  22.575  27.654  1.00  0.00     0.016 A 
ATOM     35  C   UNL A   1      39.488  24.984  26.695  1.00  0.00     0.010 A 
ATOM     36  C   UNL A   1      41.104  23.801  28.070  1.00  0.00     0.010 A 
ATOM     37  C   UNL A   1      40.594  25.006  27.553  1.00  0.00    -0.014 A 
BRANCH  37  38
ATOM     38  C   UNL A   1      41.326  26.278  27.759  1.00  0.00     0.031 A 
ATOM     39  C   UNL A   1      40.687  27.353  28.597  1.00  0.00     0.074 A 
ATOM     40  C   UNL A   1      42.553  26.459  27.242  1.00  0.00     0.049 A 
ATOM     41  N   UNL A   1      41.125  28.552  28.882  1.00  0.00    -0.248 NA
ATOM     42  C   UNL A   1      39.378  27.033  29.190  1.00  0.00     0.031 C 
ATOM     43  C   UNL A   1      43.296  25.473  26.460  1.00  0.00     0.029 A 
ATOM     44  N   UNL A   1      43.387  27.547  27.298  1.00  0.00    -0.354 N 
ATOM     45  C   UNL A   1      40.141  29.133  29.673  1.00  0.00     0.074 A 
ATOM     46  C   UNL A   1      39.072  28.167  29.801  1.00  0.00     0.031 C 
ATOM     47  C   UNL A   1      44.476  26.005  26.100  1.00  0.00     0.029 A 
ATOM     48  C   UNL A   1      44.553  27.379  26.593  1.00  0.00     0.049 A 
ATOM     49  H   UNL A   1      43.171  28.368  27.796  1.00  0.00     0.167 HD
ATOM     50  C   UNL A   1      40.129  30.362  30.243  1.00  0.00     0.031 A 
ATOM     51  C   UNL A   1      45.554  28.246  26.352  1.00  0.00     0.031 A 
ATOM     52  C   UNL A   1      41.190  31.323  30.105  1.00  0.00     0.049 A 
ATOM     53  C   UNL A   1      45.484  29.633  26.934  1.00  0.00     0.074 A 
ATOM     54  C   UNL A   1      41.284  32.587  30.660  1.00  0.00     0.029 A 
ATOM     55  N   UNL A   1      42.337  31.130  29.351  1.00  0.00    -0.354 N 
ATOM     56  N   UNL A   1      44.560  30.164  27.699  1.00  0.00    -0.248 NA
ATOM     57  C   UNL A   1      46.601  30.537  26.624  1.00  0.00     0.031 C 
ATOM     58  C   UNL A   1      42.456  33.184  30.187  1.00  0.00     0.029 A 
ATOM     59  C   UNL A   1      43.129  32.264  29.397  1.00  0.00     0.049 A 
ATOM     60  H   UNL A   1      42.556  30.307  28.855  1.00  0.00     0.167 HD
ATOM     61  C   UNL A   1      44.998  31.451  27.986  1.00  0.00     0.074 A 
ATOM     62  C   UNL A   1      46.277  31.615  27.325  1.00  0.00     0.031 C 
ATOM     63  C   UNL A   1      44.397  32.412  28.732  1.00  0.00     0.031 A 
BRANCH  50  64
ATOM     64  C   UNL A   1      38.911  30.751  31.032  1.00  0.00    -0.014 A 
ATOM     65  C   UNL A   1      38.813  30.498  32.410  1.00  0.00     0.009 A 
ATOM     66  C   UNL A   1      37.853  31.415  30.390  1.00  0.00     0.009 A 
ATOM     67  C   UNL A   1      37.670  30.875  33.120  1.00  0.00     0.001 A 
ATOM     68  C   UNL A   1      36.726  31.818  31.107  1.00  0.00     0.001 A 
ATOM     69  C   UNL A   1      36.631  31.540  32.470  1.00  0.00     0.000 A 
ENDBRANCH  50  64
BRANCH  51  70
ATOM     70  C   UNL A   1      46.700  27.837  25.497  1.00  0.00    -0.014 A 
ATOM     71  C   UNL A   1      47.836  27.234  26.055  1.00  0.00     0.009 A 
ATOM     72  C   UNL A   1      46.666  28.064  24.112  1.00  0.00     0.009 A 
ATOM     73  C   UNL A   1      48.923  26.888  25.248  1.00  0.00     0.001 A 
ATOM     74  C   UNL A   1      47.740  27.689  23.303  1.00  0.00     0.001 A 
ATOM     75  C   UNL A   1      48.871  27.110  23.873  1.00  0.00     0.000 A 
ENDBRANCH  51  70
BRANCH  63  76
ATOM     76  C   UNL A   1      45.134  33.712  28.908  1.00  0.00    -0.014 A 
ATOM     77  C   UNL A   1      44.783  34.860  28.181  1.00  0.00     0.009 A 
ATOM     78  C   UNL A   1      46.170  33.797  29.852  1.00  0.00     0.009 A 
ATOM     79  C   UNL A   1      45.479  36.055  28.370  1.00  0.00     0.001 A 
ATOM     80  C   UNL A   1      46.842  35.002  30.062  1.00  0.00     0.001 A 
ATOM     81  C   UNL A   1      46.503  36.127  29.314  1.00  0.00     0.000 A 
ENDBRANCH  63  76
ENDBRANCH  37  38
ENDBRANCH  30  32
ENDBRANCH  29  30
ENDBRANCH  28  29
ENDBRANCH  27  28
ENDBRANCH  26  27
ENDBRANCH   1  26
TORSDOF 19
ENDMDL
MODEL 2
REMARK VINA RESULT:     -10.1      2.568      6.523
REMARK SMILES CC[C@@](C)([NH2+]CC(=O)Nc1ccc(Br)cc1F)C(=O)OCCOCCOC(=O)c1ccc(-c2c3nc(c(-c4ccccc4)c4ccc([nH]4)c(-c4ccccc4)c4nc(c(-c5ccccc5)c5ccc2[nH]5)C=C4)C=C3)cc1
REMARK SMILES IDX 22 1 21 2 20 3 18 4 19 5 3 6 4 7 2 8 1 9 5 10 6 13 7 14 8 15
REMARK SMILES IDX 9 16 10 18 11 19 16 20 12 21 15 22 17 23 13 24 14 25 23 26
REMARK SMILES IDX 24 27 25 28 26 29 27 30 28 31 29 32 30 33 76 34 31 35 75 36
REMARK SMILES IDX 32 37 33 38 34 39 69 40 35 41 74 42 68 43 70 44 36 45 73 46
REMARK SMILES IDX 67 47 66 48 37 50 59 51 44 52 58 53 45 54 48 55 57 56 71 57
REMARK SMILES IDX 46 58 47 59 56 61 72 62 49 63 38 64 39 65 43 66 40 67 42 68
REMARK SMILES IDX 41 69 60 70 61 71 65 72 62 73 64 74 63 75 50 76 51 77 55 78
REMARK SMILES IDX 52 79 54 80 53 81
REMARK H PARENT 5 11 5 12 9 17 70 49 48 60
REMARK Flexibility Score: inf
ROOT
ATOM      1  C   UNL A   1      37.392  22.527  25.017  1.00  0.00     0.202 C 
ENDROOT
BRANCH   1   2
ATOM      2  C   UNL A   1      36.235  22.637  26.005  1.00  0.00     0.261 C 
BRANCH   2   3
ATOM      3  O   UNL A   1      35.471  21.423  26.091  1.00  0.00    -0.459 OA
BRANCH   3   4
ATOM      4  C   UNL A   1      34.166  21.449  26.505  1.00  0.00     0.367 C 
ATOM      5  O   UNL A   1      33.860  21.701  27.663  1.00  0.00    -0.245 OA
BRANCH   4   6
ATOM      6  C   UNL A   1      33.134  21.255  25.304  1.00  0.00     0.191 C 
ATOM      7  C   UNL A   1      32.991  22.198  24.085  1.00  0.00     0.092 C 
BRANCH   6   8
ATOM      8  C   UNL A   1      33.586  19.889  24.663  1.00  0.00     0.077 C 
ATOM      9  C   UNL A   1      32.875  18.648  25.264  1.00  0.00     0.011 C 
ENDBRANCH   6   8
BRANCH   6  10
ATOM     10  N   UNL A   1      31.749  21.216  25.863  1.00  0.00    -0.325 N 
ATOM     11  H   UNL A   1      31.829  21.108  26.874  1.00  0.00     0.347 HD
ATOM     12  H   UNL A   1      31.292  20.444  25.379  1.00  0.00     0.347 HD
BRANCH  10  13
ATOM     13  C   UNL A   1      30.868  22.409  25.605  1.00  0.00     0.363 C 
BRANCH  13  14
ATOM     14  C   UNL A   1      30.530  23.424  26.726  1.00  0.00     0.279 C 
ATOM     15  O   UNL A   1      29.837  23.019  27.677  1.00  0.00    -0.268 OA
ATOM     16  N   UNL A   1      30.965  24.726  26.856  1.00  0.00    -0.319 N 
ATOM     17  H   UNL A   1      30.808  25.084  27.760  1.00  0.00     0.170 HD
BRANCH  16  18
ATOM     18  C   UNL A   1      31.582  25.669  26.007  1.00  0.00     0.077 A 
ATOM     19  C   UNL A   1      30.785  26.495  25.216  1.00  0.00     0.030 A 
ATOM     20  C   UNL A   1      32.959  25.639  25.704  1.00  0.00     0.147 A 
ATOM     21  C   UNL A   1      31.371  27.415  24.326  1.00  0.00     0.018 A 
ATOM     22  C   UNL A   1      33.560  26.590  24.875  1.00  0.00     0.057 A 
ATOM     23  F   UNL A   1      33.769  24.719  26.241  1.00  0.00    -0.205 F 
ATOM     24  C   UNL A   1      32.759  27.508  24.219  1.00  0.00     0.021 A 
ATOM     25  Br  UNL A   1      33.548  28.902  23.218  1.00  0.00    -0.051 Br
ENDBRANCH  16  18
ENDBRANCH  13  14
ENDBRANCH  10  13
ENDBRANCH   6  10
ENDBRANCH   4   6
ENDBRANCH   3   4
ENDBRANCH   2   3
ENDBRANCH   1   2
BRANCH   1  26
ATOM     26  O   UNL A   1      38.447  21.635  25.356  1.00  0.00    -0.374 OA
BRANCH  26  27
ATOM     27  C   UNL A   1      38.296  20.273  24.968  1.00  0.00     0.202 C 
BRANCH  27  28
ATOM     28  C   UNL A   1      39.237  19.246  25.609  1.00  0.00     0.261 C 
BRANCH  28  29
ATOM     29  O   UNL A   1      40.142  19.816  26.569  1.00  0.00    -0.460 OA
BRANCH  29  30
ATOM     30  C   UNL A   1      41.449  19.731  26.217  1.00  0.00     0.338 C 
ATOM     31  O   UNL A   1      41.989  18.854  25.571  1.00  0.00    -0.246 OA
BRANCH  30  32
ATOM     32  C   UNL A   1      42.157  20.968  26.599  1.00  0.00     0.060 A 
ATOM     33  C   UNL A   1      42.259  21.255  27.966  1.00  0.00     0.016 A 
ATOM     34  C   UNL A   1      42.601  21.881  25.641  1.00  0.00     0.016 A 
ATOM     35  C   UNL A   1      42.743  22.492  28.382  1.00  0.00     0.010 A 
ATOM     36  C   UNL A   1      43.078  23.126  26.060  1.00  0.00     0.010 A 
ATOM     37  C   UNL A   1      43.103  23.453  27.429  1.00  0.00    -0.014 A 
BRANCH  37  38
ATOM     38  C   UNL A   1      43.326  24.853  27.860  1.00  0.00     0.031 A 
ATOM     39  C   UNL A   1      44.739  25.327  28.074  1.00  0.00     0.074 A 
ATOM     40  C   UNL A   1      42.295  25.698  28.022  1.00  0.00     0.049 A 
ATOM     41  N   UNL A   1      45.169  26.493  28.482  1.00  0.00    -0.248 NA
ATOM     42  C   UNL A   1      45.808  24.354  27.793  1.00  0.00     0.031 C 
ATOM     43  C   UNL A   1      40.888  25.372  27.793  1.00  0.00     0.029 A 
ATOM     44  N   UNL A   1      42.278  27.010  28.423  1.00  0.00    -0.354 N 
ATOM     45  C   UNL A   1      46.555  26.389  28.520  1.00  0.00     0.074 A 
ATOM     46  C   UNL A   1      46.892  25.040  28.121  1.00  0.00     0.031 C 
ATOM     47  C   UNL A   1      40.142  26.454  28.067  1.00  0.00     0.029 A 
ATOM     48  C   UNL A   1      41.013  27.534  28.526  1.00  0.00     0.049 A 
ATOM     49  H   UNL A   1      43.093  27.526  28.618  1.00  0.00     0.167 HD
ATOM     50  C   UNL A   1      47.465  27.334  28.857  1.00  0.00     0.031 A 
ATOM     51  C   UNL A   1      40.605  28.740  28.966  1.00  0.00     0.031 A 
ATOM     52  C   UNL A   1      47.126  28.671  29.263  1.00  0.00     0.049 A 
ATOM     53  C   UNL A   1      41.633  29.749  29.407  1.00  0.00     0.074 A 
ATOM     54  C   UNL A   1      47.974  29.710  29.604  1.00  0.00     0.029 A 
ATOM     55  N   UNL A   1      45.832  29.151  29.391  1.00  0.00    -0.354 N 
ATOM     56  N   UNL A   1      42.941  29.648  29.417  1.00  0.00    -0.248 NA
ATOM     57  C   UNL A   1      41.125  31.041  29.889  1.00  0.00     0.031 C 
ATOM     58  C   UNL A   1      47.192  30.797  30.003  1.00  0.00     0.029 A 
ATOM     59  C   UNL A   1      45.857  30.461  29.840  1.00  0.00     0.049 A 
ATOM     60  H   UNL A   1      45.015  28.637  29.193  1.00  0.00     0.167 HD
ATOM     61  C   UNL A   1      43.413  30.871  29.878  1.00  0.00     0.074 A 
ATOM     62  C   UNL A   1      42.251  31.703  30.121  1.00  0.00     0.031 C 
ATOM     63  C   UNL A   1      44.692  31.273  30.079  1.00  0.00     0.031 A 
BRANCH  50  64
ATOM     64  C   UNL A   1      48.916  26.939  28.843  1.00  0.00    -0.014 A 
ATOM     65  C   UNL A   1      49.758  27.265  27.767  1.00  0.00     0.009 A 
ATOM     66  C   UNL A   1      49.458  26.256  29.943  1.00  0.00     0.009 A 
ATOM     67  C   UNL A   1      51.104  26.888  27.782  1.00  0.00     0.001 A 
ATOM     68  C   UNL A   1      50.810  25.909  29.970  1.00  0.00     0.001 A 
ATOM     69  C   UNL A   1      51.629  26.217  28.885  1.00  0.00     0.000 A 
ENDBRANCH  50  64
BRANCH  51  70
ATOM     70  C   UNL A   1      39.154  29.052  29.037  1.00  0.00    -0.014 A 
ATOM     71  C   UNL A   1      38.487  29.628  27.946  1.00  0.00     0.009 A 
ATOM     72  C   UNL A   1      38.429  28.786  30.209  1.00  0.00     0.009 A 
ATOM     73  C   UNL A   1      37.130  29.953  28.036  1.00  0.00     0.001 A 
ATOM     74  C   UNL A   1      37.067  29.082  30.287  1.00  0.00     0.001 A 
ATOM     75  C   UNL A   1      36.421  29.674  29.203  1.00  0.00     0.000 A 
ENDBRANCH  51  70
BRANCH  63  76
ATOM     76  C   UNL A   1      44.907  32.686  30.549  1.00  0.00    -0.014 A 
ATOM     77  C   UNL A   1      45.004  33.001  31.913  1.00  0.00     0.009 A 
ATOM     78  C   UNL A   1      45.060  33.713  29.603  1.00  0.00     0.009 A 
ATOM     79  C   UNL A   1      45.212  34.320  32.320  1.00  0.00     0.001 A 
ATOM     80  C   UNL A   1      45.301  35.025  30.012  1.00  0.00     0.001 A 
ATOM     81  C   UNL A   1      45.366  35.329  31.370  1.00  0.00     0.000 A 
ENDBRANCH  63  76
ENDBRANCH  37  38
ENDBRANCH  30  32
ENDBRANCH  29  30
ENDBRANCH  28  29
ENDBRANCH  27  28
ENDBRANCH  26  27
ENDBRANCH   1  26
TORSDOF 19
ENDMDL
MODEL 3
REMARK VINA RESULT:     -10.0      2.334      3.541
REMARK SMILES CC[C@@](C)([NH2+]CC(=O)Nc1ccc(Br)cc1F)C(=O)OCCOCCOC(=O)c1ccc(-c2c3nc(c(-c4ccccc4)c4ccc([nH]4)c(-c4ccccc4)c4nc(c(-c5ccccc5)c5ccc2[nH]5)C=C4)C=C3)cc1
REMARK SMILES IDX 22 1 21 2 20 3 18 4 19 5 3 6 4 7 2 8 1 9 5 10 6 13 7 14 8 15
REMARK SMILES IDX 9 16 10 18 11 19 16 20 12 21 15 22 17 23 13 24 14 25 23 26
REMARK SMILES IDX 24 27 25 28 26 29 27 30 28 31 29 32 30 33 76 34 31 35 75 36
REMARK SMILES IDX 32 37 33 38 34 39 69 40 35 41 74 42 68 43 70 44 36 45 73 46
REMARK SMILES IDX 67 47 66 48 37 50 59 51 44 52 58 53 45 54 48 55 57 56 71 57
REMARK SMILES IDX 46 58 47 59 56 61 72 62 49 63 38 64 39 65 43 66 40 67 42 68
REMARK SMILES IDX 41 69 60 70 61 71 65 72 62 73 64 74 63 75 50 76 51 77 55 78
REMARK SMILES IDX 52 79 54 80 53 81
REMARK H PARENT 5 11 5 12 9 17 70 49 48 60
REMARK Flexibility Score: inf
ROOT
ATOM      1  C   UNL A   1      37.872  21.936  25.507  1.00  0.00     0.202 C 
ENDROOT
BRANCH   1   2
ATOM      2  C   UNL A   1      36.712  22.884  25.793  1.00  0.00     0.261 C 
BRANCH   2   3
ATOM      3  O   UNL A   1      35.441  22.214  25.779  1.00  0.00    -0.459 OA
BRANCH   3   4
ATOM      4  C   UNL A   1      34.514  22.499  24.812  1.00  0.00     0.367 C 
ATOM      5  O   UNL A   1      34.670  23.415  24.016  1.00  0.00    -0.245 OA
BRANCH   4   6
ATOM      6  C   UNL A   1      33.323  21.439  24.769  1.00  0.00     0.191 C 
ATOM      7  C   UNL A   1      32.280  21.309  23.633  1.00  0.00     0.092 C 
BRANCH   6   8
ATOM      8  C   UNL A   1      34.075  20.056  24.739  1.00  0.00     0.077 C 
ATOM      9  C   UNL A   1      33.194  18.852  25.164  1.00  0.00     0.011 C 
ENDBRANCH   6   8
BRANCH   6  10
ATOM     10  N   UNL A   1      32.473  21.623  25.985  1.00  0.00    -0.325 N 
ATOM     11  H   UNL A   1      32.982  22.233  26.625  1.00  0.00     0.347 HD
ATOM     12  H   UNL A   1      32.300  20.680  26.330  1.00  0.00     0.347 HD
BRANCH  10  13
ATOM     13  C   UNL A   1      31.105  22.219  25.786  1.00  0.00     0.363 C 
BRANCH  13  14
ATOM     14  C   UNL A   1      30.561  23.330  26.719  1.00  0.00     0.279 C 
ATOM     15  O   UNL A   1      29.769  22.988  27.615  1.00  0.00    -0.268 OA
ATOM     16  N   UNL A   1      30.901  24.665  26.741  1.00  0.00    -0.319 N 
ATOM     17  H   UNL A   1      30.602  25.113  27.566  1.00  0.00     0.170 HD
BRANCH  16  18
ATOM     18  C   UNL A   1      31.574  25.546  25.868  1.00  0.00     0.077 A 
ATOM     19  C   UNL A   1      32.935  25.781  26.055  1.00  0.00     0.030 A 
ATOM     20  C   UNL A   1      30.895  26.417  24.989  1.00  0.00     0.147 A 
ATOM     21  C   UNL A   1      33.624  26.690  25.228  1.00  0.00     0.018 A 
ATOM     22  C   UNL A   1      31.574  27.272  24.117  1.00  0.00     0.057 A 
ATOM     23  F   UNL A   1      29.559  26.427  24.915  1.00  0.00    -0.205 F 
ATOM     24  C   UNL A   1      32.951  27.372  24.214  1.00  0.00     0.021 A 
ATOM     25  Br  UNL A   1      33.913  28.395  22.951  1.00  0.00    -0.051 Br
ENDBRANCH  16  18
ENDBRANCH  13  14
ENDBRANCH  10  13
ENDBRANCH   6  10
ENDBRANCH   4   6
ENDBRANCH   3   4
ENDBRANCH   2   3
ENDBRANCH   1   2
BRANCH   1  26
ATOM     26  O   UNL A   1      37.618  20.856  24.617  1.00  0.00    -0.374 OA
BRANCH  26  27
ATOM     27  C   UNL A   1      38.207  19.598  24.937  1.00  0.00     0.202 C 
BRANCH  27  28
ATOM     28  C   UNL A   1      39.364  19.593  25.941  1.00  0.00     0.261 C 
BRANCH  28  29
ATOM     29  O   UNL A   1      40.620  19.190  25.370  1.00  0.00    -0.460 OA
BRANCH  29  30
ATOM     30  C   UNL A   1      41.688  19.386  26.183  1.00  0.00     0.338 C 
ATOM     31  O   UNL A   1      42.604  18.618  26.403  1.00  0.00    -0.246 OA
BRANCH  30  32
ATOM     32  C   UNL A   1      41.693  20.774  26.683  1.00  0.00     0.060 A 
ATOM     33  C   UNL A   1      41.857  21.797  25.742  1.00  0.00     0.016 A 
ATOM     34  C   UNL A   1      41.661  21.058  28.050  1.00  0.00     0.016 A 
ATOM     35  C   UNL A   1      42.062  23.107  26.167  1.00  0.00     0.010 A 
ATOM     36  C   UNL A   1      41.875  22.372  28.475  1.00  0.00     0.010 A 
ATOM     37  C   UNL A   1      42.126  23.390  27.536  1.00  0.00    -0.014 A 
BRANCH  37  38
ATOM     38  C   UNL A   1      42.636  24.708  27.981  1.00  0.00     0.031 A 
ATOM     39  C   UNL A   1      41.648  25.803  28.281  1.00  0.00     0.074 A 
ATOM     40  C   UNL A   1      43.952  24.917  28.150  1.00  0.00     0.049 A 
ATOM     41  N   UNL A   1      41.866  27.039  28.649  1.00  0.00    -0.248 NA
ATOM     42  C   UNL A   1      40.223  25.457  28.146  1.00  0.00     0.031 C 
ATOM     43  C   UNL A   1      45.001  23.920  27.944  1.00  0.00     0.029 A 
ATOM     44  N   UNL A   1      44.629  26.047  28.534  1.00  0.00    -0.354 N 
ATOM     45  C   UNL A   1      40.610  27.621  28.774  1.00  0.00     0.074 A 
ATOM     46  C   UNL A   1      39.636  26.613  28.417  1.00  0.00     0.031 C 
ATOM     47  C   UNL A   1      46.193  24.486  28.194  1.00  0.00     0.029 A 
ATOM     48  C   UNL A   1      45.994  25.892  28.541  1.00  0.00     0.049 A 
ATOM     49  H   UNL A   1      44.180  26.887  28.781  1.00  0.00     0.167 HD
ATOM     50  C   UNL A   1      40.296  28.883  29.153  1.00  0.00     0.031 A 
ATOM     51  C   UNL A   1      46.969  26.790  28.774  1.00  0.00     0.031 A 
ATOM     52  C   UNL A   1      41.268  29.886  29.497  1.00  0.00     0.049 A 
ATOM     53  C   UNL A   1      46.597  28.208  29.121  1.00  0.00     0.074 A 
ATOM     54  C   UNL A   1      41.052  31.187  29.914  1.00  0.00     0.029 A 
ATOM     55  N   UNL A   1      42.641  29.701  29.454  1.00  0.00    -0.354 N 
ATOM     56  N   UNL A   1      45.406  28.741  29.259  1.00  0.00    -0.248 NA
ATOM     57  C   UNL A   1      47.705  29.144  29.351  1.00  0.00     0.031 C 
ATOM     58  C   UNL A   1      42.295  31.810  30.059  1.00  0.00     0.029 A 
ATOM     59  C   UNL A   1      43.286  30.875  29.805  1.00  0.00     0.049 A 
ATOM     60  H   UNL A   1      43.091  28.859  29.211  1.00  0.00     0.167 HD
ATOM     61  C   UNL A   1      45.622  30.065  29.620  1.00  0.00     0.074 A 
ATOM     62  C   UNL A   1      47.058  30.249  29.696  1.00  0.00     0.031 C 
ATOM     63  C   UNL A   1      44.715  31.042  29.871  1.00  0.00     0.031 A 
BRANCH  50  64
ATOM     64  C   UNL A   1      38.841  29.262  29.173  1.00  0.00    -0.014 A 
ATOM     65  C   UNL A   1      38.190  29.748  28.027  1.00  0.00     0.009 A 
ATOM     66  C   UNL A   1      38.099  29.096  30.353  1.00  0.00     0.009 A 
ATOM     67  C   UNL A   1      36.836  30.089  28.074  1.00  0.00     0.001 A 
ATOM     68  C   UNL A   1      36.739  29.407  30.389  1.00  0.00     0.001 A 
ATOM     69  C   UNL A   1      36.110  29.912  29.251  1.00  0.00     0.000 A 
ENDBRANCH  50  64
BRANCH  51  70
ATOM     70  C   UNL A   1      48.394  26.384  28.663  1.00  0.00    -0.014 A 
ATOM     71  C   UNL A   1      49.067  26.445  27.434  1.00  0.00     0.009 A 
ATOM     72  C   UNL A   1      49.087  25.917  29.792  1.00  0.00     0.009 A 
ATOM     73  C   UNL A   1      50.397  26.026  27.333  1.00  0.00     0.001 A 
ATOM     74  C   UNL A   1      50.424  25.528  29.695  1.00  0.00     0.001 A 
ATOM     75  C   UNL A   1      51.075  25.574  28.464  1.00  0.00     0.000 A 
ENDBRANCH  51  70
BRANCH  63  76
ATOM     76  C   UNL A   1      45.244  32.386  30.290  1.00  0.00    -0.014 A 
ATOM     77  C   UNL A   1      45.580  32.660  31.625  1.00  0.00     0.009 A 
ATOM     78  C   UNL A   1      45.451  33.381  29.320  1.00  0.00     0.009 A 
ATOM     79  C   UNL A   1      46.077  33.915  31.984  1.00  0.00     0.001 A 
ATOM     80  C   UNL A   1      45.979  34.622  29.677  1.00  0.00     0.001 A 
ATOM     81  C   UNL A   1      46.281  34.892  31.010  1.00  0.00     0.000 A 
ENDBRANCH  63  76
ENDBRANCH  37  38
ENDBRANCH  30  32
ENDBRANCH  29  30
ENDBRANCH  28  29
ENDBRANCH  27  28
ENDBRANCH  26  27
ENDBRANCH   1  26
TORSDOF 19
ENDMDL
