MODEL 1
REMARK VINA RESULT:      -8.1      0.000      0.000
REMARK SMILES C[C@H](O)[C@H](NC(=O)COCC[NH3+])C(=O)OCCOCCOC(=O)c1ccc(-c2c3nc(c(-c4ccccc4)c4ccc([nH]4)c(-c4ccccc4)c4nc(c(-c5ccccc5)c5ccc2[nH]5)C=C4)C=C3)cc1
REMARK SMILES IDX 16 1 15 2 13 3 14 4 4 5 2 6 1 7 3 8 5 10 6 11 7 13 8 14 9 15
REMARK SMILES IDX 10 16 11 17 12 18 17 22 18 23 19 24 20 25 21 26 22 27 23 28
REMARK SMILES IDX 24 29 25 30 71 31 26 32 70 33 27 34 28 35 29 36 64 37 30 38
REMARK SMILES IDX 69 39 63 40 65 41 31 42 68 43 62 44 61 45 32 47 54 48 39 49
REMARK SMILES IDX 53 50 40 51 43 52 52 53 66 54 41 55 42 56 51 58 67 59 44 60
REMARK SMILES IDX 33 61 34 62 38 63 35 64 37 65 36 66 55 67 56 68 60 69 57 70
REMARK SMILES IDX 59 71 58 72 45 73 46 74 50 75 47 76 49 77 48 78
REMARK H PARENT 3 9 5 12 12 19 12 20 12 21 65 46 43 57
REMARK Flexibility Score: inf
ROOT
ATOM      1  C   UNL A   1      36.462  23.489  25.561  1.00  0.00     0.261 C 
ENDROOT
BRANCH   1   2
ATOM      2  O   UNL A   1      35.454  22.878  26.383  1.00  0.00    -0.462 OA
BRANCH   2   3
ATOM      3  C   UNL A   1      34.174  23.225  26.058  1.00  0.00     0.331 C 
ATOM      4  O   UNL A   1      33.823  24.361  25.752  1.00  0.00    -0.250 OA
BRANCH   3   5
ATOM      5  C   UNL A   1      33.197  22.036  26.119  1.00  0.00     0.221 C 
BRANCH   5   6
ATOM      6  C   UNL A   1      33.063  21.353  24.744  1.00  0.00     0.145 C 
ATOM      7  C   UNL A   1      33.973  20.131  24.666  1.00  0.00     0.041 C 
BRANCH   6   8
ATOM      8  O   UNL A   1      33.430  22.212  23.663  1.00  0.00    -0.391 OA
ATOM      9  H   UNL A   1      33.079  21.855  22.833  1.00  0.00     0.211 HD
ENDBRANCH   6   8
ENDBRANCH   5   6
BRANCH   5  10
ATOM     10  N   UNL A   1      31.956  22.346  26.877  1.00  0.00    -0.339 N 
ATOM     11  C   UNL A   1      30.855  23.119  26.755  1.00  0.00     0.246 C 
ATOM     12  H   UNL A   1      31.930  21.838  27.719  1.00  0.00     0.164 HD
ATOM     13  O   UNL A   1      29.988  22.968  27.625  1.00  0.00    -0.272 OA
BRANCH  11  14
ATOM     14  C   UNL A   1      30.640  24.126  25.627  1.00  0.00     0.260 C 
BRANCH  14  15
ATOM     15  O   UNL A   1      30.860  23.670  24.302  1.00  0.00    -0.366 OA
BRANCH  15  16
ATOM     16  C   UNL A   1      30.698  24.680  23.302  1.00  0.00     0.222 C 
BRANCH  16  17
ATOM     17  C   UNL A   1      32.019  25.021  22.600  1.00  0.00     0.287 C 
BRANCH  17  18
ATOM     18  N   UNL A   1      32.807  26.032  23.308  1.00  0.00    -0.356 N 
ATOM     19  H   UNL A   1      32.256  26.885  23.405  1.00  0.00     0.344 HD
ATOM     20  H   UNL A   1      33.655  26.233  22.779  1.00  0.00     0.344 HD
ATOM     21  H   UNL A   1      33.057  25.681  24.232  1.00  0.00     0.344 HD
ENDBRANCH  17  18
ENDBRANCH  16  17
ENDBRANCH  15  16
ENDBRANCH  14  15
ENDBRANCH  11  14
ENDBRANCH   5  10
ENDBRANCH   3   5
ENDBRANCH   2   3
ENDBRANCH   1   2
BRANCH   1  22
ATOM     22  C   UNL A   1      36.825  22.655  24.328  1.00  0.00     0.202 C 
BRANCH  22  23
ATOM     23  O   UNL A   1      37.363  21.355  24.546  1.00  0.00    -0.374 OA
BRANCH  23  24
ATOM     24  C   UNL A   1      38.495  21.245  25.408  1.00  0.00     0.202 C 
BRANCH  24  25
ATOM     25  C   UNL A   1      39.140  19.862  25.550  1.00  0.00     0.261 C 
BRANCH  25  26
ATOM     26  O   UNL A   1      40.063  19.804  26.654  1.00  0.00    -0.460 OA
BRANCH  26  27
ATOM     27  C   UNL A   1      41.347  19.553  26.308  1.00  0.00     0.338 C 
ATOM     28  O   UNL A   1      41.787  18.550  25.759  1.00  0.00    -0.246 OA
BRANCH  27  29
ATOM     29  C   UNL A   1      42.171  20.757  26.508  1.00  0.00     0.060 A 
ATOM     30  C   UNL A   1      42.384  21.184  27.825  1.00  0.00     0.016 A 
ATOM     31  C   UNL A   1      42.648  21.506  25.431  1.00  0.00     0.016 A 
ATOM     32  C   UNL A   1      43.030  22.392  28.071  1.00  0.00     0.010 A 
ATOM     33  C   UNL A   1      43.285  22.727  25.680  1.00  0.00     0.010 A 
ATOM     34  C   UNL A   1      43.445  23.191  26.998  1.00  0.00    -0.014 A 
BRANCH  34  35
ATOM     35  C   UNL A   1      43.904  24.577  27.256  1.00  0.00     0.031 A 
ATOM     36  C   UNL A   1      42.898  25.612  27.679  1.00  0.00     0.074 A 
ATOM     37  C   UNL A   1      45.204  24.902  27.153  1.00  0.00     0.049 A 
ATOM     38  N   UNL A   1      43.074  26.883  27.935  1.00  0.00    -0.248 NA
ATOM     39  C   UNL A   1      41.509  25.150  27.838  1.00  0.00     0.031 C 
ATOM     40  C   UNL A   1      46.284  23.978  26.812  1.00  0.00     0.029 A 
ATOM     41  N   UNL A   1      45.833  26.108  27.330  1.00  0.00    -0.354 N 
ATOM     42  C   UNL A   1      41.820  27.373  28.281  1.00  0.00     0.074 A 
ATOM     43  C   UNL A   1      40.889  26.271  28.176  1.00  0.00     0.031 C 
ATOM     44  C   UNL A   1      47.446  24.653  26.801  1.00  0.00     0.029 A 
ATOM     45  C   UNL A   1      47.185  26.061  27.099  1.00  0.00     0.049 A 
ATOM     46  H   UNL A   1      45.360  26.930  27.596  1.00  0.00     0.167 HD
ATOM     47  C   UNL A   1      41.475  28.627  28.658  1.00  0.00     0.031 A 
ATOM     48  C   UNL A   1      48.104  27.044  27.108  1.00  0.00     0.031 A 
ATOM     49  C   UNL A   1      42.395  29.730  28.745  1.00  0.00     0.049 A 
ATOM     50  C   UNL A   1      47.678  28.452  27.430  1.00  0.00     0.074 A 
ATOM     51  C   UNL A   1      42.142  31.038  29.119  1.00  0.00     0.029 A 
ATOM     52  N   UNL A   1      43.745  29.654  28.442  1.00  0.00    -0.354 N 
ATOM     53  N   UNL A   1      46.494  28.901  27.767  1.00  0.00    -0.248 NA
ATOM     54  C   UNL A   1      48.720  29.487  27.376  1.00  0.00     0.031 C 
ATOM     55  C   UNL A   1      43.331  31.766  28.991  1.00  0.00     0.029 A 
ATOM     56  C   UNL A   1      44.334  30.897  28.593  1.00  0.00     0.049 A 
ATOM     57  H   UNL A   1      44.216  28.836  28.162  1.00  0.00     0.167 HD
ATOM     58  C   UNL A   1      46.653  30.263  27.992  1.00  0.00     0.074 A 
ATOM     59  C   UNL A   1      48.052  30.564  27.764  1.00  0.00     0.031 C 
ATOM     60  C   UNL A   1      45.726  31.182  28.359  1.00  0.00     0.031 A 
BRANCH  47  61
ATOM     61  C   UNL A   1      40.026  28.879  28.968  1.00  0.00    -0.014 A 
ATOM     62  C   UNL A   1      39.518  28.711  30.266  1.00  0.00     0.009 A 
ATOM     63  C   UNL A   1      39.162  29.312  27.951  1.00  0.00     0.009 A 
ATOM     64  C   UNL A   1      38.165  28.937  30.530  1.00  0.00     0.001 A 
ATOM     65  C   UNL A   1      37.816  29.563  28.224  1.00  0.00     0.001 A 
ATOM     66  C   UNL A   1      37.316  29.367  29.510  1.00  0.00     0.000 A 
ENDBRANCH  47  61
BRANCH  48  67
ATOM     67  C   UNL A   1      49.521  26.742  26.780  1.00  0.00    -0.014 A 
ATOM     68  C   UNL A   1      50.442  26.445  27.796  1.00  0.00     0.009 A 
ATOM     69  C   UNL A   1      49.963  26.768  25.448  1.00  0.00     0.009 A 
ATOM     70  C   UNL A   1      51.782  26.199  27.485  1.00  0.00     0.001 A 
ATOM     71  C   UNL A   1      51.297  26.496  25.138  1.00  0.00     0.001 A 
ATOM     72  C   UNL A   1      52.207  26.220  26.157  1.00  0.00     0.000 A 
ENDBRANCH  48  67
BRANCH  60  73
ATOM     73  C   UNL A   1      46.199  32.592  28.571  1.00  0.00    -0.014 A 
ATOM     74  C   UNL A   1      46.691  33.018  29.814  1.00  0.00     0.009 A 
ATOM     75  C   UNL A   1      46.194  33.495  27.495  1.00  0.00     0.009 A 
ATOM     76  C   UNL A   1      47.139  34.330  29.984  1.00  0.00     0.001 A 
ATOM     77  C   UNL A   1      46.670  34.796  27.661  1.00  0.00     0.001 A 
ATOM     78  C   UNL A   1      47.133  35.215  28.907  1.00  0.00     0.000 A 
ENDBRANCH  60  73
ENDBRANCH  34  35
ENDBRANCH  27  29
ENDBRANCH  26  27
ENDBRANCH  25  26
ENDBRANCH  24  25
ENDBRANCH  23  24
ENDBRANCH  22  23
ENDBRANCH   1  22
TORSDOF 22
ENDMDL
MODEL 2
REMARK VINA RESULT:      -7.9     10.001     14.026
REMARK SMILES C[C@H](O)[C@H](NC(=O)COCC[NH3+])C(=O)OCCOCCOC(=O)c1ccc(-c2c3nc(c(-c4ccccc4)c4ccc([nH]4)c(-c4ccccc4)c4nc(c(-c5ccccc5)c5ccc2[nH]5)C=C4)C=C3)cc1
REMARK SMILES IDX 16 1 15 2 13 3 14 4 4 5 2 6 1 7 3 8 5 10 6 11 7 13 8 14 9 15
REMARK SMILES IDX 10 16 11 17 12 18 17 22 18 23 19 24 20 25 21 26 22 27 23 28
REMARK SMILES IDX 24 29 25 30 71 31 26 32 70 33 27 34 28 35 29 36 64 37 30 38
REMARK SMILES IDX 69 39 63 40 65 41 31 42 68 43 62 44 61 45 32 47 54 48 39 49
REMARK SMILES IDX 53 50 40 51 43 52 52 53 66 54 41 55 42 56 51 58 67 59 44 60
REMARK SMILES IDX 33 61 34 62 38 63 35 64 37 65 36 66 55 67 56 68 60 69 57 70
REMARK SMILES IDX 59 71 58 72 45 73 46 74 50 75 47 76 49 77 48 78
REMARK H PARENT 3 9 5 12 12 19 12 20 12 21 65 46 43 57
REMARK Flexibility Score: inf
ROOT
ATOM      1  C   UNL A   1      34.933  33.303  28.529  1.00  0.00     0.261 C 
ENDROOT
BRANCH   1   2
ATOM      2  O   UNL A   1      34.760  34.558  29.208  1.00  0.00    -0.462 OA
BRANCH   2   3
ATOM      3  C   UNL A   1      33.457  34.921  29.400  1.00  0.00     0.331 C 
ATOM      4  O   UNL A   1      32.581  34.824  28.546  1.00  0.00    -0.250 OA
BRANCH   3   5
ATOM      5  C   UNL A   1      33.192  35.478  30.810  1.00  0.00     0.221 C 
BRANCH   5   6
ATOM      6  C   UNL A   1      33.747  36.909  30.957  1.00  0.00     0.145 C 
ATOM      7  C   UNL A   1      33.271  37.531  32.267  1.00  0.00     0.041 C 
BRANCH   6   8
ATOM      8  O   UNL A   1      33.319  37.777  29.907  1.00  0.00    -0.391 OA
ATOM      9  H   UNL A   1      34.063  38.328  29.619  1.00  0.00     0.211 HD
ENDBRANCH   6   8
ENDBRANCH   5   6
BRANCH   5  10
ATOM     10  N   UNL A   1      33.486  34.494  31.885  1.00  0.00    -0.339 N 
ATOM     11  C   UNL A   1      34.512  34.141  32.691  1.00  0.00     0.246 C 
ATOM     12  H   UNL A   1      32.699  33.930  32.061  1.00  0.00     0.164 HD
ATOM     13  O   UNL A   1      34.256  33.292  33.553  1.00  0.00    -0.272 OA
BRANCH  11  14
ATOM     14  C   UNL A   1      35.917  34.732  32.591  1.00  0.00     0.260 C 
BRANCH  14  15
ATOM     15  O   UNL A   1      36.815  34.117  31.683  1.00  0.00    -0.366 OA
BRANCH  15  16
ATOM     16  C   UNL A   1      38.134  34.670  31.700  1.00  0.00     0.222 C 
BRANCH  16  17
ATOM     17  C   UNL A   1      38.877  34.442  30.377  1.00  0.00     0.287 C 
BRANCH  17  18
ATOM     18  N   UNL A   1      38.043  34.675  29.197  1.00  0.00    -0.356 N 
ATOM     19  H   UNL A   1      38.611  34.574  28.355  1.00  0.00     0.344 HD
ATOM     20  H   UNL A   1      37.657  35.618  29.235  1.00  0.00     0.344 HD
ATOM     21  H   UNL A   1      37.282  33.998  29.179  1.00  0.00     0.344 HD
ENDBRANCH  17  18
ENDBRANCH  16  17
ENDBRANCH  15  16
ENDBRANCH  14  15
ENDBRANCH  11  14
ENDBRANCH   5  10
ENDBRANCH   3   5
ENDBRANCH   2   3
ENDBRANCH   1   2
BRANCH   1  22
ATOM     22  C   UNL A   1      34.596  32.090  29.402  1.00  0.00     0.202 C 
BRANCH  22  23
ATOM     23  O   UNL A   1      35.620  31.582  30.250  1.00  0.00    -0.374 OA
BRANCH  23  24
ATOM     24  C   UNL A   1      36.647  30.796  29.647  1.00  0.00     0.202 C 
BRANCH  24  25
ATOM     25  C   UNL A   1      37.219  29.635  30.469  1.00  0.00     0.261 C 
BRANCH  25  26
ATOM     26  O   UNL A   1      36.588  29.519  31.758  1.00  0.00    -0.460 OA
BRANCH  26  27
ATOM     27  C   UNL A   1      37.391  29.061  32.745  1.00  0.00     0.338 C 
ATOM     28  O   UNL A   1      37.739  27.903  32.944  1.00  0.00    -0.246 OA
BRANCH  27  29
ATOM     29  C   UNL A   1      37.981  30.189  33.485  1.00  0.00     0.060 A 
ATOM     30  C   UNL A   1      39.236  29.990  34.076  1.00  0.00     0.016 A 
ATOM     31  C   UNL A   1      37.285  31.384  33.678  1.00  0.00     0.016 A 
ATOM     32  C   UNL A   1      39.778  30.966  34.907  1.00  0.00     0.010 A 
ATOM     33  C   UNL A   1      37.826  32.358  34.525  1.00  0.00     0.010 A 
ATOM     34  C   UNL A   1      39.055  32.136  35.171  1.00  0.00    -0.014 A 
BRANCH  34  35
ATOM     35  C   UNL A   1      39.517  33.053  36.241  1.00  0.00     0.031 A 
ATOM     36  C   UNL A   1      38.842  33.006  37.583  1.00  0.00     0.074 A 
ATOM     37  C   UNL A   1      40.550  33.888  36.033  1.00  0.00     0.049 A 
ATOM     38  N   UNL A   1      39.068  33.728  38.651  1.00  0.00    -0.248 NA
ATOM     39  C   UNL A   1      37.770  32.009  37.745  1.00  0.00     0.031 C 
ATOM     40  C   UNL A   1      41.326  33.985  34.799  1.00  0.00     0.029 A 
ATOM     41  N   UNL A   1      41.121  34.815  36.867  1.00  0.00    -0.354 N 
ATOM     42  C   UNL A   1      38.167  33.277  39.608  1.00  0.00     0.074 A 
ATOM     43  C   UNL A   1      37.372  32.240  38.988  1.00  0.00     0.031 C 
ATOM     44  C   UNL A   1      42.274  34.925  34.955  1.00  0.00     0.029 A 
ATOM     45  C   UNL A   1      42.147  35.518  36.285  1.00  0.00     0.049 A 
ATOM     46  H   UNL A   1      40.823  34.964  37.794  1.00  0.00     0.167 HD
ATOM     47  C   UNL A   1      38.016  33.686  40.890  1.00  0.00     0.031 A 
ATOM     48  C   UNL A   1      42.885  36.537  36.764  1.00  0.00     0.031 A 
ATOM     49  C   UNL A   1      38.791  34.731  41.504  1.00  0.00     0.049 A 
ATOM     50  C   UNL A   1      42.630  37.043  38.160  1.00  0.00     0.074 A 
ATOM     51  C   UNL A   1      38.715  35.215  42.798  1.00  0.00     0.029 A 
ATOM     52  N   UNL A   1      39.779  35.460  40.861  1.00  0.00    -0.354 N 
ATOM     53  N   UNL A   1      41.785  36.601  39.058  1.00  0.00    -0.248 NA
ATOM     54  C   UNL A   1      43.437  38.188  38.605  1.00  0.00     0.031 C 
ATOM     55  C   UNL A   1      39.622  36.275  42.921  1.00  0.00     0.029 A 
ATOM     56  C   UNL A   1      40.300  36.410  41.721  1.00  0.00     0.049 A 
ATOM     57  H   UNL A   1      40.067  35.321  39.929  1.00  0.00     0.167 HD
ATOM     58  C   UNL A   1      41.977  37.394  40.183  1.00  0.00     0.074 A 
ATOM     59  C   UNL A   1      43.027  38.337  39.857  1.00  0.00     0.031 C 
ATOM     60  C   UNL A   1      41.343  37.343  41.381  1.00  0.00     0.031 A 
BRANCH  47  61
ATOM     61  C   UNL A   1      36.941  33.021  41.704  1.00  0.00    -0.014 A 
ATOM     62  C   UNL A   1      37.238  31.968  42.583  1.00  0.00     0.009 A 
ATOM     63  C   UNL A   1      35.616  33.470  41.603  1.00  0.00     0.009 A 
ATOM     64  C   UNL A   1      36.222  31.355  43.320  1.00  0.00     0.001 A 
ATOM     65  C   UNL A   1      34.607  32.872  42.362  1.00  0.00     0.001 A 
ATOM     66  C   UNL A   1      34.908  31.810  43.211  1.00  0.00     0.000 A 
ENDBRANCH  47  61
BRANCH  48  67
ATOM     67  C   UNL A   1      43.926  37.167  35.912  1.00  0.00    -0.014 A 
ATOM     68  C   UNL A   1      45.264  36.753  35.995  1.00  0.00     0.009 A 
ATOM     69  C   UNL A   1      43.587  38.199  35.024  1.00  0.00     0.009 A 
ATOM     70  C   UNL A   1      46.245  37.376  35.219  1.00  0.00     0.001 A 
ATOM     71  C   UNL A   1      44.566  38.802  34.231  1.00  0.00     0.001 A 
ATOM     72  C   UNL A   1      45.895  38.395  34.335  1.00  0.00     0.000 A 
ENDBRANCH  48  67
BRANCH  60  73
ATOM     73  C   UNL A   1      41.792  38.311  42.439  1.00  0.00    -0.014 A 
ATOM     74  C   UNL A   1      42.838  37.996  43.319  1.00  0.00     0.009 A 
ATOM     75  C   UNL A   1      41.187  39.575  42.525  1.00  0.00     0.009 A 
ATOM     76  C   UNL A   1      43.248  38.917  44.286  1.00  0.00     0.001 A 
ATOM     77  C   UNL A   1      41.618  40.504  43.473  1.00  0.00     0.001 A 
ATOM     78  C   UNL A   1      42.643  40.171  44.358  1.00  0.00     0.000 A 
ENDBRANCH  60  73
ENDBRANCH  34  35
ENDBRANCH  27  29
ENDBRANCH  26  27
ENDBRANCH  25  26
ENDBRANCH  24  25
ENDBRANCH  23  24
ENDBRANCH  22  23
ENDBRANCH   1  22
TORSDOF 22
ENDMDL
MODEL 3
REMARK VINA RESULT:      -7.9      4.793      9.259
REMARK SMILES C[C@H](O)[C@H](NC(=O)COCC[NH3+])C(=O)OCCOCCOC(=O)c1ccc(-c2c3nc(c(-c4ccccc4)c4ccc([nH]4)c(-c4ccccc4)c4nc(c(-c5ccccc5)c5ccc2[nH]5)C=C4)C=C3)cc1
REMARK SMILES IDX 16 1 15 2 13 3 14 4 4 5 2 6 1 7 3 8 5 10 6 11 7 13 8 14 9 15
REMARK SMILES IDX 10 16 11 17 12 18 17 22 18 23 19 24 20 25 21 26 22 27 23 28
REMARK SMILES IDX 24 29 25 30 71 31 26 32 70 33 27 34 28 35 29 36 64 37 30 38
REMARK SMILES IDX 69 39 63 40 65 41 31 42 68 43 62 44 61 45 32 47 54 48 39 49
REMARK SMILES IDX 53 50 40 51 43 52 52 53 66 54 41 55 42 56 51 58 67 59 44 60
REMARK SMILES IDX 33 61 34 62 38 63 35 64 37 65 36 66 55 67 56 68 60 69 57 70
REMARK SMILES IDX 59 71 58 72 45 73 46 74 50 75 47 76 49 77 48 78
REMARK H PARENT 3 9 5 12 12 19 12 20 12 21 65 46 43 57
REMARK Flexibility Score: inf
ROOT
ATOM      1  C   UNL A   1      31.972  27.806  27.307  1.00  0.00     0.261 C 
ENDROOT
BRANCH   1   2
ATOM      2  O   UNL A   1      31.491  27.410  26.011  1.00  0.00    -0.462 OA
BRANCH   2   3
ATOM      3  C   UNL A   1      30.835  26.213  25.994  1.00  0.00     0.331 C 
ATOM      4  O   UNL A   1      29.797  25.985  26.608  1.00  0.00    -0.250 OA
BRANCH   3   5
ATOM      5  C   UNL A   1      31.540  25.157  25.121  1.00  0.00     0.221 C 
BRANCH   5   6
ATOM      6  C   UNL A   1      31.922  23.914  25.950  1.00  0.00     0.145 C 
ATOM      7  C   UNL A   1      31.174  22.686  25.441  1.00  0.00     0.041 C 
BRANCH   6   8
ATOM      8  O   UNL A   1      31.599  24.053  27.334  1.00  0.00    -0.391 OA
ATOM      9  H   UNL A   1      30.635  24.072  27.441  1.00  0.00     0.211 HD
ENDBRANCH   6   8
ENDBRANCH   5   6
BRANCH   5  10
ATOM     10  N   UNL A   1      32.563  25.745  24.218  1.00  0.00    -0.339 N 
ATOM     11  C   UNL A   1      32.627  26.579  23.156  1.00  0.00     0.246 C 
ATOM     12  H   UNL A   1      33.463  25.432  24.466  1.00  0.00     0.164 HD
ATOM     13  O   UNL A   1      33.763  26.885  22.776  1.00  0.00    -0.272 OA
BRANCH  11  14
ATOM     14  C   UNL A   1      31.401  27.143  22.441  1.00  0.00     0.260 C 
BRANCH  14  15
ATOM     15  O   UNL A   1      30.791  28.290  23.009  1.00  0.00    -0.366 OA
BRANCH  15  16
ATOM     16  C   UNL A   1      29.435  28.493  22.602  1.00  0.00     0.222 C 
BRANCH  16  17
ATOM     17  C   UNL A   1      29.072  29.981  22.511  1.00  0.00     0.287 C 
BRANCH  17  18
ATOM     18  N   UNL A   1      29.884  30.716  21.540  1.00  0.00    -0.356 N 
ATOM     19  H   UNL A   1      29.729  31.718  21.657  1.00  0.00     0.344 HD
ATOM     20  H   UNL A   1      29.619  30.439  20.596  1.00  0.00     0.344 HD
ATOM     21  H   UNL A   1      30.870  30.505  21.692  1.00  0.00     0.344 HD
ENDBRANCH  17  18
ENDBRANCH  16  17
ENDBRANCH  15  16
ENDBRANCH  14  15
ENDBRANCH  11  14
ENDBRANCH   5  10
ENDBRANCH   3   5
ENDBRANCH   2   3
ENDBRANCH   1   2
BRANCH   1  22
ATOM     22  C   UNL A   1      33.133  28.804  27.244  1.00  0.00     0.202 C 
BRANCH  22  23
ATOM     23  O   UNL A   1      32.868  30.088  26.689  1.00  0.00    -0.374 OA
BRANCH  23  24
ATOM     24  C   UNL A   1      33.443  31.219  27.341  1.00  0.00     0.202 C 
BRANCH  24  25
ATOM     25  C   UNL A   1      32.508  32.388  27.676  1.00  0.00     0.261 C 
BRANCH  25  26
ATOM     26  O   UNL A   1      33.163  33.663  27.541  1.00  0.00    -0.460 OA
BRANCH  26  27
ATOM     27  C   UNL A   1      33.340  34.337  28.700  1.00  0.00     0.338 C 
ATOM     28  O   UNL A   1      32.534  35.066  29.268  1.00  0.00    -0.246 OA
BRANCH  27  29
ATOM     29  C   UNL A   1      34.606  33.934  29.335  1.00  0.00     0.060 A 
ATOM     30  C   UNL A   1      35.792  34.196  28.635  1.00  0.00     0.016 A 
ATOM     31  C   UNL A   1      34.632  33.232  30.541  1.00  0.00     0.016 A 
ATOM     32  C   UNL A   1      37.005  33.710  29.114  1.00  0.00     0.010 A 
ATOM     33  C   UNL A   1      35.850  32.733  31.013  1.00  0.00     0.010 A 
ATOM     34  C   UNL A   1      37.035  32.938  30.282  1.00  0.00    -0.014 A 
BRANCH  34  35
ATOM     35  C   UNL A   1      38.279  32.221  30.650  1.00  0.00     0.031 A 
ATOM     36  C   UNL A   1      39.181  32.815  31.696  1.00  0.00     0.074 A 
ATOM     37  C   UNL A   1      38.582  31.037  30.090  1.00  0.00     0.049 A 
ATOM     38  N   UNL A   1      40.324  32.371  32.154  1.00  0.00    -0.248 NA
ATOM     39  C   UNL A   1      38.734  34.076  32.310  1.00  0.00     0.031 C 
ATOM     40  C   UNL A   1      37.760  30.327  29.112  1.00  0.00     0.029 A 
ATOM     41  N   UNL A   1      39.671  30.223  30.272  1.00  0.00    -0.354 N 
ATOM     42  C   UNL A   1      40.733  33.298  33.105  1.00  0.00     0.074 A 
ATOM     43  C   UNL A   1      39.732  34.342  33.139  1.00  0.00     0.031 C 
ATOM     44  C   UNL A   1      38.378  29.182  28.775  1.00  0.00     0.029 A 
ATOM     45  C   UNL A   1      39.652  29.097  29.487  1.00  0.00     0.049 A 
ATOM     46  H   UNL A   1      40.399  30.428  30.904  1.00  0.00     0.167 HD
ATOM     47  C   UNL A   1      41.840  33.281  33.884  1.00  0.00     0.031 A 
ATOM     48  C   UNL A   1      40.567  28.120  29.346  1.00  0.00     0.031 A 
ATOM     49  C   UNL A   1      42.847  32.254  33.840  1.00  0.00     0.049 A 
ATOM     50  C   UNL A   1      41.839  28.175  30.150  1.00  0.00     0.074 A 
ATOM     51  C   UNL A   1      44.004  32.146  34.591  1.00  0.00     0.029 A 
ATOM     52  N   UNL A   1      42.821  31.162  32.986  1.00  0.00    -0.354 N 
ATOM     53  N   UNL A   1      42.209  29.049  31.053  1.00  0.00    -0.248 NA
ATOM     54  C   UNL A   1      42.818  27.104  29.913  1.00  0.00     0.031 C 
ATOM     55  C   UNL A   1      44.704  31.016  34.154  1.00  0.00     0.029 A 
ATOM     56  C   UNL A   1      43.954  30.391  33.172  1.00  0.00     0.049 A 
ATOM     57  H   UNL A   1      42.101  30.965  32.344  1.00  0.00     0.167 HD
ATOM     58  C   UNL A   1      43.448  28.620  31.513  1.00  0.00     0.074 A 
ATOM     59  C   UNL A   1      43.761  27.400  30.796  1.00  0.00     0.031 C 
ATOM     60  C   UNL A   1      44.253  29.182  32.448  1.00  0.00     0.031 A 
BRANCH  47  61
ATOM     61  C   UNL A   1      42.036  34.434  34.829  1.00  0.00    -0.014 A 
ATOM     62  C   UNL A   1      42.707  35.599  34.427  1.00  0.00     0.009 A 
ATOM     63  C   UNL A   1      41.522  34.360  36.132  1.00  0.00     0.009 A 
ATOM     64  C   UNL A   1      42.891  36.654  35.325  1.00  0.00     0.001 A 
ATOM     65  C   UNL A   1      41.683  35.427  37.018  1.00  0.00     0.001 A 
ATOM     66  C   UNL A   1      42.375  36.568  36.618  1.00  0.00     0.000 A 
ENDBRANCH  47  61
BRANCH  48  67
ATOM     67  C   UNL A   1      40.328  27.010  28.388  1.00  0.00    -0.014 A 
ATOM     68  C   UNL A   1      40.804  27.088  27.070  1.00  0.00     0.009 A 
ATOM     69  C   UNL A   1      39.606  25.873  28.783  1.00  0.00     0.009 A 
ATOM     70  C   UNL A   1      40.543  26.058  26.163  1.00  0.00     0.001 A 
ATOM     71  C   UNL A   1      39.369  24.834  27.881  1.00  0.00     0.001 A 
ATOM     72  C   UNL A   1      39.831  24.931  26.570  1.00  0.00     0.000 A 
ENDBRANCH  48  67
BRANCH  60  73
ATOM     73  C   UNL A   1      45.533  28.466  32.776  1.00  0.00    -0.014 A 
ATOM     74  C   UNL A   1      46.731  28.773  32.113  1.00  0.00     0.009 A 
ATOM     75  C   UNL A   1      45.547  27.500  33.795  1.00  0.00     0.009 A 
ATOM     76  C   UNL A   1      47.911  28.104  32.444  1.00  0.00     0.001 A 
ATOM     77  C   UNL A   1      46.734  26.855  34.143  1.00  0.00     0.001 A 
ATOM     78  C   UNL A   1      47.913  27.151  33.462  1.00  0.00     0.000 A 
ENDBRANCH  60  73
ENDBRANCH  34  35
ENDBRANCH  27  29
ENDBRANCH  26  27
ENDBRANCH  25  26
ENDBRANCH  24  25
ENDBRANCH  23  24
ENDBRANCH  22  23
ENDBRANCH   1  22
TORSDOF 22
ENDMDL
