MODEL 1
REMARK VINA RESULT:      -9.9      0.000      0.000
REMARK SMILES C[NH2+][C@]1(C(=O)OCCOCCOC(=O)c2ccc(-c3c4nc(c(-c5ccccc5)c5ccc([nH]5)c(-c5ccccc5)c5nc(c(-c6ccccc6)c6ccc3[nH]6)C=C5)C=C4)cc2)CCC[C@@H](Sc2nncs2)C1
REMARK SMILES IDX 9 1 8 2 7 3 6 4 4 5 5 6 3 7 63 8 73 9 64 10 66 11 65 12 2 13
REMARK SMILES IDX 1 14 67 17 68 18 69 19 72 20 70 21 71 22 10 23 11 24 12 25
REMARK SMILES IDX 13 26 14 27 15 28 16 29 62 30 17 31 61 32 18 33 19 34 20 35
REMARK SMILES IDX 55 36 21 37 60 38 54 39 56 40 22 41 59 42 53 43 52 44 23 46
REMARK SMILES IDX 45 47 30 48 44 49 31 50 34 51 43 52 57 53 32 54 33 55 42 57
REMARK SMILES IDX 58 58 35 59 24 60 25 61 29 62 26 63 28 64 27 65 46 66 47 67
REMARK SMILES IDX 51 68 48 69 50 70 49 71 36 72 37 73 41 74 38 75 40 76 39 77
REMARK H PARENT 2 15 2 16 56 45 34 56
REMARK Flexibility Score: inf
ROOT
ATOM      1  O   UNL A   1      34.828  33.677  28.560  1.00  0.00    -0.374 OA
ENDROOT
BRANCH   1   2
ATOM      2  C   UNL A   1      34.839  32.262  28.409  1.00  0.00     0.202 C 
BRANCH   2   3
ATOM      3  C   UNL A   1      33.549  31.586  27.934  1.00  0.00     0.261 C 
BRANCH   3   4
ATOM      4  O   UNL A   1      33.783  30.559  26.963  1.00  0.00    -0.459 OA
BRANCH   4   5
ATOM      5  C   UNL A   1      32.700  30.211  26.211  1.00  0.00     0.368 C 
ATOM      6  O   UNL A   1      31.689  30.902  26.111  1.00  0.00    -0.245 OA
BRANCH   5   7
ATOM      7  C   UNL A   1      32.854  28.820  25.513  1.00  0.00     0.195 C 
ATOM      8  C   UNL A   1      33.227  27.689  26.509  1.00  0.00     0.081 C 
ATOM      9  C   UNL A   1      31.460  28.520  24.910  1.00  0.00     0.096 C 
ATOM     10  C   UNL A   1      33.141  26.289  25.901  1.00  0.00     0.008 C 
ATOM     11  C   UNL A   1      31.257  27.084  24.413  1.00  0.00     0.061 C 
ATOM     12  C   UNL A   1      31.731  26.010  25.398  1.00  0.00     0.015 C 
BRANCH   7  13
ATOM     13  N   UNL A   1      33.945  28.823  24.487  1.00  0.00    -0.335 N 
ATOM     14  C   UNL A   1      33.558  29.214  23.136  1.00  0.00     0.331 C 
ATOM     15  H   UNL A   1      34.666  29.470  24.803  1.00  0.00     0.347 HD
ATOM     16  H   UNL A   1      34.251  27.853  24.413  1.00  0.00     0.347 HD
ENDBRANCH   7  13
BRANCH  11  17
ATOM     17  S   UNL A   1      29.525  26.779  23.879  1.00  0.00    -0.090 SA
BRANCH  17  18
ATOM     18  C   UNL A   1      29.157  28.203  22.930  1.00  0.00     0.174 A 
ATOM     19  N   UNL A   1      29.968  28.676  22.008  1.00  0.00    -0.132 NA
ATOM     20  S   UNL A   1      27.716  29.114  23.128  1.00  0.00    -0.094 S 
ATOM     21  N   UNL A   1      29.485  29.827  21.420  1.00  0.00    -0.146 NA
ATOM     22  C   UNL A   1      28.314  30.166  21.913  1.00  0.00     0.203 A 
ENDBRANCH  17  18
ENDBRANCH  11  17
ENDBRANCH   5   7
ENDBRANCH   4   5
ENDBRANCH   3   4
ENDBRANCH   2   3
ENDBRANCH   1   2
BRANCH   1  23
ATOM     23  C   UNL A   1      33.613  34.373  28.274  1.00  0.00     0.202 C 
BRANCH  23  24
ATOM     24  C   UNL A   1      33.184  35.480  29.247  1.00  0.00     0.261 C 
BRANCH  24  25
ATOM     25  O   UNL A   1      32.491  34.972  30.405  1.00  0.00    -0.460 OA
BRANCH  25  26
ATOM     26  C   UNL A   1      32.772  35.620  31.560  1.00  0.00     0.338 C 
ATOM     27  O   UNL A   1      32.132  36.522  32.082  1.00  0.00    -0.246 OA
BRANCH  26  28
ATOM     28  C   UNL A   1      33.907  34.983  32.250  1.00  0.00     0.060 A 
ATOM     29  C   UNL A   1      35.163  35.598  32.143  1.00  0.00     0.016 A 
ATOM     30  C   UNL A   1      33.776  33.739  32.869  1.00  0.00     0.016 A 
ATOM     31  C   UNL A   1      36.301  34.947  32.614  1.00  0.00     0.010 A 
ATOM     32  C   UNL A   1      34.923  33.082  33.332  1.00  0.00     0.010 A 
ATOM     33  C   UNL A   1      36.193  33.667  33.172  1.00  0.00    -0.014 A 
BRANCH  33  34
ATOM     34  C   UNL A   1      37.425  32.886  33.442  1.00  0.00     0.031 A 
ATOM     35  C   UNL A   1      38.179  33.127  34.722  1.00  0.00     0.074 A 
ATOM     36  C   UNL A   1      37.846  31.942  32.583  1.00  0.00     0.049 A 
ATOM     37  N   UNL A   1      39.275  32.560  35.159  1.00  0.00    -0.248 NA
ATOM     38  C   UNL A   1      37.621  34.141  35.632  1.00  0.00     0.031 C 
ATOM     39  C   UNL A   1      37.182  31.578  31.333  1.00  0.00     0.029 A 
ATOM     40  N   UNL A   1      38.941  31.116  32.638  1.00  0.00    -0.354 N 
ATOM     41  C   UNL A   1      39.538  33.147  36.391  1.00  0.00     0.074 A 
ATOM     42  C   UNL A   1      38.504  34.134  36.619  1.00  0.00     0.031 C 
ATOM     43  C   UNL A   1      37.886  30.601  30.735  1.00  0.00     0.029 A 
ATOM     44  C   UNL A   1      39.063  30.293  31.546  1.00  0.00     0.049 A 
ATOM     45  H   UNL A   1      39.577  31.113  33.390  1.00  0.00     0.167 HD
ATOM     46  C   UNL A   1      40.545  32.885  37.257  1.00  0.00     0.031 A 
ATOM     47  C   UNL A   1      40.024  29.405  31.229  1.00  0.00     0.031 A 
ATOM     48  C   UNL A   1      41.584  31.918  37.029  1.00  0.00     0.049 A 
ATOM     49  C   UNL A   1      41.177  29.189  32.171  1.00  0.00     0.074 A 
ATOM     50  C   UNL A   1      42.644  31.579  37.852  1.00  0.00     0.029 A 
ATOM     51  N   UNL A   1      41.696  31.138  35.889  1.00  0.00    -0.354 N 
ATOM     52  N   UNL A   1      41.403  29.737  33.340  1.00  0.00    -0.248 NA
ATOM     53  C   UNL A   1      42.204  28.224  31.751  1.00  0.00     0.031 C 
ATOM     54  C   UNL A   1      43.426  30.627  37.188  1.00  0.00     0.029 A 
ATOM     55  C   UNL A   1      42.822  30.338  35.974  1.00  0.00     0.049 A 
ATOM     56  H   UNL A   1      41.069  31.152  35.131  1.00  0.00     0.167 HD
ATOM     57  C   UNL A   1      42.582  29.167  33.805  1.00  0.00     0.074 A 
ATOM     58  C   UNL A   1      43.017  28.221  32.798  1.00  0.00     0.031 C 
ATOM     59  C   UNL A   1      43.244  29.404  34.963  1.00  0.00     0.031 A 
BRANCH  46  60
ATOM     60  C   UNL A   1      40.586  33.688  38.526  1.00  0.00    -0.014 A 
ATOM     61  C   UNL A   1      41.259  34.918  38.588  1.00  0.00     0.009 A 
ATOM     62  C   UNL A   1      39.918  33.220  39.669  1.00  0.00     0.009 A 
ATOM     63  C   UNL A   1      41.288  35.649  39.777  1.00  0.00     0.001 A 
ATOM     64  C   UNL A   1      39.929  33.964  40.850  1.00  0.00     0.001 A 
ATOM     65  C   UNL A   1      40.620  35.173  40.906  1.00  0.00     0.000 A 
ENDBRANCH  46  60
BRANCH  47  66
ATOM     66  C   UNL A   1      39.952  28.662  29.944  1.00  0.00    -0.014 A 
ATOM     67  C   UNL A   1      40.451  29.225  28.760  1.00  0.00     0.009 A 
ATOM     68  C   UNL A   1      39.362  27.389  29.895  1.00  0.00     0.009 A 
ATOM     69  C   UNL A   1      40.343  28.535  27.549  1.00  0.00     0.001 A 
ATOM     70  C   UNL A   1      39.278  26.692  28.689  1.00  0.00     0.001 A 
ATOM     71  C   UNL A   1      39.760  27.268  27.516  1.00  0.00     0.000 A 
ENDBRANCH  47  66
BRANCH  59  72
ATOM     72  C   UNL A   1      44.493  28.608  35.219  1.00  0.00    -0.014 A 
ATOM     73  C   UNL A   1      45.752  29.080  34.816  1.00  0.00     0.009 A 
ATOM     74  C   UNL A   1      44.411  27.389  35.910  1.00  0.00     0.009 A 
ATOM     75  C   UNL A   1      46.901  28.330  35.075  1.00  0.00     0.001 A 
ATOM     76  C   UNL A   1      45.565  26.654  36.189  1.00  0.00     0.001 A 
ATOM     77  C   UNL A   1      46.807  27.122  35.764  1.00  0.00     0.000 A 
ENDBRANCH  59  72
ENDBRANCH  33  34
ENDBRANCH  26  28
ENDBRANCH  25  26
ENDBRANCH  24  25
ENDBRANCH  23  24
ENDBRANCH   1  23
TORSDOF 17
ENDMDL
MODEL 2
REMARK VINA RESULT:      -9.5      5.319     10.025
REMARK SMILES C[NH2+][C@]1(C(=O)OCCOCCOC(=O)c2ccc(-c3c4nc(c(-c5ccccc5)c5ccc([nH]5)c(-c5ccccc5)c5nc(c(-c6ccccc6)c6ccc3[nH]6)C=C5)C=C4)cc2)CCC[C@@H](Sc2nncs2)C1
REMARK SMILES IDX 9 1 8 2 7 3 6 4 4 5 5 6 3 7 63 8 73 9 64 10 66 11 65 12 2 13
REMARK SMILES IDX 1 14 67 17 68 18 69 19 72 20 70 21 71 22 10 23 11 24 12 25
REMARK SMILES IDX 13 26 14 27 15 28 16 29 62 30 17 31 61 32 18 33 19 34 20 35
REMARK SMILES IDX 55 36 21 37 60 38 54 39 56 40 22 41 59 42 53 43 52 44 23 46
REMARK SMILES IDX 45 47 30 48 44 49 31 50 34 51 43 52 57 53 32 54 33 55 42 57
REMARK SMILES IDX 58 58 35 59 24 60 25 61 29 62 26 63 28 64 27 65 46 66 47 67
REMARK SMILES IDX 51 68 48 69 50 70 49 71 36 72 37 73 41 74 38 75 40 76 39 77
REMARK H PARENT 2 15 2 16 56 45 34 56
REMARK Flexibility Score: inf
ROOT
ATOM      1  O   UNL A   1      38.841  22.244  26.007  1.00  0.00    -0.374 OA
ENDROOT
BRANCH   1   2
ATOM      2  C   UNL A   1      38.011  23.397  26.095  1.00  0.00     0.202 C 
BRANCH   2   3
ATOM      3  C   UNL A   1      36.726  23.415  25.260  1.00  0.00     0.261 C 
BRANCH   3   4
ATOM      4  O   UNL A   1      35.605  23.949  25.975  1.00  0.00    -0.459 OA
BRANCH   4   5
ATOM      5  C   UNL A   1      34.631  23.047  26.288  1.00  0.00     0.368 C 
ATOM      6  O   UNL A   1      34.826  22.039  26.963  1.00  0.00    -0.245 OA
BRANCH   5   7
ATOM      7  C   UNL A   1      33.239  23.401  25.669  1.00  0.00     0.195 C 
ATOM      8  C   UNL A   1      32.066  22.676  26.380  1.00  0.00     0.081 C 
ATOM      9  C   UNL A   1      33.088  24.928  25.877  1.00  0.00     0.096 C 
ATOM     10  C   UNL A   1      30.688  23.189  25.961  1.00  0.00     0.008 C 
ATOM     11  C   UNL A   1      31.685  25.487  25.613  1.00  0.00     0.061 C 
ATOM     12  C   UNL A   1      30.557  24.676  26.261  1.00  0.00     0.015 C 
BRANCH   7  13
ATOM     13  N   UNL A   1      33.145  22.996  24.231  1.00  0.00    -0.335 N 
ATOM     14  C   UNL A   1      33.177  21.563  23.961  1.00  0.00     0.331 C 
ATOM     15  H   UNL A   1      32.268  23.362  23.861  1.00  0.00     0.347 HD
ATOM     16  H   UNL A   1      33.980  23.376  23.786  1.00  0.00     0.347 HD
ENDBRANCH   7  13
BRANCH  11  17
ATOM     17  S   UNL A   1      31.561  27.268  26.053  1.00  0.00    -0.090 SA
BRANCH  17  18
ATOM     18  C   UNL A   1      30.942  27.987  24.581  1.00  0.00     0.174 A 
ATOM     19  N   UNL A   1      30.853  29.288  24.406  1.00  0.00    -0.132 NA
ATOM     20  S   UNL A   1      30.387  27.061  23.248  1.00  0.00    -0.094 S 
ATOM     21  N   UNL A   1      30.299  29.619  23.186  1.00  0.00    -0.146 NA
ATOM     22  C   UNL A   1      30.011  28.548  22.480  1.00  0.00     0.203 A 
ENDBRANCH  17  18
ENDBRANCH  11  17
ENDBRANCH   5   7
ENDBRANCH   4   5
ENDBRANCH   3   4
ENDBRANCH   2   3
ENDBRANCH   1   2
BRANCH   1  23
ATOM     23  C   UNL A   1      38.322  21.093  25.336  1.00  0.00     0.202 C 
BRANCH  23  24
ATOM     24  C   UNL A   1      39.168  19.813  25.367  1.00  0.00     0.261 C 
BRANCH  24  25
ATOM     25  O   UNL A   1      40.116  19.794  26.454  1.00  0.00    -0.460 OA
BRANCH  25  26
ATOM     26  C   UNL A   1      41.414  19.865  26.073  1.00  0.00     0.338 C 
ATOM     27  O   UNL A   1      42.007  19.116  25.309  1.00  0.00    -0.246 OA
BRANCH  26  28
ATOM     28  C   UNL A   1      42.035  21.102  26.575  1.00  0.00     0.060 A 
ATOM     29  C   UNL A   1      42.040  21.312  27.961  1.00  0.00     0.016 A 
ATOM     30  C   UNL A   1      42.476  22.100  25.704  1.00  0.00     0.016 A 
ATOM     31  C   UNL A   1      42.443  22.541  28.479  1.00  0.00     0.010 A 
ATOM     32  C   UNL A   1      42.870  23.338  26.227  1.00  0.00     0.010 A 
ATOM     33  C   UNL A   1      42.819  23.575  27.613  1.00  0.00    -0.014 A 
BRANCH  33  34
ATOM     34  C   UNL A   1      43.008  24.943  28.154  1.00  0.00     0.031 A 
ATOM     35  C   UNL A   1      44.388  25.389  28.554  1.00  0.00     0.074 A 
ATOM     36  C   UNL A   1      41.974  25.797  28.247  1.00  0.00     0.049 A 
ATOM     37  N   UNL A   1      44.779  26.537  29.049  1.00  0.00    -0.248 NA
ATOM     38  C   UNL A   1      45.473  24.411  28.371  1.00  0.00     0.031 C 
ATOM     39  C   UNL A   1      40.597  25.507  27.850  1.00  0.00     0.029 A 
ATOM     40  N   UNL A   1      41.927  27.089  28.710  1.00  0.00    -0.354 N 
ATOM     41  C   UNL A   1      46.151  26.420  29.235  1.00  0.00     0.074 A 
ATOM     42  C   UNL A   1      46.521  25.080  28.829  1.00  0.00     0.031 C 
ATOM     43  C   UNL A   1      39.838  26.590  28.089  1.00  0.00     0.029 A 
ATOM     44  C   UNL A   1      40.668  27.637  28.682  1.00  0.00     0.049 A 
ATOM     45  H   UNL A   1      42.721  27.575  29.030  1.00  0.00     0.167 HD
ATOM     46  C   UNL A   1      47.026  27.343  29.697  1.00  0.00     0.031 A 
ATOM     47  C   UNL A   1      40.234  28.840  29.102  1.00  0.00     0.031 A 
ATOM     48  C   UNL A   1      46.663  28.670  30.117  1.00  0.00     0.049 A 
ATOM     49  C   UNL A   1      41.213  29.821  29.687  1.00  0.00     0.074 A 
ATOM     50  C   UNL A   1      47.482  29.678  30.595  1.00  0.00     0.029 A 
ATOM     51  N   UNL A   1      45.370  29.168  30.116  1.00  0.00    -0.354 N 
ATOM     52  N   UNL A   1      42.510  29.704  29.840  1.00  0.00    -0.248 NA
ATOM     53  C   UNL A   1      40.667  31.106  30.150  1.00  0.00     0.031 C 
ATOM     54  C   UNL A   1      46.676  30.773  30.928  1.00  0.00     0.029 A 
ATOM     55  C   UNL A   1      45.365  30.462  30.610  1.00  0.00     0.049 A 
ATOM     56  H   UNL A   1      44.575  28.677  29.810  1.00  0.00     0.167 HD
ATOM     57  C   UNL A   1      42.937  30.905  30.394  1.00  0.00     0.074 A 
ATOM     58  C   UNL A   1      41.764  31.742  30.537  1.00  0.00     0.031 C 
ATOM     59  C   UNL A   1      44.189  31.281  30.749  1.00  0.00     0.031 A 
BRANCH  46  60
ATOM     60  C   UNL A   1      48.468  26.933  29.801  1.00  0.00    -0.014 A 
ATOM     61  C   UNL A   1      48.964  26.304  30.954  1.00  0.00     0.009 A 
ATOM     62  C   UNL A   1      49.336  27.154  28.720  1.00  0.00     0.009 A 
ATOM     63  C   UNL A   1      50.307  25.932  31.033  1.00  0.00     0.001 A 
ATOM     64  C   UNL A   1      50.672  26.760  28.793  1.00  0.00     0.001 A 
ATOM     65  C   UNL A   1      51.159  26.157  29.952  1.00  0.00     0.000 A 
ENDBRANCH  46  60
BRANCH  47  66
ATOM     66  C   UNL A   1      38.791  29.181  29.007  1.00  0.00    -0.014 A 
ATOM     67  C   UNL A   1      38.250  29.691  27.817  1.00  0.00     0.009 A 
ATOM     68  C   UNL A   1      37.950  29.016  30.120  1.00  0.00     0.009 A 
ATOM     69  C   UNL A   1      36.901  30.046  27.750  1.00  0.00     0.001 A 
ATOM     70  C   UNL A   1      36.597  29.348  30.041  1.00  0.00     0.001 A 
ATOM     71  C   UNL A   1      36.075  29.871  28.860  1.00  0.00     0.000 A 
ENDBRANCH  47  66
BRANCH  59  72
ATOM     72  C   UNL A   1      44.361  32.669  31.300  1.00  0.00    -0.014 A 
ATOM     73  C   UNL A   1      44.596  33.764  30.454  1.00  0.00     0.009 A 
ATOM     74  C   UNL A   1      44.245  32.888  32.682  1.00  0.00     0.009 A 
ATOM     75  C   UNL A   1      44.740  35.047  30.986  1.00  0.00     0.001 A 
ATOM     76  C   UNL A   1      44.364  34.176  33.207  1.00  0.00     0.001 A 
ATOM     77  C   UNL A   1      44.620  35.252  32.360  1.00  0.00     0.000 A 
ENDBRANCH  59  72
ENDBRANCH  33  34
ENDBRANCH  26  28
ENDBRANCH  25  26
ENDBRANCH  24  25
ENDBRANCH  23  24
ENDBRANCH   1  23
TORSDOF 17
ENDMDL
MODEL 3
REMARK VINA RESULT:      -9.5      2.945      4.195
REMARK SMILES C[NH2+][C@]1(C(=O)OCCOCCOC(=O)c2ccc(-c3c4nc(c(-c5ccccc5)c5ccc([nH]5)c(-c5ccccc5)c5nc(c(-c6ccccc6)c6ccc3[nH]6)C=C5)C=C4)cc2)CCC[C@@H](Sc2nncs2)C1
REMARK SMILES IDX 9 1 8 2 7 3 6 4 4 5 5 6 3 7 63 8 73 9 64 10 66 11 65 12 2 13
REMARK SMILES IDX 1 14 67 17 68 18 69 19 72 20 70 21 71 22 10 23 11 24 12 25
REMARK SMILES IDX 13 26 14 27 15 28 16 29 62 30 17 31 61 32 18 33 19 34 20 35
REMARK SMILES IDX 55 36 21 37 60 38 54 39 56 40 22 41 59 42 53 43 52 44 23 46
REMARK SMILES IDX 45 47 30 48 44 49 31 50 34 51 43 52 57 53 32 54 33 55 42 57
REMARK SMILES IDX 58 58 35 59 24 60 25 61 29 62 26 63 28 64 27 65 46 66 47 67
REMARK SMILES IDX 51 68 48 69 50 70 49 71 36 72 37 73 41 74 38 75 40 76 39 77
REMARK H PARENT 2 15 2 16 56 45 34 56
REMARK Flexibility Score: inf
ROOT
ATOM      1  O   UNL A   1      34.063  31.025  27.532  1.00  0.00    -0.374 OA
ENDROOT
BRANCH   1   2
ATOM      2  C   UNL A   1      34.630  29.745  27.273  1.00  0.00     0.202 C 
BRANCH   2   3
ATOM      3  C   UNL A   1      33.671  28.565  27.094  1.00  0.00     0.261 C 
BRANCH   3   4
ATOM      4  O   UNL A   1      34.038  27.707  26.007  1.00  0.00    -0.459 OA
BRANCH   4   5
ATOM      5  C   UNL A   1      33.283  27.840  24.880  1.00  0.00     0.368 C 
ATOM      6  O   UNL A   1      32.942  28.923  24.410  1.00  0.00    -0.245 OA
BRANCH   5   7
ATOM      7  C   UNL A   1      32.856  26.470  24.257  1.00  0.00     0.195 C 
ATOM      8  C   UNL A   1      33.245  26.346  22.760  1.00  0.00     0.081 C 
ATOM      9  C   UNL A   1      33.632  25.405  25.069  1.00  0.00     0.096 C 
ATOM     10  C   UNL A   1      33.064  24.936  22.198  1.00  0.00     0.008 C 
ATOM     11  C   UNL A   1      33.612  23.990  24.478  1.00  0.00     0.061 C 
ATOM     12  C   UNL A   1      33.910  23.937  22.976  1.00  0.00     0.015 C 
BRANCH   7  13
ATOM     13  N   UNL A   1      31.373  26.271  24.301  1.00  0.00    -0.335 N 
ATOM     14  C   UNL A   1      30.754  26.321  25.620  1.00  0.00     0.331 C 
ATOM     15  H   UNL A   1      30.944  26.999  23.729  1.00  0.00     0.347 HD
ATOM     16  H   UNL A   1      31.215  25.322  23.962  1.00  0.00     0.347 HD
ENDBRANCH   7  13
BRANCH  11  17
ATOM     17  S   UNL A   1      34.699  22.840  25.413  1.00  0.00    -0.090 SA
BRANCH  17  18
ATOM     18  C   UNL A   1      33.989  21.276  25.073  1.00  0.00     0.174 A 
ATOM     19  N   UNL A   1      34.710  20.193  24.875  1.00  0.00    -0.132 NA
ATOM     20  S   UNL A   1      32.297  21.021  24.957  1.00  0.00    -0.094 S 
ATOM     21  N   UNL A   1      33.935  19.088  24.585  1.00  0.00    -0.146 NA
ATOM     22  C   UNL A   1      32.653  19.382  24.597  1.00  0.00     0.203 A 
ENDBRANCH  17  18
ENDBRANCH  11  17
ENDBRANCH   5   7
ENDBRANCH   4   5
ENDBRANCH   3   4
ENDBRANCH   2   3
ENDBRANCH   1   2
BRANCH   1  23
ATOM     23  C   UNL A   1      32.676  31.215  27.244  1.00  0.00     0.202 C 
BRANCH  23  24
ATOM     24  C   UNL A   1      32.122  32.644  27.337  1.00  0.00     0.261 C 
BRANCH  24  25
ATOM     25  O   UNL A   1      33.157  33.648  27.331  1.00  0.00    -0.460 OA
BRANCH  25  26
ATOM     26  C   UNL A   1      33.274  34.345  28.487  1.00  0.00     0.338 C 
ATOM     27  O   UNL A   1      32.448  35.092  28.992  1.00  0.00    -0.246 OA
BRANCH  26  28
ATOM     28  C   UNL A   1      34.507  33.966  29.198  1.00  0.00     0.060 A 
ATOM     29  C   UNL A   1      35.731  34.308  28.607  1.00  0.00     0.016 A 
ATOM     30  C   UNL A   1      34.469  33.172  30.346  1.00  0.00     0.016 A 
ATOM     31  C   UNL A   1      36.922  33.816  29.136  1.00  0.00     0.010 A 
ATOM     32  C   UNL A   1      35.667  32.670  30.869  1.00  0.00     0.010 A 
ATOM     33  C   UNL A   1      36.894  32.959  30.244  1.00  0.00    -0.014 A 
BRANCH  33  34
ATOM     34  C   UNL A   1      38.134  32.250  30.645  1.00  0.00     0.031 A 
ATOM     35  C   UNL A   1      38.985  32.827  31.744  1.00  0.00     0.074 A 
ATOM     36  C   UNL A   1      38.478  31.084  30.072  1.00  0.00     0.049 A 
ATOM     37  N   UNL A   1      40.104  32.374  32.251  1.00  0.00    -0.248 NA
ATOM     38  C   UNL A   1      38.509  34.079  32.355  1.00  0.00     0.031 C 
ATOM     39  C   UNL A   1      37.717  30.395  29.031  1.00  0.00     0.029 A 
ATOM     40  N   UNL A   1      39.563  30.273  30.291  1.00  0.00    -0.354 N 
ATOM     41  C   UNL A   1      40.465  33.284  33.238  1.00  0.00     0.074 A 
ATOM     42  C   UNL A   1      39.464  34.329  33.239  1.00  0.00     0.031 C 
ATOM     43  C   UNL A   1      38.362  29.264  28.698  1.00  0.00     0.029 A 
ATOM     44  C   UNL A   1      39.593  29.165  29.480  1.00  0.00     0.049 A 
ATOM     45  H   UNL A   1      40.254  30.467  30.965  1.00  0.00     0.167 HD
ATOM     46  C   UNL A   1      41.531  33.251  34.072  1.00  0.00     0.031 A 
ATOM     47  C   UNL A   1      40.517  28.191  29.371  1.00  0.00     0.031 A 
ATOM     48  C   UNL A   1      42.539  32.225  34.065  1.00  0.00     0.049 A 
ATOM     49  C   UNL A   1      41.734  28.219  30.254  1.00  0.00     0.074 A 
ATOM     50  C   UNL A   1      43.653  32.104  34.877  1.00  0.00     0.029 A 
ATOM     51  N   UNL A   1      42.555  31.145  33.197  1.00  0.00    -0.354 N 
ATOM     52  N   UNL A   1      42.054  29.075  31.195  1.00  0.00    -0.248 NA
ATOM     53  C   UNL A   1      42.716  27.140  30.064  1.00  0.00     0.031 C 
ATOM     54  C   UNL A   1      44.371  30.974  34.467  1.00  0.00     0.029 A 
ATOM     55  C   UNL A   1      43.675  30.367  33.435  1.00  0.00     0.049 A 
ATOM     56  H   UNL A   1      41.873  30.959  32.513  1.00  0.00     0.167 HD
ATOM     57  C   UNL A   1      43.258  28.626  31.723  1.00  0.00     0.074 A 
ATOM     58  C   UNL A   1      43.605  27.414  31.008  1.00  0.00     0.031 C 
ATOM     59  C   UNL A   1      44.008  29.166  32.713  1.00  0.00     0.031 A 
BRANCH  46  60
ATOM     60  C   UNL A   1      41.677  34.385  35.046  1.00  0.00    -0.014 A 
ATOM     61  C   UNL A   1      41.137  34.309  36.339  1.00  0.00     0.009 A 
ATOM     62  C   UNL A   1      42.390  35.536  34.674  1.00  0.00     0.009 A 
ATOM     63  C   UNL A   1      41.280  35.375  37.229  1.00  0.00     0.001 A 
ATOM     64  C   UNL A   1      42.552  36.590  35.573  1.00  0.00     0.001 A 
ATOM     65  C   UNL A   1      41.991  36.513  36.847  1.00  0.00     0.000 A 
ENDBRANCH  46  60
BRANCH  47  66
ATOM     66  C   UNL A   1      40.339  27.111  28.366  1.00  0.00    -0.014 A 
ATOM     67  C   UNL A   1      39.659  25.929  28.695  1.00  0.00     0.009 A 
ATOM     68  C   UNL A   1      40.871  27.252  27.074  1.00  0.00     0.009 A 
ATOM     69  C   UNL A   1      39.532  24.902  27.756  1.00  0.00     0.001 A 
ATOM     70  C   UNL A   1      40.720  26.236  26.131  1.00  0.00     0.001 A 
ATOM     71  C   UNL A   1      40.059  25.058  26.474  1.00  0.00     0.000 A 
ENDBRANCH  47  66
BRANCH  59  72
ATOM     72  C   UNL A   1      45.263  28.437  33.104  1.00  0.00    -0.014 A 
ATOM     73  C   UNL A   1      46.498  28.748  32.515  1.00  0.00     0.009 A 
ATOM     74  C   UNL A   1      45.213  27.455  34.107  1.00  0.00     0.009 A 
ATOM     75  C   UNL A   1      47.655  28.066  32.902  1.00  0.00     0.001 A 
ATOM     76  C   UNL A   1      46.375  26.795  34.509  1.00  0.00     0.001 A 
ATOM     77  C   UNL A   1      47.593  27.095  33.900  1.00  0.00     0.000 A 
ENDBRANCH  59  72
ENDBRANCH  33  34
ENDBRANCH  26  28
ENDBRANCH  25  26
ENDBRANCH  24  25
ENDBRANCH  23  24
ENDBRANCH   1  23
TORSDOF 17
ENDMDL
