MODEL 1
REMARK VINA RESULT:      -9.1      0.000      0.000
REMARK SMILES Cc1cc(F)c([C@@H](C)[N@@H+]2C[C@H](C)[C@H](C(=O)OCCOCCOC(=O)c3ccc(-c4c5nc(c(-c6ccccc6)c6ccc([nH]6)c(-c6ccccc6)c6nc(c(-c7ccccc7)c7ccc4[nH]7)C=C6)C=C5)cc3)C2)cc1F
REMARK SMILES IDX 19 1 18 2 17 3 16 4 14 5 15 6 13 7 9 8 10 9 73 10 11 12
REMARK SMILES IDX 12 13 7 14 8 15 6 16 1 17 2 18 3 19 75 20 4 21 74 22 76 23
REMARK SMILES IDX 5 24 20 25 21 26 22 27 23 28 24 29 25 30 26 31 72 32 27 33
REMARK SMILES IDX 71 34 28 35 29 36 30 37 65 38 31 39 70 40 64 41 66 42 32 43
REMARK SMILES IDX 69 44 63 45 62 46 33 48 55 49 40 50 54 51 41 52 44 53 53 54
REMARK SMILES IDX 67 55 42 56 43 57 52 59 68 60 45 61 34 62 35 63 39 64 36 65
REMARK SMILES IDX 38 66 37 67 56 68 57 69 61 70 58 71 60 72 59 73 46 74 47 75
REMARK SMILES IDX 51 76 48 77 50 78 49 79
REMARK H PARENT 9 11 66 47 44 58
REMARK Flexibility Score: inf
ROOT
ATOM      1  O   UNL A   1      42.133  18.566  25.758  1.00  0.00    -0.374 OA
ENDROOT
BRANCH   1   2
ATOM      2  C   UNL A   1      43.472  18.747  25.300  1.00  0.00     0.202 C 
BRANCH   2   3
ATOM      3  C   UNL A   1      44.176  20.042  25.706  1.00  0.00     0.261 C 
BRANCH   3   4
ATOM      4  O   UNL A   1      44.360  20.908  24.575  1.00  0.00    -0.463 OA
BRANCH   4   5
ATOM      5  C   UNL A   1      45.224  21.934  24.760  1.00  0.00     0.315 C 
ATOM      6  O   UNL A   1      46.382  21.808  25.142  1.00  0.00    -0.252 OA
BRANCH   5   7
ATOM      7  C   UNL A   1      44.612  23.293  24.511  1.00  0.00     0.162 C 
ATOM      8  N   UNL A   1      45.078  25.591  24.933  1.00  0.00    -0.328 N 
ATOM      9  C   UNL A   1      43.646  25.376  25.114  1.00  0.00     0.267 C 
ATOM     10  C   UNL A   1      45.716  24.337  24.548  1.00  0.00     0.278 C 
ATOM     11  H   UNL A   1      45.180  26.234  24.148  1.00  0.00     0.348 HD
ATOM     12  C   UNL A   1      43.460  23.872  25.346  1.00  0.00     0.061 C 
ATOM     13  C   UNL A   1      43.397  23.561  26.835  1.00  0.00     0.015 C 
BRANCH   8  14
ATOM     14  C   UNL A   1      45.783  26.459  25.888  1.00  0.00     0.215 C 
ATOM     15  C   UNL A   1      45.622  27.944  25.533  1.00  0.00     0.081 C 
BRANCH  14  16
ATOM     16  C   UNL A   1      47.228  26.085  26.194  1.00  0.00     0.048 A 
ATOM     17  C   UNL A   1      51.414  25.274  27.000  1.00  0.00     0.047 C 
ATOM     18  C   UNL A   1      49.967  25.550  26.736  1.00  0.00    -0.012 A 
ATOM     19  C   UNL A   1      48.966  25.045  27.569  1.00  0.00     0.046 A 
ATOM     20  C   UNL A   1      49.587  26.291  25.619  1.00  0.00     0.126 A 
ATOM     21  C   UNL A   1      47.619  25.302  27.290  1.00  0.00     0.132 A 
ATOM     22  C   UNL A   1      48.246  26.562  25.348  1.00  0.00     0.052 A 
ATOM     23  F   UNL A   1      50.522  26.771  24.787  1.00  0.00    -0.207 F 
ATOM     24  F   UNL A   1      46.714  24.804  28.141  1.00  0.00    -0.206 F 
ENDBRANCH  14  16
ENDBRANCH   8  14
ENDBRANCH   5   7
ENDBRANCH   4   5
ENDBRANCH   3   4
ENDBRANCH   2   3
ENDBRANCH   1   2
BRANCH   1  25
ATOM     25  C   UNL A   1      41.612  19.530  26.672  1.00  0.00     0.202 C 
BRANCH  25  26
ATOM     26  C   UNL A   1      40.399  20.354  26.202  1.00  0.00     0.261 C 
BRANCH  26  27
ATOM     27  O   UNL A   1      40.408  21.700  26.717  1.00  0.00    -0.460 OA
BRANCH  27  28
ATOM     28  C   UNL A   1      39.414  22.506  26.272  1.00  0.00     0.338 C 
ATOM     29  O   UNL A   1      38.417  22.169  25.653  1.00  0.00    -0.246 OA
BRANCH  28  30
ATOM     30  C   UNL A   1      39.588  23.862  26.838  1.00  0.00     0.060 A 
ATOM     31  C   UNL A   1      39.350  24.141  28.184  1.00  0.00     0.016 A 
ATOM     32  C   UNL A   1      40.027  24.879  25.977  1.00  0.00     0.016 A 
ATOM     33  C   UNL A   1      39.599  25.431  28.670  1.00  0.00     0.010 A 
ATOM     34  C   UNL A   1      40.263  26.166  26.464  1.00  0.00     0.010 A 
ATOM     35  C   UNL A   1      40.074  26.451  27.821  1.00  0.00    -0.014 A 
BRANCH  35  36
ATOM     36  C   UNL A   1      40.517  27.758  28.381  1.00  0.00     0.031 A 
ATOM     37  C   UNL A   1      39.562  28.891  28.634  1.00  0.00     0.074 A 
ATOM     38  C   UNL A   1      41.832  27.933  28.628  1.00  0.00     0.049 A 
ATOM     39  N   UNL A   1      39.808  30.066  29.157  1.00  0.00    -0.248 NA
ATOM     40  C   UNL A   1      38.154  28.688  28.257  1.00  0.00     0.031 C 
ATOM     41  C   UNL A   1      42.868  26.925  28.390  1.00  0.00     0.029 A 
ATOM     42  N   UNL A   1      42.523  29.007  29.133  1.00  0.00    -0.354 N 
ATOM     43  C   UNL A   1      38.593  30.738  29.188  1.00  0.00     0.074 A 
ATOM     44  C   UNL A   1      37.611  29.852  28.596  1.00  0.00     0.031 C 
ATOM     45  C   UNL A   1      44.053  27.417  28.775  1.00  0.00     0.029 A 
ATOM     46  C   UNL A   1      43.877  28.789  29.243  1.00  0.00     0.049 A 
ATOM     47  H   UNL A   1      42.091  29.854  29.392  1.00  0.00     0.167 HD
ATOM     48  C   UNL A   1      38.323  31.973  29.675  1.00  0.00     0.031 A 
ATOM     49  C   UNL A   1      44.872  29.594  29.663  1.00  0.00     0.031 A 
ATOM     50  C   UNL A   1      39.307  32.861  30.245  1.00  0.00     0.049 A 
ATOM     51  C   UNL A   1      44.547  30.975  30.158  1.00  0.00     0.074 A 
ATOM     52  C   UNL A   1      39.103  34.111  30.807  1.00  0.00     0.029 A 
ATOM     53  N   UNL A   1      40.667  32.611  30.316  1.00  0.00    -0.354 N 
ATOM     54  N   UNL A   1      43.377  31.556  30.267  1.00  0.00    -0.248 NA
ATOM     55  C   UNL A   1      45.672  31.811  30.603  1.00  0.00     0.031 C 
ATOM     56  C   UNL A   1      40.346  34.652  31.138  1.00  0.00     0.029 A 
ATOM     57  C   UNL A   1      41.317  33.701  30.873  1.00  0.00     0.049 A 
ATOM     58  H   UNL A   1      41.108  31.783  30.014  1.00  0.00     0.167 HD
ATOM     59  C   UNL A   1      43.621  32.808  30.817  1.00  0.00     0.074 A 
ATOM     60  C   UNL A   1      45.049  32.897  31.040  1.00  0.00     0.031 C 
ATOM     61  C   UNL A   1      42.737  33.792  31.105  1.00  0.00     0.031 A 
BRANCH  48  62
ATOM     62  C   UNL A   1      36.902  32.470  29.647  1.00  0.00    -0.014 A 
ATOM     63  C   UNL A   1      36.497  33.378  28.653  1.00  0.00     0.009 A 
ATOM     64  C   UNL A   1      36.023  32.190  30.704  1.00  0.00     0.009 A 
ATOM     65  C   UNL A   1      35.260  34.021  28.737  1.00  0.00     0.001 A 
ATOM     66  C   UNL A   1      34.774  32.812  30.771  1.00  0.00     0.001 A 
ATOM     67  C   UNL A   1      34.401  33.738  29.797  1.00  0.00     0.000 A 
ENDBRANCH  48  62
BRANCH  49  68
ATOM     68  C   UNL A   1      46.274  29.092  29.649  1.00  0.00    -0.014 A 
ATOM     69  C   UNL A   1      47.115  29.353  28.553  1.00  0.00     0.009 A 
ATOM     70  C   UNL A   1      46.770  28.318  30.709  1.00  0.00     0.009 A 
ATOM     71  C   UNL A   1      48.407  28.828  28.505  1.00  0.00     0.001 A 
ATOM     72  C   UNL A   1      48.078  27.829  30.677  1.00  0.00     0.001 A 
ATOM     73  C   UNL A   1      48.891  28.074  29.571  1.00  0.00     0.000 A 
ENDBRANCH  49  68
BRANCH  61  74
ATOM     74  C   UNL A   1      43.257  35.067  31.717  1.00  0.00    -0.014 A 
ATOM     75  C   UNL A   1      43.194  35.246  33.110  1.00  0.00     0.009 A 
ATOM     76  C   UNL A   1      43.686  36.136  30.918  1.00  0.00     0.009 A 
ATOM     77  C   UNL A   1      43.523  36.474  33.686  1.00  0.00     0.001 A 
ATOM     78  C   UNL A   1      44.050  37.353  31.500  1.00  0.00     0.001 A 
ATOM     79  C   UNL A   1      43.955  37.526  32.881  1.00  0.00     0.000 A 
ENDBRANCH  61  74
ENDBRANCH  35  36
ENDBRANCH  28  30
ENDBRANCH  27  28
ENDBRANCH  26  27
ENDBRANCH  25  26
ENDBRANCH   1  25
TORSDOF 16
ENDMDL
MODEL 2
REMARK VINA RESULT:      -9.1      4.509      9.845
REMARK SMILES Cc1cc(F)c([C@@H](C)[N@@H+]2C[C@H](C)[C@H](C(=O)OCCOCCOC(=O)c3ccc(-c4c5nc(c(-c6ccccc6)c6ccc([nH]6)c(-c6ccccc6)c6nc(c(-c7ccccc7)c7ccc4[nH]7)C=C6)C=C5)cc3)C2)cc1F
REMARK SMILES IDX 19 1 18 2 17 3 16 4 14 5 15 6 13 7 9 8 10 9 73 10 11 12
REMARK SMILES IDX 12 13 7 14 8 15 6 16 1 17 2 18 3 19 75 20 4 21 74 22 76 23
REMARK SMILES IDX 5 24 20 25 21 26 22 27 23 28 24 29 25 30 26 31 72 32 27 33
REMARK SMILES IDX 71 34 28 35 29 36 30 37 65 38 31 39 70 40 64 41 66 42 32 43
REMARK SMILES IDX 69 44 63 45 62 46 33 48 55 49 40 50 54 51 41 52 44 53 53 54
REMARK SMILES IDX 67 55 42 56 43 57 52 59 68 60 45 61 34 62 35 63 39 64 36 65
REMARK SMILES IDX 38 66 37 67 56 68 57 69 61 70 58 71 60 72 59 73 46 74 47 75
REMARK SMILES IDX 51 76 48 77 50 78 49 79
REMARK H PARENT 9 11 66 47 44 58
REMARK Flexibility Score: inf
ROOT
ATOM      1  O   UNL A   1      33.994  22.082  24.565  1.00  0.00    -0.374 OA
ENDROOT
BRANCH   1   2
ATOM      2  C   UNL A   1      34.523  23.126  23.750  1.00  0.00     0.202 C 
BRANCH   2   3
ATOM      3  C   UNL A   1      33.595  23.718  22.689  1.00  0.00     0.261 C 
BRANCH   3   4
ATOM      4  O   UNL A   1      33.918  25.093  22.428  1.00  0.00    -0.463 OA
BRANCH   4   5
ATOM      5  C   UNL A   1      33.058  25.750  21.613  1.00  0.00     0.315 C 
ATOM      6  O   UNL A   1      32.946  25.545  20.409  1.00  0.00    -0.252 OA
BRANCH   5   7
ATOM      7  C   UNL A   1      32.268  26.831  22.313  1.00  0.00     0.162 C 
ATOM      8  N   UNL A   1      32.232  27.980  24.400  1.00  0.00    -0.328 N 
ATOM      9  C   UNL A   1      30.853  27.737  23.990  1.00  0.00     0.267 C 
ATOM     10  C   UNL A   1      33.142  27.450  23.391  1.00  0.00     0.278 C 
ATOM     11  H   UNL A   1      32.357  28.993  24.416  1.00  0.00     0.348 HD
ATOM     12  C   UNL A   1      30.900  26.594  22.969  1.00  0.00     0.061 C 
ATOM     13  C   UNL A   1      30.625  25.257  23.647  1.00  0.00     0.015 C 
BRANCH   8  14
ATOM     14  C   UNL A   1      32.586  27.795  25.815  1.00  0.00     0.215 C 
ATOM     15  C   UNL A   1      31.407  27.240  26.628  1.00  0.00     0.081 C 
BRANCH  14  16
ATOM     16  C   UNL A   1      33.260  28.979  26.497  1.00  0.00     0.048 A 
ATOM     17  C   UNL A   1      35.409  32.286  28.307  1.00  0.00     0.047 C 
ATOM     18  C   UNL A   1      34.659  31.155  27.677  1.00  0.00    -0.012 A 
ATOM     19  C   UNL A   1      33.335  31.305  27.256  1.00  0.00     0.046 A 
ATOM     20  C   UNL A   1      35.261  29.906  27.536  1.00  0.00     0.126 A 
ATOM     21  C   UNL A   1      32.649  30.226  26.686  1.00  0.00     0.132 A 
ATOM     22  C   UNL A   1      34.584  28.835  26.954  1.00  0.00     0.052 A 
ATOM     23  F   UNL A   1      36.521  29.724  27.951  1.00  0.00    -0.207 F 
ATOM     24  F   UNL A   1      31.391  30.446  26.286  1.00  0.00    -0.206 F 
ENDBRANCH  14  16
ENDBRANCH   8  14
ENDBRANCH   5   7
ENDBRANCH   4   5
ENDBRANCH   3   4
ENDBRANCH   2   3
ENDBRANCH   1   2
BRANCH   1  25
ATOM     25  C   UNL A   1      34.816  20.938  24.790  1.00  0.00     0.202 C 
BRANCH  25  26
ATOM     26  C   UNL A   1      36.002  21.109  25.754  1.00  0.00     0.261 C 
BRANCH  26  27
ATOM     27  O   UNL A   1      37.204  21.544  25.088  1.00  0.00    -0.460 OA
BRANCH  27  28
ATOM     28  C   UNL A   1      38.368  21.166  25.669  1.00  0.00     0.338 C 
ATOM     29  O   UNL A   1      38.893  20.065  25.615  1.00  0.00    -0.246 OA
BRANCH  28  30
ATOM     30  C   UNL A   1      39.055  22.357  26.216  1.00  0.00     0.060 A 
ATOM     31  C   UNL A   1      40.245  22.262  26.938  1.00  0.00     0.016 A 
ATOM     32  C   UNL A   1      38.482  23.614  25.970  1.00  0.00     0.016 A 
ATOM     33  C   UNL A   1      40.879  23.434  27.369  1.00  0.00     0.010 A 
ATOM     34  C   UNL A   1      39.112  24.779  26.412  1.00  0.00     0.010 A 
ATOM     35  C   UNL A   1      40.331  24.703  27.097  1.00  0.00    -0.014 A 
BRANCH  35  36
ATOM     36  C   UNL A   1      41.104  25.942  27.388  1.00  0.00     0.031 A 
ATOM     37  C   UNL A   1      42.474  26.188  26.820  1.00  0.00     0.074 A 
ATOM     38  C   UNL A   1      40.561  26.851  28.224  1.00  0.00     0.049 A 
ATOM     39  N   UNL A   1      43.239  27.242  26.959  1.00  0.00    -0.248 NA
ATOM     40  C   UNL A   1      43.066  25.124  25.993  1.00  0.00     0.031 C 
ATOM     41  C   UNL A   1      39.255  26.715  28.872  1.00  0.00     0.029 A 
ATOM     42  N   UNL A   1      41.029  28.063  28.671  1.00  0.00    -0.354 N 
ATOM     43  C   UNL A   1      44.393  26.981  26.229  1.00  0.00     0.074 A 
ATOM     44  C   UNL A   1      44.244  25.650  25.676  1.00  0.00     0.031 C 
ATOM     45  C   UNL A   1      39.014  27.810  29.607  1.00  0.00     0.029 A 
ATOM     46  C   UNL A   1      40.163  28.707  29.524  1.00  0.00     0.049 A 
ATOM     47  H   UNL A   1      41.901  28.436  28.405  1.00  0.00     0.167 HD
ATOM     48  C   UNL A   1      45.466  27.783  26.033  1.00  0.00     0.031 A 
ATOM     49  C   UNL A   1      40.273  29.881  30.177  1.00  0.00     0.031 A 
ATOM     50  C   UNL A   1      45.620  29.100  26.601  1.00  0.00     0.049 A 
ATOM     51  C   UNL A   1      41.497  30.729  29.972  1.00  0.00     0.074 A 
ATOM     52  C   UNL A   1      46.659  29.996  26.409  1.00  0.00     0.029 A 
ATOM     53  N   UNL A   1      44.733  29.702  27.477  1.00  0.00    -0.354 N 
ATOM     54  N   UNL A   1      42.533  30.505  29.202  1.00  0.00    -0.248 NA
ATOM     55  C   UNL A   1      41.564  31.999  30.711  1.00  0.00     0.031 C 
ATOM     56  C   UNL A   1      46.443  31.102  27.231  1.00  0.00     0.029 A 
ATOM     57  C   UNL A   1      45.222  30.941  27.864  1.00  0.00     0.049 A 
ATOM     58  H   UNL A   1      43.882  29.311  27.781  1.00  0.00     0.167 HD
ATOM     59  C   UNL A   1      43.359  31.614  29.341  1.00  0.00     0.074 A 
ATOM     60  C   UNL A   1      42.694  32.521  30.253  1.00  0.00     0.031 C 
ATOM     61  C   UNL A   1      44.561  31.851  28.765  1.00  0.00     0.031 A 
BRANCH  48  62
ATOM     62  C   UNL A   1      46.584  27.296  25.148  1.00  0.00    -0.014 A 
ATOM     63  C   UNL A   1      47.564  26.433  25.669  1.00  0.00     0.009 A 
ATOM     64  C   UNL A   1      46.770  27.834  23.866  1.00  0.00     0.009 A 
ATOM     65  C   UNL A   1      48.722  26.151  24.941  1.00  0.00     0.001 A 
ATOM     66  C   UNL A   1      47.915  27.526  23.127  1.00  0.00     0.001 A 
ATOM     67  C   UNL A   1      48.897  26.699  23.672  1.00  0.00     0.000 A 
ENDBRANCH  48  62
BRANCH  49  68
ATOM     68  C   UNL A   1      39.170  30.325  31.073  1.00  0.00    -0.014 A 
ATOM     69  C   UNL A   1      38.150  31.162  30.589  1.00  0.00     0.009 A 
ATOM     70  C   UNL A   1      39.148  29.950  32.425  1.00  0.00     0.009 A 
ATOM     71  C   UNL A   1      37.151  31.635  31.441  1.00  0.00     0.001 A 
ATOM     72  C   UNL A   1      38.124  30.391  33.267  1.00  0.00     0.001 A 
ATOM     73  C   UNL A   1      37.134  31.242  32.777  1.00  0.00     0.000 A 
ENDBRANCH  49  68
BRANCH  61  74
ATOM     74  C   UNL A   1      45.259  33.151  29.069  1.00  0.00    -0.014 A 
ATOM     75  C   UNL A   1      45.087  34.251  28.210  1.00  0.00     0.009 A 
ATOM     76  C   UNL A   1      46.180  33.254  30.122  1.00  0.00     0.009 A 
ATOM     77  C   UNL A   1      45.841  35.413  28.381  1.00  0.00     0.001 A 
ATOM     78  C   UNL A   1      46.907  34.432  30.313  1.00  0.00     0.001 A 
ATOM     79  C   UNL A   1      46.748  35.504  29.436  1.00  0.00     0.000 A 
ENDBRANCH  61  74
ENDBRANCH  35  36
ENDBRANCH  28  30
ENDBRANCH  27  28
ENDBRANCH  26  27
ENDBRANCH  25  26
ENDBRANCH   1  25
TORSDOF 16
ENDMDL
MODEL 3
REMARK VINA RESULT:      -9.1      0.578      5.928
REMARK SMILES Cc1cc(F)c([C@@H](C)[N@@H+]2C[C@H](C)[C@H](C(=O)OCCOCCOC(=O)c3ccc(-c4c5nc(c(-c6ccccc6)c6ccc([nH]6)c(-c6ccccc6)c6nc(c(-c7ccccc7)c7ccc4[nH]7)C=C6)C=C5)cc3)C2)cc1F
REMARK SMILES IDX 19 1 18 2 17 3 16 4 14 5 15 6 13 7 9 8 10 9 73 10 11 12
REMARK SMILES IDX 12 13 7 14 8 15 6 16 1 17 2 18 3 19 75 20 4 21 74 22 76 23
REMARK SMILES IDX 5 24 20 25 21 26 22 27 23 28 24 29 25 30 26 31 72 32 27 33
REMARK SMILES IDX 71 34 28 35 29 36 30 37 65 38 31 39 70 40 64 41 66 42 32 43
REMARK SMILES IDX 69 44 63 45 62 46 33 48 55 49 40 50 54 51 41 52 44 53 53 54
REMARK SMILES IDX 67 55 42 56 43 57 52 59 68 60 45 61 34 62 35 63 39 64 36 65
REMARK SMILES IDX 38 66 37 67 56 68 57 69 61 70 58 71 60 72 59 73 46 74 47 75
REMARK SMILES IDX 51 76 48 77 50 78 49 79
REMARK H PARENT 9 11 66 47 44 58
REMARK Flexibility Score: inf
ROOT
ATOM      1  O   UNL A   1      41.976  18.659  25.777  1.00  0.00    -0.374 OA
ENDROOT
BRANCH   1   2
ATOM      2  C   UNL A   1      43.306  18.913  25.330  1.00  0.00     0.202 C 
BRANCH   2   3
ATOM      3  C   UNL A   1      43.916  20.266  25.696  1.00  0.00     0.261 C 
BRANCH   3   4
ATOM      4  O   UNL A   1      44.271  21.009  24.518  1.00  0.00    -0.463 OA
BRANCH   4   5
ATOM      5  C   UNL A   1      45.250  21.931  24.683  1.00  0.00     0.315 C 
ATOM      6  O   UNL A   1      46.402  21.671  25.013  1.00  0.00    -0.252 OA
BRANCH   5   7
ATOM      7  C   UNL A   1      44.781  23.353  24.484  1.00  0.00     0.162 C 
ATOM      8  N   UNL A   1      45.427  25.569  25.075  1.00  0.00    -0.328 N 
ATOM      9  C   UNL A   1      43.973  25.481  25.158  1.00  0.00     0.267 C 
ATOM     10  C   UNL A   1      45.971  24.284  24.651  1.00  0.00     0.278 C 
ATOM     11  H   UNL A   1      45.637  26.243  24.339  1.00  0.00     0.348 HD
ATOM     12  C   UNL A   1      43.636  23.990  25.284  1.00  0.00     0.061 C 
ATOM     13  C   UNL A   1      43.449  23.604  26.746  1.00  0.00     0.015 C 
BRANCH   8  14
ATOM     14  C   UNL A   1      46.145  26.311  26.122  1.00  0.00     0.215 C 
ATOM     15  C   UNL A   1      45.761  27.798  26.130  1.00  0.00     0.081 C 
BRANCH  14  16
ATOM     16  C   UNL A   1      47.652  26.096  26.181  1.00  0.00     0.048 A 
ATOM     17  C   UNL A   1      51.898  25.233  26.439  1.00  0.00     0.047 C 
ATOM     18  C   UNL A   1      50.435  25.533  26.336  1.00  0.00    -0.012 A 
ATOM     19  C   UNL A   1      49.916  26.263  25.263  1.00  0.00     0.046 A 
ATOM     20  C   UNL A   1      49.562  25.120  27.340  1.00  0.00     0.126 A 
ATOM     21  C   UNL A   1      48.547  26.547  25.199  1.00  0.00     0.132 A 
ATOM     22  C   UNL A   1      48.195  25.388  27.270  1.00  0.00     0.052 A 
ATOM     23  F   UNL A   1      50.032  24.439  28.393  1.00  0.00    -0.207 F 
ATOM     24  F   UNL A   1      48.115  27.232  24.134  1.00  0.00    -0.206 F 
ENDBRANCH  14  16
ENDBRANCH   8  14
ENDBRANCH   5   7
ENDBRANCH   4   5
ENDBRANCH   3   4
ENDBRANCH   2   3
ENDBRANCH   1   2
BRANCH   1  25
ATOM     25  C   UNL A   1      41.399  19.589  26.693  1.00  0.00     0.202 C 
BRANCH  25  26
ATOM     26  C   UNL A   1      40.241  20.457  26.170  1.00  0.00     0.261 C 
BRANCH  26  27
ATOM     27  O   UNL A   1      40.374  21.844  26.539  1.00  0.00    -0.460 OA
BRANCH  27  28
ATOM     28  C   UNL A   1      39.324  22.639  26.225  1.00  0.00     0.338 C 
ATOM     29  O   UNL A   1      38.273  22.298  25.706  1.00  0.00    -0.246 OA
BRANCH  28  30
ATOM     30  C   UNL A   1      39.532  23.984  26.807  1.00  0.00     0.060 A 
ATOM     31  C   UNL A   1      39.155  24.295  28.113  1.00  0.00     0.016 A 
ATOM     32  C   UNL A   1      40.150  24.956  26.004  1.00  0.00     0.016 A 
ATOM     33  C   UNL A   1      39.442  25.567  28.624  1.00  0.00     0.010 A 
ATOM     34  C   UNL A   1      40.425  26.226  26.515  1.00  0.00     0.010 A 
ATOM     35  C   UNL A   1      40.094  26.539  27.839  1.00  0.00    -0.014 A 
BRANCH  35  36
ATOM     36  C   UNL A   1      40.567  27.814  28.447  1.00  0.00     0.031 A 
ATOM     37  C   UNL A   1      41.994  28.022  28.872  1.00  0.00     0.074 A 
ATOM     38  C   UNL A   1      39.664  28.794  28.655  1.00  0.00     0.049 A 
ATOM     39  N   UNL A   1      42.548  29.097  29.375  1.00  0.00    -0.248 NA
ATOM     40  C   UNL A   1      42.920  26.889  28.715  1.00  0.00     0.031 C 
ATOM     41  C   UNL A   1      38.241  28.703  28.323  1.00  0.00     0.029 A 
ATOM     42  N   UNL A   1      39.801  30.053  29.188  1.00  0.00    -0.354 N 
ATOM     43  C   UNL A   1      43.885  28.782  29.582  1.00  0.00     0.074 A 
ATOM     44  C   UNL A   1      44.054  27.400  29.183  1.00  0.00     0.031 C 
ATOM     45  C   UNL A   1      37.644  29.863  28.631  1.00  0.00     0.029 A 
ATOM     46  C   UNL A   1      38.626  30.766  29.225  1.00  0.00     0.049 A 
ATOM     47  H   UNL A   1      40.660  30.411  29.512  1.00  0.00     0.167 HD
ATOM     48  C   UNL A   1      44.876  29.577  30.050  1.00  0.00     0.031 A 
ATOM     49  C   UNL A   1      38.355  32.002  29.689  1.00  0.00     0.031 A 
ATOM     50  C   UNL A   1      44.701  30.947  30.466  1.00  0.00     0.049 A 
ATOM     51  C   UNL A   1      39.469  32.845  30.244  1.00  0.00     0.074 A 
ATOM     52  C   UNL A   1      45.668  31.836  30.906  1.00  0.00     0.029 A 
ATOM     53  N   UNL A   1      43.492  31.622  30.510  1.00  0.00    -0.354 N 
ATOM     54  N   UNL A   1      40.745  32.561  30.342  1.00  0.00    -0.248 NA
ATOM     55  C   UNL A   1      39.115  34.184  30.737  1.00  0.00     0.031 C 
ATOM     56  C   UNL A   1      45.036  33.016  31.296  1.00  0.00     0.029 A 
ATOM     57  C   UNL A   1      43.686  32.901  31.009  1.00  0.00     0.049 A 
ATOM     58  H   UNL A   1      42.624  31.250  30.230  1.00  0.00     0.167 HD
ATOM     59  C   UNL A   1      41.347  33.691  30.879  1.00  0.00     0.074 A 
ATOM     60  C   UNL A   1      40.303  34.675  31.067  1.00  0.00     0.031 C 
ATOM     61  C   UNL A   1      42.651  33.887  31.190  1.00  0.00     0.031 A 
BRANCH  48  62
ATOM     62  C   UNL A   1      46.274  29.021  30.137  1.00  0.00    -0.014 A 
ATOM     63  C   UNL A   1      47.161  29.186  29.059  1.00  0.00     0.009 A 
ATOM     64  C   UNL A   1      46.646  28.179  31.195  1.00  0.00     0.009 A 
ATOM     65  C   UNL A   1      48.373  28.493  29.023  1.00  0.00     0.001 A 
ATOM     66  C   UNL A   1      47.873  27.510  31.171  1.00  0.00     0.001 A 
ATOM     67  C   UNL A   1      48.727  27.655  30.078  1.00  0.00     0.000 A 
ENDBRANCH  48  62
BRANCH  49  68
ATOM     68  C   UNL A   1      36.959  32.517  29.625  1.00  0.00    -0.014 A 
ATOM     69  C   UNL A   1      36.516  33.239  28.503  1.00  0.00     0.009 A 
ATOM     70  C   UNL A   1      36.073  32.327  30.696  1.00  0.00     0.009 A 
ATOM     71  C   UNL A   1      35.230  33.781  28.467  1.00  0.00     0.001 A 
ATOM     72  C   UNL A   1      34.773  32.836  30.640  1.00  0.00     0.001 A 
ATOM     73  C   UNL A   1      34.357  33.572  29.532  1.00  0.00     0.000 A 
ENDBRANCH  49  68
BRANCH  61  74
ATOM     74  C   UNL A   1      43.060  35.223  31.755  1.00  0.00    -0.014 A 
ATOM     75  C   UNL A   1      43.597  36.203  30.902  1.00  0.00     0.009 A 
ATOM     76  C   UNL A   1      43.037  35.468  33.136  1.00  0.00     0.009 A 
ATOM     77  C   UNL A   1      44.126  37.386  31.421  1.00  0.00     0.001 A 
ATOM     78  C   UNL A   1      43.535  36.669  33.649  1.00  0.00     0.001 A 
ATOM     79  C   UNL A   1      44.091  37.620  32.795  1.00  0.00     0.000 A 
ENDBRANCH  61  74
ENDBRANCH  35  36
ENDBRANCH  28  30
ENDBRANCH  27  28
ENDBRANCH  26  27
ENDBRANCH  25  26
ENDBRANCH   1  25
TORSDOF 16
ENDMDL
