MODEL 1
REMARK VINA RESULT:     -10.8      0.000      0.000
REMARK SMILES O=C(OCCOCCOC(=O)[C@@H]1[C@H](C(=O)NCc2ccncc2)[C@H]2C=C[C@@H]1O2)c1ccc(-c2c3nc(c(-c4ccccc4)c4ccc([nH]4)c(-c4ccccc4)c4nc(c(-c5ccccc5)c5ccc2[nH]5)C=C4)C=C3)cc1
REMARK SMILES IDX 7 1 6 2 5 3 4 4 3 5 2 6 1 7 29 8 30 9 76 10 31 11 75 12
REMARK SMILES IDX 32 13 33 14 34 15 69 16 35 17 74 18 68 19 70 20 36 21 73 22
REMARK SMILES IDX 67 23 66 24 37 26 59 27 44 28 58 29 45 30 48 31 57 32 71 33
REMARK SMILES IDX 46 34 47 35 56 37 72 38 49 39 38 40 39 41 43 42 40 43 42 44
REMARK SMILES IDX 41 45 60 46 61 47 65 48 62 49 64 50 63 51 50 52 51 53 55 54
REMARK SMILES IDX 52 55 54 56 53 57 8 58 9 59 10 60 11 61 12 62 13 63 27 64
REMARK SMILES IDX 24 65 26 66 28 67 25 68 14 69 15 70 16 71 17 73 18 74 19 75
REMARK SMILES IDX 23 76 20 77 22 78 21 79
REMARK H PARENT 70 25 48 36 16 72
REMARK Flexibility Score: inf
ROOT
ATOM      1  C   UNL A   1      32.233  29.598  26.642  1.00  0.00     0.202 C 
ENDROOT
BRANCH   1   2
ATOM      2  O   UNL A   1      31.535  30.588  25.875  1.00  0.00    -0.374 OA
BRANCH   2   3
ATOM      3  C   UNL A   1      31.296  31.831  26.528  1.00  0.00     0.202 C 
BRANCH   3   4
ATOM      4  C   UNL A   1      32.519  32.584  27.079  1.00  0.00     0.261 C 
BRANCH   4   5
ATOM      5  O   UNL A   1      32.173  33.832  27.709  1.00  0.00    -0.460 OA
BRANCH   5   6
ATOM      6  C   UNL A   1      32.925  34.477  28.640  1.00  0.00     0.338 C 
ATOM      7  O   UNL A   1      32.634  35.628  28.957  1.00  0.00    -0.246 OA
BRANCH   6   8
ATOM      8  C   UNL A   1      34.247  33.920  29.070  1.00  0.00     0.060 A 
ATOM      9  C   UNL A   1      34.417  33.044  30.138  1.00  0.00     0.016 A 
ATOM     10  C   UNL A   1      35.380  34.238  28.299  1.00  0.00     0.016 A 
ATOM     11  C   UNL A   1      35.593  32.342  30.315  1.00  0.00     0.010 A 
ATOM     12  C   UNL A   1      36.617  33.628  28.550  1.00  0.00     0.010 A 
ATOM     13  C   UNL A   1      36.705  32.653  29.545  1.00  0.00    -0.014 A 
BRANCH  13  14
ATOM     14  C   UNL A   1      37.957  32.060  30.027  1.00  0.00     0.031 A 
ATOM     15  C   UNL A   1      38.551  32.669  31.262  1.00  0.00     0.074 A 
ATOM     16  C   UNL A   1      38.363  30.873  29.547  1.00  0.00     0.049 A 
ATOM     17  N   UNL A   1      39.530  32.239  32.008  1.00  0.00    -0.248 NA
ATOM     18  C   UNL A   1      37.902  33.899  31.763  1.00  0.00     0.031 C 
ATOM     19  C   UNL A   1      37.706  30.121  28.474  1.00  0.00     0.029 A 
ATOM     20  N   UNL A   1      39.397  30.067  29.938  1.00  0.00    -0.354 N 
ATOM     21  C   UNL A   1      39.604  33.134  33.067  1.00  0.00     0.074 A 
ATOM     22  C   UNL A   1      38.565  34.118  32.887  1.00  0.00     0.031 C 
ATOM     23  C   UNL A   1      38.366  28.964  28.287  1.00  0.00     0.029 A 
ATOM     24  C   UNL A   1      39.507  28.917  29.197  1.00  0.00     0.049 A 
ATOM     25  H   UNL A   1      40.004  30.291  30.680  1.00  0.00     0.167 HD
ATOM     26  C   UNL A   1      40.487  33.142  34.089  1.00  0.00     0.031 A 
ATOM     27  C   UNL A   1      40.457  27.963  29.240  1.00  0.00     0.031 A 
ATOM     28  C   UNL A   1      41.558  32.194  34.198  1.00  0.00     0.049 A 
ATOM     29  C   UNL A   1      41.548  28.111  30.270  1.00  0.00     0.074 A 
ATOM     30  C   UNL A   1      42.590  32.159  35.113  1.00  0.00     0.029 A 
ATOM     31  N   UNL A   1      41.740  31.125  33.333  1.00  0.00    -0.354 N 
ATOM     32  N   UNL A   1      41.653  28.987  31.245  1.00  0.00    -0.248 NA
ATOM     33  C   UNL A   1      42.658  27.153  30.202  1.00  0.00     0.031 C 
ATOM     34  C   UNL A   1      43.440  31.110  34.755  1.00  0.00     0.029 A 
ATOM     35  C   UNL A   1      42.896  30.447  33.664  1.00  0.00     0.049 A 
ATOM     36  H   UNL A   1      41.136  30.885  32.594  1.00  0.00     0.167 HD
ATOM     37  C   UNL A   1      42.826  28.673  31.916  1.00  0.00     0.074 A 
ATOM     38  C   UNL A   1      43.382  27.508  31.255  1.00  0.00     0.031 C 
ATOM     39  C   UNL A   1      43.406  29.289  32.975  1.00  0.00     0.031 A 
BRANCH  26  40
ATOM     40  C   UNL A   1      40.400  34.278  35.062  1.00  0.00    -0.014 A 
ATOM     41  C   UNL A   1      41.043  35.503  34.832  1.00  0.00     0.009 A 
ATOM     42  C   UNL A   1      39.670  34.102  36.248  1.00  0.00     0.009 A 
ATOM     43  C   UNL A   1      40.970  36.525  35.781  1.00  0.00     0.001 A 
ATOM     44  C   UNL A   1      39.579  35.132  37.183  1.00  0.00     0.001 A 
ATOM     45  C   UNL A   1      40.234  36.340  36.953  1.00  0.00     0.000 A 
ENDBRANCH  26  40
BRANCH  27  46
ATOM     46  C   UNL A   1      40.494  26.866  28.233  1.00  0.00    -0.014 A 
ATOM     47  C   UNL A   1      41.096  27.038  26.977  1.00  0.00     0.009 A 
ATOM     48  C   UNL A   1      39.839  25.649  28.500  1.00  0.00     0.009 A 
ATOM     49  C   UNL A   1      41.001  26.039  26.001  1.00  0.00     0.001 A 
ATOM     50  C   UNL A   1      39.776  24.641  27.537  1.00  0.00     0.001 A 
ATOM     51  C   UNL A   1      40.342  24.843  26.281  1.00  0.00     0.000 A 
ENDBRANCH  27  46
BRANCH  39  52
ATOM     52  C   UNL A   1      44.682  28.696  33.494  1.00  0.00    -0.014 A 
ATOM     53  C   UNL A   1      44.670  27.691  34.474  1.00  0.00     0.009 A 
ATOM     54  C   UNL A   1      45.906  29.102  32.944  1.00  0.00     0.009 A 
ATOM     55  C   UNL A   1      45.867  27.128  34.916  1.00  0.00     0.001 A 
ATOM     56  C   UNL A   1      47.098  28.513  33.362  1.00  0.00     0.001 A 
ATOM     57  C   UNL A   1      47.078  27.533  34.353  1.00  0.00     0.000 A 
ENDBRANCH  39  52
ENDBRANCH  13  14
ENDBRANCH   6   8
ENDBRANCH   5   6
ENDBRANCH   4   5
ENDBRANCH   3   4
ENDBRANCH   2   3
ENDBRANCH   1   2
BRANCH   1  58
ATOM     58  C   UNL A   1      33.642  29.376  26.118  1.00  0.00     0.261 C 
BRANCH  58  59
ATOM     59  O   UNL A   1      33.671  28.094  25.469  1.00  0.00    -0.463 OA
BRANCH  59  60
ATOM     60  C   UNL A   1      33.491  28.095  24.140  1.00  0.00     0.312 C 
ATOM     61  O   UNL A   1      33.584  29.087  23.419  1.00  0.00    -0.252 OA
BRANCH  60  62
ATOM     62  C   UNL A   1      33.250  26.730  23.573  1.00  0.00     0.147 C 
ATOM     63  C   UNL A   1      31.801  26.249  23.382  1.00  0.00     0.128 C 
ATOM     64  C   UNL A   1      33.882  25.533  24.313  1.00  0.00     0.157 C 
ATOM     65  C   UNL A   1      31.923  24.771  23.758  1.00  0.00     0.155 C 
ATOM     66  C   UNL A   1      34.150  24.475  23.290  1.00  0.00     0.004 C 
ATOM     67  O   UNL A   1      32.747  24.890  24.938  1.00  0.00    -0.365 OA
ATOM     68  C   UNL A   1      32.938  24.043  22.902  1.00  0.00     0.004 C 
BRANCH  63  69
ATOM     69  C   UNL A   1      30.687  27.056  24.056  1.00  0.00     0.227 C 
ATOM     70  O   UNL A   1      30.368  26.726  25.209  1.00  0.00    -0.275 OA
ATOM     71  N   UNL A   1      29.951  28.073  23.542  1.00  0.00    -0.352 N 
ATOM     72  H   UNL A   1      29.266  28.395  24.170  1.00  0.00     0.163 HD
BRANCH  71  73
ATOM     73  C   UNL A   1      29.935  28.802  22.280  1.00  0.00     0.151 C 
BRANCH  73  74
ATOM     74  C   UNL A   1      29.223  30.142  22.295  1.00  0.00    -0.026 A 
ATOM     75  C   UNL A   1      29.132  30.832  23.517  1.00  0.00     0.025 A 
ATOM     76  C   UNL A   1      28.640  30.738  21.174  1.00  0.00     0.025 A 
ATOM     77  C   UNL A   1      28.539  32.085  23.552  1.00  0.00     0.111 A 
ATOM     78  C   UNL A   1      28.071  31.999  21.308  1.00  0.00     0.111 A 
ATOM     79  N   UNL A   1      28.022  32.692  22.466  1.00  0.00    -0.265 NA
ENDBRANCH  73  74
ENDBRANCH  71  73
ENDBRANCH  63  69
ENDBRANCH  60  62
ENDBRANCH  59  60
ENDBRANCH  58  59
ENDBRANCH   1  58
TORSDOF 17
ENDMDL
MODEL 2
REMARK VINA RESULT:     -10.6      5.451      9.796
REMARK SMILES O=C(OCCOCCOC(=O)[C@@H]1[C@H](C(=O)NCc2ccncc2)[C@H]2C=C[C@@H]1O2)c1ccc(-c2c3nc(c(-c4ccccc4)c4ccc([nH]4)c(-c4ccccc4)c4nc(c(-c5ccccc5)c5ccc2[nH]5)C=C4)C=C3)cc1
REMARK SMILES IDX 7 1 6 2 5 3 4 4 3 5 2 6 1 7 29 8 30 9 76 10 31 11 75 12
REMARK SMILES IDX 32 13 33 14 34 15 69 16 35 17 74 18 68 19 70 20 36 21 73 22
REMARK SMILES IDX 67 23 66 24 37 26 59 27 44 28 58 29 45 30 48 31 57 32 71 33
REMARK SMILES IDX 46 34 47 35 56 37 72 38 49 39 38 40 39 41 43 42 40 43 42 44
REMARK SMILES IDX 41 45 60 46 61 47 65 48 62 49 64 50 63 51 50 52 51 53 55 54
REMARK SMILES IDX 52 55 54 56 53 57 8 58 9 59 10 60 11 61 12 62 13 63 27 64
REMARK SMILES IDX 24 65 26 66 28 67 25 68 14 69 15 70 16 71 17 73 18 74 19 75
REMARK SMILES IDX 23 76 20 77 22 78 21 79
REMARK H PARENT 70 25 48 36 16 72
REMARK Flexibility Score: inf
ROOT
ATOM      1  C   UNL A   1      37.095  22.232  24.805  1.00  0.00     0.202 C 
ENDROOT
BRANCH   1   2
ATOM      2  O   UNL A   1      36.742  20.846  24.908  1.00  0.00    -0.374 OA
BRANCH   2   3
ATOM      3  C   UNL A   1      37.826  19.922  24.893  1.00  0.00     0.202 C 
BRANCH   3   4
ATOM      4  C   UNL A   1      39.063  20.273  25.737  1.00  0.00     0.261 C 
BRANCH   4   5
ATOM      5  O   UNL A   1      40.052  19.226  25.747  1.00  0.00    -0.460 OA
BRANCH   5   6
ATOM      6  C   UNL A   1      41.376  19.398  26.003  1.00  0.00     0.338 C 
ATOM      7  O   UNL A   1      42.088  18.413  26.181  1.00  0.00    -0.246 OA
BRANCH   6   8
ATOM      8  C   UNL A   1      41.915  20.753  26.346  1.00  0.00     0.060 A 
ATOM      9  C   UNL A   1      42.301  21.703  25.406  1.00  0.00     0.016 A 
ATOM     10  C   UNL A   1      41.962  21.120  27.704  1.00  0.00     0.016 A 
ATOM     11  C   UNL A   1      42.516  23.020  25.759  1.00  0.00     0.010 A 
ATOM     12  C   UNL A   1      42.307  22.424  28.086  1.00  0.00     0.010 A 
ATOM     13  C   UNL A   1      42.552  23.379  27.099  1.00  0.00    -0.014 A 
BRANCH  13  14
ATOM     14  C   UNL A   1      43.083  24.724  27.349  1.00  0.00     0.031 A 
ATOM     15  C   UNL A   1      42.103  25.746  27.842  1.00  0.00     0.074 A 
ATOM     16  C   UNL A   1      44.411  24.918  27.404  1.00  0.00     0.049 A 
ATOM     17  N   UNL A   1      42.322  26.940  28.319  1.00  0.00    -0.248 NA
ATOM     18  C   UNL A   1      40.684  25.336  27.865  1.00  0.00     0.031 C 
ATOM     19  C   UNL A   1      45.431  23.902  27.133  1.00  0.00     0.029 A 
ATOM     20  N   UNL A   1      45.128  26.028  27.760  1.00  0.00    -0.354 N 
ATOM     21  C   UNL A   1      41.075  27.413  28.708  1.00  0.00     0.074 A 
ATOM     22  C   UNL A   1      40.106  26.380  28.436  1.00  0.00     0.031 C 
ATOM     23  C   UNL A   1      46.648  24.445  27.323  1.00  0.00     0.029 A 
ATOM     24  C   UNL A   1      46.488  25.849  27.689  1.00  0.00     0.049 A 
ATOM     25  H   UNL A   1      44.709  26.873  28.041  1.00  0.00     0.167 HD
ATOM     26  C   UNL A   1      40.770  28.623  29.224  1.00  0.00     0.031 A 
ATOM     27  C   UNL A   1      47.476  26.746  27.866  1.00  0.00     0.031 A 
ATOM     28  C   UNL A   1      41.745  29.657  29.411  1.00  0.00     0.049 A 
ATOM     29  C   UNL A   1      47.082  28.150  28.251  1.00  0.00     0.074 A 
ATOM     30  C   UNL A   1      41.552  30.963  29.812  1.00  0.00     0.029 A 
ATOM     31  N   UNL A   1      43.103  29.497  29.175  1.00  0.00    -0.354 N 
ATOM     32  N   UNL A   1      45.897  28.619  28.571  1.00  0.00    -0.248 NA
ATOM     33  C   UNL A   1      48.154  29.153  28.286  1.00  0.00     0.031 C 
ATOM     34  C   UNL A   1      42.787  31.615  29.747  1.00  0.00     0.029 A 
ATOM     35  C   UNL A   1      43.758  30.694  29.379  1.00  0.00     0.049 A 
ATOM     36  H   UNL A   1      43.535  28.654  28.904  1.00  0.00     0.167 HD
ATOM     37  C   UNL A   1      46.084  29.963  28.864  1.00  0.00     0.074 A 
ATOM     38  C   UNL A   1      47.503  30.226  28.712  1.00  0.00     0.031 C 
ATOM     39  C   UNL A   1      45.174  30.904  29.218  1.00  0.00     0.031 A 
BRANCH  26  40
ATOM     40  C   UNL A   1      39.323  28.913  29.482  1.00  0.00    -0.014 A 
ATOM     41  C   UNL A   1      38.480  29.424  28.483  1.00  0.00     0.009 A 
ATOM     42  C   UNL A   1      38.801  28.685  30.765  1.00  0.00     0.009 A 
ATOM     43  C   UNL A   1      37.145  29.718  28.773  1.00  0.00     0.001 A 
ATOM     44  C   UNL A   1      37.463  28.957  31.045  1.00  0.00     0.001 A 
ATOM     45  C   UNL A   1      36.637  29.479  30.051  1.00  0.00     0.000 A 
ENDBRANCH  26  40
BRANCH  27  46
ATOM     46  C   UNL A   1      48.896  26.397  27.580  1.00  0.00    -0.014 A 
ATOM     47  C   UNL A   1      49.408  26.408  26.274  1.00  0.00     0.009 A 
ATOM     48  C   UNL A   1      49.732  25.961  28.624  1.00  0.00     0.009 A 
ATOM     49  C   UNL A   1      50.705  25.948  26.017  1.00  0.00     0.001 A 
ATOM     50  C   UNL A   1      51.037  25.535  28.369  1.00  0.00     0.001 A 
ATOM     51  C   UNL A   1      51.517  25.513  27.063  1.00  0.00     0.000 A 
ENDBRANCH  27  46
BRANCH  39  52
ATOM     52  C   UNL A   1      45.693  32.285  29.490  1.00  0.00    -0.014 A 
ATOM     53  C   UNL A   1      45.744  33.255  28.478  1.00  0.00     0.009 A 
ATOM     54  C   UNL A   1      46.071  32.635  30.795  1.00  0.00     0.009 A 
ATOM     55  C   UNL A   1      46.197  34.542  28.763  1.00  0.00     0.001 A 
ATOM     56  C   UNL A   1      46.489  33.932  31.084  1.00  0.00     0.001 A 
ATOM     57  C   UNL A   1      46.560  34.882  30.066  1.00  0.00     0.000 A 
ENDBRANCH  39  52
ENDBRANCH  13  14
ENDBRANCH   6   8
ENDBRANCH   5   6
ENDBRANCH   4   5
ENDBRANCH   3   4
ENDBRANCH   2   3
ENDBRANCH   1   2
BRANCH   1  58
ATOM     58  C   UNL A   1      36.383  22.906  23.644  1.00  0.00     0.261 C 
BRANCH  58  59
ATOM     59  O   UNL A   1      35.239  23.595  24.172  1.00  0.00    -0.463 OA
BRANCH  59  60
ATOM     60  C   UNL A   1      34.049  23.004  23.987  1.00  0.00     0.312 C 
ATOM     61  O   UNL A   1      33.831  22.099  23.182  1.00  0.00    -0.252 OA
BRANCH  60  62
ATOM     62  C   UNL A   1      32.993  23.485  24.935  1.00  0.00     0.147 C 
ATOM     63  C   UNL A   1      32.986  22.944  26.375  1.00  0.00     0.128 C 
ATOM     64  C   UNL A   1      31.522  23.285  24.518  1.00  0.00     0.157 C 
ATOM     65  C   UNL A   1      31.485  22.816  26.641  1.00  0.00     0.155 C 
ATOM     66  C   UNL A   1      30.732  24.389  25.148  1.00  0.00     0.004 C 
ATOM     67  O   UNL A   1      31.069  22.224  25.392  1.00  0.00    -0.365 OA
ATOM     68  C   UNL A   1      30.758  24.134  26.467  1.00  0.00     0.004 C 
BRANCH  63  69
ATOM     69  C   UNL A   1      33.861  21.724  26.684  1.00  0.00     0.227 C 
ATOM     70  O   UNL A   1      34.819  21.898  27.453  1.00  0.00    -0.275 OA
ATOM     71  N   UNL A   1      33.761  20.466  26.190  1.00  0.00    -0.352 N 
ATOM     72  H   UNL A   1      34.477  19.876  26.518  1.00  0.00     0.163 HD
BRANCH  71  73
ATOM     73  C   UNL A   1      32.846  19.779  25.287  1.00  0.00     0.151 C 
BRANCH  73  74
ATOM     74  C   UNL A   1      33.130  18.309  25.042  1.00  0.00    -0.026 A 
ATOM     75  C   UNL A   1      34.203  17.973  24.197  1.00  0.00     0.025 A 
ATOM     76  C   UNL A   1      32.390  17.260  25.591  1.00  0.00     0.025 A 
ATOM     77  C   UNL A   1      34.525  16.638  23.999  1.00  0.00     0.111 A 
ATOM     78  C   UNL A   1      32.792  15.954  25.337  1.00  0.00     0.111 A 
ATOM     79  N   UNL A   1      33.851  15.620  24.568  1.00  0.00    -0.265 NA
ENDBRANCH  73  74
ENDBRANCH  71  73
ENDBRANCH  63  69
ENDBRANCH  60  62
ENDBRANCH  59  60
ENDBRANCH  58  59
ENDBRANCH   1  58
TORSDOF 17
ENDMDL
MODEL 3
REMARK VINA RESULT:     -10.6      2.226      4.030
REMARK SMILES O=C(OCCOCCOC(=O)[C@@H]1[C@H](C(=O)NCc2ccncc2)[C@H]2C=C[C@@H]1O2)c1ccc(-c2c3nc(c(-c4ccccc4)c4ccc([nH]4)c(-c4ccccc4)c4nc(c(-c5ccccc5)c5ccc2[nH]5)C=C4)C=C3)cc1
REMARK SMILES IDX 7 1 6 2 5 3 4 4 3 5 2 6 1 7 29 8 30 9 76 10 31 11 75 12
REMARK SMILES IDX 32 13 33 14 34 15 69 16 35 17 74 18 68 19 70 20 36 21 73 22
REMARK SMILES IDX 67 23 66 24 37 26 59 27 44 28 58 29 45 30 48 31 57 32 71 33
REMARK SMILES IDX 46 34 47 35 56 37 72 38 49 39 38 40 39 41 43 42 40 43 42 44
REMARK SMILES IDX 41 45 60 46 61 47 65 48 62 49 64 50 63 51 50 52 51 53 55 54
REMARK SMILES IDX 52 55 54 56 53 57 8 58 9 59 10 60 11 61 12 62 13 63 27 64
REMARK SMILES IDX 24 65 26 66 28 67 25 68 14 69 15 70 16 71 17 73 18 74 19 75
REMARK SMILES IDX 23 76 20 77 22 78 21 79
REMARK H PARENT 70 25 48 36 16 72
REMARK Flexibility Score: inf
ROOT
ATOM      1  C   UNL A   1      33.981  29.848  26.354  1.00  0.00     0.202 C 
ENDROOT
BRANCH   1   2
ATOM      2  O   UNL A   1      32.755  30.438  25.901  1.00  0.00    -0.374 OA
BRANCH   2   3
ATOM      3  C   UNL A   1      31.850  30.857  26.918  1.00  0.00     0.202 C 
BRANCH   3   4
ATOM      4  C   UNL A   1      31.425  32.335  26.917  1.00  0.00     0.261 C 
BRANCH   4   5
ATOM      5  O   UNL A   1      32.545  33.241  26.937  1.00  0.00    -0.460 OA
BRANCH   5   6
ATOM      6  C   UNL A   1      33.100  33.780  28.054  1.00  0.00     0.338 C 
ATOM      7  O   UNL A   1      32.707  34.873  28.456  1.00  0.00    -0.246 OA
BRANCH   6   8
ATOM      8  C   UNL A   1      34.357  33.206  28.632  1.00  0.00     0.060 A 
ATOM      9  C   UNL A   1      34.422  32.001  29.323  1.00  0.00     0.016 A 
ATOM     10  C   UNL A   1      35.565  33.890  28.394  1.00  0.00     0.016 A 
ATOM     11  C   UNL A   1      35.629  31.381  29.582  1.00  0.00     0.010 A 
ATOM     12  C   UNL A   1      36.794  33.330  28.770  1.00  0.00     0.010 A 
ATOM     13  C   UNL A   1      36.817  32.055  29.337  1.00  0.00    -0.014 A 
BRANCH  13  14
ATOM     14  C   UNL A   1      38.002  31.423  29.927  1.00  0.00     0.031 A 
ATOM     15  C   UNL A   1      38.241  31.686  31.384  1.00  0.00     0.074 A 
ATOM     16  C   UNL A   1      38.643  30.450  29.259  1.00  0.00     0.049 A 
ATOM     17  N   UNL A   1      39.085  31.118  32.200  1.00  0.00    -0.248 NA
ATOM     18  C   UNL A   1      37.355  32.680  32.025  1.00  0.00     0.031 C 
ATOM     19  C   UNL A   1      38.326  30.000  27.901  1.00  0.00     0.029 A 
ATOM     20  N   UNL A   1      39.662  29.628  29.656  1.00  0.00    -0.354 N 
ATOM     21  C   UNL A   1      38.822  31.674  33.445  1.00  0.00     0.074 A 
ATOM     22  C   UNL A   1      37.732  32.606  33.290  1.00  0.00     0.031 C 
ATOM     23  C   UNL A   1      39.148  28.986  27.576  1.00  0.00     0.029 A 
ATOM     24  C   UNL A   1      40.067  28.747  28.685  1.00  0.00     0.049 A 
ATOM     25  H   UNL A   1      40.065  29.664  30.554  1.00  0.00     0.167 HD
ATOM     26  C   UNL A   1      39.461  31.440  34.611  1.00  0.00     0.031 A 
ATOM     27  C   UNL A   1      41.096  27.878  28.697  1.00  0.00     0.031 A 
ATOM     28  C   UNL A   1      40.593  30.565  34.716  1.00  0.00     0.049 A 
ATOM     29  C   UNL A   1      41.918  27.788  29.959  1.00  0.00     0.074 A 
ATOM     30  C   UNL A   1      41.403  30.330  35.807  1.00  0.00     0.029 A 
ATOM     31  N   UNL A   1      41.084  29.802  33.667  1.00  0.00    -0.354 N 
ATOM     32  N   UNL A   1      41.705  28.352  31.127  1.00  0.00    -0.248 NA
ATOM     33  C   UNL A   1      43.126  26.956  29.905  1.00  0.00     0.031 C 
ATOM     34  C   UNL A   1      42.433  29.479  35.396  1.00  0.00     0.029 A 
ATOM     35  C   UNL A   1      42.218  29.126  34.071  1.00  0.00     0.049 A 
ATOM     36  H   UNL A   1      40.684  29.749  32.769  1.00  0.00     0.167 HD
ATOM     37  C   UNL A   1      42.739  27.927  31.949  1.00  0.00     0.074 A 
ATOM     38  C   UNL A   1      43.561  27.036  31.154  1.00  0.00     0.031 C 
ATOM     39  C   UNL A   1      43.000  28.247  33.241  1.00  0.00     0.031 A 
BRANCH  26  40
ATOM     40  C   UNL A   1      39.031  32.242  35.801  1.00  0.00    -0.014 A 
ATOM     41  C   UNL A   1      39.519  33.536  36.040  1.00  0.00     0.009 A 
ATOM     42  C   UNL A   1      38.129  31.673  36.714  1.00  0.00     0.009 A 
ATOM     43  C   UNL A   1      39.123  34.236  37.182  1.00  0.00     0.001 A 
ATOM     44  C   UNL A   1      37.717  32.384  37.841  1.00  0.00     0.001 A 
ATOM     45  C   UNL A   1      38.219  33.662  38.078  1.00  0.00     0.000 A 
ENDBRANCH  26  40
BRANCH  27  46
ATOM     46  C   UNL A   1      41.480  27.120  27.474  1.00  0.00    -0.014 A 
ATOM     47  C   UNL A   1      41.080  25.790  27.275  1.00  0.00     0.009 A 
ATOM     48  C   UNL A   1      42.337  27.709  26.526  1.00  0.00     0.009 A 
ATOM     49  C   UNL A   1      41.564  25.058  26.185  1.00  0.00     0.001 A 
ATOM     50  C   UNL A   1      42.790  26.987  25.420  1.00  0.00     0.001 A 
ATOM     51  C   UNL A   1      42.417  25.656  25.259  1.00  0.00     0.000 A 
ENDBRANCH  27  46
BRANCH  39  52
ATOM     52  C   UNL A   1      44.201  27.605  33.872  1.00  0.00    -0.014 A 
ATOM     53  C   UNL A   1      44.103  26.368  34.527  1.00  0.00     0.009 A 
ATOM     54  C   UNL A   1      45.457  28.218  33.747  1.00  0.00     0.009 A 
ATOM     55  C   UNL A   1      45.239  25.773  35.074  1.00  0.00     0.001 A 
ATOM     56  C   UNL A   1      46.595  27.603  34.264  1.00  0.00     0.001 A 
ATOM     57  C   UNL A   1      46.484  26.386  34.935  1.00  0.00     0.000 A 
ENDBRANCH  39  52
ENDBRANCH  13  14
ENDBRANCH   6   8
ENDBRANCH   5   6
ENDBRANCH   4   5
ENDBRANCH   3   4
ENDBRANCH   2   3
ENDBRANCH   1   2
BRANCH   1  58
ATOM     58  C   UNL A   1      33.727  28.719  27.340  1.00  0.00     0.261 C 
BRANCH  58  59
ATOM     59  O   UNL A   1      33.028  27.676  26.641  1.00  0.00    -0.463 OA
BRANCH  59  60
ATOM     60  C   UNL A   1      31.765  27.442  27.029  1.00  0.00     0.312 C 
ATOM     61  O   UNL A   1      31.325  27.656  28.158  1.00  0.00    -0.252 OA
BRANCH  60  62
ATOM     62  C   UNL A   1      30.880  26.971  25.915  1.00  0.00     0.147 C 
ATOM     63  C   UNL A   1      30.692  25.458  25.705  1.00  0.00     0.128 C 
ATOM     64  C   UNL A   1      31.224  27.445  24.488  1.00  0.00     0.157 C 
ATOM     65  C   UNL A   1      30.654  25.369  24.179  1.00  0.00     0.155 C 
ATOM     66  C   UNL A   1      29.940  27.503  23.723  1.00  0.00     0.004 C 
ATOM     67  O   UNL A   1      31.750  26.253  23.859  1.00  0.00    -0.365 OA
ATOM     68  C   UNL A   1      29.554  26.223  23.581  1.00  0.00     0.004 C 
BRANCH  63  69
ATOM     69  C   UNL A   1      31.644  24.511  26.442  1.00  0.00     0.227 C 
ATOM     70  O   UNL A   1      31.177  23.873  27.399  1.00  0.00    -0.275 OA
ATOM     71  N   UNL A   1      32.965  24.301  26.221  1.00  0.00    -0.352 N 
ATOM     72  H   UNL A   1      33.358  23.669  26.864  1.00  0.00     0.163 HD
BRANCH  71  73
ATOM     73  C   UNL A   1      33.942  24.789  25.256  1.00  0.00     0.151 C 
BRANCH  73  74
ATOM     74  C   UNL A   1      35.143  23.894  25.013  1.00  0.00    -0.026 A 
ATOM     75  C   UNL A   1      35.395  23.464  23.698  1.00  0.00     0.025 A 
ATOM     76  C   UNL A   1      36.016  23.457  26.012  1.00  0.00     0.025 A 
ATOM     77  C   UNL A   1      36.517  22.693  23.434  1.00  0.00     0.111 A 
ATOM     78  C   UNL A   1      37.116  22.689  25.649  1.00  0.00     0.111 A 
ATOM     79  N   UNL A   1      37.396  22.312  24.383  1.00  0.00    -0.265 NA
ENDBRANCH  73  74
ENDBRANCH  71  73
ENDBRANCH  63  69
ENDBRANCH  60  62
ENDBRANCH  59  60
ENDBRANCH  58  59
ENDBRANCH   1  58
TORSDOF 17
ENDMDL
