MODEL 1
REMARK VINA RESULT:     -10.4      0.000      0.000
REMARK SMILES Cc1ccc(Nc2c(C)cccc2Cl)c(CC(=O)OCCOCCOC(=O)c2ccc(-c3c4nc(c(-c5ccccc5)c5ccc([nH]5)c(-c5ccccc5)c5nc(c(-c6ccccc6)c6ccc3[nH]6)C=C5)C=C4)cc2)c1
REMARK SMILES IDX 21 1 20 2 19 3 17 4 18 5 16 6 15 7 1 8 2 9 3 10 76 11 4 12
REMARK SMILES IDX 5 13 6 14 7 16 8 17 13 18 9 19 10 20 12 21 14 22 11 23 22 24
REMARK SMILES IDX 23 25 24 26 25 27 26 28 27 29 28 30 29 31 75 32 30 33 74 34
REMARK SMILES IDX 31 35 32 36 33 37 68 38 34 39 73 40 67 41 69 42 35 43 72 44
REMARK SMILES IDX 66 45 65 46 36 48 58 49 43 50 57 51 44 52 47 53 56 54 70 55
REMARK SMILES IDX 45 56 46 57 55 59 71 60 48 61 37 62 38 63 42 64 39 65 41 66
REMARK SMILES IDX 40 67 59 68 60 69 64 70 61 71 63 72 62 73 49 74 50 75 54 76
REMARK SMILES IDX 51 77 53 78 52 79
REMARK H PARENT 6 15 69 47 47 58
REMARK Flexibility Score: inf
ROOT
ATOM      1  C   UNL A   1      39.237  20.952  25.555  1.00  0.00     0.202 C 
ENDROOT
BRANCH   1   2
ATOM      2  C   UNL A   1      37.794  21.395  25.398  1.00  0.00     0.261 C 
BRANCH   2   3
ATOM      3  O   UNL A   1      37.362  21.433  24.050  1.00  0.00    -0.463 OA
BRANCH   3   4
ATOM      4  C   UNL A   1      36.630  22.510  23.624  1.00  0.00     0.310 C 
ATOM      5  O   UNL A   1      36.718  23.083  22.548  1.00  0.00    -0.252 OA
BRANCH   4   6
ATOM      6  C   UNL A   1      35.668  22.944  24.717  1.00  0.00     0.160 C 
BRANCH   6   7
ATOM      7  C   UNL A   1      34.270  22.475  24.364  1.00  0.00    -0.013 A 
ATOM      8  C   UNL A   1      32.772  18.957  24.445  1.00  0.00     0.044 C 
ATOM      9  C   UNL A   1      32.950  20.418  24.148  1.00  0.00    -0.051 A 
ATOM     10  C   UNL A   1      32.171  21.056  23.190  1.00  0.00     0.005 A 
ATOM     11  C   UNL A   1      33.947  21.155  24.782  1.00  0.00     0.009 A 
ATOM     12  C   UNL A   1      32.432  22.386  22.828  1.00  0.00     0.026 A 
ATOM     13  C   UNL A   1      33.506  23.119  23.371  1.00  0.00     0.042 A 
BRANCH  13  14
ATOM     14  N   UNL A   1      33.816  24.433  22.910  1.00  0.00    -0.354 N 
ATOM     15  H   UNL A   1      34.689  24.541  22.468  1.00  0.00     0.167 HD
BRANCH  14  16
ATOM     16  C   UNL A   1      33.020  25.609  23.011  1.00  0.00     0.060 A 
ATOM     17  C   UNL A   1      32.888  26.283  24.239  1.00  0.00    -0.026 A 
ATOM     18  C   UNL A   1      32.197  26.037  21.947  1.00  0.00     0.064 A 
ATOM     19  C   UNL A   1      33.955  26.192  25.299  1.00  0.00     0.046 C 
ATOM     20  C   UNL A   1      31.793  27.134  24.458  1.00  0.00     0.005 A 
ATOM     21  C   UNL A   1      31.092  26.863  22.178  1.00  0.00     0.023 A 
ATOM     22  Cl  UNL A   1      32.577  25.665  20.303  1.00  0.00    -0.082 Cl
ATOM     23  C   UNL A   1      30.862  27.371  23.451  1.00  0.00     0.002 A 
ENDBRANCH  14  16
ENDBRANCH  13  14
ENDBRANCH   6   7
ENDBRANCH   4   6
ENDBRANCH   3   4
ENDBRANCH   2   3
ENDBRANCH   1   2
BRANCH   1  24
ATOM     24  O   UNL A   1      39.631  21.120  26.902  1.00  0.00    -0.374 OA
BRANCH  24  25
ATOM     25  C   UNL A   1      40.951  20.706  27.192  1.00  0.00     0.202 C 
BRANCH  25  26
ATOM     26  C   UNL A   1      41.892  21.911  27.186  1.00  0.00     0.261 C 
BRANCH  26  27
ATOM     27  O   UNL A   1      41.170  23.128  27.475  1.00  0.00    -0.460 OA
BRANCH  27  28
ATOM     28  C   UNL A   1      41.549  24.191  26.717  1.00  0.00     0.338 C 
ATOM     29  O   UNL A   1      42.529  24.210  25.977  1.00  0.00    -0.246 OA
BRANCH  28  30
ATOM     30  C   UNL A   1      40.778  25.404  27.106  1.00  0.00     0.060 A 
ATOM     31  C   UNL A   1      40.799  26.509  26.234  1.00  0.00     0.016 A 
ATOM     32  C   UNL A   1      40.438  25.571  28.448  1.00  0.00     0.016 A 
ATOM     33  C   UNL A   1      40.712  27.800  26.754  1.00  0.00     0.010 A 
ATOM     34  C   UNL A   1      40.500  26.846  28.970  1.00  0.00     0.010 A 
ATOM     35  C   UNL A   1      40.682  27.963  28.135  1.00  0.00    -0.014 A 
BRANCH  35  36
ATOM     36  C   UNL A   1      40.952  29.216  28.837  1.00  0.00     0.031 A 
ATOM     37  C   UNL A   1      39.841  30.147  29.091  1.00  0.00     0.074 A 
ATOM     38  C   UNL A   1      42.132  29.414  29.468  1.00  0.00     0.049 A 
ATOM     39  N   UNL A   1      40.011  31.324  29.575  1.00  0.00    -0.248 NA
ATOM     40  C   UNL A   1      38.445  29.875  28.754  1.00  0.00     0.031 C 
ATOM     41  C   UNL A   1      42.416  30.264  30.630  1.00  0.00     0.029 A 
ATOM     42  N   UNL A   1      43.373  28.889  29.158  1.00  0.00    -0.354 N 
ATOM     43  C   UNL A   1      38.784  31.776  29.978  1.00  0.00     0.074 A 
ATOM     44  C   UNL A   1      37.833  30.924  29.313  1.00  0.00     0.031 C 
ATOM     45  C   UNL A   1      43.747  30.367  30.795  1.00  0.00     0.029 A 
ATOM     46  C   UNL A   1      44.373  29.722  29.656  1.00  0.00     0.049 A 
ATOM     47  H   UNL A   1      43.527  28.052  28.661  1.00  0.00     0.167 HD
ATOM     48  C   UNL A   1      38.746  32.739  30.937  1.00  0.00     0.031 A 
ATOM     49  C   UNL A   1      45.327  30.249  28.839  1.00  0.00     0.031 A 
ATOM     50  C   UNL A   1      40.088  33.280  31.211  1.00  0.00     0.049 A 
ATOM     51  C   UNL A   1      45.075  31.740  28.695  1.00  0.00     0.074 A 
ATOM     52  C   UNL A   1      40.956  33.248  32.289  1.00  0.00     0.029 A 
ATOM     53  N   UNL A   1      40.855  33.715  30.131  1.00  0.00    -0.354 N 
ATOM     54  N   UNL A   1      44.060  32.344  29.255  1.00  0.00    -0.248 NA
ATOM     55  C   UNL A   1      45.882  32.667  27.915  1.00  0.00     0.031 C 
ATOM     56  C   UNL A   1      42.253  33.645  31.825  1.00  0.00     0.029 A 
ATOM     57  C   UNL A   1      42.167  33.970  30.481  1.00  0.00     0.049 A 
ATOM     58  H   UNL A   1      40.501  33.826  29.220  1.00  0.00     0.167 HD
ATOM     59  C   UNL A   1      44.048  33.670  28.961  1.00  0.00     0.074 A 
ATOM     60  C   UNL A   1      45.191  33.815  28.065  1.00  0.00     0.031 C 
ATOM     61  C   UNL A   1      43.092  34.506  29.474  1.00  0.00     0.031 A 
BRANCH  48  62
ATOM     62  C   UNL A   1      37.508  33.081  31.734  1.00  0.00    -0.014 A 
ATOM     63  C   UNL A   1      37.277  34.414  32.111  1.00  0.00     0.009 A 
ATOM     64  C   UNL A   1      36.575  32.140  32.214  1.00  0.00     0.009 A 
ATOM     65  C   UNL A   1      36.179  34.781  32.906  1.00  0.00     0.001 A 
ATOM     66  C   UNL A   1      35.458  32.501  32.980  1.00  0.00     0.001 A 
ATOM     67  C   UNL A   1      35.263  33.827  33.332  1.00  0.00     0.000 A 
ENDBRANCH  48  62
BRANCH  49  68
ATOM     68  C   UNL A   1      45.761  29.240  27.816  1.00  0.00    -0.014 A 
ATOM     69  C   UNL A   1      46.423  28.100  28.339  1.00  0.00     0.009 A 
ATOM     70  C   UNL A   1      45.056  29.092  26.610  1.00  0.00     0.009 A 
ATOM     71  C   UNL A   1      46.210  26.826  27.797  1.00  0.00     0.001 A 
ATOM     72  C   UNL A   1      44.856  27.810  26.066  1.00  0.00     0.001 A 
ATOM     73  C   UNL A   1      45.385  26.677  26.688  1.00  0.00     0.000 A 
ENDBRANCH  49  68
BRANCH  61  74
ATOM     74  C   UNL A   1      42.904  35.933  29.030  1.00  0.00    -0.014 A 
ATOM     75  C   UNL A   1      43.424  37.038  29.708  1.00  0.00     0.009 A 
ATOM     76  C   UNL A   1      42.142  36.209  27.872  1.00  0.00     0.009 A 
ATOM     77  C   UNL A   1      43.322  38.328  29.175  1.00  0.00     0.001 A 
ATOM     78  C   UNL A   1      42.008  37.495  27.352  1.00  0.00     0.001 A 
ATOM     79  C   UNL A   1      42.631  38.554  27.988  1.00  0.00     0.000 A 
ENDBRANCH  61  74
ENDBRANCH  35  36
ENDBRANCH  28  30
ENDBRANCH  27  28
ENDBRANCH  26  27
ENDBRANCH  25  26
ENDBRANCH  24  25
ENDBRANCH   1  24
TORSDOF 17
ENDMDL
MODEL 2
REMARK VINA RESULT:     -10.4      4.341      8.872
REMARK SMILES Cc1ccc(Nc2c(C)cccc2Cl)c(CC(=O)OCCOCCOC(=O)c2ccc(-c3c4nc(c(-c5ccccc5)c5ccc([nH]5)c(-c5ccccc5)c5nc(c(-c6ccccc6)c6ccc3[nH]6)C=C5)C=C4)cc2)c1
REMARK SMILES IDX 21 1 20 2 19 3 17 4 18 5 16 6 15 7 1 8 2 9 3 10 76 11 4 12
REMARK SMILES IDX 5 13 6 14 7 16 8 17 13 18 9 19 10 20 12 21 14 22 11 23 22 24
REMARK SMILES IDX 23 25 24 26 25 27 26 28 27 29 28 30 29 31 75 32 30 33 74 34
REMARK SMILES IDX 31 35 32 36 33 37 68 38 34 39 73 40 67 41 69 42 35 43 72 44
REMARK SMILES IDX 66 45 65 46 36 48 58 49 43 50 57 51 44 52 47 53 56 54 70 55
REMARK SMILES IDX 45 56 46 57 55 59 71 60 48 61 37 62 38 63 42 64 39 65 41 66
REMARK SMILES IDX 40 67 59 68 60 69 64 70 61 71 63 72 62 73 49 74 50 75 54 76
REMARK SMILES IDX 51 77 53 78 52 79
REMARK H PARENT 6 15 69 47 47 58
REMARK Flexibility Score: inf
ROOT
ATOM      1  C   UNL A   1      34.303  31.235  27.859  1.00  0.00     0.202 C 
ENDROOT
BRANCH   1   2
ATOM      2  C   UNL A   1      33.303  30.562  26.937  1.00  0.00     0.261 C 
BRANCH   2   3
ATOM      3  O   UNL A   1      32.250  29.914  27.627  1.00  0.00    -0.463 OA
BRANCH   3   4
ATOM      4  C   UNL A   1      32.012  28.590  27.369  1.00  0.00     0.310 C 
ATOM      5  O   UNL A   1      31.255  27.845  27.974  1.00  0.00    -0.252 OA
BRANCH   4   6
ATOM      6  C   UNL A   1      32.864  28.132  26.198  1.00  0.00     0.160 C 
BRANCH   6   7
ATOM      7  C   UNL A   1      31.968  27.505  25.146  1.00  0.00    -0.013 A 
ATOM      8  C   UNL A   1      29.246  29.095  22.982  1.00  0.00     0.044 C 
ATOM      9  C   UNL A   1      30.092  28.061  23.667  1.00  0.00    -0.051 A 
ATOM     10  C   UNL A   1      29.692  26.731  23.728  1.00  0.00     0.005 A 
ATOM     11  C   UNL A   1      31.269  28.423  24.317  1.00  0.00     0.009 A 
ATOM     12  C   UNL A   1      30.422  25.800  24.481  1.00  0.00     0.026 A 
ATOM     13  C   UNL A   1      31.553  26.162  25.240  1.00  0.00     0.042 A 
BRANCH  13  14
ATOM     14  N   UNL A   1      32.215  25.221  26.081  1.00  0.00    -0.354 N 
ATOM     15  H   UNL A   1      32.462  25.542  26.978  1.00  0.00     0.167 HD
BRANCH  14  16
ATOM     16  C   UNL A   1      32.565  23.873  25.784  1.00  0.00     0.060 A 
ATOM     17  C   UNL A   1      33.816  23.565  25.218  1.00  0.00    -0.026 A 
ATOM     18  C   UNL A   1      31.621  22.828  25.873  1.00  0.00     0.064 A 
ATOM     19  C   UNL A   1      35.010  24.459  25.427  1.00  0.00     0.046 C 
ATOM     20  C   UNL A   1      33.993  22.358  24.522  1.00  0.00     0.005 A 
ATOM     21  C   UNL A   1      31.791  21.639  25.155  1.00  0.00     0.023 A 
ATOM     22  Cl  UNL A   1      30.277  22.912  26.956  1.00  0.00    -0.082 Cl
ATOM     23  C   UNL A   1      32.962  21.427  24.435  1.00  0.00     0.002 A 
ENDBRANCH  14  16
ENDBRANCH  13  14
ENDBRANCH   6   7
ENDBRANCH   4   6
ENDBRANCH   3   4
ENDBRANCH   2   3
ENDBRANCH   1   2
BRANCH   1  24
ATOM     24  O   UNL A   1      34.289  32.628  27.624  1.00  0.00    -0.374 OA
BRANCH  24  25
ATOM     25  C   UNL A   1      33.003  33.211  27.578  1.00  0.00     0.202 C 
BRANCH  25  26
ATOM     26  C   UNL A   1      32.941  34.423  28.509  1.00  0.00     0.261 C 
BRANCH  26  27
ATOM     27  O   UNL A   1      34.258  34.763  28.997  1.00  0.00    -0.460 OA
BRANCH  27  28
ATOM     28  C   UNL A   1      34.499  34.356  30.272  1.00  0.00     0.338 C 
ATOM     29  O   UNL A   1      33.644  34.248  31.146  1.00  0.00    -0.246 OA
BRANCH  28  30
ATOM     30  C   UNL A   1      35.965  34.319  30.533  1.00  0.00     0.060 A 
ATOM     31  C   UNL A   1      36.833  34.297  29.426  1.00  0.00     0.016 A 
ATOM     32  C   UNL A   1      36.404  33.884  31.783  1.00  0.00     0.016 A 
ATOM     33  C   UNL A   1      38.052  33.625  29.518  1.00  0.00     0.010 A 
ATOM     34  C   UNL A   1      37.538  33.100  31.825  1.00  0.00     0.010 A 
ATOM     35  C   UNL A   1      38.343  32.928  30.685  1.00  0.00    -0.014 A 
BRANCH  35  36
ATOM     36  C   UNL A   1      39.375  31.902  30.813  1.00  0.00     0.031 A 
ATOM     37  C   UNL A   1      39.085  30.534  30.356  1.00  0.00     0.074 A 
ATOM     38  C   UNL A   1      40.652  32.239  31.105  1.00  0.00     0.049 A 
ATOM     39  N   UNL A   1      39.880  29.545  30.556  1.00  0.00    -0.248 NA
ATOM     40  C   UNL A   1      37.843  30.130  29.699  1.00  0.00     0.031 C 
ATOM     41  C   UNL A   1      41.889  31.532  30.753  1.00  0.00     0.029 A 
ATOM     42  N   UNL A   1      41.112  33.320  31.835  1.00  0.00    -0.354 N 
ATOM     43  C   UNL A   1      39.471  28.526  29.740  1.00  0.00     0.074 A 
ATOM     44  C   UNL A   1      38.129  28.872  29.351  1.00  0.00     0.031 C 
ATOM     45  C   UNL A   1      42.920  32.065  31.432  1.00  0.00     0.029 A 
ATOM     46  C   UNL A   1      42.367  33.029  32.366  1.00  0.00     0.049 A 
ATOM     47  H   UNL A   1      40.626  34.168  31.960  1.00  0.00     0.167 HD
ATOM     48  C   UNL A   1      40.387  27.583  29.394  1.00  0.00     0.031 A 
ATOM     49  C   UNL A   1      42.602  33.099  33.706  1.00  0.00     0.031 A 
ATOM     50  C   UNL A   1      41.631  27.731  30.170  1.00  0.00     0.049 A 
ATOM     51  C   UNL A   1      42.780  31.689  34.243  1.00  0.00     0.074 A 
ATOM     52  C   UNL A   1      42.937  28.080  29.870  1.00  0.00     0.029 A 
ATOM     53  N   UNL A   1      41.535  27.814  31.558  1.00  0.00    -0.354 N 
ATOM     54  N   UNL A   1      42.666  30.625  33.491  1.00  0.00    -0.248 NA
ATOM     55  C   UNL A   1      43.061  31.335  35.627  1.00  0.00     0.031 C 
ATOM     56  C   UNL A   1      43.603  28.397  31.100  1.00  0.00     0.029 A 
ATOM     57  C   UNL A   1      42.724  28.190  32.151  1.00  0.00     0.049 A 
ATOM     58  H   UNL A   1      40.709  27.627  32.060  1.00  0.00     0.167 HD
ATOM     59  C   UNL A   1      42.851  29.488  34.210  1.00  0.00     0.074 A 
ATOM     60  C   UNL A   1      43.045  29.987  35.567  1.00  0.00     0.031 C 
ATOM     61  C   UNL A   1      42.813  28.254  33.615  1.00  0.00     0.031 A 
BRANCH  48  62
ATOM     62  C   UNL A   1      40.208  26.621  28.243  1.00  0.00    -0.014 A 
ATOM     63  C   UNL A   1      39.380  25.499  28.404  1.00  0.00     0.009 A 
ATOM     64  C   UNL A   1      40.881  26.711  27.007  1.00  0.00     0.009 A 
ATOM     65  C   UNL A   1      39.226  24.537  27.393  1.00  0.00     0.001 A 
ATOM     66  C   UNL A   1      40.708  25.774  25.979  1.00  0.00     0.001 A 
ATOM     67  C   UNL A   1      39.882  24.680  26.175  1.00  0.00     0.000 A 
ENDBRANCH  48  62
BRANCH  49  68
ATOM     68  C   UNL A   1      41.892  34.278  34.306  1.00  0.00    -0.014 A 
ATOM     69  C   UNL A   1      40.859  33.955  35.222  1.00  0.00     0.009 A 
ATOM     70  C   UNL A   1      42.555  35.506  34.470  1.00  0.00     0.009 A 
ATOM     71  C   UNL A   1      40.646  34.723  36.374  1.00  0.00     0.001 A 
ATOM     72  C   UNL A   1      42.327  36.277  35.624  1.00  0.00     0.001 A 
ATOM     73  C   UNL A   1      41.417  35.859  36.598  1.00  0.00     0.000 A 
ENDBRANCH  49  68
BRANCH  61  74
ATOM     74  C   UNL A   1      42.810  26.957  34.382  1.00  0.00    -0.014 A 
ATOM     75  C   UNL A   1      43.889  26.073  34.427  1.00  0.00     0.009 A 
ATOM     76  C   UNL A   1      41.651  26.569  35.092  1.00  0.00     0.009 A 
ATOM     77  C   UNL A   1      43.869  24.947  35.258  1.00  0.00     0.001 A 
ATOM     78  C   UNL A   1      41.611  25.433  35.897  1.00  0.00     0.001 A 
ATOM     79  C   UNL A   1      42.737  24.638  36.008  1.00  0.00     0.000 A 
ENDBRANCH  61  74
ENDBRANCH  35  36
ENDBRANCH  28  30
ENDBRANCH  27  28
ENDBRANCH  26  27
ENDBRANCH  25  26
ENDBRANCH  24  25
ENDBRANCH   1  24
TORSDOF 17
ENDMDL
MODEL 3
REMARK VINA RESULT:     -10.3      2.349      4.496
REMARK SMILES Cc1ccc(Nc2c(C)cccc2Cl)c(CC(=O)OCCOCCOC(=O)c2ccc(-c3c4nc(c(-c5ccccc5)c5ccc([nH]5)c(-c5ccccc5)c5nc(c(-c6ccccc6)c6ccc3[nH]6)C=C5)C=C4)cc2)c1
REMARK SMILES IDX 21 1 20 2 19 3 17 4 18 5 16 6 15 7 1 8 2 9 3 10 76 11 4 12
REMARK SMILES IDX 5 13 6 14 7 16 8 17 13 18 9 19 10 20 12 21 14 22 11 23 22 24
REMARK SMILES IDX 23 25 24 26 25 27 26 28 27 29 28 30 29 31 75 32 30 33 74 34
REMARK SMILES IDX 31 35 32 36 33 37 68 38 34 39 73 40 67 41 69 42 35 43 72 44
REMARK SMILES IDX 66 45 65 46 36 48 58 49 43 50 57 51 44 52 47 53 56 54 70 55
REMARK SMILES IDX 45 56 46 57 55 59 71 60 48 61 37 62 38 63 42 64 39 65 41 66
REMARK SMILES IDX 40 67 59 68 60 69 64 70 61 71 63 72 62 73 49 74 50 75 54 76
REMARK SMILES IDX 51 77 53 78 52 79
REMARK H PARENT 6 15 69 47 47 58
REMARK Flexibility Score: inf
ROOT
ATOM      1  C   UNL A   1      36.001  22.877  23.744  1.00  0.00     0.202 C 
ENDROOT
BRANCH   1   2
ATOM      2  C   UNL A   1      34.961  23.971  23.897  1.00  0.00     0.261 C 
BRANCH   2   3
ATOM      3  O   UNL A   1      34.879  24.828  22.772  1.00  0.00    -0.463 OA
BRANCH   3   4
ATOM      4  C   UNL A   1      33.862  25.744  22.717  1.00  0.00     0.310 C 
ATOM      5  O   UNL A   1      33.484  26.369  21.737  1.00  0.00    -0.252 OA
BRANCH   4   6
ATOM      6  C   UNL A   1      33.249  25.918  24.097  1.00  0.00     0.160 C 
BRANCH   6   7
ATOM      7  C   UNL A   1      33.218  27.394  24.445  1.00  0.00    -0.013 A 
ATOM      8  C   UNL A   1      34.529  29.208  27.545  1.00  0.00     0.044 C 
ATOM      9  C   UNL A   1      33.787  28.931  26.270  1.00  0.00    -0.051 A 
ATOM     10  C   UNL A   1      32.778  29.778  25.828  1.00  0.00     0.005 A 
ATOM     11  C   UNL A   1      34.049  27.780  25.532  1.00  0.00     0.009 A 
ATOM     12  C   UNL A   1      32.003  29.442  24.708  1.00  0.00     0.026 A 
ATOM     13  C   UNL A   1      32.172  28.230  24.009  1.00  0.00     0.042 A 
BRANCH  13  14
ATOM     14  N   UNL A   1      31.303  27.863  22.939  1.00  0.00    -0.354 N 
ATOM     15  H   UNL A   1      31.741  27.622  22.091  1.00  0.00     0.167 HD
BRANCH  14  16
ATOM     16  C   UNL A   1      29.881  27.801  22.946  1.00  0.00     0.060 A 
ATOM     17  C   UNL A   1      29.114  28.925  22.586  1.00  0.00    -0.026 A 
ATOM     18  C   UNL A   1      29.191  26.692  23.478  1.00  0.00     0.064 A 
ATOM     19  C   UNL A   1      29.661  29.984  21.665  1.00  0.00     0.046 C 
ATOM     20  C   UNL A   1      27.779  29.028  23.010  1.00  0.00     0.005 A 
ATOM     21  C   UNL A   1      27.870  26.809  23.923  1.00  0.00     0.023 A 
ATOM     22  Cl  UNL A   1      29.896  25.114  23.498  1.00  0.00    -0.082 Cl
ATOM     23  C   UNL A   1      27.179  28.000  23.733  1.00  0.00     0.002 A 
ENDBRANCH  14  16
ENDBRANCH  13  14
ENDBRANCH   6   7
ENDBRANCH   4   6
ENDBRANCH   3   4
ENDBRANCH   2   3
ENDBRANCH   1   2
BRANCH   1  24
ATOM     24  O   UNL A   1      37.027  23.073  24.695  1.00  0.00    -0.374 OA
BRANCH  24  25
ATOM     25  C   UNL A   1      37.352  21.933  25.465  1.00  0.00     0.202 C 
BRANCH  25  26
ATOM     26  C   UNL A   1      38.560  22.226  26.354  1.00  0.00     0.261 C 
BRANCH  26  27
ATOM     27  O   UNL A   1      39.794  22.003  25.636  1.00  0.00    -0.460 OA
BRANCH  27  28
ATOM     28  C   UNL A   1      40.711  21.270  26.322  1.00  0.00     0.338 C 
ATOM     29  O   UNL A   1      40.571  20.092  26.637  1.00  0.00    -0.246 OA
BRANCH  28  30
ATOM     30  C   UNL A   1      41.778  22.155  26.864  1.00  0.00     0.060 A 
ATOM     31  C   UNL A   1      41.900  22.264  28.262  1.00  0.00     0.016 A 
ATOM     32  C   UNL A   1      42.310  23.140  26.031  1.00  0.00     0.016 A 
ATOM     33  C   UNL A   1      42.340  23.462  28.826  1.00  0.00     0.010 A 
ATOM     34  C   UNL A   1      42.602  24.364  26.594  1.00  0.00     0.010 A 
ATOM     35  C   UNL A   1      42.575  24.546  27.988  1.00  0.00    -0.014 A 
BRANCH  35  36
ATOM     36  C   UNL A   1      42.684  25.936  28.427  1.00  0.00     0.031 A 
ATOM     37  C   UNL A   1      41.489  26.793  28.394  1.00  0.00     0.074 A 
ATOM     38  C   UNL A   1      43.783  26.368  29.087  1.00  0.00     0.049 A 
ATOM     39  N   UNL A   1      41.525  28.055  28.629  1.00  0.00    -0.248 NA
ATOM     40  C   UNL A   1      40.153  26.331  28.019  1.00  0.00     0.031 C 
ATOM     41  C   UNL A   1      43.895  27.461  30.060  1.00  0.00     0.029 A 
ATOM     42  N   UNL A   1      45.083  25.907  28.989  1.00  0.00    -0.354 N 
ATOM     43  C   UNL A   1      40.236  28.465  28.833  1.00  0.00     0.074 A 
ATOM     44  C   UNL A   1      39.416  27.411  28.295  1.00  0.00     0.031 C 
ATOM     45  C   UNL A   1      45.194  27.718  30.298  1.00  0.00     0.029 A 
ATOM     46  C   UNL A   1      45.968  26.914  29.371  1.00  0.00     0.049 A 
ATOM     47  H   UNL A   1      45.344  25.004  28.694  1.00  0.00     0.167 HD
ATOM     48  C   UNL A   1      40.038  29.597  29.561  1.00  0.00     0.031 A 
ATOM     49  C   UNL A   1      46.952  27.347  28.534  1.00  0.00     0.031 A 
ATOM     50  C   UNL A   1      41.305  30.304  29.813  1.00  0.00     0.049 A 
ATOM     51  C   UNL A   1      46.604  28.747  28.059  1.00  0.00     0.074 A 
ATOM     52  C   UNL A   1      42.069  30.574  30.935  1.00  0.00     0.029 A 
ATOM     53  N   UNL A   1      42.134  30.577  28.726  1.00  0.00    -0.354 N 
ATOM     54  N   UNL A   1      45.499  29.357  28.401  1.00  0.00    -0.248 NA
ATOM     55  C   UNL A   1      47.408  29.565  27.162  1.00  0.00     0.031 C 
ATOM     56  C   UNL A   1      43.371  30.985  30.495  1.00  0.00     0.029 A 
ATOM     57  C   UNL A   1      43.385  31.018  29.110  1.00  0.00     0.049 A 
ATOM     58  H   UNL A   1      41.858  30.465  27.787  1.00  0.00     0.167 HD
ATOM     59  C   UNL A   1      45.416  30.587  27.832  1.00  0.00     0.074 A 
ATOM     60  C   UNL A   1      46.621  30.651  27.014  1.00  0.00     0.031 C 
ATOM     61  C   UNL A   1      44.356  31.419  28.084  1.00  0.00     0.031 A 
BRANCH  48  62
ATOM     62  C   UNL A   1      38.710  29.979  30.173  1.00  0.00    -0.014 A 
ATOM     63  C   UNL A   1      38.360  29.472  31.435  1.00  0.00     0.009 A 
ATOM     64  C   UNL A   1      37.727  30.764  29.536  1.00  0.00     0.009 A 
ATOM     65  C   UNL A   1      37.115  29.740  32.024  1.00  0.00     0.001 A 
ATOM     66  C   UNL A   1      36.494  31.065  30.131  1.00  0.00     0.001 A 
ATOM     67  C   UNL A   1      36.185  30.545  31.377  1.00  0.00     0.000 A 
ENDBRANCH  48  62
BRANCH  49  68
ATOM     68  C   UNL A   1      47.553  26.194  27.784  1.00  0.00    -0.014 A 
ATOM     69  C   UNL A   1      47.124  26.064  26.439  1.00  0.00     0.009 A 
ATOM     70  C   UNL A   1      48.830  25.710  28.116  1.00  0.00     0.009 A 
ATOM     71  C   UNL A   1      48.011  25.667  25.430  1.00  0.00     0.001 A 
ATOM     72  C   UNL A   1      49.711  25.303  27.097  1.00  0.00     0.001 A 
ATOM     73  C   UNL A   1      49.322  25.334  25.756  1.00  0.00     0.000 A 
ENDBRANCH  49  68
BRANCH  61  74
ATOM     74  C   UNL A   1      44.104  32.702  27.334  1.00  0.00    -0.014 A 
ATOM     75  C   UNL A   1      44.227  32.835  25.950  1.00  0.00     0.009 A 
ATOM     76  C   UNL A   1      43.739  33.866  28.048  1.00  0.00     0.009 A 
ATOM     77  C   UNL A   1      43.856  34.019  25.301  1.00  0.00     0.001 A 
ATOM     78  C   UNL A   1      43.399  35.058  27.412  1.00  0.00     0.001 A 
ATOM     79  C   UNL A   1      43.424  35.123  26.030  1.00  0.00     0.000 A 
ENDBRANCH  61  74
ENDBRANCH  35  36
ENDBRANCH  28  30
ENDBRANCH  27  28
ENDBRANCH  26  27
ENDBRANCH  25  26
ENDBRANCH  24  25
ENDBRANCH   1  24
TORSDOF 17
ENDMDL
