MODEL 1
REMARK VINA RESULT:     -11.5      0.000      0.000
REMARK SMILES O=C(OCCOCCOC(=O)[C@H]1CCCN(c2cc(-c3ccccn3)nc(-c3ccccc3F)n2)C1)c1ccc(-c2c3nc(c(-c4ccccc4)c4ccc([nH]4)c(-c4ccccc4)c4nc(c(-c5ccccc5)c5ccc2[nH]5)C=C4)C=C3)cc1
REMARK SMILES IDX 6 1 5 2 4 3 3 4 2 5 1 6 37 7 38 8 84 9 39 10 83 11 40 12
REMARK SMILES IDX 41 13 42 14 77 15 43 16 82 17 76 18 78 19 44 20 81 21 75 22
REMARK SMILES IDX 74 23 45 25 67 26 52 27 66 28 53 29 56 30 65 31 79 32 54 33
REMARK SMILES IDX 55 34 64 36 80 37 57 38 46 39 47 40 51 41 48 42 50 43 49 44
REMARK SMILES IDX 68 45 69 46 73 47 70 48 72 49 71 50 58 51 59 52 63 53 60 54
REMARK SMILES IDX 62 55 61 56 7 57 8 58 9 59 10 60 11 61 12 62 13 63 36 64
REMARK SMILES IDX 14 65 16 66 15 67 17 68 18 69 35 70 19 71 27 72 26 73 20 74
REMARK SMILES IDX 21 75 25 76 22 77 24 78 23 79 28 80 29 81 33 82 30 83 32 84
REMARK SMILES IDX 34 85 31 86
REMARK H PARENT 78 24 56 35
REMARK Flexibility Score: inf
ROOT
ATOM      1  O   UNL A   1      44.408  21.931  24.223  1.00  0.00    -0.374 OA
ENDROOT
BRANCH   1   2
ATOM      2  C   UNL A   1      44.141  23.330  24.255  1.00  0.00     0.202 C 
BRANCH   2   3
ATOM      3  C   UNL A   1      44.335  24.057  25.584  1.00  0.00     0.261 C 
BRANCH   3   4
ATOM      4  O   UNL A   1      43.080  24.605  26.031  1.00  0.00    -0.460 OA
BRANCH   4   5
ATOM      5  C   UNL A   1      42.661  25.881  25.871  1.00  0.00     0.338 C 
ATOM      6  O   UNL A   1      42.496  26.356  24.748  1.00  0.00    -0.246 OA
BRANCH   5   7
ATOM      7  C   UNL A   1      42.331  26.702  27.054  1.00  0.00     0.060 A 
ATOM      8  C   UNL A   1      41.573  26.192  28.101  1.00  0.00     0.016 A 
ATOM      9  C   UNL A   1      42.821  28.006  27.145  1.00  0.00     0.016 A 
ATOM     10  C   UNL A   1      41.143  26.981  29.134  1.00  0.00     0.010 A 
ATOM     11  C   UNL A   1      42.517  28.774  28.271  1.00  0.00     0.010 A 
ATOM     12  C   UNL A   1      41.668  28.255  29.259  1.00  0.00    -0.014 A 
BRANCH  12  13
ATOM     13  C   UNL A   1      41.273  28.997  30.458  1.00  0.00     0.031 A 
ATOM     14  C   UNL A   1      40.042  29.828  30.400  1.00  0.00     0.074 A 
ATOM     15  C   UNL A   1      41.960  28.786  31.597  1.00  0.00     0.049 A 
ATOM     16  N   UNL A   1      39.585  30.671  31.279  1.00  0.00    -0.248 NA
ATOM     17  C   UNL A   1      39.209  29.694  29.190  1.00  0.00     0.031 C 
ATOM     18  C   UNL A   1      43.078  27.841  31.755  1.00  0.00     0.029 A 
ATOM     19  N   UNL A   1      41.802  29.312  32.846  1.00  0.00    -0.354 N 
ATOM     20  C   UNL A   1      38.453  31.226  30.701  1.00  0.00     0.074 A 
ATOM     21  C   UNL A   1      38.270  30.603  29.411  1.00  0.00     0.031 C 
ATOM     22  C   UNL A   1      43.476  27.835  33.034  1.00  0.00     0.029 A 
ATOM     23  C   UNL A   1      42.736  28.861  33.747  1.00  0.00     0.049 A 
ATOM     24  H   UNL A   1      41.090  29.951  33.078  1.00  0.00     0.167 HD
ATOM     25  C   UNL A   1      37.672  32.201  31.213  1.00  0.00     0.031 A 
ATOM     26  C   UNL A   1      43.009  29.299  34.988  1.00  0.00     0.031 A 
ATOM     27  C   UNL A   1      37.910  32.778  32.506  1.00  0.00     0.049 A 
ATOM     28  C   UNL A   1      42.193  30.456  35.487  1.00  0.00     0.074 A 
ATOM     29  C   UNL A   1      37.238  33.807  33.135  1.00  0.00     0.029 A 
ATOM     30  N   UNL A   1      38.916  32.359  33.371  1.00  0.00    -0.354 N 
ATOM     31  N   UNL A   1      41.172  31.049  34.912  1.00  0.00    -0.248 NA
ATOM     32  C   UNL A   1      42.581  31.028  36.779  1.00  0.00     0.031 C 
ATOM     33  C   UNL A   1      37.877  34.049  34.356  1.00  0.00     0.029 A 
ATOM     34  C   UNL A   1      38.906  33.130  34.515  1.00  0.00     0.049 A 
ATOM     35  H   UNL A   1      39.543  31.621  33.192  1.00  0.00     0.167 HD
ATOM     36  C   UNL A   1      40.789  32.064  35.773  1.00  0.00     0.074 A 
ATOM     37  C   UNL A   1      41.672  31.982  36.923  1.00  0.00     0.031 C 
ATOM     38  C   UNL A   1      39.810  32.990  35.630  1.00  0.00     0.031 A 
BRANCH  25  39
ATOM     39  C   UNL A   1      36.602  32.759  30.323  1.00  0.00    -0.014 A 
ATOM     40  C   UNL A   1      36.840  33.825  29.442  1.00  0.00     0.009 A 
ATOM     41  C   UNL A   1      35.307  32.223  30.404  1.00  0.00     0.009 A 
ATOM     42  C   UNL A   1      35.794  34.363  28.687  1.00  0.00     0.001 A 
ATOM     43  C   UNL A   1      34.270  32.745  29.630  1.00  0.00     0.001 A 
ATOM     44  C   UNL A   1      34.512  33.821  28.780  1.00  0.00     0.000 A 
ENDBRANCH  25  39
BRANCH  26  45
ATOM     45  C   UNL A   1      44.156  28.746  35.756  1.00  0.00    -0.014 A 
ATOM     46  C   UNL A   1      43.981  27.687  36.658  1.00  0.00     0.009 A 
ATOM     47  C   UNL A   1      45.445  29.288  35.602  1.00  0.00     0.009 A 
ATOM     48  C   UNL A   1      45.060  27.204  37.405  1.00  0.00     0.001 A 
ATOM     49  C   UNL A   1      46.529  28.780  36.320  1.00  0.00     0.001 A 
ATOM     50  C   UNL A   1      46.333  27.748  37.232  1.00  0.00     0.000 A 
ENDBRANCH  26  45
BRANCH  38  51
ATOM     51  C   UNL A   1      39.636  33.954  36.763  1.00  0.00    -0.014 A 
ATOM     52  C   UNL A   1      40.204  35.235  36.716  1.00  0.00     0.009 A 
ATOM     53  C   UNL A   1      38.837  33.591  37.856  1.00  0.00     0.009 A 
ATOM     54  C   UNL A   1      39.987  36.132  37.759  1.00  0.00     0.001 A 
ATOM     55  C   UNL A   1      38.596  34.501  38.882  1.00  0.00     0.001 A 
ATOM     56  C   UNL A   1      39.177  35.769  38.836  1.00  0.00     0.000 A 
ENDBRANCH  38  51
ENDBRANCH  12  13
ENDBRANCH   5   7
ENDBRANCH   4   5
ENDBRANCH   3   4
ENDBRANCH   2   3
ENDBRANCH   1   2
BRANCH   1  57
ATOM     57  C   UNL A   1      44.476  21.278  25.494  1.00  0.00     0.202 C 
BRANCH  57  58
ATOM     58  C   UNL A   1      43.300  20.316  25.642  1.00  0.00     0.261 C 
BRANCH  58  59
ATOM     59  O   UNL A   1      42.086  21.077  25.806  1.00  0.00    -0.463 OA
BRANCH  59  60
ATOM     60  C   UNL A   1      40.961  20.338  26.032  1.00  0.00     0.310 C 
ATOM     61  O   UNL A   1      40.878  19.126  25.888  1.00  0.00    -0.252 OA
BRANCH  60  62
ATOM     62  C   UNL A   1      39.821  21.221  26.515  1.00  0.00     0.118 C 
ATOM     63  C   UNL A   1      40.335  22.642  26.775  1.00  0.00     0.019 C 
ATOM     64  C   UNL A   1      38.725  21.253  25.457  1.00  0.00     0.133 C 
ATOM     65  C   UNL A   1      39.186  23.600  27.080  1.00  0.00     0.022 C 
ATOM     66  N   UNL A   1      37.698  22.254  25.730  1.00  0.00    -0.356 N 
ATOM     67  C   UNL A   1      38.149  23.615  25.954  1.00  0.00     0.118 C 
BRANCH  66  68
ATOM     68  C   UNL A   1      36.404  21.928  25.387  1.00  0.00     0.133 A 
ATOM     69  C   UNL A   1      35.949  20.630  25.300  1.00  0.00     0.077 A 
ATOM     70  N   UNL A   1      35.590  22.950  25.098  1.00  0.00    -0.211 NA
ATOM     71  C   UNL A   1      34.637  20.437  24.894  1.00  0.00     0.095 A 
ATOM     72  C   UNL A   1      34.341  22.686  24.676  1.00  0.00     0.165 A 
ATOM     73  N   UNL A   1      33.814  21.460  24.580  1.00  0.00    -0.226 NA
BRANCH  71  74
ATOM     74  C   UNL A   1      34.091  19.082  24.736  1.00  0.00     0.089 A 
ATOM     75  C   UNL A   1      34.866  18.024  24.264  1.00  0.00     0.030 A 
ATOM     76  N   UNL A   1      32.771  18.939  25.023  1.00  0.00    -0.255 NA
ATOM     77  C   UNL A   1      34.270  16.774  24.092  1.00  0.00     0.004 A 
ATOM     78  C   UNL A   1      32.227  17.713  24.867  1.00  0.00     0.112 A 
ATOM     79  C   UNL A   1      32.926  16.613  24.402  1.00  0.00     0.020 A 
ENDBRANCH  71  74
BRANCH  72  80
ATOM     80  C   UNL A   1      33.593  23.828  24.155  1.00  0.00     0.055 A 
ATOM     81  C   UNL A   1      33.284  23.898  22.779  1.00  0.00     0.015 A 
ATOM     82  C   UNL A   1      33.171  24.886  24.964  1.00  0.00     0.134 A 
ATOM     83  C   UNL A   1      32.580  24.979  22.242  1.00  0.00     0.001 A 
ATOM     84  C   UNL A   1      32.473  25.973  24.433  1.00  0.00     0.040 A 
ATOM     85  F   UNL A   1      33.461  24.904  26.274  1.00  0.00    -0.206 F 
ATOM     86  C   UNL A   1      32.176  26.020  23.072  1.00  0.00     0.003 A 
ENDBRANCH  72  80
ENDBRANCH  66  68
ENDBRANCH  60  62
ENDBRANCH  59  60
ENDBRANCH  58  59
ENDBRANCH  57  58
ENDBRANCH   1  57
TORSDOF 17
ENDMDL
MODEL 2
REMARK VINA RESULT:     -11.3      5.129      8.850
REMARK SMILES O=C(OCCOCCOC(=O)[C@H]1CCCN(c2cc(-c3ccccn3)nc(-c3ccccc3F)n2)C1)c1ccc(-c2c3nc(c(-c4ccccc4)c4ccc([nH]4)c(-c4ccccc4)c4nc(c(-c5ccccc5)c5ccc2[nH]5)C=C4)C=C3)cc1
REMARK SMILES IDX 6 1 5 2 4 3 3 4 2 5 1 6 37 7 38 8 84 9 39 10 83 11 40 12
REMARK SMILES IDX 41 13 42 14 77 15 43 16 82 17 76 18 78 19 44 20 81 21 75 22
REMARK SMILES IDX 74 23 45 25 67 26 52 27 66 28 53 29 56 30 65 31 79 32 54 33
REMARK SMILES IDX 55 34 64 36 80 37 57 38 46 39 47 40 51 41 48 42 50 43 49 44
REMARK SMILES IDX 68 45 69 46 73 47 70 48 72 49 71 50 58 51 59 52 63 53 60 54
REMARK SMILES IDX 62 55 61 56 7 57 8 58 9 59 10 60 11 61 12 62 13 63 36 64
REMARK SMILES IDX 14 65 16 66 15 67 17 68 18 69 35 70 19 71 27 72 26 73 20 74
REMARK SMILES IDX 21 75 25 76 22 77 24 78 23 79 28 80 29 81 33 82 30 83 32 84
REMARK SMILES IDX 34 85 31 86
REMARK H PARENT 78 24 56 35
REMARK Flexibility Score: inf
ROOT
ATOM      1  O   UNL A   1      41.817  19.066  25.693  1.00  0.00    -0.374 OA
ENDROOT
BRANCH   1   2
ATOM      2  C   UNL A   1      40.625  19.816  25.903  1.00  0.00     0.202 C 
BRANCH   2   3
ATOM      3  C   UNL A   1      40.773  21.285  26.293  1.00  0.00     0.261 C 
BRANCH   3   4
ATOM      4  O   UNL A   1      39.502  21.809  26.722  1.00  0.00    -0.460 OA
BRANCH   4   5
ATOM      5  C   UNL A   1      38.945  22.978  26.332  1.00  0.00     0.338 C 
ATOM      6  O   UNL A   1      38.003  22.996  25.540  1.00  0.00    -0.246 OA
BRANCH   5   7
ATOM      7  C   UNL A   1      39.423  24.251  26.907  1.00  0.00     0.060 A 
ATOM      8  C   UNL A   1      39.273  24.538  28.259  1.00  0.00     0.016 A 
ATOM      9  C   UNL A   1      40.077  25.174  26.089  1.00  0.00     0.016 A 
ATOM     10  C   UNL A   1      39.583  25.766  28.777  1.00  0.00     0.010 A 
ATOM     11  C   UNL A   1      40.539  26.372  26.640  1.00  0.00     0.010 A 
ATOM     12  C   UNL A   1      40.279  26.663  27.987  1.00  0.00    -0.014 A 
BRANCH  12  13
ATOM     13  C   UNL A   1      40.701  27.903  28.642  1.00  0.00     0.031 A 
ATOM     14  C   UNL A   1      39.674  28.946  28.906  1.00  0.00     0.074 A 
ATOM     15  C   UNL A   1      41.964  27.988  29.100  1.00  0.00     0.049 A 
ATOM     16  N   UNL A   1      39.840  30.162  29.338  1.00  0.00    -0.248 NA
ATOM     17  C   UNL A   1      38.270  28.572  28.654  1.00  0.00     0.031 C 
ATOM     18  C   UNL A   1      42.973  26.918  29.021  1.00  0.00     0.029 A 
ATOM     19  N   UNL A   1      42.610  28.994  29.757  1.00  0.00    -0.354 N 
ATOM     20  C   UNL A   1      38.572  30.725  29.337  1.00  0.00     0.074 A 
ATOM     21  C   UNL A   1      37.643  29.713  28.896  1.00  0.00     0.031 C 
ATOM     22  C   UNL A   1      44.093  27.318  29.638  1.00  0.00     0.029 A 
ATOM     23  C   UNL A   1      43.925  28.705  30.033  1.00  0.00     0.049 A 
ATOM     24  H   UNL A   1      42.178  29.842  30.008  1.00  0.00     0.167 HD
ATOM     25  C   UNL A   1      38.248  31.999  29.648  1.00  0.00     0.031 A 
ATOM     26  C   UNL A   1      44.903  29.513  30.480  1.00  0.00     0.031 A 
ATOM     27  C   UNL A   1      39.225  32.958  30.082  1.00  0.00     0.049 A 
ATOM     28  C   UNL A   1      44.534  30.948  30.714  1.00  0.00     0.074 A 
ATOM     29  C   UNL A   1      39.056  34.295  30.382  1.00  0.00     0.029 A 
ATOM     30  N   UNL A   1      40.571  32.663  30.278  1.00  0.00    -0.354 N 
ATOM     31  N   UNL A   1      43.353  31.517  30.634  1.00  0.00    -0.248 NA
ATOM     32  C   UNL A   1      45.626  31.861  31.064  1.00  0.00     0.031 C 
ATOM     33  C   UNL A   1      40.313  34.821  30.701  1.00  0.00     0.029 A 
ATOM     34  C   UNL A   1      41.252  33.799  30.662  1.00  0.00     0.049 A 
ATOM     35  H   UNL A   1      40.976  31.773  30.159  1.00  0.00     0.167 HD
ATOM     36  C   UNL A   1      43.555  32.855  30.927  1.00  0.00     0.074 A 
ATOM     37  C   UNL A   1      44.970  33.003  31.217  1.00  0.00     0.031 C 
ATOM     38  C   UNL A   1      42.664  33.877  30.945  1.00  0.00     0.031 A 
BRANCH  25  39
ATOM     39  C   UNL A   1      36.831  32.423  29.406  1.00  0.00    -0.014 A 
ATOM     40  C   UNL A   1      36.391  32.887  28.157  1.00  0.00     0.009 A 
ATOM     41  C   UNL A   1      35.923  32.393  30.477  1.00  0.00     0.009 A 
ATOM     42  C   UNL A   1      35.080  33.344  27.997  1.00  0.00     0.001 A 
ATOM     43  C   UNL A   1      34.607  32.826  30.307  1.00  0.00     0.001 A 
ATOM     44  C   UNL A   1      34.189  33.311  29.070  1.00  0.00     0.000 A 
ENDBRANCH  25  39
BRANCH  26  45
ATOM     45  C   UNL A   1      46.302  29.023  30.596  1.00  0.00    -0.014 A 
ATOM     46  C   UNL A   1      46.738  28.341  31.741  1.00  0.00     0.009 A 
ATOM     47  C   UNL A   1      47.224  29.246  29.557  1.00  0.00     0.009 A 
ATOM     48  C   UNL A   1      48.068  27.923  31.854  1.00  0.00     0.001 A 
ATOM     49  C   UNL A   1      48.542  28.795  29.656  1.00  0.00     0.001 A 
ATOM     50  C   UNL A   1      48.967  28.145  30.811  1.00  0.00     0.000 A 
ENDBRANCH  26  45
BRANCH  38  51
ATOM     51  C   UNL A   1      43.203  35.222  31.322  1.00  0.00    -0.014 A 
ATOM     52  C   UNL A   1      43.214  35.647  32.658  1.00  0.00     0.009 A 
ATOM     53  C   UNL A   1      43.765  36.039  30.331  1.00  0.00     0.009 A 
ATOM     54  C   UNL A   1      43.765  36.882  32.992  1.00  0.00     0.001 A 
ATOM     55  C   UNL A   1      44.344  37.258  30.673  1.00  0.00     0.001 A 
ATOM     56  C   UNL A   1      44.338  37.682  32.002  1.00  0.00     0.000 A 
ENDBRANCH  38  51
ENDBRANCH  12  13
ENDBRANCH   5   7
ENDBRANCH   4   5
ENDBRANCH   3   4
ENDBRANCH   2   3
ENDBRANCH   1   2
BRANCH   1  57
ATOM     57  C   UNL A   1      43.030  19.682  26.135  1.00  0.00     0.202 C 
BRANCH  57  58
ATOM     58  C   UNL A   1      44.000  19.808  24.963  1.00  0.00     0.261 C 
BRANCH  58  59
ATOM     59  O   UNL A   1      44.129  21.199  24.605  1.00  0.00    -0.463 OA
BRANCH  59  60
ATOM     60  C   UNL A   1      45.307  21.787  24.964  1.00  0.00     0.310 C 
ATOM     61  O   UNL A   1      46.417  21.397  24.625  1.00  0.00    -0.252 OA
BRANCH  60  62
ATOM     62  C   UNL A   1      45.060  23.015  25.826  1.00  0.00     0.118 C 
ATOM     63  C   UNL A   1      44.991  22.610  27.304  1.00  0.00     0.019 C 
ATOM     64  C   UNL A   1      46.190  24.015  25.617  1.00  0.00     0.133 C 
ATOM     65  C   UNL A   1      44.931  23.835  28.212  1.00  0.00     0.022 C 
ATOM     66  N   UNL A   1      46.159  25.119  26.571  1.00  0.00    -0.356 N 
ATOM     67  C   UNL A   1      46.121  24.770  27.980  1.00  0.00     0.118 C 
BRANCH  66  68
ATOM     68  C   UNL A   1      46.543  26.356  26.104  1.00  0.00     0.133 A 
ATOM     69  C   UNL A   1      45.988  27.538  26.544  1.00  0.00     0.077 A 
ATOM     70  N   UNL A   1      47.480  26.366  25.149  1.00  0.00    -0.211 NA
ATOM     71  C   UNL A   1      46.428  28.712  25.955  1.00  0.00     0.095 A 
ATOM     72  C   UNL A   1      47.833  27.541  24.596  1.00  0.00     0.165 A 
ATOM     73  N   UNL A   1      47.358  28.732  24.976  1.00  0.00    -0.226 NA
BRANCH  71  74
ATOM     74  C   UNL A   1      45.854  30.009  26.341  1.00  0.00     0.089 A 
ATOM     75  C   UNL A   1      44.549  30.126  26.816  1.00  0.00     0.030 A 
ATOM     76  N   UNL A   1      46.654  31.091  26.151  1.00  0.00    -0.255 NA
ATOM     77  C   UNL A   1      44.051  31.394  27.118  1.00  0.00     0.004 A 
ATOM     78  C   UNL A   1      46.153  32.303  26.471  1.00  0.00     0.112 A 
ATOM     79  C   UNL A   1      44.869  32.505  26.947  1.00  0.00     0.020 A 
ENDBRANCH  71  74
BRANCH  72  80
ATOM     80  C   UNL A   1      48.678  27.453  23.407  1.00  0.00     0.055 A 
ATOM     81  C   UNL A   1      50.015  27.013  23.526  1.00  0.00     0.015 A 
ATOM     82  C   UNL A   1      48.227  27.804  22.133  1.00  0.00     0.134 A 
ATOM     83  C   UNL A   1      50.857  26.927  22.415  1.00  0.00     0.001 A 
ATOM     84  C   UNL A   1      49.066  27.727  21.018  1.00  0.00     0.040 A 
ATOM     85  F   UNL A   1      46.980  28.265  21.951  1.00  0.00    -0.206 F 
ATOM     86  C   UNL A   1      50.381  27.287  21.158  1.00  0.00     0.003 A 
ENDBRANCH  72  80
ENDBRANCH  66  68
ENDBRANCH  60  62
ENDBRANCH  59  60
ENDBRANCH  58  59
ENDBRANCH  57  58
ENDBRANCH   1  57
TORSDOF 17
ENDMDL
MODEL 3
REMARK VINA RESULT:     -11.2      5.504     10.759
REMARK SMILES O=C(OCCOCCOC(=O)[C@H]1CCCN(c2cc(-c3ccccn3)nc(-c3ccccc3F)n2)C1)c1ccc(-c2c3nc(c(-c4ccccc4)c4ccc([nH]4)c(-c4ccccc4)c4nc(c(-c5ccccc5)c5ccc2[nH]5)C=C4)C=C3)cc1
REMARK SMILES IDX 6 1 5 2 4 3 3 4 2 5 1 6 37 7 38 8 84 9 39 10 83 11 40 12
REMARK SMILES IDX 41 13 42 14 77 15 43 16 82 17 76 18 78 19 44 20 81 21 75 22
REMARK SMILES IDX 74 23 45 25 67 26 52 27 66 28 53 29 56 30 65 31 79 32 54 33
REMARK SMILES IDX 55 34 64 36 80 37 57 38 46 39 47 40 51 41 48 42 50 43 49 44
REMARK SMILES IDX 68 45 69 46 73 47 70 48 72 49 71 50 58 51 59 52 63 53 60 54
REMARK SMILES IDX 62 55 61 56 7 57 8 58 9 59 10 60 11 61 12 62 13 63 36 64
REMARK SMILES IDX 14 65 16 66 15 67 17 68 18 69 35 70 19 71 27 72 26 73 20 74
REMARK SMILES IDX 21 75 25 76 22 77 24 78 23 79 28 80 29 81 33 82 30 83 32 84
REMARK SMILES IDX 34 85 31 86
REMARK H PARENT 78 24 56 35
REMARK Flexibility Score: inf
ROOT
ATOM      1  O   UNL A   1      32.962  34.592  31.619  1.00  0.00    -0.374 OA
ENDROOT
BRANCH   1   2
ATOM      2  C   UNL A   1      33.582  34.637  32.900  1.00  0.00     0.202 C 
BRANCH   2   3
ATOM      3  C   UNL A   1      34.351  33.400  33.357  1.00  0.00     0.261 C 
BRANCH   3   4
ATOM      4  O   UNL A   1      35.403  33.101  32.420  1.00  0.00    -0.460 OA
BRANCH   4   5
ATOM      5  C   UNL A   1      36.609  33.709  32.347  1.00  0.00     0.338 C 
ATOM      6  O   UNL A   1      36.801  34.798  32.886  1.00  0.00    -0.246 OA
BRANCH   5   7
ATOM      7  C   UNL A   1      37.735  33.035  31.670  1.00  0.00     0.060 A 
ATOM      8  C   UNL A   1      38.470  32.040  32.302  1.00  0.00     0.016 A 
ATOM      9  C   UNL A   1      38.047  33.373  30.352  1.00  0.00     0.016 A 
ATOM     10  C   UNL A   1      39.600  31.508  31.741  1.00  0.00     0.010 A 
ATOM     11  C   UNL A   1      39.105  32.725  29.710  1.00  0.00     0.010 A 
ATOM     12  C   UNL A   1      39.883  31.797  30.418  1.00  0.00    -0.014 A 
BRANCH  12  13
ATOM     13  C   UNL A   1      41.026  31.090  29.837  1.00  0.00     0.031 A 
ATOM     14  C   UNL A   1      42.352  31.764  29.846  1.00  0.00     0.074 A 
ATOM     15  C   UNL A   1      40.858  29.811  29.448  1.00  0.00     0.049 A 
ATOM     16  N   UNL A   1      43.458  31.395  29.268  1.00  0.00    -0.248 NA
ATOM     17  C   UNL A   1      42.450  33.021  30.610  1.00  0.00     0.031 C 
ATOM     18  C   UNL A   1      39.612  29.038  29.578  1.00  0.00     0.029 A 
ATOM     19  N   UNL A   1      41.737  28.920  28.905  1.00  0.00    -0.354 N 
ATOM     20  C   UNL A   1      44.364  32.411  29.533  1.00  0.00     0.074 A 
ATOM     21  C   UNL A   1      43.694  33.394  30.350  1.00  0.00     0.031 C 
ATOM     22  C   UNL A   1      39.823  27.783  29.158  1.00  0.00     0.029 A 
ATOM     23  C   UNL A   1      41.167  27.704  28.613  1.00  0.00     0.049 A 
ATOM     24  H   UNL A   1      42.684  29.128  28.738  1.00  0.00     0.167 HD
ATOM     25  C   UNL A   1      45.634  32.505  29.084  1.00  0.00     0.031 A 
ATOM     26  C   UNL A   1      41.662  26.675  27.905  1.00  0.00     0.031 A 
ATOM     27  C   UNL A   1      46.242  31.487  28.274  1.00  0.00     0.049 A 
ATOM     28  C   UNL A   1      43.036  26.855  27.330  1.00  0.00     0.074 A 
ATOM     29  C   UNL A   1      47.498  31.466  27.702  1.00  0.00     0.029 A 
ATOM     30  N   UNL A   1      45.614  30.296  27.922  1.00  0.00    -0.354 N 
ATOM     31  N   UNL A   1      43.875  27.851  27.501  1.00  0.00    -0.248 NA
ATOM     32  C   UNL A   1      43.523  25.796  26.441  1.00  0.00     0.031 C 
ATOM     33  C   UNL A   1      47.607  30.288  26.956  1.00  0.00     0.029 A 
ATOM     34  C   UNL A   1      46.444  29.547  27.114  1.00  0.00     0.049 A 
ATOM     35  H   UNL A   1      44.711  30.028  28.208  1.00  0.00     0.167 HD
ATOM     36  C   UNL A   1      44.992  27.541  26.744  1.00  0.00     0.074 A 
ATOM     37  C   UNL A   1      44.733  26.246  26.140  1.00  0.00     0.031 C 
ATOM     38  C   UNL A   1      46.127  28.257  26.550  1.00  0.00     0.031 A 
BRANCH  25  39
ATOM     39  C   UNL A   1      46.365  33.784  29.361  1.00  0.00    -0.014 A 
ATOM     40  C   UNL A   1      47.149  33.966  30.511  1.00  0.00     0.009 A 
ATOM     41  C   UNL A   1      46.227  34.852  28.459  1.00  0.00     0.009 A 
ATOM     42  C   UNL A   1      47.749  35.202  30.767  1.00  0.00     0.001 A 
ATOM     43  C   UNL A   1      46.849  36.076  28.704  1.00  0.00     0.001 A 
ATOM     44  C   UNL A   1      47.601  36.254  29.863  1.00  0.00     0.000 A 
ENDBRANCH  25  39
BRANCH  26  45
ATOM     45  C   UNL A   1      40.823  25.486  27.601  1.00  0.00    -0.014 A 
ATOM     46  C   UNL A   1      41.075  24.247  28.207  1.00  0.00     0.009 A 
ATOM     47  C   UNL A   1      39.760  25.579  26.684  1.00  0.00     0.009 A 
ATOM     48  C   UNL A   1      40.304  23.127  27.880  1.00  0.00     0.001 A 
ATOM     49  C   UNL A   1      38.967  24.469  26.386  1.00  0.00     0.001 A 
ATOM     50  C   UNL A   1      39.249  23.239  26.974  1.00  0.00     0.000 A 
ENDBRANCH  26  45
BRANCH  38  51
ATOM     51  C   UNL A   1      47.168  27.629  25.677  1.00  0.00    -0.014 A 
ATOM     52  C   UNL A   1      47.211  27.892  24.300  1.00  0.00     0.009 A 
ATOM     53  C   UNL A   1      48.155  26.820  26.258  1.00  0.00     0.009 A 
ATOM     54  C   UNL A   1      48.219  27.336  23.516  1.00  0.00     0.001 A 
ATOM     55  C   UNL A   1      49.179  26.292  25.476  1.00  0.00     0.001 A 
ATOM     56  C   UNL A   1      49.207  26.545  24.105  1.00  0.00     0.000 A 
ENDBRANCH  38  51
ENDBRANCH  12  13
ENDBRANCH   5   7
ENDBRANCH   4   5
ENDBRANCH   3   4
ENDBRANCH   2   3
ENDBRANCH   1   2
BRANCH   1  57
ATOM     57  C   UNL A   1      33.245  35.690  30.747  1.00  0.00     0.202 C 
BRANCH  57  58
ATOM     58  C   UNL A   1      34.061  35.201  29.553  1.00  0.00     0.261 C 
BRANCH  58  59
ATOM     59  O   UNL A   1      33.884  33.778  29.411  1.00  0.00    -0.463 OA
BRANCH  59  60
ATOM     60  C   UNL A   1      33.299  33.375  28.246  1.00  0.00     0.310 C 
ATOM     61  O   UNL A   1      32.284  33.864  27.767  1.00  0.00    -0.252 OA
BRANCH  60  62
ATOM     62  C   UNL A   1      34.091  32.249  27.601  1.00  0.00     0.118 C 
ATOM     63  C   UNL A   1      35.266  31.855  28.504  1.00  0.00     0.019 C 
ATOM     64  C   UNL A   1      33.179  31.048  27.386  1.00  0.00     0.133 C 
ATOM     65  C   UNL A   1      35.972  30.606  27.981  1.00  0.00     0.022 C 
ATOM     66  N   UNL A   1      33.904  29.846  26.986  1.00  0.00    -0.356 N 
ATOM     67  C   UNL A   1      35.005  29.429  27.835  1.00  0.00     0.118 C 
BRANCH  66  68
ATOM     68  C   UNL A   1      33.276  29.010  26.089  1.00  0.00     0.133 A 
ATOM     69  C   UNL A   1      33.788  27.791  25.704  1.00  0.00     0.077 A 
ATOM     70  N   UNL A   1      32.130  29.458  25.562  1.00  0.00    -0.211 NA
ATOM     71  C   UNL A   1      33.081  27.070  24.753  1.00  0.00     0.095 A 
ATOM     72  C   UNL A   1      31.518  28.721  24.618  1.00  0.00     0.165 A 
ATOM     73  N   UNL A   1      31.936  27.521  24.199  1.00  0.00    -0.226 NA
BRANCH  71  74
ATOM     74  C   UNL A   1      33.585  25.781  24.260  1.00  0.00     0.089 A 
ATOM     75  C   UNL A   1      34.562  25.059  24.944  1.00  0.00     0.030 A 
ATOM     76  N   UNL A   1      33.082  25.365  23.068  1.00  0.00    -0.255 NA
ATOM     77  C   UNL A   1      35.030  23.866  24.394  1.00  0.00     0.004 A 
ATOM     78  C   UNL A   1      33.538  24.196  22.571  1.00  0.00     0.112 A 
ATOM     79  C   UNL A   1      34.507  23.422  23.186  1.00  0.00     0.020 A 
ENDBRANCH  71  74
BRANCH  72  80
ATOM     80  C   UNL A   1      30.411  29.375  23.922  1.00  0.00     0.055 A 
ATOM     81  C   UNL A   1      30.031  30.687  24.283  1.00  0.00     0.015 A 
ATOM     82  C   UNL A   1      29.685  28.751  22.905  1.00  0.00     0.134 A 
ATOM     83  C   UNL A   1      28.972  31.341  23.648  1.00  0.00     0.001 A 
ATOM     84  C   UNL A   1      28.621  29.397  22.271  1.00  0.00     0.040 A 
ATOM     85  F   UNL A   1      29.968  27.493  22.535  1.00  0.00    -0.206 F 
ATOM     86  C   UNL A   1      28.264  30.692  22.641  1.00  0.00     0.003 A 
ENDBRANCH  72  80
ENDBRANCH  66  68
ENDBRANCH  60  62
ENDBRANCH  59  60
ENDBRANCH  58  59
ENDBRANCH  57  58
ENDBRANCH   1  57
TORSDOF 17
ENDMDL
