MODEL 1
REMARK VINA RESULT:     -10.2      0.000      0.000
REMARK SMILES O=C(CCn1cc(/C=C\C(=O)c2ccc(F)cc2)c(-c2cccc(Cl)c2)n1)OCCOCCOC(=O)c1ccc(-c2c3nc(c(-c4ccccc4)c4ccc([nH]4)c(-c4ccccc4)c4nc(c(-c5ccccc5)c5ccc2[nH]5)C=C4)C=C3)cc1
REMARK SMILES IDX 29 1 28 2 2 3 1 4 3 5 4 6 5 7 6 8 27 9 7 10 19 11 8 12 9 13
REMARK SMILES IDX 10 14 11 15 12 16 13 17 18 18 14 19 17 20 15 21 16 22 20 23
REMARK SMILES IDX 21 24 26 25 22 26 24 27 23 28 25 29 30 30 31 31 32 32 33 33
REMARK SMILES IDX 34 34 35 35 36 36 37 37 38 38 84 39 39 40 83 41 40 42 41 43
REMARK SMILES IDX 42 44 77 45 43 46 82 47 76 48 78 49 44 50 81 51 75 52 74 53
REMARK SMILES IDX 45 55 67 56 52 57 66 58 53 59 56 60 65 61 79 62 54 63 55 64
REMARK SMILES IDX 64 66 80 67 57 68 46 69 47 70 51 71 48 72 50 73 49 74 68 75
REMARK SMILES IDX 69 76 73 77 70 78 72 79 71 80 58 81 59 82 63 83 60 84 62 85
REMARK SMILES IDX 61 86
REMARK H PARENT 78 54 56 65
REMARK Flexibility Score: inf
ROOT
ATOM      1  C   UNL A   1      40.555  25.762  26.834  1.00  0.00     0.261 C 
ENDROOT
BRANCH   1   2
ATOM      2  O   UNL A   1      39.408  24.970  26.565  1.00  0.00    -0.463 OA
BRANCH   2   3
ATOM      3  C   UNL A   1      39.383  23.650  26.853  1.00  0.00     0.307 C 
ATOM      4  O   UNL A   1      40.170  23.200  27.683  1.00  0.00    -0.252 OA
BRANCH   3   5
ATOM      5  C   UNL A   1      38.506  22.720  26.054  1.00  0.00     0.146 C 
BRANCH   5   6
ATOM      6  C   UNL A   1      37.385  23.377  25.266  1.00  0.00     0.156 C 
BRANCH   6   7
ATOM      7  N   UNL A   1      36.062  22.835  25.530  1.00  0.00    -0.271 N 
ATOM      8  C   UNL A   1      35.235  23.128  26.577  1.00  0.00     0.117 A 
ATOM      9  N   UNL A   1      35.487  22.048  24.609  1.00  0.00    -0.172 NA
ATOM     10  C   UNL A   1      34.020  22.527  26.297  1.00  0.00     0.021 A 
ATOM     11  C   UNL A   1      34.233  21.850  25.044  1.00  0.00     0.100 A 
BRANCH  10  12
ATOM     12  C   UNL A   1      32.853  22.660  27.125  1.00  0.00     0.016 C 
ATOM     13  C   UNL A   1      31.770  23.468  27.069  1.00  0.00     0.053 C 
BRANCH  13  14
ATOM     14  C   UNL A   1      31.268  24.587  26.163  1.00  0.00     0.185 C 
ATOM     15  O   UNL A   1      30.185  25.107  26.406  1.00  0.00    -0.289 OA
BRANCH  14  16
ATOM     16  C   UNL A   1      32.114  24.993  24.932  1.00  0.00     0.022 A 
ATOM     17  C   UNL A   1      33.156  26.311  25.634  1.00  0.00     0.015 A 
ATOM     18  C   UNL A   1      31.985  24.915  22.911  1.00  0.00     0.015 A 
ATOM     19  C   UNL A   1      33.889  27.487  24.523  1.00  0.00     0.040 A 
ATOM     20  C   UNL A   1      32.775  26.186  21.931  1.00  0.00     0.040 A 
ATOM     21  C   UNL A   1      33.664  27.420  22.766  1.00  0.00     0.123 A 
ATOM     22  F   UNL A   1      34.211  28.398  22.026  1.00  0.00    -0.207 F 
ENDBRANCH  14  16
ENDBRANCH  13  14
ENDBRANCH  10  12
BRANCH  11  23
ATOM     23  C   UNL A   1      33.139  21.040  24.276  1.00  0.00     0.004 A 
ATOM     24  C   UNL A   1      32.175  21.256  22.506  1.00  0.00     0.010 A 
ATOM     25  C   UNL A   1      33.483  19.320  24.795  1.00  0.00     0.031 A 
ATOM     26  C   UNL A   1      31.829  19.807  21.510  1.00  0.00     0.002 A 
ATOM     27  C   UNL A   1      33.079  18.004  23.693  1.00  0.00     0.041 A 
ATOM     28  C   UNL A   1      32.308  18.249  22.124  1.00  0.00     0.020 A 
ATOM     29  Cl  UNL A   1      33.401  16.385  24.188  1.00  0.00    -0.084 Cl
ENDBRANCH  11  23
ENDBRANCH   6   7
ENDBRANCH   5   6
ENDBRANCH   3   5
ENDBRANCH   2   3
ENDBRANCH   1   2
BRANCH   1  30
ATOM     30  C   UNL A   1      41.640  25.779  25.768  1.00  0.00     0.202 C 
BRANCH  30  31
ATOM     31  O   UNL A   1      42.633  24.775  25.659  1.00  0.00    -0.374 OA
BRANCH  31  32
ATOM     32  C   UNL A   1      43.503  24.527  26.753  1.00  0.00     0.202 C 
BRANCH  32  33
ATOM     33  C   UNL A   1      44.462  25.647  27.128  1.00  0.00     0.261 C 
BRANCH  33  34
ATOM     34  O   UNL A   1      44.622  25.725  28.533  1.00  0.00    -0.460 OA
BRANCH  34  35
ATOM     35  C   UNL A   1      44.675  26.985  29.038  1.00  0.00     0.338 C 
ATOM     36  O   UNL A   1      45.344  27.922  28.646  1.00  0.00    -0.246 OA
BRANCH  35  37
ATOM     37  C   UNL A   1      43.709  27.043  30.173  1.00  0.00     0.060 A 
ATOM     38  C   UNL A   1      42.404  26.803  29.793  1.00  0.00     0.016 A 
ATOM     39  C   UNL A   1      43.998  27.944  31.198  1.00  0.00     0.016 A 
ATOM     40  C   UNL A   1      41.604  27.914  29.800  1.00  0.00     0.010 A 
ATOM     41  C   UNL A   1      43.137  28.989  31.327  1.00  0.00     0.010 A 
ATOM     42  C   UNL A   1      42.097  29.074  30.407  1.00  0.00    -0.014 A 
BRANCH  42  43
ATOM     43  C   UNL A   1      41.353  30.313  30.353  1.00  0.00     0.031 A 
ATOM     44  C   UNL A   1      42.290  31.326  29.808  1.00  0.00     0.074 A 
ATOM     45  C   UNL A   1      40.041  30.446  30.674  1.00  0.00     0.049 A 
ATOM     46  N   UNL A   1      43.077  32.056  30.532  1.00  0.00    -0.248 NA
ATOM     47  C   UNL A   1      42.734  31.214  28.398  1.00  0.00     0.031 C 
ATOM     48  C   UNL A   1      39.035  29.456  31.093  1.00  0.00     0.029 A 
ATOM     49  N   UNL A   1      39.292  31.589  30.643  1.00  0.00    -0.354 N 
ATOM     50  C   UNL A   1      43.865  32.733  29.614  1.00  0.00     0.074 A 
ATOM     51  C   UNL A   1      43.867  31.922  28.433  1.00  0.00     0.031 C 
ATOM     52  C   UNL A   1      37.786  29.993  31.007  1.00  0.00     0.029 A 
ATOM     53  C   UNL A   1      37.899  31.399  30.674  1.00  0.00     0.049 A 
ATOM     54  H   UNL A   1      39.700  32.484  30.600  1.00  0.00     0.167 HD
ATOM     55  C   UNL A   1      43.997  34.084  29.725  1.00  0.00     0.031 A 
ATOM     56  C   UNL A   1      36.963  32.364  30.414  1.00  0.00     0.031 A 
ATOM     57  C   UNL A   1      43.607  34.510  31.051  1.00  0.00     0.049 A 
ATOM     58  C   UNL A   1      37.650  33.673  30.606  1.00  0.00     0.074 A 
ATOM     59  C   UNL A   1      44.046  34.242  32.331  1.00  0.00     0.029 A 
ATOM     60  N   UNL A   1      42.307  34.943  31.161  1.00  0.00    -0.354 N 
ATOM     61  N   UNL A   1      38.074  34.062  31.777  1.00  0.00    -0.248 NA
ATOM     62  C   UNL A   1      38.381  34.194  29.457  1.00  0.00     0.031 C 
ATOM     63  C   UNL A   1      42.857  34.120  33.110  1.00  0.00     0.029 A 
ATOM     64  C   UNL A   1      41.761  34.458  32.316  1.00  0.00     0.049 A 
ATOM     65  H   UNL A   1      41.842  35.515  30.510  1.00  0.00     0.167 HD
ATOM     66  C   UNL A   1      39.382  34.463  31.551  1.00  0.00     0.074 A 
ATOM     67  C   UNL A   1      39.510  34.537  30.088  1.00  0.00     0.031 C 
ATOM     68  C   UNL A   1      40.334  34.350  32.526  1.00  0.00     0.031 A 
BRANCH  55  69
ATOM     69  C   UNL A   1      43.866  35.013  28.533  1.00  0.00    -0.014 A 
ATOM     70  C   UNL A   1      44.867  35.984  28.363  1.00  0.00     0.009 A 
ATOM     71  C   UNL A   1      42.692  35.187  27.772  1.00  0.00     0.009 A 
ATOM     72  C   UNL A   1      44.658  37.116  27.567  1.00  0.00     0.001 A 
ATOM     73  C   UNL A   1      42.490  36.301  26.953  1.00  0.00     0.001 A 
ATOM     74  C   UNL A   1      43.464  37.281  26.876  1.00  0.00     0.000 A 
ENDBRANCH  55  69
BRANCH  56  75
ATOM     75  C   UNL A   1      35.702  32.272  29.619  1.00  0.00    -0.014 A 
ATOM     76  C   UNL A   1      34.796  33.350  29.501  1.00  0.00     0.009 A 
ATOM     77  C   UNL A   1      35.543  31.212  28.709  1.00  0.00     0.009 A 
ATOM     78  C   UNL A   1      33.798  33.366  28.504  1.00  0.00     0.001 A 
ATOM     79  C   UNL A   1      34.558  31.233  27.710  1.00  0.00     0.001 A 
ATOM     80  C   UNL A   1      33.691  32.314  27.600  1.00  0.00     0.000 A 
ENDBRANCH  56  75
BRANCH  68  81
ATOM     81  C   UNL A   1      39.896  33.971  33.921  1.00  0.00    -0.014 A 
ATOM     82  C   UNL A   1      39.833  32.655  34.420  1.00  0.00     0.009 A 
ATOM     83  C   UNL A   1      39.702  35.029  34.816  1.00  0.00     0.009 A 
ATOM     84  C   UNL A   1      39.548  32.421  35.774  1.00  0.00     0.001 A 
ATOM     85  C   UNL A   1      39.441  34.798  36.165  1.00  0.00     0.001 A 
ATOM     86  C   UNL A   1      39.353  33.493  36.644  1.00  0.00     0.000 A 
ENDBRANCH  68  81
ENDBRANCH  42  43
ENDBRANCH  35  37
ENDBRANCH  34  35
ENDBRANCH  33  34
ENDBRANCH  32  33
ENDBRANCH  31  32
ENDBRANCH  30  31
ENDBRANCH   1  30
TORSDOF 20
ENDMDL
MODEL 2
REMARK VINA RESULT:     -10.0      3.993      8.451
REMARK SMILES O=C(CCn1cc(/C=C\C(=O)c2ccc(F)cc2)c(-c2cccc(Cl)c2)n1)OCCOCCOC(=O)c1ccc(-c2c3nc(c(-c4ccccc4)c4ccc([nH]4)c(-c4ccccc4)c4nc(c(-c5ccccc5)c5ccc2[nH]5)C=C4)C=C3)cc1
REMARK SMILES IDX 29 1 28 2 2 3 1 4 3 5 4 6 5 7 6 8 27 9 7 10 19 11 8 12 9 13
REMARK SMILES IDX 10 14 11 15 12 16 13 17 18 18 14 19 17 20 15 21 16 22 20 23
REMARK SMILES IDX 21 24 26 25 22 26 24 27 23 28 25 29 30 30 31 31 32 32 33 33
REMARK SMILES IDX 34 34 35 35 36 36 37 37 38 38 84 39 39 40 83 41 40 42 41 43
REMARK SMILES IDX 42 44 77 45 43 46 82 47 76 48 78 49 44 50 81 51 75 52 74 53
REMARK SMILES IDX 45 55 67 56 52 57 66 58 53 59 56 60 65 61 79 62 54 63 55 64
REMARK SMILES IDX 64 66 80 67 57 68 46 69 47 70 51 71 48 72 50 73 49 74 68 75
REMARK SMILES IDX 69 76 73 77 70 78 72 79 71 80 58 81 59 82 63 83 60 84 62 85
REMARK SMILES IDX 61 86
REMARK H PARENT 78 54 56 65
REMARK Flexibility Score: inf
ROOT
ATOM      1  C   UNL A   1      36.829  33.510  28.530  1.00  0.00     0.261 C 
ENDROOT
BRANCH   1   2
ATOM      2  O   UNL A   1      36.428  32.150  28.464  1.00  0.00    -0.463 OA
BRANCH   2   3
ATOM      3  C   UNL A   1      35.169  31.806  28.115  1.00  0.00     0.307 C 
ATOM      4  O   UNL A   1      34.276  32.650  28.171  1.00  0.00    -0.252 OA
BRANCH   3   5
ATOM      5  C   UNL A   1      34.838  30.368  27.806  1.00  0.00     0.146 C 
BRANCH   5   6
ATOM      6  C   UNL A   1      33.458  30.114  27.222  1.00  0.00     0.156 C 
BRANCH   6   7
ATOM      7  N   UNL A   1      33.189  28.724  26.891  1.00  0.00    -0.271 N 
ATOM      8  C   UNL A   1      32.060  28.005  27.167  1.00  0.00     0.117 A 
ATOM      9  N   UNL A   1      34.060  28.060  26.118  1.00  0.00    -0.172 NA
ATOM     10  C   UNL A   1      32.184  26.806  26.489  1.00  0.00     0.021 A 
ATOM     11  C   UNL A   1      33.470  26.886  25.846  1.00  0.00     0.100 A 
BRANCH  10  12
ATOM     12  C   UNL A   1      31.164  25.793  26.463  1.00  0.00     0.016 C 
ATOM     13  C   UNL A   1      30.306  25.374  25.506  1.00  0.00     0.053 C 
BRANCH  13  14
ATOM     14  C   UNL A   1      29.993  25.741  24.060  1.00  0.00     0.185 C 
ATOM     15  O   UNL A   1      29.927  24.849  23.221  1.00  0.00    -0.289 OA
BRANCH  14  16
ATOM     16  C   UNL A   1      29.825  27.233  23.684  1.00  0.00     0.022 A 
ATOM     17  C   UNL A   1      28.014  27.415  23.748  1.00  0.00     0.015 A 
ATOM     18  C   UNL A   1      30.848  28.671  22.688  1.00  0.00     0.015 A 
ATOM     19  C   UNL A   1      27.271  28.758  22.855  1.00  0.00     0.040 A 
ATOM     20  C   UNL A   1      29.948  29.955  21.828  1.00  0.00     0.040 A 
ATOM     21  C   UNL A   1      28.215  29.935  21.924  1.00  0.00     0.123 A 
ATOM     22  F   UNL A   1      27.545  30.873  21.235  1.00  0.00    -0.207 F 
ENDBRANCH  14  16
ENDBRANCH  13  14
ENDBRANCH  10  12
BRANCH  11  23
ATOM     23  C   UNL A   1      34.070  25.778  24.920  1.00  0.00     0.004 A 
ATOM     24  C   UNL A   1      34.527  23.817  25.145  1.00  0.00     0.010 A 
ATOM     25  C   UNL A   1      33.469  26.276  23.266  1.00  0.00     0.031 A 
ATOM     26  C   UNL A   1      34.212  22.680  23.796  1.00  0.00     0.002 A 
ATOM     27  C   UNL A   1      33.212  25.029  22.046  1.00  0.00     0.041 A 
ATOM     28  C   UNL A   1      33.552  23.318  22.315  1.00  0.00     0.020 A 
ATOM     29  Cl  UNL A   1      32.648  25.503  20.488  1.00  0.00    -0.084 Cl
ENDBRANCH  11  23
ENDBRANCH   6   7
ENDBRANCH   5   6
ENDBRANCH   3   5
ENDBRANCH   2   3
ENDBRANCH   1   2
BRANCH   1  30
ATOM     30  C   UNL A   1      36.783  34.172  29.899  1.00  0.00     0.202 C 
BRANCH  30  31
ATOM     31  O   UNL A   1      35.618  34.207  30.703  1.00  0.00    -0.374 OA
BRANCH  31  32
ATOM     32  C   UNL A   1      35.592  33.499  31.933  1.00  0.00     0.202 C 
BRANCH  32  33
ATOM     33  C   UNL A   1      35.387  31.994  31.848  1.00  0.00     0.261 C 
BRANCH  33  34
ATOM     34  O   UNL A   1      36.316  31.312  32.672  1.00  0.00    -0.460 OA
BRANCH  34  35
ATOM     35  C   UNL A   1      37.332  30.700  32.010  1.00  0.00     0.338 C 
ATOM     36  O   UNL A   1      37.671  30.851  30.851  1.00  0.00    -0.246 OA
BRANCH  35  37
ATOM     37  C   UNL A   1      38.017  29.806  32.990  1.00  0.00     0.060 A 
ATOM     38  C   UNL A   1      39.139  30.375  33.556  1.00  0.00     0.016 A 
ATOM     39  C   UNL A   1      37.964  28.436  32.732  1.00  0.00     0.016 A 
ATOM     40  C   UNL A   1      40.321  29.846  33.111  1.00  0.00     0.010 A 
ATOM     41  C   UNL A   1      39.151  27.847  32.426  1.00  0.00     0.010 A 
ATOM     42  C   UNL A   1      40.271  28.667  32.357  1.00  0.00    -0.014 A 
BRANCH  42  43
ATOM     43  C   UNL A   1      41.469  28.117  31.762  1.00  0.00     0.031 A 
ATOM     44  C   UNL A   1      42.497  28.131  32.832  1.00  0.00     0.074 A 
ATOM     45  C   UNL A   1      41.555  27.631  30.499  1.00  0.00     0.049 A 
ATOM     46  N   UNL A   1      43.299  29.122  33.060  1.00  0.00    -0.248 NA
ATOM     47  C   UNL A   1      42.337  27.231  34.000  1.00  0.00     0.031 C 
ATOM     48  C   UNL A   1      40.540  27.473  29.443  1.00  0.00     0.029 A 
ATOM     49  N   UNL A   1      42.658  27.103  29.887  1.00  0.00    -0.354 N 
ATOM     50  C   UNL A   1      43.967  28.768  34.223  1.00  0.00     0.074 A 
ATOM     51  C   UNL A   1      43.099  27.853  34.903  1.00  0.00     0.031 C 
ATOM     52  C   UNL A   1      41.012  26.658  28.459  1.00  0.00     0.029 A 
ATOM     53  C   UNL A   1      42.404  26.354  28.724  1.00  0.00     0.049 A 
ATOM     54  H   UNL A   1      43.569  27.238  30.237  1.00  0.00     0.167 HD
ATOM     55  C   UNL A   1      45.326  28.841  34.253  1.00  0.00     0.031 A 
ATOM     56  C   UNL A   1      43.309  25.545  28.091  1.00  0.00     0.031 A 
ATOM     57  C   UNL A   1      45.798  29.682  33.175  1.00  0.00     0.049 A 
ATOM     58  C   UNL A   1      44.656  26.002  28.533  1.00  0.00     0.074 A 
ATOM     59  C   UNL A   1      45.615  31.000  32.813  1.00  0.00     0.029 A 
ATOM     60  N   UNL A   1      46.173  29.008  32.037  1.00  0.00    -0.354 N 
ATOM     61  N   UNL A   1      45.123  27.178  28.213  1.00  0.00    -0.248 NA
ATOM     62  C   UNL A   1      45.154  25.436  29.781  1.00  0.00     0.031 C 
ATOM     63  C   UNL A   1      45.476  30.976  31.393  1.00  0.00     0.029 A 
ATOM     64  C   UNL A   1      45.720  29.680  30.937  1.00  0.00     0.049 A 
ATOM     65  H   UNL A   1      46.690  28.170  32.018  1.00  0.00     0.167 HD
ATOM     66  C   UNL A   1      45.575  27.706  29.414  1.00  0.00     0.074 A 
ATOM     67  C   UNL A   1      45.582  26.571  30.348  1.00  0.00     0.031 C 
ATOM     68  C   UNL A   1      45.556  29.053  29.645  1.00  0.00     0.031 A 
BRANCH  55  69
ATOM     69  C   UNL A   1      46.188  27.725  34.811  1.00  0.00    -0.014 A 
ATOM     70  C   UNL A   1      46.191  26.506  34.113  1.00  0.00     0.009 A 
ATOM     71  C   UNL A   1      46.732  27.701  36.112  1.00  0.00     0.009 A 
ATOM     72  C   UNL A   1      46.610  25.318  34.721  1.00  0.00     0.001 A 
ATOM     73  C   UNL A   1      47.179  26.522  36.714  1.00  0.00     0.001 A 
ATOM     74  C   UNL A   1      47.088  25.324  36.026  1.00  0.00     0.000 A 
ENDBRANCH  55  69
BRANCH  56  75
ATOM     75  C   UNL A   1      43.117  24.184  27.505  1.00  0.00    -0.014 A 
ATOM     76  C   UNL A   1      42.676  23.081  28.270  1.00  0.00     0.009 A 
ATOM     77  C   UNL A   1      43.069  24.043  26.107  1.00  0.00     0.009 A 
ATOM     78  C   UNL A   1      42.191  21.907  27.656  1.00  0.00     0.001 A 
ATOM     79  C   UNL A   1      42.577  22.880  25.496  1.00  0.00     0.001 A 
ATOM     80  C   UNL A   1      42.128  21.815  26.269  1.00  0.00     0.000 A 
ENDBRANCH  56  75
BRANCH  68  81
ATOM     81  C   UNL A   1      45.225  29.977  28.497  1.00  0.00    -0.014 A 
ATOM     82  C   UNL A   1      43.935  30.445  28.179  1.00  0.00     0.009 A 
ATOM     83  C   UNL A   1      46.317  30.526  27.813  1.00  0.00     0.009 A 
ATOM     84  C   UNL A   1      43.756  31.412  27.179  1.00  0.00     0.001 A 
ATOM     85  C   UNL A   1      46.141  31.502  26.834  1.00  0.00     0.001 A 
ATOM     86  C   UNL A   1      44.860  31.939  26.508  1.00  0.00     0.000 A 
ENDBRANCH  68  81
ENDBRANCH  42  43
ENDBRANCH  35  37
ENDBRANCH  34  35
ENDBRANCH  33  34
ENDBRANCH  32  33
ENDBRANCH  31  32
ENDBRANCH  30  31
ENDBRANCH   1  30
TORSDOF 20
ENDMDL
MODEL 3
REMARK VINA RESULT:     -10.0      4.292      7.724
REMARK SMILES O=C(CCn1cc(/C=C\C(=O)c2ccc(F)cc2)c(-c2cccc(Cl)c2)n1)OCCOCCOC(=O)c1ccc(-c2c3nc(c(-c4ccccc4)c4ccc([nH]4)c(-c4ccccc4)c4nc(c(-c5ccccc5)c5ccc2[nH]5)C=C4)C=C3)cc1
REMARK SMILES IDX 29 1 28 2 2 3 1 4 3 5 4 6 5 7 6 8 27 9 7 10 19 11 8 12 9 13
REMARK SMILES IDX 10 14 11 15 12 16 13 17 18 18 14 19 17 20 15 21 16 22 20 23
REMARK SMILES IDX 21 24 26 25 22 26 24 27 23 28 25 29 30 30 31 31 32 32 33 33
REMARK SMILES IDX 34 34 35 35 36 36 37 37 38 38 84 39 39 40 83 41 40 42 41 43
REMARK SMILES IDX 42 44 77 45 43 46 82 47 76 48 78 49 44 50 81 51 75 52 74 53
REMARK SMILES IDX 45 55 67 56 52 57 66 58 53 59 56 60 65 61 79 62 54 63 55 64
REMARK SMILES IDX 64 66 80 67 57 68 46 69 47 70 51 71 48 72 50 73 49 74 68 75
REMARK SMILES IDX 69 76 73 77 70 78 72 79 71 80 58 81 59 82 63 83 60 84 62 85
REMARK SMILES IDX 61 86
REMARK H PARENT 78 54 56 65
REMARK Flexibility Score: inf
ROOT
ATOM      1  C   UNL A   1      36.864  33.428  29.076  1.00  0.00     0.261 C 
ENDROOT
BRANCH   1   2
ATOM      2  O   UNL A   1      36.510  32.107  28.698  1.00  0.00    -0.463 OA
BRANCH   2   3
ATOM      3  C   UNL A   1      35.289  31.825  28.193  1.00  0.00     0.307 C 
ATOM      4  O   UNL A   1      34.396  32.665  28.273  1.00  0.00    -0.252 OA
BRANCH   3   5
ATOM      5  C   UNL A   1      34.988  30.440  27.676  1.00  0.00     0.146 C 
BRANCH   5   6
ATOM      6  C   UNL A   1      33.555  30.194  27.233  1.00  0.00     0.156 C 
BRANCH   6   7
ATOM      7  N   UNL A   1      33.247  28.806  26.930  1.00  0.00    -0.271 N 
ATOM      8  C   UNL A   1      32.095  28.127  27.212  1.00  0.00     0.117 A 
ATOM      9  N   UNL A   1      34.104  28.100  26.178  1.00  0.00    -0.172 NA
ATOM     10  C   UNL A   1      32.188  26.910  26.560  1.00  0.00     0.021 A 
ATOM     11  C   UNL A   1      33.481  26.938  25.926  1.00  0.00     0.100 A 
BRANCH  10  12
ATOM     12  C   UNL A   1      31.140  25.927  26.547  1.00  0.00     0.016 C 
ATOM     13  C   UNL A   1      30.290  25.499  25.586  1.00  0.00     0.053 C 
BRANCH  13  14
ATOM     14  C   UNL A   1      30.019  25.823  24.121  1.00  0.00     0.185 C 
ATOM     15  O   UNL A   1      29.982  24.907  23.307  1.00  0.00    -0.289 OA
BRANCH  14  16
ATOM     16  C   UNL A   1      29.856  27.303  23.697  1.00  0.00     0.022 A 
ATOM     17  C   UNL A   1      28.046  27.498  23.773  1.00  0.00     0.015 A 
ATOM     18  C   UNL A   1      30.878  28.700  22.644  1.00  0.00     0.015 A 
ATOM     19  C   UNL A   1      27.302  28.815  22.843  1.00  0.00     0.040 A 
ATOM     20  C   UNL A   1      29.976  29.961  21.751  1.00  0.00     0.040 A 
ATOM     21  C   UNL A   1      28.244  29.954  21.864  1.00  0.00     0.123 A 
ATOM     22  F   UNL A   1      27.573  30.873  21.150  1.00  0.00    -0.207 F 
ENDBRANCH  14  16
ENDBRANCH  13  14
ENDBRANCH  10  12
BRANCH  11  23
ATOM     23  C   UNL A   1      34.056  25.794  25.029  1.00  0.00     0.004 A 
ATOM     24  C   UNL A   1      34.430  23.819  25.291  1.00  0.00     0.010 A 
ATOM     25  C   UNL A   1      33.507  26.290  23.356  1.00  0.00     0.031 A 
ATOM     26  C   UNL A   1      34.097  22.675  23.952  1.00  0.00     0.002 A 
ATOM     27  C   UNL A   1      33.225  25.035  22.149  1.00  0.00     0.041 A 
ATOM     28  C   UNL A   1      33.492  23.316  22.449  1.00  0.00     0.020 A 
ATOM     29  Cl  UNL A   1      32.712  25.507  20.573  1.00  0.00    -0.084 Cl
ENDBRANCH  11  23
ENDBRANCH   6   7
ENDBRANCH   5   6
ENDBRANCH   3   5
ENDBRANCH   2   3
ENDBRANCH   1   2
BRANCH   1  30
ATOM     30  C   UNL A   1      36.696  33.787  30.545  1.00  0.00     0.202 C 
BRANCH  30  31
ATOM     31  O   UNL A   1      35.647  33.281  31.350  1.00  0.00    -0.374 OA
BRANCH  31  32
ATOM     32  C   UNL A   1      35.945  32.720  32.620  1.00  0.00     0.202 C 
BRANCH  32  33
ATOM     33  C   UNL A   1      36.848  31.495  32.627  1.00  0.00     0.261 C 
BRANCH  33  34
ATOM     34  O   UNL A   1      37.788  31.569  33.684  1.00  0.00    -0.460 OA
BRANCH  34  35
ATOM     35  C   UNL A   1      39.090  31.611  33.296  1.00  0.00     0.338 C 
ATOM     36  O   UNL A   1      39.600  31.087  32.324  1.00  0.00    -0.246 OA
BRANCH  35  37
ATOM     37  C   UNL A   1      39.811  32.474  34.277  1.00  0.00     0.060 A 
ATOM     38  C   UNL A   1      39.365  33.780  34.286  1.00  0.00     0.016 A 
ATOM     39  C   UNL A   1      41.154  32.178  34.503  1.00  0.00     0.016 A 
ATOM     40  C   UNL A   1      40.236  34.674  33.722  1.00  0.00     0.010 A 
ATOM     41  C   UNL A   1      42.045  33.115  34.082  1.00  0.00     0.010 A 
ATOM     42  C   UNL A   1      41.534  34.236  33.438  1.00  0.00    -0.014 A 
BRANCH  42  43
ATOM     43  C   UNL A   1      42.469  35.091  32.740  1.00  0.00     0.031 A 
ATOM     44  C   UNL A   1      42.731  34.429  31.438  1.00  0.00     0.074 A 
ATOM     45  C   UNL A   1      42.921  36.285  33.200  1.00  0.00     0.049 A 
ATOM     46  N   UNL A   1      43.672  33.563  31.237  1.00  0.00    -0.248 NA
ATOM     47  C   UNL A   1      41.641  34.347  30.437  1.00  0.00     0.031 C 
ATOM     48  C   UNL A   1      42.596  37.047  34.417  1.00  0.00     0.029 A 
ATOM     49  N   UNL A   1      43.803  37.130  32.585  1.00  0.00    -0.354 N 
ATOM     50  C   UNL A   1      43.452  33.105  29.947  1.00  0.00     0.074 A 
ATOM     51  C   UNL A   1      42.059  33.320  29.693  1.00  0.00     0.031 C 
ATOM     52  C   UNL A   1      43.055  38.325  34.305  1.00  0.00     0.029 A 
ATOM     53  C   UNL A   1      43.832  38.443  33.088  1.00  0.00     0.049 A 
ATOM     54  H   UNL A   1      44.378  36.839  31.841  1.00  0.00     0.167 HD
ATOM     55  C   UNL A   1      44.490  33.087  29.065  1.00  0.00     0.031 A 
ATOM     56  C   UNL A   1      44.448  39.507  32.485  1.00  0.00     0.031 A 
ATOM     57  C   UNL A   1      45.745  33.170  29.781  1.00  0.00     0.049 A 
ATOM     58  C   UNL A   1      45.453  38.930  31.549  1.00  0.00     0.074 A 
ATOM     59  C   UNL A   1      46.381  32.396  30.729  1.00  0.00     0.029 A 
ATOM     60  N   UNL A   1      46.268  34.436  29.887  1.00  0.00    -0.354 N 
ATOM     61  N   UNL A   1      46.491  38.265  31.978  1.00  0.00    -0.248 NA
ATOM     62  C   UNL A   1      44.969  38.570  30.221  1.00  0.00     0.031 C 
ATOM     63  C   UNL A   1      46.949  33.331  31.646  1.00  0.00     0.029 A 
ATOM     64  C   UNL A   1      46.763  34.621  31.148  1.00  0.00     0.049 A 
ATOM     65  H   UNL A   1      46.284  35.107  29.167  1.00  0.00     0.167 HD
ATOM     66  C   UNL A   1      46.491  37.104  31.219  1.00  0.00     0.074 A 
ATOM     67  C   UNL A   1      45.532  37.358  30.134  1.00  0.00     0.031 C 
ATOM     68  C   UNL A   1      46.977  35.930  31.724  1.00  0.00     0.031 A 
BRANCH  55  69
ATOM     69  C   UNL A   1      44.361  33.609  27.647  1.00  0.00    -0.014 A 
ATOM     70  C   UNL A   1      43.909  34.929  27.487  1.00  0.00     0.009 A 
ATOM     71  C   UNL A   1      44.357  32.804  26.490  1.00  0.00     0.009 A 
ATOM     72  C   UNL A   1      43.382  35.378  26.271  1.00  0.00     0.001 A 
ATOM     73  C   UNL A   1      43.859  33.256  25.265  1.00  0.00     0.001 A 
ATOM     74  C   UNL A   1      43.343  34.536  25.166  1.00  0.00     0.000 A 
ENDBRANCH  55  69
BRANCH  56  75
ATOM     75  C   UNL A   1      43.969  40.912  32.321  1.00  0.00    -0.014 A 
ATOM     76  C   UNL A   1      44.851  42.013  32.244  1.00  0.00     0.009 A 
ATOM     77  C   UNL A   1      42.640  41.139  31.921  1.00  0.00     0.009 A 
ATOM     78  C   UNL A   1      44.420  43.269  31.769  1.00  0.00     0.001 A 
ATOM     79  C   UNL A   1      42.214  42.385  31.437  1.00  0.00     0.001 A 
ATOM     80  C   UNL A   1      43.105  43.448  31.351  1.00  0.00     0.000 A 
ENDBRANCH  56  75
BRANCH  68  81
ATOM     81  C   UNL A   1      47.702  35.961  33.049  1.00  0.00    -0.014 A 
ATOM     82  C   UNL A   1      49.083  36.187  33.212  1.00  0.00     0.009 A 
ATOM     83  C   UNL A   1      46.897  35.924  34.194  1.00  0.00     0.009 A 
ATOM     84  C   UNL A   1      49.632  36.337  34.494  1.00  0.00     0.001 A 
ATOM     85  C   UNL A   1      47.439  36.095  35.466  1.00  0.00     0.001 A 
ATOM     86  C   UNL A   1      48.809  36.290  35.618  1.00  0.00     0.000 A 
ENDBRANCH  68  81
ENDBRANCH  42  43
ENDBRANCH  35  37
ENDBRANCH  34  35
ENDBRANCH  33  34
ENDBRANCH  32  33
ENDBRANCH  31  32
ENDBRANCH  30  31
ENDBRANCH   1  30
TORSDOF 20
ENDMDL
