MODEL 1
REMARK VINA RESULT:      -9.0      0.000      0.000
REMARK SMILES CC(C)[NH2+][C@](C)(C[N@H+]1CCC(C)(C)C1)C(=O)OCCOCCOC(=O)c1ccc(-c2c3nc(c(-c4ccccc4)c4ccc([nH]4)c(-c4ccccc4)c4nc(c(-c5ccccc5)c5ccc2[nH]5)C=C4)C=C3)cc1
REMARK SMILES IDX 20 1 19 2 18 3 17 4 15 5 16 6 5 7 6 8 4 9 2 12 1 13 3 14
REMARK SMILES IDX 7 15 8 16 9 17 14 18 10 20 11 21 12 22 13 23 21 24 22 25
REMARK SMILES IDX 23 26 24 27 25 28 26 29 27 30 73 31 28 32 72 33 29 34 30 35
REMARK SMILES IDX 31 36 66 37 32 38 71 39 65 40 67 41 33 42 70 43 64 44 63 45
REMARK SMILES IDX 34 47 56 48 41 49 55 50 42 51 45 52 54 53 68 54 43 55 44 56
REMARK SMILES IDX 53 58 69 59 46 60 35 61 36 62 40 63 37 64 39 65 38 66 57 67
REMARK SMILES IDX 58 68 62 69 59 70 61 71 60 72 47 73 48 74 52 75 49 76 51 77
REMARK SMILES IDX 50 78
REMARK H PARENT 4 10 4 11 8 19 67 46 45 57
REMARK Flexibility Score: inf
ROOT
ATOM      1  O   UNL A   1      32.702  28.631  23.274  1.00  0.00    -0.374 OA
ENDROOT
BRANCH   1   2
ATOM      2  C   UNL A   1      32.121  27.360  23.548  1.00  0.00     0.202 C 
BRANCH   2   3
ATOM      3  C   UNL A   1      31.377  26.677  22.397  1.00  0.00     0.261 C 
BRANCH   3   4
ATOM      4  O   UNL A   1      31.153  25.269  22.581  1.00  0.00    -0.458 OA
BRANCH   4   5
ATOM      5  C   UNL A   1      32.286  24.501  22.564  1.00  0.00     0.373 C 
ATOM      6  O   UNL A   1      33.140  24.574  21.683  1.00  0.00    -0.244 OA
BRANCH   5   7
ATOM      7  C   UNL A   1      32.319  23.447  23.704  1.00  0.00     0.240 C 
ATOM      8  C   UNL A   1      32.228  22.067  23.019  1.00  0.00     0.099 C 
BRANCH   7   9
ATOM      9  N   UNL A   1      31.047  23.512  24.506  1.00  0.00    -0.326 N 
ATOM     10  H   UNL A   1      30.448  24.202  24.051  1.00  0.00     0.347 HD
ATOM     11  H   UNL A   1      30.725  22.544  24.513  1.00  0.00     0.347 HD
BRANCH   9  12
ATOM     12  C   UNL A   1      31.093  23.862  25.927  1.00  0.00     0.177 C 
ATOM     13  C   UNL A   1      30.497  25.271  26.051  1.00  0.00     0.075 C 
ATOM     14  C   UNL A   1      30.316  22.917  26.843  1.00  0.00     0.075 C 
ENDBRANCH   9  12
ENDBRANCH   7   9
BRANCH   7  15
ATOM     15  C   UNL A   1      33.568  23.516  24.658  1.00  0.00     0.343 C 
BRANCH  15  16
ATOM     16  N   UNL A   1      34.767  22.643  24.551  1.00  0.00    -0.329 N 
ATOM     17  C   UNL A   1      35.583  23.075  23.390  1.00  0.00     0.263 C 
ATOM     18  C   UNL A   1      35.674  22.667  25.706  1.00  0.00     0.269 C 
ATOM     19  H   UNL A   1      34.385  21.701  24.472  1.00  0.00     0.348 HD
ATOM     20  C   UNL A   1      37.052  23.013  23.803  1.00  0.00     0.073 C 
ATOM     21  C   UNL A   1      37.053  22.285  25.144  1.00  0.00     0.019 C 
ATOM     22  C   UNL A   1      37.204  20.770  24.928  1.00  0.00     0.017 C 
ATOM     23  C   UNL A   1      38.186  22.761  26.057  1.00  0.00     0.017 C 
ENDBRANCH  15  16
ENDBRANCH   7  15
ENDBRANCH   5   7
ENDBRANCH   4   5
ENDBRANCH   3   4
ENDBRANCH   2   3
ENDBRANCH   1   2
BRANCH   1  24
ATOM     24  C   UNL A   1      33.359  29.300  24.356  1.00  0.00     0.202 C 
BRANCH  24  25
ATOM     25  C   UNL A   1      32.974  28.813  25.753  1.00  0.00     0.261 C 
BRANCH  25  26
ATOM     26  O   UNL A   1      34.125  28.748  26.614  1.00  0.00    -0.460 OA
BRANCH  26  27
ATOM     27  C   UNL A   1      34.306  29.869  27.342  1.00  0.00     0.338 C 
ATOM     28  O   UNL A   1      33.481  30.730  27.607  1.00  0.00    -0.246 OA
BRANCH  27  29
ATOM     29  C   UNL A   1      35.652  29.865  27.926  1.00  0.00     0.060 A 
ATOM     30  C   UNL A   1      36.740  30.064  27.069  1.00  0.00     0.016 A 
ATOM     31  C   UNL A   1      35.841  29.496  29.258  1.00  0.00     0.016 A 
ATOM     32  C   UNL A   1      38.031  29.821  27.531  1.00  0.00     0.010 A 
ATOM     33  C   UNL A   1      37.137  29.256  29.720  1.00  0.00     0.010 A 
ATOM     34  C   UNL A   1      38.231  29.368  28.843  1.00  0.00    -0.014 A 
BRANCH  34  35
ATOM     35  C   UNL A   1      39.563  28.850  29.236  1.00  0.00     0.031 A 
ATOM     36  C   UNL A   1      40.431  29.681  30.144  1.00  0.00     0.074 A 
ATOM     37  C   UNL A   1      39.976  27.638  28.830  1.00  0.00     0.049 A 
ATOM     38  N   UNL A   1      41.612  29.408  30.637  1.00  0.00    -0.248 NA
ATOM     39  C   UNL A   1      39.895  30.990  30.552  1.00  0.00     0.031 C 
ATOM     40  C   UNL A   1      39.213  26.725  27.979  1.00  0.00     0.029 A 
ATOM     41  N   UNL A   1      41.142  26.966  29.090  1.00  0.00    -0.354 N 
ATOM     42  C   UNL A   1      41.959  30.507  31.414  1.00  0.00     0.074 A 
ATOM     43  C   UNL A   1      40.879  31.464  31.302  1.00  0.00     0.031 C 
ATOM     44  C   UNL A   1      39.933  25.607  27.790  1.00  0.00     0.029 A 
ATOM     45  C   UNL A   1      41.211  25.735  28.487  1.00  0.00     0.049 A 
ATOM     46  H   UNL A   1      41.862  27.330  29.655  1.00  0.00     0.167 HD
ATOM     47  C   UNL A   1      43.071  30.700  32.161  1.00  0.00     0.031 A 
ATOM     48  C   UNL A   1      42.198  24.819  28.490  1.00  0.00     0.031 A 
ATOM     49  C   UNL A   1      44.151  29.759  32.266  1.00  0.00     0.049 A 
ATOM     50  C   UNL A   1      43.454  25.086  29.275  1.00  0.00     0.074 A 
ATOM     51  C   UNL A   1      45.316  29.860  33.009  1.00  0.00     0.029 A 
ATOM     52  N   UNL A   1      44.203  28.544  31.601  1.00  0.00    -0.354 N 
ATOM     53  N   UNL A   1      43.755  26.117  30.026  1.00  0.00    -0.248 NA
ATOM     54  C   UNL A   1      44.502  24.056  29.214  1.00  0.00     0.031 C 
ATOM     55  C   UNL A   1      46.091  28.722  32.760  1.00  0.00     0.029 A 
ATOM     56  C   UNL A   1      45.389  27.895  31.896  1.00  0.00     0.049 A 
ATOM     57  H   UNL A   1      43.500  28.195  31.009  1.00  0.00     0.167 HD
ATOM     58  C   UNL A   1      45.016  25.852  30.545  1.00  0.00     0.074 A 
ATOM     59  C   UNL A   1      45.418  24.559  30.032  1.00  0.00     0.031 C 
ATOM     60  C   UNL A   1      45.773  26.612  31.373  1.00  0.00     0.031 A 
BRANCH  47  61
ATOM     61  C   UNL A   1      43.181  31.999  32.906  1.00  0.00    -0.014 A 
ATOM     62  C   UNL A   1      43.777  33.125  32.318  1.00  0.00     0.009 A 
ATOM     63  C   UNL A   1      42.657  32.106  34.204  1.00  0.00     0.009 A 
ATOM     64  C   UNL A   1      43.870  34.326  33.024  1.00  0.00     0.001 A 
ATOM     65  C   UNL A   1      42.734  33.313  34.900  1.00  0.00     0.001 A 
ATOM     66  C   UNL A   1      43.347  34.419  34.314  1.00  0.00     0.000 A 
ENDBRANCH  47  61
BRANCH  48  67
ATOM     67  C   UNL A   1      42.045  23.562  27.717  1.00  0.00    -0.014 A 
ATOM     68  C   UNL A   1      41.456  22.430  28.300  1.00  0.00     0.009 A 
ATOM     69  C   UNL A   1      42.496  23.488  26.390  1.00  0.00     0.009 A 
ATOM     70  C   UNL A   1      41.340  21.242  27.575  1.00  0.00     0.001 A 
ATOM     71  C   UNL A   1      42.358  22.305  25.660  1.00  0.00     0.001 A 
ATOM     72  C   UNL A   1      41.786  21.182  26.255  1.00  0.00     0.000 A 
ENDBRANCH  48  67
BRANCH  60  73
ATOM     73  C   UNL A   1      47.103  26.053  31.791  1.00  0.00    -0.014 A 
ATOM     74  C   UNL A   1      48.242  26.218  30.989  1.00  0.00     0.009 A 
ATOM     75  C   UNL A   1      47.222  25.389  33.021  1.00  0.00     0.009 A 
ATOM     76  C   UNL A   1      49.472  25.703  31.400  1.00  0.00     0.001 A 
ATOM     77  C   UNL A   1      48.459  24.894  33.439  1.00  0.00     0.001 A 
ATOM     78  C   UNL A   1      49.581  25.046  32.625  1.00  0.00     0.000 A 
ENDBRANCH  60  73
ENDBRANCH  34  35
ENDBRANCH  27  29
ENDBRANCH  26  27
ENDBRANCH  25  26
ENDBRANCH  24  25
ENDBRANCH   1  24
TORSDOF 18
ENDMDL
MODEL 2
REMARK VINA RESULT:      -8.8      3.681      7.034
REMARK SMILES CC(C)[NH2+][C@](C)(C[N@H+]1CCC(C)(C)C1)C(=O)OCCOCCOC(=O)c1ccc(-c2c3nc(c(-c4ccccc4)c4ccc([nH]4)c(-c4ccccc4)c4nc(c(-c5ccccc5)c5ccc2[nH]5)C=C4)C=C3)cc1
REMARK SMILES IDX 20 1 19 2 18 3 17 4 15 5 16 6 5 7 6 8 4 9 2 12 1 13 3 14
REMARK SMILES IDX 7 15 8 16 9 17 14 18 10 20 11 21 12 22 13 23 21 24 22 25
REMARK SMILES IDX 23 26 24 27 25 28 26 29 27 30 73 31 28 32 72 33 29 34 30 35
REMARK SMILES IDX 31 36 66 37 32 38 71 39 65 40 67 41 33 42 70 43 64 44 63 45
REMARK SMILES IDX 34 47 56 48 41 49 55 50 42 51 45 52 54 53 68 54 43 55 44 56
REMARK SMILES IDX 53 58 69 59 46 60 35 61 36 62 40 63 37 64 39 65 38 66 57 67
REMARK SMILES IDX 58 68 62 69 59 70 61 71 60 72 47 73 48 74 52 75 49 76 51 77
REMARK SMILES IDX 50 78
REMARK H PARENT 4 10 4 11 8 19 67 46 45 57
REMARK Flexibility Score: inf
ROOT
ATOM      1  O   UNL A   1      34.267  22.323  24.886  1.00  0.00    -0.374 OA
ENDROOT
BRANCH   1   2
ATOM      2  C   UNL A   1      34.485  23.227  23.809  1.00  0.00     0.202 C 
BRANCH   2   3
ATOM      3  C   UNL A   1      33.263  23.985  23.283  1.00  0.00     0.261 C 
BRANCH   3   4
ATOM      4  O   UNL A   1      33.275  25.397  23.547  1.00  0.00    -0.458 OA
BRANCH   4   5
ATOM      5  C   UNL A   1      32.227  26.091  23.003  1.00  0.00     0.373 C 
ATOM      6  O   UNL A   1      31.754  25.844  21.897  1.00  0.00    -0.244 OA
BRANCH   5   7
ATOM      7  C   UNL A   1      31.781  27.296  23.876  1.00  0.00     0.240 C 
ATOM      8  C   UNL A   1      32.494  28.536  23.296  1.00  0.00     0.099 C 
BRANCH   7   9
ATOM      9  N   UNL A   1      32.371  27.181  25.256  1.00  0.00    -0.326 N 
ATOM     10  H   UNL A   1      31.729  26.606  25.803  1.00  0.00     0.347 HD
ATOM     11  H   UNL A   1      33.304  26.807  25.082  1.00  0.00     0.347 HD
BRANCH   9  12
ATOM     12  C   UNL A   1      32.634  28.387  26.044  1.00  0.00     0.177 C 
ATOM     13  C   UNL A   1      31.694  28.332  27.257  1.00  0.00     0.075 C 
ATOM     14  C   UNL A   1      34.072  28.524  26.542  1.00  0.00     0.075 C 
ENDBRANCH   9  12
ENDBRANCH   7   9
BRANCH   7  15
ATOM     15  C   UNL A   1      30.229  27.533  23.964  1.00  0.00     0.343 C 
BRANCH  15  16
ATOM     16  N   UNL A   1      29.451  28.411  23.050  1.00  0.00    -0.329 N 
ATOM     17  C   UNL A   1      28.027  27.996  23.071  1.00  0.00     0.263 C 
ATOM     18  C   UNL A   1      29.455  29.840  23.388  1.00  0.00     0.269 C 
ATOM     19  H   UNL A   1      29.910  28.301  22.146  1.00  0.00     0.348 HD
ATOM     20  C   UNL A   1      27.173  29.262  23.075  1.00  0.00     0.073 C 
ATOM     21  C   UNL A   1      28.151  30.399  22.793  1.00  0.00     0.019 C 
ATOM     22  C   UNL A   1      28.253  30.651  21.280  1.00  0.00     0.017 C 
ATOM     23  C   UNL A   1      27.732  31.702  23.477  1.00  0.00     0.017 C 
ENDBRANCH  15  16
ENDBRANCH   7  15
ENDBRANCH   5   7
ENDBRANCH   4   5
ENDBRANCH   3   4
ENDBRANCH   2   3
ENDBRANCH   1   2
BRANCH   1  24
ATOM     24  C   UNL A   1      35.375  22.052  25.752  1.00  0.00     0.202 C 
BRANCH  24  25
ATOM     25  C   UNL A   1      36.413  21.078  25.196  1.00  0.00     0.261 C 
BRANCH  25  26
ATOM     26  O   UNL A   1      37.656  21.748  24.920  1.00  0.00    -0.460 OA
BRANCH  26  27
ATOM     27  C   UNL A   1      38.656  21.368  25.742  1.00  0.00     0.338 C 
ATOM     28  O   UNL A   1      39.160  20.260  25.846  1.00  0.00    -0.246 OA
BRANCH  27  29
ATOM     29  C   UNL A   1      39.191  22.542  26.441  1.00  0.00     0.060 A 
ATOM     30  C   UNL A   1      38.579  23.779  26.212  1.00  0.00     0.016 A 
ATOM     31  C   UNL A   1      40.379  22.448  27.167  1.00  0.00     0.016 A 
ATOM     32  C   UNL A   1      39.200  24.945  26.652  1.00  0.00     0.010 A 
ATOM     33  C   UNL A   1      40.998  23.619  27.611  1.00  0.00     0.010 A 
ATOM     34  C   UNL A   1      40.437  24.873  27.309  1.00  0.00    -0.014 A 
BRANCH  34  35
ATOM     35  C   UNL A   1      41.217  26.115  27.524  1.00  0.00     0.031 A 
ATOM     36  C   UNL A   1      40.661  27.180  28.432  1.00  0.00     0.074 A 
ATOM     37  C   UNL A   1      42.425  26.274  26.957  1.00  0.00     0.049 A 
ATOM     38  N   UNL A   1      41.187  28.324  28.785  1.00  0.00    -0.248 NA
ATOM     39  C   UNL A   1      39.338  26.917  29.022  1.00  0.00     0.031 C 
ATOM     40  C   UNL A   1      43.086  25.302  26.087  1.00  0.00     0.029 A 
ATOM     41  N   UNL A   1      43.312  27.316  27.038  1.00  0.00    -0.354 N 
ATOM     42  C   UNL A   1      40.264  28.916  29.638  1.00  0.00     0.074 A 
ATOM     43  C   UNL A   1      39.131  28.020  29.726  1.00  0.00     0.031 C 
ATOM     44  C   UNL A   1      44.280  25.794  25.717  1.00  0.00     0.029 A 
ATOM     45  C   UNL A   1      44.456  27.121  26.306  1.00  0.00     0.049 A 
ATOM     46  H   UNL A   1      43.145  28.127  27.571  1.00  0.00     0.167 HD
ATOM     47  C   UNL A   1      40.354  30.095  30.298  1.00  0.00     0.031 A 
ATOM     48  C   UNL A   1      45.520  27.925  26.124  1.00  0.00     0.031 A 
ATOM     49  C   UNL A   1      41.471  30.993  30.206  1.00  0.00     0.049 A 
ATOM     50  C   UNL A   1      45.566  29.260  26.815  1.00  0.00     0.074 A 
ATOM     51  C   UNL A   1      41.659  32.206  30.847  1.00  0.00     0.029 A 
ATOM     52  N   UNL A   1      42.589  30.779  29.415  1.00  0.00    -0.354 N 
ATOM     53  N   UNL A   1      44.698  29.794  27.640  1.00  0.00    -0.248 NA
ATOM     54  C   UNL A   1      46.744  30.100  26.552  1.00  0.00     0.031 C 
ATOM     55  C   UNL A   1      42.874  32.746  30.410  1.00  0.00     0.029 A 
ATOM     56  C   UNL A   1      43.461  31.848  29.532  1.00  0.00     0.049 A 
ATOM     57  H   UNL A   1      42.740  29.985  28.855  1.00  0.00     0.167 HD
ATOM     58  C   UNL A   1      45.234  31.020  28.013  1.00  0.00     0.074 A 
ATOM     59  C   UNL A   1      46.506  31.146  27.333  1.00  0.00     0.031 C 
ATOM     60  C   UNL A   1      44.719  31.958  28.844  1.00  0.00     0.031 A 
BRANCH  47  61
ATOM     61  C   UNL A   1      39.191  30.489  31.163  1.00  0.00    -0.014 A 
ATOM     62  C   UNL A   1      39.142  30.132  32.519  1.00  0.00     0.009 A 
ATOM     63  C   UNL A   1      38.145  31.251  30.621  1.00  0.00     0.009 A 
ATOM     64  C   UNL A   1      38.055  30.507  33.310  1.00  0.00     0.001 A 
ATOM     65  C   UNL A   1      37.068  31.642  31.419  1.00  0.00     0.001 A 
ATOM     66  C   UNL A   1      37.020  31.264  32.759  1.00  0.00     0.000 A 
ENDBRANCH  47  61
BRANCH  48  67
ATOM     67  C   UNL A   1      46.631  27.494  25.239  1.00  0.00    -0.014 A 
ATOM     68  C   UNL A   1      46.767  28.027  23.949  1.00  0.00     0.009 A 
ATOM     69  C   UNL A   1      47.558  26.538  25.682  1.00  0.00     0.009 A 
ATOM     70  C   UNL A   1      47.799  27.596  23.112  1.00  0.00     0.001 A 
ATOM     71  C   UNL A   1      48.602  26.126  24.852  1.00  0.00     0.001 A 
ATOM     72  C   UNL A   1      48.718  26.650  23.566  1.00  0.00     0.000 A 
ENDBRANCH  48  67
BRANCH  60  73
ATOM     73  C   UNL A   1      45.542  33.191  29.079  1.00  0.00    -0.014 A 
ATOM     74  C   UNL A   1      45.393  34.326  28.267  1.00  0.00     0.009 A 
ATOM     75  C   UNL A   1      46.447  33.230  30.151  1.00  0.00     0.009 A 
ATOM     76  C   UNL A   1      46.157  35.469  28.509  1.00  0.00     0.001 A 
ATOM     77  C   UNL A   1      47.193  34.383  30.403  1.00  0.00     0.001 A 
ATOM     78  C   UNL A   1      47.053  35.497  29.578  1.00  0.00     0.000 A 
ENDBRANCH  60  73
ENDBRANCH  34  35
ENDBRANCH  27  29
ENDBRANCH  26  27
ENDBRANCH  25  26
ENDBRANCH  24  25
ENDBRANCH   1  24
TORSDOF 18
ENDMDL
MODEL 3
REMARK VINA RESULT:      -8.8      1.835      2.717
REMARK SMILES CC(C)[NH2+][C@](C)(C[N@H+]1CCC(C)(C)C1)C(=O)OCCOCCOC(=O)c1ccc(-c2c3nc(c(-c4ccccc4)c4ccc([nH]4)c(-c4ccccc4)c4nc(c(-c5ccccc5)c5ccc2[nH]5)C=C4)C=C3)cc1
REMARK SMILES IDX 20 1 19 2 18 3 17 4 15 5 16 6 5 7 6 8 4 9 2 12 1 13 3 14
REMARK SMILES IDX 7 15 8 16 9 17 14 18 10 20 11 21 12 22 13 23 21 24 22 25
REMARK SMILES IDX 23 26 24 27 25 28 26 29 27 30 73 31 28 32 72 33 29 34 30 35
REMARK SMILES IDX 31 36 66 37 32 38 71 39 65 40 67 41 33 42 70 43 64 44 63 45
REMARK SMILES IDX 34 47 56 48 41 49 55 50 42 51 45 52 54 53 68 54 43 55 44 56
REMARK SMILES IDX 53 58 69 59 46 60 35 61 36 62 40 63 37 64 39 65 38 66 57 67
REMARK SMILES IDX 58 68 62 69 59 70 61 71 60 72 47 73 48 74 52 75 49 76 51 77
REMARK SMILES IDX 50 78
REMARK H PARENT 4 10 4 11 8 19 67 46 45 57
REMARK Flexibility Score: inf
ROOT
ATOM      1  O   UNL A   1      31.537  27.001  25.369  1.00  0.00    -0.374 OA
ENDROOT
BRANCH   1   2
ATOM      2  C   UNL A   1      31.618  25.799  24.610  1.00  0.00     0.202 C 
BRANCH   2   3
ATOM      3  C   UNL A   1      30.974  24.551  25.220  1.00  0.00     0.261 C 
BRANCH   3   4
ATOM      4  O   UNL A   1      31.809  23.839  26.149  1.00  0.00    -0.458 OA
BRANCH   4   5
ATOM      5  C   UNL A   1      32.231  22.612  25.715  1.00  0.00     0.373 C 
ATOM      6  O   UNL A   1      31.687  21.992  24.804  1.00  0.00    -0.244 OA
BRANCH   5   7
ATOM      7  C   UNL A   1      33.390  22.033  26.572  1.00  0.00     0.240 C 
ATOM      8  C   UNL A   1      33.131  22.500  28.019  1.00  0.00     0.099 C 
BRANCH   7   9
ATOM      9  N   UNL A   1      34.684  22.717  26.221  1.00  0.00    -0.326 N 
ATOM     10  H   UNL A   1      34.754  23.539  26.822  1.00  0.00     0.347 HD
ATOM     11  H   UNL A   1      35.380  21.982  26.348  1.00  0.00     0.347 HD
BRANCH   9  12
ATOM     12  C   UNL A   1      34.923  23.174  24.850  1.00  0.00     0.177 C 
ATOM     13  C   UNL A   1      35.016  24.706  24.909  1.00  0.00     0.075 C 
ATOM     14  C   UNL A   1      36.199  22.629  24.208  1.00  0.00     0.075 C 
ENDBRANCH   9  12
ENDBRANCH   7   9
BRANCH   7  15
ATOM     15  C   UNL A   1      33.566  20.471  26.511  1.00  0.00     0.343 C 
BRANCH  15  16
ATOM     16  N   UNL A   1      33.464  19.653  25.273  1.00  0.00    -0.329 N 
ATOM     17  C   UNL A   1      34.828  19.332  24.787  1.00  0.00     0.263 C 
ATOM     18  C   UNL A   1      32.779  18.362  25.421  1.00  0.00     0.269 C 
ATOM     19  H   UNL A   1      32.913  20.229  24.636  1.00  0.00     0.348 HD
ATOM     20  C   UNL A   1      34.825  17.879  24.317  1.00  0.00     0.073 C 
ATOM     21  C   UNL A   1      33.354  17.471  24.308  1.00  0.00     0.019 C 
ATOM     22  C   UNL A   1      32.728  17.761  22.935  1.00  0.00     0.017 C 
ATOM     23  C   UNL A   1      33.168  15.984  24.624  1.00  0.00     0.017 C 
ENDBRANCH  15  16
ENDBRANCH   7  15
ENDBRANCH   5   7
ENDBRANCH   4   5
ENDBRANCH   3   4
ENDBRANCH   2   3
ENDBRANCH   1   2
BRANCH   1  24
ATOM     24  C   UNL A   1      32.326  27.080  26.561  1.00  0.00     0.202 C 
BRANCH  24  25
ATOM     25  C   UNL A   1      32.653  28.496  27.034  1.00  0.00     0.261 C 
BRANCH  25  26
ATOM     26  O   UNL A   1      34.050  28.626  27.353  1.00  0.00    -0.460 OA
BRANCH  26  27
ATOM     27  C   UNL A   1      34.396  29.878  27.716  1.00  0.00     0.338 C 
ATOM     28  O   UNL A   1      33.678  30.865  27.780  1.00  0.00    -0.246 OA
BRANCH  27  29
ATOM     29  C   UNL A   1      35.787  29.889  28.181  1.00  0.00     0.060 A 
ATOM     30  C   UNL A   1      36.793  30.141  27.242  1.00  0.00     0.016 A 
ATOM     31  C   UNL A   1      36.098  29.483  29.480  1.00  0.00     0.016 A 
ATOM     32  C   UNL A   1      38.123  29.915  27.583  1.00  0.00     0.010 A 
ATOM     33  C   UNL A   1      37.434  29.260  29.820  1.00  0.00     0.010 A 
ATOM     34  C   UNL A   1      38.446  29.426  28.857  1.00  0.00    -0.014 A 
BRANCH  34  35
ATOM     35  C   UNL A   1      39.818  28.929  29.117  1.00  0.00     0.031 A 
ATOM     36  C   UNL A   1      40.788  29.813  29.854  1.00  0.00     0.074 A 
ATOM     37  C   UNL A   1      40.181  27.690  28.746  1.00  0.00     0.049 A 
ATOM     38  N   UNL A   1      42.022  29.568  30.216  1.00  0.00    -0.248 NA
ATOM     39  C   UNL A   1      40.303  31.149  30.237  1.00  0.00     0.031 C 
ATOM     40  C   UNL A   1      39.322  26.727  28.058  1.00  0.00     0.029 A 
ATOM     41  N   UNL A   1      41.372  27.030  28.904  1.00  0.00    -0.354 N 
ATOM     42  C   UNL A   1      42.458  30.714  30.869  1.00  0.00     0.074 A 
ATOM     43  C   UNL A   1      41.370  31.667  30.827  1.00  0.00     0.031 C 
ATOM     44  C   UNL A   1      40.016  25.594  27.857  1.00  0.00     0.029 A 
ATOM     45  C   UNL A   1      41.370  25.761  28.381  1.00  0.00     0.049 A 
ATOM     46  H   UNL A   1      42.155  27.428  29.351  1.00  0.00     0.167 HD
ATOM     47  C   UNL A   1      43.653  30.951  31.459  1.00  0.00     0.031 A 
ATOM     48  C   UNL A   1      42.353  24.843  28.325  1.00  0.00     0.031 A 
ATOM     49  C   UNL A   1      44.741  30.013  31.494  1.00  0.00     0.049 A 
ATOM     50  C   UNL A   1      43.695  25.155  28.929  1.00  0.00     0.074 A 
ATOM     51  C   UNL A   1      45.987  30.157  32.079  1.00  0.00     0.029 A 
ATOM     52  N   UNL A   1      44.714  28.756  30.910  1.00  0.00    -0.354 N 
ATOM     53  N   UNL A   1      44.083  26.232  29.567  1.00  0.00    -0.248 NA
ATOM     54  C   UNL A   1      44.731  24.118  28.809  1.00  0.00     0.031 C 
ATOM     55  C   UNL A   1      46.730  29.001  31.813  1.00  0.00     0.029 A 
ATOM     56  C   UNL A   1      45.929  28.122  31.099  1.00  0.00     0.049 A 
ATOM     57  H   UNL A   1      43.944  28.372  30.433  1.00  0.00     0.167 HD
ATOM     58  C   UNL A   1      45.399  25.996  29.944  1.00  0.00     0.074 A 
ATOM     59  C   UNL A   1      45.738  24.669  29.473  1.00  0.00     0.031 C 
ATOM     60  C   UNL A   1      46.250  26.805  30.619  1.00  0.00     0.031 A 
BRANCH  47  61
ATOM     61  C   UNL A   1      43.850  32.296  32.097  1.00  0.00    -0.014 A 
ATOM     62  C   UNL A   1      44.358  33.379  31.363  1.00  0.00     0.009 A 
ATOM     63  C   UNL A   1      43.497  32.489  33.441  1.00  0.00     0.009 A 
ATOM     64  C   UNL A   1      44.534  34.623  31.971  1.00  0.00     0.001 A 
ATOM     65  C   UNL A   1      43.655  33.740  34.040  1.00  0.00     0.001 A 
ATOM     66  C   UNL A   1      44.180  34.803  33.309  1.00  0.00     0.000 A 
ENDBRANCH  47  61
BRANCH  48  67
ATOM     67  C   UNL A   1      42.109  23.538  27.662  1.00  0.00    -0.014 A 
ATOM     68  C   UNL A   1      42.394  23.362  26.300  1.00  0.00     0.009 A 
ATOM     69  C   UNL A   1      41.580  22.461  28.391  1.00  0.00     0.009 A 
ATOM     70  C   UNL A   1      42.135  22.139  25.676  1.00  0.00     0.001 A 
ATOM     71  C   UNL A   1      41.345  21.233  27.770  1.00  0.00     0.001 A 
ATOM     72  C   UNL A   1      41.616  21.075  26.412  1.00  0.00     0.000 A 
ENDBRANCH  48  67
BRANCH  60  73
ATOM     73  C   UNL A   1      47.622  26.268  30.907  1.00  0.00    -0.014 A 
ATOM     74  C   UNL A   1      47.932  25.706  32.155  1.00  0.00     0.009 A 
ATOM     75  C   UNL A   1      48.602  26.288  29.903  1.00  0.00     0.009 A 
ATOM     76  C   UNL A   1      49.209  25.199  32.400  1.00  0.00     0.001 A 
ATOM     77  C   UNL A   1      49.872  25.760  30.145  1.00  0.00     0.001 A 
ATOM     78  C   UNL A   1      50.176  25.223  31.395  1.00  0.00     0.000 A 
ENDBRANCH  60  73
ENDBRANCH  34  35
ENDBRANCH  27  29
ENDBRANCH  26  27
ENDBRANCH  25  26
ENDBRANCH  24  25
ENDBRANCH   1  24
TORSDOF 18
ENDMDL
