MODEL 1
REMARK VINA RESULT:     -11.9      0.000      0.000
REMARK SMILES Cc1c(CC(=O)OCCOCCOC(=O)c2ccc(-c3c4nc(c(-c5ccccc5)c5ccc([nH]5)c(-c5ccccc5)c5nc(c(-c6ccccc6)c6ccc3[nH]6)C=C5)C=C4)cc2)cc(-c2ccc(S(C)(=O)=O)cc2)n1-c1cccc(F)c1
REMARK SMILES IDX 9 1 8 2 7 3 5 4 6 5 4 6 3 7 1 8 2 9 76 10 64 11 65 12 77 13
REMARK SMILES IDX 78 14 83 15 79 16 81 17 80 18 82 19 66 20 67 21 75 22 68 23
REMARK SMILES IDX 74 24 69 25 70 26 71 27 72 28 73 29 10 30 11 31 12 32 13 33
REMARK SMILES IDX 14 34 15 35 16 36 17 37 63 38 18 39 62 40 19 41 20 42 21 43
REMARK SMILES IDX 56 44 22 45 61 46 55 47 57 48 23 49 60 50 54 51 53 52 24 54
REMARK SMILES IDX 46 55 31 56 45 57 32 58 35 59 44 60 58 61 33 62 34 63 43 65
REMARK SMILES IDX 59 66 36 67 25 68 26 69 30 70 27 71 29 72 28 73 47 74 48 75
REMARK SMILES IDX 52 76 49 77 51 78 50 79 37 80 38 81 42 82 39 83 41 84 40 85
REMARK H PARENT 57 53 35 64
REMARK Flexibility Score: inf
ROOT
ATOM      1  C   UNL A   1      37.771  22.201  25.883  1.00  0.00     0.202 C 
ENDROOT
BRANCH   1   2
ATOM      2  C   UNL A   1      37.219  21.493  24.625  1.00  0.00     0.261 C 
BRANCH   2   3
ATOM      3  O   UNL A   1      35.826  21.748  24.352  1.00  0.00    -0.463 OA
BRANCH   3   4
ATOM      4  C   UNL A   1      35.574  22.665  23.375  1.00  0.00     0.310 C 
ATOM      5  O   UNL A   1      36.445  23.303  22.786  1.00  0.00    -0.252 OA
BRANCH   4   6
ATOM      6  C   UNL A   1      34.109  22.951  23.129  1.00  0.00     0.160 C 
BRANCH   6   7
ATOM      7  C   UNL A   1      33.555  24.278  23.562  1.00  0.00    -0.015 A 
ATOM      8  C   UNL A   1      34.383  24.387  26.018  1.00  0.00     0.065 C 
ATOM      9  C   UNL A   1      33.689  24.903  24.799  1.00  0.00     0.024 A 
ATOM     10  N   UNL A   1      32.926  26.067  24.788  1.00  0.00    -0.313 N 
ATOM     11  C   UNL A   1      32.619  25.051  22.824  1.00  0.00     0.033 A 
ATOM     12  C   UNL A   1      32.189  26.106  23.609  1.00  0.00     0.053 A 
BRANCH  10  13
ATOM     13  C   UNL A   1      32.901  27.060  25.800  1.00  0.00     0.049 A 
ATOM     14  C   UNL A   1      31.806  27.160  26.668  1.00  0.00     0.027 A 
ATOM     15  C   UNL A   1      33.940  27.991  25.856  1.00  0.00     0.065 A 
ATOM     16  C   UNL A   1      31.754  28.204  27.595  1.00  0.00     0.005 A 
ATOM     17  C   UNL A   1      33.847  29.049  26.753  1.00  0.00     0.125 A 
ATOM     18  C   UNL A   1      32.769  29.161  27.625  1.00  0.00     0.039 A 
ATOM     19  F   UNL A   1      34.802  29.989  26.761  1.00  0.00    -0.207 F 
ENDBRANCH  10  13
BRANCH  12  20
ATOM     20  C   UNL A   1      31.189  27.120  23.271  1.00  0.00    -0.001 A 
ATOM     21  C   UNL A   1      29.823  26.888  23.476  1.00  0.00     0.011 A 
ATOM     22  C   UNL A   1      31.607  28.348  22.737  1.00  0.00     0.011 A 
ATOM     23  C   UNL A   1      28.882  27.864  23.140  1.00  0.00     0.021 A 
ATOM     24  C   UNL A   1      30.671  29.326  22.390  1.00  0.00     0.021 A 
ATOM     25  C   UNL A   1      29.311  29.073  22.589  1.00  0.00     0.067 A 
BRANCH  25  26
ATOM     26  S   UNL A   1      28.124  30.332  22.178  1.00  0.00     0.175 S 
ATOM     27  C   UNL A   1      29.001  31.855  22.421  1.00  0.00     0.163 C 
ATOM     28  O   UNL A   1      27.858  30.193  20.737  1.00  0.00    -0.224 OA
ATOM     29  O   UNL A   1      27.062  30.279  23.130  1.00  0.00    -0.224 OA
ENDBRANCH  25  26
ENDBRANCH  12  20
ENDBRANCH   6   7
ENDBRANCH   4   6
ENDBRANCH   3   4
ENDBRANCH   2   3
ENDBRANCH   1   2
BRANCH   1  30
ATOM     30  O   UNL A   1      39.173  22.443  25.931  1.00  0.00    -0.374 OA
BRANCH  30  31
ATOM     31  C   UNL A   1      39.942  21.334  26.383  1.00  0.00     0.202 C 
BRANCH  31  32
ATOM     32  C   UNL A   1      41.422  21.554  26.885  1.00  0.00     0.261 C 
BRANCH  32  33
ATOM     33  O   UNL A   1      42.496  22.296  26.166  1.00  0.00    -0.460 OA
BRANCH  33  34
ATOM     34  C   UNL A   1      43.523  22.898  26.909  1.00  0.00     0.338 C 
ATOM     35  O   UNL A   1      44.646  22.414  26.963  1.00  0.00    -0.246 OA
BRANCH  34  36
ATOM     36  C   UNL A   1      43.157  24.132  27.821  1.00  0.00     0.060 A 
ATOM     37  C   UNL A   1      42.153  25.146  27.714  1.00  0.00     0.016 A 
ATOM     38  C   UNL A   1      43.983  24.440  28.844  1.00  0.00     0.016 A 
ATOM     39  C   UNL A   1      41.932  26.387  28.691  1.00  0.00     0.010 A 
ATOM     40  C   UNL A   1      43.718  25.622  29.689  1.00  0.00     0.010 A 
ATOM     41  C   UNL A   1      42.757  26.737  29.789  1.00  0.00    -0.014 A 
BRANCH  41  42
ATOM     42  C   UNL A   1      42.314  27.543  31.406  1.00  0.00     0.031 A 
ATOM     43  C   UNL A   1      43.655  28.156  31.689  1.00  0.00     0.074 A 
ATOM     44  C   UNL A   1      41.271  28.267  32.264  1.00  0.00     0.049 A 
ATOM     45  N   UNL A   1      44.274  28.543  30.600  1.00  0.00    -0.248 NA
ATOM     46  C   UNL A   1      44.030  29.018  32.787  1.00  0.00     0.031 C 
ATOM     47  C   UNL A   1      39.818  28.492  31.993  1.00  0.00     0.029 A 
ATOM     48  N   UNL A   1      41.270  29.152  33.584  1.00  0.00    -0.354 N 
ATOM     49  C   UNL A   1      43.951  29.865  30.611  1.00  0.00     0.074 A 
ATOM     50  C   UNL A   1      44.331  30.098  32.035  1.00  0.00     0.031 C 
ATOM     51  C   UNL A   1      39.232  29.454  32.778  1.00  0.00     0.029 A 
ATOM     52  C   UNL A   1      40.099  30.050  33.857  1.00  0.00     0.049 A 
ATOM     53  H   UNL A   1      42.027  29.113  34.214  1.00  0.00     0.167 HD
ATOM     54  C   UNL A   1      43.005  30.515  29.785  1.00  0.00     0.031 A 
ATOM     55  C   UNL A   1      39.495  31.071  34.743  1.00  0.00     0.031 A 
ATOM     56  C   UNL A   1      42.912  31.933  30.001  1.00  0.00     0.049 A 
ATOM     57  C   UNL A   1      39.580  32.197  33.746  1.00  0.00     0.074 A 
ATOM     58  C   UNL A   1      43.268  32.643  31.123  1.00  0.00     0.029 A 
ATOM     59  N   UNL A   1      41.733  32.585  29.630  1.00  0.00    -0.354 N 
ATOM     60  N   UNL A   1      38.653  32.618  32.942  1.00  0.00    -0.248 NA
ATOM     61  C   UNL A   1      40.743  33.149  33.896  1.00  0.00     0.031 C 
ATOM     62  C   UNL A   1      42.057  32.285  31.727  1.00  0.00     0.029 A 
ATOM     63  C   UNL A   1      41.056  32.657  30.819  1.00  0.00     0.049 A 
ATOM     64  H   UNL A   1      41.458  32.908  28.742  1.00  0.00     0.167 HD
ATOM     65  C   UNL A   1      39.366  33.503  32.150  1.00  0.00     0.074 A 
ATOM     66  C   UNL A   1      40.418  34.069  32.983  1.00  0.00     0.031 C 
ATOM     67  C   UNL A   1      39.659  32.990  30.920  1.00  0.00     0.031 A 
BRANCH  54  68
ATOM     68  C   UNL A   1      41.880  29.978  28.717  1.00  0.00    -0.014 A 
ATOM     69  C   UNL A   1      40.493  29.743  28.938  1.00  0.00     0.009 A 
ATOM     70  C   UNL A   1      42.297  29.619  27.431  1.00  0.00     0.009 A 
ATOM     71  C   UNL A   1      39.630  29.067  28.047  1.00  0.00     0.001 A 
ATOM     72  C   UNL A   1      41.428  29.014  26.494  1.00  0.00     0.001 A 
ATOM     73  C   UNL A   1      40.111  28.694  26.813  1.00  0.00     0.000 A 
ENDBRANCH  54  68
BRANCH  55  74
ATOM     74  C   UNL A   1      39.154  32.148  36.074  1.00  0.00    -0.014 A 
ATOM     75  C   UNL A   1      39.944  32.362  37.211  1.00  0.00     0.009 A 
ATOM     76  C   UNL A   1      37.804  32.649  36.398  1.00  0.00     0.009 A 
ATOM     77  C   UNL A   1      39.462  33.100  38.386  1.00  0.00     0.001 A 
ATOM     78  C   UNL A   1      37.338  33.451  37.463  1.00  0.00     0.001 A 
ATOM     79  C   UNL A   1      38.194  33.687  38.488  1.00  0.00     0.000 A 
ENDBRANCH  55  74
BRANCH  67  80
ATOM     80  C   UNL A   1      38.455  32.362  30.273  1.00  0.00    -0.014 A 
ATOM     81  C   UNL A   1      37.848  33.005  29.175  1.00  0.00     0.009 A 
ATOM     82  C   UNL A   1      37.763  31.297  30.846  1.00  0.00     0.009 A 
ATOM     83  C   UNL A   1      36.582  32.630  28.715  1.00  0.00     0.001 A 
ATOM     84  C   UNL A   1      36.501  30.902  30.380  1.00  0.00     0.001 A 
ATOM     85  C   UNL A   1      35.904  31.579  29.321  1.00  0.00     0.000 A 
ENDBRANCH  67  80
ENDBRANCH  41  42
ENDBRANCH  34  36
ENDBRANCH  33  34
ENDBRANCH  32  33
ENDBRANCH  31  32
ENDBRANCH  30  31
ENDBRANCH   1  30
TORSDOF 18
ENDMDL
MODEL 2
REMARK VINA RESULT:     -11.4      2.960      4.800
REMARK SMILES Cc1c(CC(=O)OCCOCCOC(=O)c2ccc(-c3c4nc(c(-c5ccccc5)c5ccc([nH]5)c(-c5ccccc5)c5nc(c(-c6ccccc6)c6ccc3[nH]6)C=C5)C=C4)cc2)cc(-c2ccc(S(C)(=O)=O)cc2)n1-c1cccc(F)c1
REMARK SMILES IDX 9 1 8 2 7 3 5 4 6 5 4 6 3 7 1 8 2 9 76 10 64 11 65 12 77 13
REMARK SMILES IDX 78 14 83 15 79 16 81 17 80 18 82 19 66 20 67 21 75 22 68 23
REMARK SMILES IDX 74 24 69 25 70 26 71 27 72 28 73 29 10 30 11 31 12 32 13 33
REMARK SMILES IDX 14 34 15 35 16 36 17 37 63 38 18 39 62 40 19 41 20 42 21 43
REMARK SMILES IDX 56 44 22 45 61 46 55 47 57 48 23 49 60 50 54 51 53 52 24 54
REMARK SMILES IDX 46 55 31 56 45 57 32 58 35 59 44 60 58 61 33 62 34 63 43 65
REMARK SMILES IDX 59 66 36 67 25 68 26 69 30 70 27 71 29 72 28 73 47 74 48 75
REMARK SMILES IDX 52 76 49 77 51 78 50 79 37 80 38 81 42 82 39 83 41 84 40 85
REMARK H PARENT 57 53 35 64
REMARK Flexibility Score: inf
ROOT
ATOM      1  C   UNL A   1      37.091  22.944  25.087  1.00  0.00     0.202 C 
ENDROOT
BRANCH   1   2
ATOM      2  C   UNL A   1      35.925  22.111  25.668  1.00  0.00     0.261 C 
BRANCH   2   3
ATOM      3  O   UNL A   1      34.610  22.633  25.384  1.00  0.00    -0.463 OA
BRANCH   3   4
ATOM      4  C   UNL A   1      33.656  22.376  26.323  1.00  0.00     0.310 C 
ATOM      5  O   UNL A   1      33.840  21.678  27.320  1.00  0.00    -0.252 OA
BRANCH   4   6
ATOM      6  C   UNL A   1      32.280  22.915  26.002  1.00  0.00     0.160 C 
BRANCH   6   7
ATOM      7  C   UNL A   1      32.127  24.386  25.747  1.00  0.00    -0.015 A 
ATOM      8  C   UNL A   1      31.316  24.385  23.283  1.00  0.00     0.065 C 
ATOM      9  C   UNL A   1      31.695  25.017  24.583  1.00  0.00     0.024 A 
ATOM     10  N   UNL A   1      31.810  26.392  24.760  1.00  0.00    -0.313 N 
ATOM     11  C   UNL A   1      32.590  25.415  26.610  1.00  0.00     0.033 A 
ATOM     12  C   UNL A   1      32.454  26.634  25.969  1.00  0.00     0.053 A 
BRANCH  10  13
ATOM     13  C   UNL A   1      31.345  27.392  23.868  1.00  0.00     0.049 A 
ATOM     14  C   UNL A   1      32.253  28.155  23.124  1.00  0.00     0.027 A 
ATOM     15  C   UNL A   1      29.977  27.664  23.816  1.00  0.00     0.065 A 
ATOM     16  C   UNL A   1      31.782  29.201  22.324  1.00  0.00     0.005 A 
ATOM     17  C   UNL A   1      29.533  28.736  23.051  1.00  0.00     0.125 A 
ATOM     18  C   UNL A   1      30.421  29.503  22.302  1.00  0.00     0.039 A 
ATOM     19  F   UNL A   1      28.231  29.051  23.055  1.00  0.00    -0.207 F 
ENDBRANCH  10  13
BRANCH  12  20
ATOM     20  C   UNL A   1      32.853  27.952  26.465  1.00  0.00    -0.001 A 
ATOM     21  C   UNL A   1      31.917  28.983  26.618  1.00  0.00     0.011 A 
ATOM     22  C   UNL A   1      34.195  28.186  26.799  1.00  0.00     0.011 A 
ATOM     23  C   UNL A   1      32.316  30.237  27.084  1.00  0.00     0.021 A 
ATOM     24  C   UNL A   1      34.604  29.441  27.259  1.00  0.00     0.021 A 
ATOM     25  C   UNL A   1      33.659  30.462  27.392  1.00  0.00     0.067 A 
BRANCH  25  26
ATOM     26  S   UNL A   1      34.176  32.048  28.009  1.00  0.00     0.175 S 
ATOM     27  C   UNL A   1      32.861  33.146  27.545  1.00  0.00     0.163 C 
ATOM     28  O   UNL A   1      34.171  31.940  29.478  1.00  0.00    -0.224 OA
ATOM     29  O   UNL A   1      35.351  32.445  27.306  1.00  0.00    -0.224 OA
ENDBRANCH  25  26
ENDBRANCH  12  20
ENDBRANCH   6   7
ENDBRANCH   4   6
ENDBRANCH   3   4
ENDBRANCH   2   3
ENDBRANCH   1   2
BRANCH   1  30
ATOM     30  O   UNL A   1      38.257  23.079  25.892  1.00  0.00    -0.374 OA
BRANCH  30  31
ATOM     31  C   UNL A   1      38.947  21.857  26.128  1.00  0.00     0.202 C 
BRANCH  31  32
ATOM     32  C   UNL A   1      40.526  21.835  26.146  1.00  0.00     0.261 C 
BRANCH  32  33
ATOM     33  O   UNL A   1      41.411  22.739  26.933  1.00  0.00    -0.460 OA
BRANCH  33  34
ATOM     34  C   UNL A   1      41.674  24.029  26.446  1.00  0.00     0.338 C 
ATOM     35  O   UNL A   1      42.418  24.216  25.493  1.00  0.00    -0.246 OA
BRANCH  34  36
ATOM     36  C   UNL A   1      41.120  25.259  27.263  1.00  0.00     0.060 A 
ATOM     37  C   UNL A   1      41.544  26.623  27.358  1.00  0.00     0.016 A 
ATOM     38  C   UNL A   1      40.147  25.038  28.173  1.00  0.00     0.016 A 
ATOM     39  C   UNL A   1      40.918  27.761  28.284  1.00  0.00     0.010 A 
ATOM     40  C   UNL A   1      39.637  26.146  29.007  1.00  0.00     0.010 A 
ATOM     41  C   UNL A   1      39.882  27.583  29.235  1.00  0.00    -0.014 A 
BRANCH  41  42
ATOM     42  C   UNL A   1      38.548  28.758  29.781  1.00  0.00     0.031 A 
ATOM     43  C   UNL A   1      38.249  28.109  31.103  1.00  0.00     0.074 A 
ATOM     44  C   UNL A   1      38.002  30.189  29.821  1.00  0.00     0.049 A 
ATOM     45  N   UNL A   1      39.316  27.593  31.664  1.00  0.00    -0.248 NA
ATOM     46  C   UNL A   1      37.333  28.552  32.128  1.00  0.00     0.031 C 
ATOM     47  C   UNL A   1      38.486  31.405  29.100  1.00  0.00     0.029 A 
ATOM     48  N   UNL A   1      36.919  30.992  30.664  1.00  0.00    -0.354 N 
ATOM     49  C   UNL A   1      39.635  28.602  32.520  1.00  0.00     0.074 A 
ATOM     50  C   UNL A   1      38.262  28.756  33.084  1.00  0.00     0.031 C 
ATOM     51  C   UNL A   1      38.009  32.593  29.595  1.00  0.00     0.029 A 
ATOM     52  C   UNL A   1      36.992  32.490  30.702  1.00  0.00     0.049 A 
ATOM     53  H   UNL A   1      36.211  30.513  31.154  1.00  0.00     0.167 HD
ATOM     54  C   UNL A   1      40.691  29.532  32.379  1.00  0.00     0.031 A 
ATOM     55  C   UNL A   1      36.432  33.749  31.244  1.00  0.00     0.031 A 
ATOM     56  C   UNL A   1      40.806  30.460  33.471  1.00  0.00     0.049 A 
ATOM     57  C   UNL A   1      37.635  34.096  32.081  1.00  0.00     0.074 A 
ATOM     58  C   UNL A   1      39.834  30.836  34.367  1.00  0.00     0.029 A 
ATOM     59  N   UNL A   1      41.449  31.679  33.240  1.00  0.00    -0.354 N 
ATOM     60  N   UNL A   1      38.617  34.885  31.773  1.00  0.00    -0.248 NA
ATOM     61  C   UNL A   1      37.562  33.750  33.550  1.00  0.00     0.031 C 
ATOM     62  C   UNL A   1      39.314  31.727  33.421  1.00  0.00     0.029 A 
ATOM     63  C   UNL A   1      40.395  32.525  33.019  1.00  0.00     0.049 A 
ATOM     64  H   UNL A   1      42.413  31.878  33.237  1.00  0.00     0.167 HD
ATOM     65  C   UNL A   1      39.494  34.644  32.818  1.00  0.00     0.074 A 
ATOM     66  C   UNL A   1      38.687  34.322  33.987  1.00  0.00     0.031 C 
ATOM     67  C   UNL A   1      40.536  33.842  32.456  1.00  0.00     0.031 A 
BRANCH  54  68
ATOM     68  C   UNL A   1      41.740  29.874  31.164  1.00  0.00    -0.014 A 
ATOM     69  C   UNL A   1      41.609  30.845  30.130  1.00  0.00     0.009 A 
ATOM     70  C   UNL A   1      42.893  29.093  31.036  1.00  0.00     0.009 A 
ATOM     71  C   UNL A   1      42.435  30.934  28.988  1.00  0.00     0.001 A 
ATOM     72  C   UNL A   1      43.778  29.222  29.942  1.00  0.00     0.001 A 
ATOM     73  C   UNL A   1      43.529  30.104  28.895  1.00  0.00     0.000 A 
ENDBRANCH  54  68
BRANCH  55  74
ATOM     74  C   UNL A   1      35.422  34.932  32.036  1.00  0.00    -0.014 A 
ATOM     75  C   UNL A   1      35.207  35.073  33.414  1.00  0.00     0.009 A 
ATOM     76  C   UNL A   1      34.328  35.658  31.363  1.00  0.00     0.009 A 
ATOM     77  C   UNL A   1      34.158  35.937  33.970  1.00  0.00     0.001 A 
ATOM     78  C   UNL A   1      33.376  36.577  31.857  1.00  0.00     0.001 A 
ATOM     79  C   UNL A   1      33.289  36.724  33.203  1.00  0.00     0.000 A 
ENDBRANCH  55  74
BRANCH  67  80
ATOM     80  C   UNL A   1      41.168  34.291  31.166  1.00  0.00    -0.014 A 
ATOM     81  C   UNL A   1      42.487  34.786  31.180  1.00  0.00     0.009 A 
ATOM     82  C   UNL A   1      40.438  34.464  29.992  1.00  0.00     0.009 A 
ATOM     83  C   UNL A   1      43.025  35.472  30.086  1.00  0.00     0.001 A 
ATOM     84  C   UNL A   1      40.974  35.134  28.882  1.00  0.00     0.001 A 
ATOM     85  C   UNL A   1      42.265  35.650  28.936  1.00  0.00     0.000 A 
ENDBRANCH  67  80
ENDBRANCH  41  42
ENDBRANCH  34  36
ENDBRANCH  33  34
ENDBRANCH  32  33
ENDBRANCH  31  32
ENDBRANCH  30  31
ENDBRANCH   1  30
TORSDOF 18
ENDMDL
MODEL 3
REMARK VINA RESULT:     -11.3      4.678      7.599
REMARK SMILES Cc1c(CC(=O)OCCOCCOC(=O)c2ccc(-c3c4nc(c(-c5ccccc5)c5ccc([nH]5)c(-c5ccccc5)c5nc(c(-c6ccccc6)c6ccc3[nH]6)C=C5)C=C4)cc2)cc(-c2ccc(S(C)(=O)=O)cc2)n1-c1cccc(F)c1
REMARK SMILES IDX 9 1 8 2 7 3 5 4 6 5 4 6 3 7 1 8 2 9 76 10 64 11 65 12 77 13
REMARK SMILES IDX 78 14 83 15 79 16 81 17 80 18 82 19 66 20 67 21 75 22 68 23
REMARK SMILES IDX 74 24 69 25 70 26 71 27 72 28 73 29 10 30 11 31 12 32 13 33
REMARK SMILES IDX 14 34 15 35 16 36 17 37 63 38 18 39 62 40 19 41 20 42 21 43
REMARK SMILES IDX 56 44 22 45 61 46 55 47 57 48 23 49 60 50 54 51 53 52 24 54
REMARK SMILES IDX 46 55 31 56 45 57 32 58 35 59 44 60 58 61 33 62 34 63 43 65
REMARK SMILES IDX 59 66 36 67 25 68 26 69 30 70 27 71 29 72 28 73 47 74 48 75
REMARK SMILES IDX 52 76 49 77 51 78 50 79 37 80 38 81 42 82 39 83 41 84 40 85
REMARK H PARENT 57 53 35 64
REMARK Flexibility Score: inf
ROOT
ATOM      1  C   UNL A   1      42.439  18.159  26.560  1.00  0.00     0.202 C 
ENDROOT
BRANCH   1   2
ATOM      2  C   UNL A   1      41.431  19.330  26.518  1.00  0.00     0.261 C 
BRANCH   2   3
ATOM      3  O   UNL A   1      41.967  20.601  26.942  1.00  0.00    -0.463 OA
BRANCH   3   4
ATOM      4  C   UNL A   1      41.666  21.664  26.143  1.00  0.00     0.310 C 
ATOM      5  O   UNL A   1      42.254  21.927  25.094  1.00  0.00    -0.252 OA
BRANCH   4   6
ATOM      6  C   UNL A   1      40.615  22.602  26.694  1.00  0.00     0.160 C 
BRANCH   6   7
ATOM      7  C   UNL A   1      39.204  22.468  26.199  1.00  0.00    -0.015 A 
ATOM      8  C   UNL A   1      38.212  24.763  26.893  1.00  0.00     0.065 C 
ATOM      9  C   UNL A   1      38.177  23.405  26.269  1.00  0.00     0.024 A 
ATOM     10  N   UNL A   1      37.013  22.817  25.782  1.00  0.00    -0.313 N 
ATOM     11  C   UNL A   1      38.614  21.262  25.734  1.00  0.00     0.033 A 
ATOM     12  C   UNL A   1      37.259  21.469  25.547  1.00  0.00     0.053 A 
BRANCH  10  13
ATOM     13  C   UNL A   1      35.777  23.474  25.552  1.00  0.00     0.049 A 
ATOM     14  C   UNL A   1      34.786  23.486  26.542  1.00  0.00     0.027 A 
ATOM     15  C   UNL A   1      35.532  24.026  24.294  1.00  0.00     0.065 A 
ATOM     16  C   UNL A   1      33.539  24.053  26.263  1.00  0.00     0.005 A 
ATOM     17  C   UNL A   1      34.271  24.544  24.020  1.00  0.00     0.125 A 
ATOM     18  C   UNL A   1      33.276  24.567  24.993  1.00  0.00     0.039 A 
ATOM     19  F   UNL A   1      34.003  25.006  22.792  1.00  0.00    -0.207 F 
ENDBRANCH  10  13
BRANCH  12  20
ATOM     20  C   UNL A   1      36.256  20.488  25.128  1.00  0.00    -0.001 A 
ATOM     21  C   UNL A   1      34.921  20.857  24.924  1.00  0.00     0.011 A 
ATOM     22  C   UNL A   1      36.641  19.155  24.922  1.00  0.00     0.011 A 
ATOM     23  C   UNL A   1      33.975  19.907  24.533  1.00  0.00     0.021 A 
ATOM     24  C   UNL A   1      35.700  18.196  24.538  1.00  0.00     0.021 A 
ATOM     25  C   UNL A   1      34.369  18.579  24.352  1.00  0.00     0.067 A 
BRANCH  25  26
ATOM     26  S   UNL A   1      33.179  17.364  23.832  1.00  0.00     0.175 S 
ATOM     27  C   UNL A   1      32.530  16.711  25.348  1.00  0.00     0.163 C 
ATOM     28  O   UNL A   1      32.098  18.106  23.164  1.00  0.00    -0.224 OA
ATOM     29  O   UNL A   1      33.873  16.313  23.160  1.00  0.00    -0.224 OA
ENDBRANCH  25  26
ENDBRANCH  12  20
ENDBRANCH   6   7
ENDBRANCH   4   6
ENDBRANCH   3   4
ENDBRANCH   2   3
ENDBRANCH   1   2
BRANCH   1  30
ATOM     30  O   UNL A   1      43.800  18.481  26.829  1.00  0.00    -0.374 OA
BRANCH  30  31
ATOM     31  C   UNL A   1      44.696  18.152  25.773  1.00  0.00     0.202 C 
BRANCH  31  32
ATOM     32  C   UNL A   1      44.470  18.755  24.331  1.00  0.00     0.261 C 
BRANCH  32  33
ATOM     33  O   UNL A   1      45.423  19.618  23.577  1.00  0.00    -0.460 OA
BRANCH  33  34
ATOM     34  C   UNL A   1      46.322  20.426  24.291  1.00  0.00     0.338 C 
ATOM     35  O   UNL A   1      47.442  20.033  24.589  1.00  0.00    -0.246 OA
BRANCH  34  36
ATOM     36  C   UNL A   1      45.797  21.801  24.856  1.00  0.00     0.060 A 
ATOM     37  C   UNL A   1      45.608  22.288  26.189  1.00  0.00     0.016 A 
ATOM     38  C   UNL A   1      45.280  22.696  23.986  1.00  0.00     0.016 A 
ATOM     39  C   UNL A   1      45.003  23.699  26.620  1.00  0.00     0.010 A 
ATOM     40  C   UNL A   1      44.720  23.974  24.471  1.00  0.00     0.010 A 
ATOM     41  C   UNL A   1      44.472  24.679  25.744  1.00  0.00    -0.014 A 
BRANCH  41  42
ATOM     42  C   UNL A   1      44.473  26.534  25.884  1.00  0.00     0.031 A 
ATOM     43  C   UNL A   1      43.145  26.777  25.227  1.00  0.00     0.074 A 
ATOM     44  C   UNL A   1      44.840  27.784  26.691  1.00  0.00     0.049 A 
ATOM     45  N   UNL A   1      42.275  25.830  25.480  1.00  0.00    -0.248 NA
ATOM     46  C   UNL A   1      42.451  28.033  25.053  1.00  0.00     0.031 C 
ATOM     47  C   UNL A   1      45.669  27.898  27.929  1.00  0.00     0.029 A 
ATOM     48  N   UNL A   1      44.429  29.319  26.696  1.00  0.00    -0.354 N 
ATOM     49  C   UNL A   1      41.590  26.414  26.501  1.00  0.00     0.074 A 
ATOM     50  C   UNL A   1      41.378  27.719  25.808  1.00  0.00     0.031 C 
ATOM     51  C   UNL A   1      45.537  29.090  28.597  1.00  0.00     0.029 A 
ATOM     52  C   UNL A   1      44.677  30.133  27.932  1.00  0.00     0.049 A 
ATOM     53  H   UNL A   1      44.017  29.731  25.902  1.00  0.00     0.167 HD
ATOM     54  C   UNL A   1      41.684  26.098  27.877  1.00  0.00     0.031 A 
ATOM     55  C   UNL A   1      44.533  31.443  28.609  1.00  0.00     0.031 A 
ATOM     56  C   UNL A   1      40.802  26.862  28.716  1.00  0.00     0.049 A 
ATOM     57  C   UNL A   1      43.543  30.966  29.639  1.00  0.00     0.074 A 
ATOM     58  C   UNL A   1      40.231  28.084  28.452  1.00  0.00     0.029 A 
ATOM     59  N   UNL A   1      41.129  27.001  30.068  1.00  0.00    -0.354 N 
ATOM     60  N   UNL A   1      43.784  30.577  30.853  1.00  0.00    -0.248 NA
ATOM     61  C   UNL A   1      42.086  31.254  29.364  1.00  0.00     0.031 C 
ATOM     62  C   UNL A   1      41.425  28.716  28.817  1.00  0.00     0.029 A 
ATOM     63  C   UNL A   1      41.737  28.228  30.094  1.00  0.00     0.049 A 
ATOM     64  H   UNL A   1      40.964  26.377  30.811  1.00  0.00     0.167 HD
ATOM     65  C   UNL A   1      42.548  30.073  31.225  1.00  0.00     0.074 A 
ATOM     66  C   UNL A   1      41.541  30.849  30.515  1.00  0.00     0.031 C 
ATOM     67  C   UNL A   1      42.509  28.710  31.210  1.00  0.00     0.031 A 
BRANCH  54  68
ATOM     68  C   UNL A   1      42.688  25.136  28.749  1.00  0.00    -0.014 A 
ATOM     69  C   UNL A   1      42.536  23.756  29.065  1.00  0.00     0.009 A 
ATOM     70  C   UNL A   1      43.816  25.711  29.343  1.00  0.00     0.009 A 
ATOM     71  C   UNL A   1      43.314  23.046  30.006  1.00  0.00     0.001 A 
ATOM     72  C   UNL A   1      44.657  24.994  30.225  1.00  0.00     0.001 A 
ATOM     73  C   UNL A   1      44.383  23.680  30.595  1.00  0.00     0.000 A 
ENDBRANCH  54  68
BRANCH  55  74
ATOM     74  C   UNL A   1      44.231  33.126  28.960  1.00  0.00    -0.014 A 
ATOM     75  C   UNL A   1      43.680  34.083  28.098  1.00  0.00     0.009 A 
ATOM     76  C   UNL A   1      44.903  33.871  30.042  1.00  0.00     0.009 A 
ATOM     77  C   UNL A   1      43.688  35.521  28.397  1.00  0.00     0.001 A 
ATOM     78  C   UNL A   1      44.841  35.231  30.416  1.00  0.00     0.001 A 
ATOM     79  C   UNL A   1      44.212  36.083  29.569  1.00  0.00     0.000 A 
ENDBRANCH  55  74
BRANCH  67  80
ATOM     80  C   UNL A   1      43.696  28.107  31.910  1.00  0.00    -0.014 A 
ATOM     81  C   UNL A   1      43.494  27.352  33.083  1.00  0.00     0.009 A 
ATOM     82  C   UNL A   1      45.010  28.448  31.595  1.00  0.00     0.009 A 
ATOM     83  C   UNL A   1      44.555  27.008  33.926  1.00  0.00     0.001 A 
ATOM     84  C   UNL A   1      46.083  28.092  32.424  1.00  0.00     0.001 A 
ATOM     85  C   UNL A   1      45.853  27.382  33.598  1.00  0.00     0.000 A 
ENDBRANCH  67  80
ENDBRANCH  41  42
ENDBRANCH  34  36
ENDBRANCH  33  34
ENDBRANCH  32  33
ENDBRANCH  31  32
ENDBRANCH  30  31
ENDBRANCH   1  30
TORSDOF 18
ENDMDL
