MODEL 1
REMARK VINA RESULT:      -9.6      0.000      0.000
REMARK SMILES O=C(Cc1ccc(F)cc1F)N[C@H](CCO)C(=O)OCCOCCOC(=O)c1ccc(-c2c3nc(c(-c4ccccc4)c4ccc([nH]4)c(-c4ccccc4)c4nc(c(-c5ccccc5)c5ccc2[nH]5)C=C4)C=C3)cc1
REMARK SMILES IDX 21 1 20 2 19 3 17 4 18 5 13 6 12 7 1 8 2 9 3 11 4 12 5 13
REMARK SMILES IDX 10 14 6 15 9 16 11 17 7 18 8 19 14 20 15 21 16 22 22 24
REMARK SMILES IDX 23 25 24 26 25 27 26 28 27 29 28 30 29 31 75 32 30 33 74 34
REMARK SMILES IDX 31 35 32 36 33 37 68 38 34 39 73 40 67 41 69 42 35 43 72 44
REMARK SMILES IDX 66 45 65 46 36 48 58 49 43 50 57 51 44 52 47 53 56 54 70 55
REMARK SMILES IDX 45 56 46 57 55 59 71 60 48 61 37 62 38 63 42 64 39 65 41 66
REMARK SMILES IDX 40 67 59 68 60 69 64 70 61 71 63 72 62 73 49 74 50 75 54 76
REMARK SMILES IDX 51 77 53 78 52 79
REMARK H PARENT 12 10 16 23 69 47 47 58
REMARK Flexibility Score: inf
ROOT
ATOM      1  C   UNL A   1      33.808  20.335  24.825  1.00  0.00     0.202 C 
ENDROOT
BRANCH   1   2
ATOM      2  C   UNL A   1      32.923  21.182  25.743  1.00  0.00     0.261 C 
BRANCH   2   3
ATOM      3  O   UNL A   1      33.462  22.506  25.913  1.00  0.00    -0.462 OA
BRANCH   3   4
ATOM      4  C   UNL A   1      32.762  23.336  26.729  1.00  0.00     0.328 C 
ATOM      5  O   UNL A   1      32.150  22.974  27.732  1.00  0.00    -0.250 OA
BRANCH   4   6
ATOM      6  C   UNL A   1      32.640  24.769  26.185  1.00  0.00     0.194 C 
BRANCH   6   7
ATOM      7  N   UNL A   1      31.436  24.792  25.360  1.00  0.00    -0.342 N 
ATOM      8  O   UNL A   1      30.371  26.503  26.469  1.00  0.00    -0.275 OA
ATOM      9  C   UNL A   1      30.451  25.745  25.508  1.00  0.00     0.225 C 
ATOM     10  H   UNL A   1      31.322  24.100  24.670  1.00  0.00     0.164 HD
BRANCH   9  11
ATOM     11  C   UNL A   1      29.503  25.828  24.325  1.00  0.00     0.138 C 
BRANCH  11  12
ATOM     12  C   UNL A   1      29.610  27.166  23.638  1.00  0.00    -0.003 A 
ATOM     13  C   UNL A   1      30.848  27.657  23.200  1.00  0.00     0.010 A 
ATOM     14  C   UNL A   1      28.456  27.918  23.373  1.00  0.00     0.129 A 
ATOM     15  C   UNL A   1      30.916  28.876  22.521  1.00  0.00     0.040 A 
ATOM     16  C   UNL A   1      28.513  29.122  22.684  1.00  0.00     0.078 A 
ATOM     17  F   UNL A   1      27.264  27.464  23.786  1.00  0.00    -0.207 F 
ATOM     18  C   UNL A   1      29.749  29.593  22.267  1.00  0.00     0.126 A 
ATOM     19  F   UNL A   1      29.823  30.755  21.606  1.00  0.00    -0.207 F 
ENDBRANCH  11  12
ENDBRANCH   9  11
ENDBRANCH   6   7
BRANCH   6  20
ATOM     20  C   UNL A   1      33.882  25.407  25.550  1.00  0.00     0.065 C 
BRANCH  20  21
ATOM     21  C   UNL A   1      33.791  25.421  24.025  1.00  0.00     0.159 C 
BRANCH  21  22
ATOM     22  O   UNL A   1      33.563  24.112  23.526  1.00  0.00    -0.396 OA
ATOM     23  H   UNL A   1      34.131  23.484  23.998  1.00  0.00     0.210 HD
ENDBRANCH  21  22
ENDBRANCH  20  21
ENDBRANCH   6  20
ENDBRANCH   4   6
ENDBRANCH   3   4
ENDBRANCH   2   3
ENDBRANCH   1   2
BRANCH   1  24
ATOM     24  O   UNL A   1      35.186  20.706  24.731  1.00  0.00    -0.374 OA
BRANCH  24  25
ATOM     25  C   UNL A   1      36.154  19.674  24.903  1.00  0.00     0.202 C 
BRANCH  25  26
ATOM     26  C   UNL A   1      37.631  20.058  24.740  1.00  0.00     0.261 C 
BRANCH  26  27
ATOM     27  O   UNL A   1      38.034  21.157  25.571  1.00  0.00    -0.460 OA
BRANCH  27  28
ATOM     28  C   UNL A   1      39.252  21.008  26.139  1.00  0.00     0.338 C 
ATOM     29  O   UNL A   1      39.967  20.013  26.120  1.00  0.00    -0.246 OA
BRANCH  28  30
ATOM     30  C   UNL A   1      39.720  22.290  26.693  1.00  0.00     0.060 A 
ATOM     31  C   UNL A   1      39.141  23.458  26.182  1.00  0.00     0.016 A 
ATOM     32  C   UNL A   1      40.758  22.356  27.624  1.00  0.00     0.016 A 
ATOM     33  C   UNL A   1      39.637  24.702  26.558  1.00  0.00     0.010 A 
ATOM     34  C   UNL A   1      41.262  23.607  27.996  1.00  0.00     0.010 A 
ATOM     35  C   UNL A   1      40.729  24.780  27.434  1.00  0.00    -0.014 A 
BRANCH  35  36
ATOM     36  C   UNL A   1      41.398  26.086  27.632  1.00  0.00     0.031 A 
ATOM     37  C   UNL A   1      40.735  27.119  28.501  1.00  0.00     0.074 A 
ATOM     38  C   UNL A   1      42.603  26.326  27.086  1.00  0.00     0.049 A 
ATOM     39  N   UNL A   1      41.153  28.313  28.833  1.00  0.00    -0.248 NA
ATOM     40  C   UNL A   1      39.427  26.756  29.072  1.00  0.00     0.031 C 
ATOM     41  C   UNL A   1      43.356  25.386  26.258  1.00  0.00     0.029 A 
ATOM     42  N   UNL A   1      43.404  27.437  27.156  1.00  0.00    -0.354 N 
ATOM     43  C   UNL A   1      40.158  28.846  29.645  1.00  0.00     0.074 A 
ATOM     44  C   UNL A   1      39.106  27.858  29.733  1.00  0.00     0.031 C 
ATOM     45  C   UNL A   1      44.515  25.962  25.894  1.00  0.00     0.029 A 
ATOM     46  C   UNL A   1      44.570  27.316  26.441  1.00  0.00     0.049 A 
ATOM     47  H   UNL A   1      43.166  28.243  27.667  1.00  0.00     0.167 HD
ATOM     48  C   UNL A   1      40.128  30.048  30.267  1.00  0.00     0.031 A 
ATOM     49  C   UNL A   1      45.562  28.203  26.243  1.00  0.00     0.031 A 
ATOM     50  C   UNL A   1      41.172  31.033  30.167  1.00  0.00     0.049 A 
ATOM     51  C   UNL A   1      45.479  29.556  26.895  1.00  0.00     0.074 A 
ATOM     52  C   UNL A   1      41.247  32.276  30.772  1.00  0.00     0.029 A 
ATOM     53  N   UNL A   1      42.318  30.888  29.403  1.00  0.00    -0.354 N 
ATOM     54  N   UNL A   1      44.550  30.036  27.688  1.00  0.00    -0.248 NA
ATOM     55  C   UNL A   1      46.586  30.487  26.635  1.00  0.00     0.031 C 
ATOM     56  C   UNL A   1      42.415  32.905  30.329  1.00  0.00     0.029 A 
ATOM     57  C   UNL A   1      43.095  32.031  29.497  1.00  0.00     0.049 A 
ATOM     58  H   UNL A   1      42.547  30.091  28.872  1.00  0.00     0.167 HD
ATOM     59  C   UNL A   1      44.970  31.312  28.038  1.00  0.00     0.074 A 
ATOM     60  C   UNL A   1      46.246  31.526  27.385  1.00  0.00     0.031 C 
ATOM     61  C   UNL A   1      44.358  32.225  28.832  1.00  0.00     0.031 A 
BRANCH  48  62
ATOM     62  C   UNL A   1      38.907  30.377  31.080  1.00  0.00    -0.014 A 
ATOM     63  C   UNL A   1      38.861  30.134  32.463  1.00  0.00     0.009 A 
ATOM     64  C   UNL A   1      37.795  30.964  30.458  1.00  0.00     0.009 A 
ATOM     65  C   UNL A   1      37.713  30.440  33.196  1.00  0.00     0.001 A 
ATOM     66  C   UNL A   1      36.658  31.294  31.198  1.00  0.00     0.001 A 
ATOM     67  C   UNL A   1      36.614  31.023  32.565  1.00  0.00     0.000 A 
ENDBRANCH  48  62
BRANCH  49  68
ATOM     68  C   UNL A   1      46.716  27.844  25.377  1.00  0.00    -0.014 A 
ATOM     69  C   UNL A   1      46.667  28.052  23.991  1.00  0.00     0.009 A 
ATOM     70  C   UNL A   1      47.877  27.288  25.939  1.00  0.00     0.009 A 
ATOM     71  C   UNL A   1      47.749  27.694  23.183  1.00  0.00     0.001 A 
ATOM     72  C   UNL A   1      48.967  26.955  25.133  1.00  0.00     0.001 A 
ATOM     73  C   UNL A   1      48.900  27.151  23.755  1.00  0.00     0.000 A 
ENDBRANCH  49  68
BRANCH  61  74
ATOM     74  C   UNL A   1      45.074  33.527  29.059  1.00  0.00    -0.014 A 
ATOM     75  C   UNL A   1      46.005  33.675  30.098  1.00  0.00     0.009 A 
ATOM     76  C   UNL A   1      44.845  34.605  28.190  1.00  0.00     0.009 A 
ATOM     77  C   UNL A   1      46.670  34.889  30.282  1.00  0.00     0.001 A 
ATOM     78  C   UNL A   1      45.532  35.808  28.357  1.00  0.00     0.001 A 
ATOM     79  C   UNL A   1      46.436  35.951  29.409  1.00  0.00     0.000 A 
ENDBRANCH  61  74
ENDBRANCH  35  36
ENDBRANCH  28  30
ENDBRANCH  27  28
ENDBRANCH  26  27
ENDBRANCH  25  26
ENDBRANCH  24  25
ENDBRANCH   1  24
TORSDOF 20
ENDMDL
MODEL 2
REMARK VINA RESULT:      -9.3      1.125      6.212
REMARK SMILES O=C(Cc1ccc(F)cc1F)N[C@H](CCO)C(=O)OCCOCCOC(=O)c1ccc(-c2c3nc(c(-c4ccccc4)c4ccc([nH]4)c(-c4ccccc4)c4nc(c(-c5ccccc5)c5ccc2[nH]5)C=C4)C=C3)cc1
REMARK SMILES IDX 21 1 20 2 19 3 17 4 18 5 13 6 12 7 1 8 2 9 3 11 4 12 5 13
REMARK SMILES IDX 10 14 6 15 9 16 11 17 7 18 8 19 14 20 15 21 16 22 22 24
REMARK SMILES IDX 23 25 24 26 25 27 26 28 27 29 28 30 29 31 75 32 30 33 74 34
REMARK SMILES IDX 31 35 32 36 33 37 68 38 34 39 73 40 67 41 69 42 35 43 72 44
REMARK SMILES IDX 66 45 65 46 36 48 58 49 43 50 57 51 44 52 47 53 56 54 70 55
REMARK SMILES IDX 45 56 46 57 55 59 71 60 48 61 37 62 38 63 42 64 39 65 41 66
REMARK SMILES IDX 40 67 59 68 60 69 64 70 61 71 63 72 62 73 49 74 50 75 54 76
REMARK SMILES IDX 51 77 53 78 52 79
REMARK H PARENT 12 10 16 23 69 47 47 58
REMARK Flexibility Score: inf
ROOT
ATOM      1  C   UNL A   1      34.768  20.712  24.827  1.00  0.00     0.202 C 
ENDROOT
BRANCH   1   2
ATOM      2  C   UNL A   1      33.277  20.738  25.170  1.00  0.00     0.261 C 
BRANCH   2   3
ATOM      3  O   UNL A   1      33.036  21.430  26.409  1.00  0.00    -0.462 OA
BRANCH   3   4
ATOM      4  C   UNL A   1      33.188  22.779  26.380  1.00  0.00     0.328 C 
ATOM      5  O   UNL A   1      33.939  23.411  27.120  1.00  0.00    -0.250 OA
BRANCH   4   6
ATOM      6  C   UNL A   1      32.187  23.488  25.453  1.00  0.00     0.194 C 
BRANCH   6   7
ATOM      7  N   UNL A   1      32.975  24.368  24.595  1.00  0.00    -0.342 N 
ATOM      8  O   UNL A   1      32.509  23.311  22.606  1.00  0.00    -0.275 OA
ATOM      9  C   UNL A   1      32.971  24.267  23.220  1.00  0.00     0.225 C 
ATOM     10  H   UNL A   1      33.532  25.062  25.015  1.00  0.00     0.164 HD
BRANCH   9  11
ATOM     11  C   UNL A   1      33.528  25.492  22.519  1.00  0.00     0.138 C 
BRANCH  11  12
ATOM     12  C   UNL A   1      32.568  26.652  22.611  1.00  0.00    -0.003 A 
ATOM     13  C   UNL A   1      31.182  26.441  22.648  1.00  0.00     0.010 A 
ATOM     14  C   UNL A   1      33.052  27.964  22.718  1.00  0.00     0.129 A 
ATOM     15  C   UNL A   1      30.314  27.527  22.783  1.00  0.00     0.040 A 
ATOM     16  C   UNL A   1      32.197  29.046  22.870  1.00  0.00     0.078 A 
ATOM     17  F   UNL A   1      34.374  28.183  22.683  1.00  0.00    -0.207 F 
ATOM     18  C   UNL A   1      30.829  28.816  22.897  1.00  0.00     0.126 A 
ATOM     19  F   UNL A   1      29.990  29.850  23.036  1.00  0.00    -0.207 F 
ENDBRANCH  11  12
ENDBRANCH   9  11
ENDBRANCH   6   7
BRANCH   6  20
ATOM     20  C   UNL A   1      30.946  24.129  26.087  1.00  0.00     0.065 C 
BRANCH  20  21
ATOM     21  C   UNL A   1      30.176  23.133  26.953  1.00  0.00     0.159 C 
BRANCH  21  22
ATOM     22  O   UNL A   1      29.897  21.949  26.222  1.00  0.00    -0.396 OA
ATOM     23  H   UNL A   1      30.223  21.180  26.716  1.00  0.00     0.210 HD
ENDBRANCH  21  22
ENDBRANCH  20  21
ENDBRANCH   6  20
ENDBRANCH   4   6
ENDBRANCH   3   4
ENDBRANCH   2   3
ENDBRANCH   1   2
BRANCH   1  24
ATOM     24  O   UNL A   1      35.370  19.427  24.652  1.00  0.00    -0.374 OA
BRANCH  24  25
ATOM     25  C   UNL A   1      36.741  19.291  25.019  1.00  0.00     0.202 C 
BRANCH  25  26
ATOM     26  C   UNL A   1      37.685  20.449  24.666  1.00  0.00     0.261 C 
BRANCH  26  27
ATOM     27  O   UNL A   1      37.996  21.297  25.782  1.00  0.00    -0.460 OA
BRANCH  27  28
ATOM     28  C   UNL A   1      39.279  21.215  26.202  1.00  0.00     0.338 C 
ATOM     29  O   UNL A   1      40.069  20.299  26.011  1.00  0.00    -0.246 OA
BRANCH  28  30
ATOM     30  C   UNL A   1      39.695  22.481  26.829  1.00  0.00     0.060 A 
ATOM     31  C   UNL A   1      39.055  23.650  26.397  1.00  0.00     0.016 A 
ATOM     32  C   UNL A   1      40.741  22.540  27.751  1.00  0.00     0.016 A 
ATOM     33  C   UNL A   1      39.499  24.891  26.844  1.00  0.00     0.010 A 
ATOM     34  C   UNL A   1      41.192  23.787  28.193  1.00  0.00     0.010 A 
ATOM     35  C   UNL A   1      40.598  24.966  27.710  1.00  0.00    -0.014 A 
BRANCH  35  36
ATOM     36  C   UNL A   1      41.209  26.288  27.981  1.00  0.00     0.031 A 
ATOM     37  C   UNL A   1      42.531  26.622  27.347  1.00  0.00     0.074 A 
ATOM     38  C   UNL A   1      40.569  27.193  28.741  1.00  0.00     0.049 A 
ATOM     39  N   UNL A   1      43.231  27.724  27.424  1.00  0.00    -0.248 NA
ATOM     40  C   UNL A   1      43.145  25.574  26.515  1.00  0.00     0.031 C 
ATOM     41  C   UNL A   1      39.267  26.993  29.375  1.00  0.00     0.029 A 
ATOM     42  N   UNL A   1      40.930  28.467  29.099  1.00  0.00    -0.354 N 
ATOM     43  C   UNL A   1      44.368  27.501  26.656  1.00  0.00     0.074 A 
ATOM     44  C   UNL A   1      44.279  26.151  26.146  1.00  0.00     0.031 C 
ATOM     45  C   UNL A   1      38.937  28.109  30.049  1.00  0.00     0.029 A 
ATOM     46  C   UNL A   1      40.015  29.087  29.913  1.00  0.00     0.049 A 
ATOM     47  H   UNL A   1      41.766  28.894  28.804  1.00  0.00     0.167 HD
ATOM     48  C   UNL A   1      45.392  28.347  26.396  1.00  0.00     0.031 A 
ATOM     49  C   UNL A   1      40.051  30.301  30.492  1.00  0.00     0.031 A 
ATOM     50  C   UNL A   1      45.484  29.685  26.916  1.00  0.00     0.049 A 
ATOM     51  C   UNL A   1      41.228  31.202  30.236  1.00  0.00     0.074 A 
ATOM     52  C   UNL A   1      46.471  30.631  26.697  1.00  0.00     0.029 A 
ATOM     53  N   UNL A   1      44.555  30.263  27.767  1.00  0.00    -0.354 N 
ATOM     54  N   UNL A   1      42.281  30.993  29.482  1.00  0.00    -0.248 NA
ATOM     55  C   UNL A   1      41.217  32.512  30.902  1.00  0.00     0.031 C 
ATOM     56  C   UNL A   1      46.166  31.762  27.462  1.00  0.00     0.029 A 
ATOM     57  C   UNL A   1      44.960  31.542  28.108  1.00  0.00     0.049 A 
ATOM     58  H   UNL A   1      43.731  29.827  28.083  1.00  0.00     0.167 HD
ATOM     59  C   UNL A   1      43.044  32.149  29.564  1.00  0.00     0.074 A 
ATOM     60  C   UNL A   1      42.326  33.064  30.429  1.00  0.00     0.031 C 
ATOM     61  C   UNL A   1      44.233  32.432  28.976  1.00  0.00     0.031 A 
BRANCH  48  62
ATOM     62  C   UNL A   1      46.514  27.832  25.538  1.00  0.00    -0.014 A 
ATOM     63  C   UNL A   1      46.556  28.086  24.157  1.00  0.00     0.009 A 
ATOM     64  C   UNL A   1      47.561  27.105  26.125  1.00  0.00     0.009 A 
ATOM     65  C   UNL A   1      47.605  27.591  23.379  1.00  0.00     0.001 A 
ATOM     66  C   UNL A   1      48.622  26.634  25.350  1.00  0.00     0.001 A 
ATOM     67  C   UNL A   1      48.638  26.870  23.976  1.00  0.00     0.000 A 
ENDBRANCH  48  62
BRANCH  49  68
ATOM     68  C   UNL A   1      38.940  30.731  31.382  1.00  0.00    -0.014 A 
ATOM     69  C   UNL A   1      38.970  30.452  32.755  1.00  0.00     0.009 A 
ATOM     70  C   UNL A   1      37.840  31.428  30.855  1.00  0.00     0.009 A 
ATOM     71  C   UNL A   1      37.912  30.843  33.580  1.00  0.00     0.001 A 
ATOM     72  C   UNL A   1      36.797  31.842  31.686  1.00  0.00     0.001 A 
ATOM     73  C   UNL A   1      36.830  31.543  33.046  1.00  0.00     0.000 A 
ENDBRANCH  49  68
BRANCH  61  74
ATOM     74  C   UNL A   1      44.816  33.795  29.226  1.00  0.00    -0.014 A 
ATOM     75  C   UNL A   1      45.709  34.022  30.284  1.00  0.00     0.009 A 
ATOM     76  C   UNL A   1      44.501  34.854  28.360  1.00  0.00     0.009 A 
ATOM     77  C   UNL A   1      46.251  35.293  30.489  1.00  0.00     0.001 A 
ATOM     78  C   UNL A   1      45.065  36.115  28.549  1.00  0.00     0.001 A 
ATOM     79  C   UNL A   1      45.932  36.336  29.619  1.00  0.00     0.000 A 
ENDBRANCH  61  74
ENDBRANCH  35  36
ENDBRANCH  28  30
ENDBRANCH  27  28
ENDBRANCH  26  27
ENDBRANCH  25  26
ENDBRANCH  24  25
ENDBRANCH   1  24
TORSDOF 20
ENDMDL
MODEL 3
REMARK VINA RESULT:      -9.2      5.618     10.091
REMARK SMILES O=C(Cc1ccc(F)cc1F)N[C@H](CCO)C(=O)OCCOCCOC(=O)c1ccc(-c2c3nc(c(-c4ccccc4)c4ccc([nH]4)c(-c4ccccc4)c4nc(c(-c5ccccc5)c5ccc2[nH]5)C=C4)C=C3)cc1
REMARK SMILES IDX 21 1 20 2 19 3 17 4 18 5 13 6 12 7 1 8 2 9 3 11 4 12 5 13
REMARK SMILES IDX 10 14 6 15 9 16 11 17 7 18 8 19 14 20 15 21 16 22 22 24
REMARK SMILES IDX 23 25 24 26 25 27 26 28 27 29 28 30 29 31 75 32 30 33 74 34
REMARK SMILES IDX 31 35 32 36 33 37 68 38 34 39 73 40 67 41 69 42 35 43 72 44
REMARK SMILES IDX 66 45 65 46 36 48 58 49 43 50 57 51 44 52 47 53 56 54 70 55
REMARK SMILES IDX 45 56 46 57 55 59 71 60 48 61 37 62 38 63 42 64 39 65 41 66
REMARK SMILES IDX 40 67 59 68 60 69 64 70 61 71 63 72 62 73 49 74 50 75 54 76
REMARK SMILES IDX 51 77 53 78 52 79
REMARK H PARENT 12 10 16 23 69 47 47 58
REMARK Flexibility Score: inf
ROOT
ATOM      1  C   UNL A   1      34.795  35.846  33.558  1.00  0.00     0.202 C 
ENDROOT
BRANCH   1   2
ATOM      2  C   UNL A   1      33.543  36.702  33.350  1.00  0.00     0.261 C 
BRANCH   2   3
ATOM      3  O   UNL A   1      32.690  36.145  32.334  1.00  0.00    -0.462 OA
BRANCH   3   4
ATOM      4  C   UNL A   1      32.990  36.478  31.052  1.00  0.00     0.328 C 
ATOM      5  O   UNL A   1      32.903  37.613  30.589  1.00  0.00    -0.250 OA
BRANCH   4   6
ATOM      6  C   UNL A   1      33.277  35.263  30.155  1.00  0.00     0.194 C 
BRANCH   6   7
ATOM      7  N   UNL A   1      34.642  34.842  30.459  1.00  0.00    -0.342 N 
ATOM      8  O   UNL A   1      34.108  32.799  31.373  1.00  0.00    -0.275 OA
ATOM      9  C   UNL A   1      34.944  33.586  30.940  1.00  0.00     0.225 C 
ATOM     10  H   UNL A   1      35.376  35.481  30.315  1.00  0.00     0.164 HD
BRANCH   9  11
ATOM     11  C   UNL A   1      36.413  33.226  30.818  1.00  0.00     0.138 C 
BRANCH  11  12
ATOM     12  C   UNL A   1      36.593  31.941  30.047  1.00  0.00    -0.003 A 
ATOM     13  C   UNL A   1      36.698  31.945  28.650  1.00  0.00     0.010 A 
ATOM     14  C   UNL A   1      36.717  30.721  30.728  1.00  0.00     0.129 A 
ATOM     15  C   UNL A   1      36.914  30.749  27.962  1.00  0.00     0.040 A 
ATOM     16  C   UNL A   1      36.949  29.530  30.053  1.00  0.00     0.078 A 
ATOM     17  F   UNL A   1      36.618  30.699  32.065  1.00  0.00    -0.207 F 
ATOM     18  C   UNL A   1      37.042  29.556  28.670  1.00  0.00     0.126 A 
ATOM     19  F   UNL A   1      37.260  28.416  28.002  1.00  0.00    -0.207 F 
ENDBRANCH  11  12
ENDBRANCH   9  11
ENDBRANCH   6   7
BRANCH   6  20
ATOM     20  C   UNL A   1      32.943  35.372  28.662  1.00  0.00     0.065 C 
BRANCH  20  21
ATOM     21  C   UNL A   1      33.539  34.214  27.864  1.00  0.00     0.159 C 
BRANCH  21  22
ATOM     22  O   UNL A   1      34.770  34.598  27.270  1.00  0.00    -0.396 OA
ATOM     23  H   UNL A   1      34.767  34.350  26.333  1.00  0.00     0.210 HD
ENDBRANCH  21  22
ENDBRANCH  20  21
ENDBRANCH   6  20
ENDBRANCH   4   6
ENDBRANCH   3   4
ENDBRANCH   2   3
ENDBRANCH   1   2
BRANCH   1  24
ATOM     24  O   UNL A   1      34.620  34.596  34.229  1.00  0.00    -0.374 OA
BRANCH  24  25
ATOM     25  C   UNL A   1      35.748  34.061  34.919  1.00  0.00     0.202 C 
BRANCH  25  26
ATOM     26  C   UNL A   1      36.389  32.790  34.345  1.00  0.00     0.261 C 
BRANCH  26  27
ATOM     27  O   UNL A   1      37.373  32.203  35.210  1.00  0.00    -0.460 OA
BRANCH  27  28
ATOM     28  C   UNL A   1      38.630  32.663  35.015  1.00  0.00     0.338 C 
ATOM     29  O   UNL A   1      39.281  33.390  35.755  1.00  0.00    -0.246 OA
BRANCH  28  30
ATOM     30  C   UNL A   1      39.221  32.046  33.815  1.00  0.00     0.060 A 
ATOM     31  C   UNL A   1      39.801  30.781  33.966  1.00  0.00     0.016 A 
ATOM     32  C   UNL A   1      39.286  32.720  32.594  1.00  0.00     0.016 A 
ATOM     33  C   UNL A   1      40.500  30.206  32.909  1.00  0.00     0.010 A 
ATOM     34  C   UNL A   1      39.996  32.146  31.535  1.00  0.00     0.010 A 
ATOM     35  C   UNL A   1      40.638  30.906  31.703  1.00  0.00    -0.014 A 
BRANCH  35  36
ATOM     36  C   UNL A   1      41.582  30.398  30.681  1.00  0.00     0.031 A 
ATOM     37  C   UNL A   1      42.832  31.181  30.393  1.00  0.00     0.074 A 
ATOM     38  C   UNL A   1      41.349  29.231  30.058  1.00  0.00     0.049 A 
ATOM     39  N   UNL A   1      43.807  30.910  29.562  1.00  0.00    -0.248 NA
ATOM     40  C   UNL A   1      43.010  32.437  31.141  1.00  0.00     0.031 C 
ATOM     41  C   UNL A   1      40.190  28.369  30.284  1.00  0.00     0.029 A 
ATOM     42  N   UNL A   1      42.085  28.568  29.109  1.00  0.00    -0.354 N 
ATOM     43  C   UNL A   1      44.707  31.961  29.683  1.00  0.00     0.074 A 
ATOM     44  C   UNL A   1      44.152  32.888  30.645  1.00  0.00     0.031 C 
ATOM     45  C   UNL A   1      40.293  27.287  29.493  1.00  0.00     0.029 A 
ATOM     46  C   UNL A   1      41.509  27.395  28.690  1.00  0.00     0.049 A 
ATOM     47  H   UNL A   1      42.944  28.901  28.762  1.00  0.00     0.167 HD
ATOM     48  C   UNL A   1      45.893  32.136  29.054  1.00  0.00     0.031 A 
ATOM     49  C   UNL A   1      41.912  26.516  27.753  1.00  0.00     0.031 A 
ATOM     50  C   UNL A   1      46.436  31.218  28.089  1.00  0.00     0.049 A 
ATOM     51  C   UNL A   1      43.204  26.761  27.024  1.00  0.00     0.074 A 
ATOM     52  C   UNL A   1      47.638  31.293  27.407  1.00  0.00     0.029 A 
ATOM     53  N   UNL A   1      45.803  30.061  27.663  1.00  0.00    -0.354 N 
ATOM     54  N   UNL A   1      44.064  27.742  27.171  1.00  0.00    -0.248 NA
ATOM     55  C   UNL A   1      43.589  25.773  26.006  1.00  0.00     0.031 C 
ATOM     56  C   UNL A   1      47.707  30.207  26.527  1.00  0.00     0.029 A 
ATOM     57  C   UNL A   1      46.576  29.427  26.705  1.00  0.00     0.049 A 
ATOM     58  H   UNL A   1      44.933  29.738  27.992  1.00  0.00     0.167 HD
ATOM     59  C   UNL A   1      45.098  27.477  26.284  1.00  0.00     0.074 A 
ATOM     60  C   UNL A   1      44.768  26.236  25.614  1.00  0.00     0.031 C 
ATOM     61  C   UNL A   1      46.224  28.195  26.046  1.00  0.00     0.031 A 
BRANCH  48  62
ATOM     62  C   UNL A   1      46.664  33.389  29.366  1.00  0.00    -0.014 A 
ATOM     63  C   UNL A   1      46.471  34.569  28.630  1.00  0.00     0.009 A 
ATOM     64  C   UNL A   1      47.579  33.395  30.430  1.00  0.00     0.009 A 
ATOM     65  C   UNL A   1      47.204  35.718  28.932  1.00  0.00     0.001 A 
ATOM     66  C   UNL A   1      48.291  34.553  30.747  1.00  0.00     0.001 A 
ATOM     67  C   UNL A   1      48.110  35.711  29.993  1.00  0.00     0.000 A 
ENDBRANCH  48  62
BRANCH  49  68
ATOM     68  C   UNL A   1      41.076  25.327  27.444  1.00  0.00    -0.014 A 
ATOM     69  C   UNL A   1      39.923  25.444  26.654  1.00  0.00     0.009 A 
ATOM     70  C   UNL A   1      41.431  24.062  27.942  1.00  0.00     0.009 A 
ATOM     71  C   UNL A   1      39.133  24.324  26.385  1.00  0.00     0.001 A 
ATOM     72  C   UNL A   1      40.654  22.939  27.650  1.00  0.00     0.001 A 
ATOM     73  C   UNL A   1      39.502  23.072  26.878  1.00  0.00     0.000 A 
ENDBRANCH  49  68
BRANCH  61  74
ATOM     74  C   UNL A   1      47.192  27.641  25.039  1.00  0.00    -0.014 A 
ATOM     75  C   UNL A   1      47.107  27.985  23.681  1.00  0.00     0.009 A 
ATOM     76  C   UNL A   1      48.231  26.799  25.465  1.00  0.00     0.009 A 
ATOM     77  C   UNL A   1      48.027  27.471  22.765  1.00  0.00     0.001 A 
ATOM     78  C   UNL A   1      49.165  26.309  24.553  1.00  0.00     0.001 A 
ATOM     79  C   UNL A   1      49.056  26.638  23.202  1.00  0.00     0.000 A 
ENDBRANCH  61  74
ENDBRANCH  35  36
ENDBRANCH  28  30
ENDBRANCH  27  28
ENDBRANCH  26  27
ENDBRANCH  25  26
ENDBRANCH  24  25
ENDBRANCH   1  24
TORSDOF 20
ENDMDL
