MODEL 1
REMARK VINA RESULT:     -11.7      0.000      0.000
REMARK SMILES C[C@@H]1CCc2nc(NC(=O)[C@H]3CC=CC[C@@H]3C(=O)OCCOCCOC(=O)c3ccc(-c4c5nc(c(-c6ccccc6)c6ccc([nH]6)c(-c6ccccc6)c6nc(c(-c7ccccc7)c7ccc4[nH]7)C=C6)C=C5)cc3)sc2C1
REMARK SMILES IDX 22 1 21 2 20 3 19 4 17 5 18 6 16 7 11 8 12 9 13 10 15 11
REMARK SMILES IDX 14 12 9 13 8 14 10 16 7 17 1 18 2 19 3 20 78 21 4 22 77 23
REMARK SMILES IDX 5 24 76 25 6 26 23 27 24 28 25 29 26 30 27 31 28 32 29 33
REMARK SMILES IDX 75 34 30 35 74 36 31 37 32 38 33 39 68 40 34 41 73 42 67 43
REMARK SMILES IDX 69 44 35 45 72 46 66 47 65 48 36 50 58 51 43 52 57 53 44 54
REMARK SMILES IDX 47 55 56 56 70 57 45 58 46 59 55 61 71 62 48 63 37 64 38 65
REMARK SMILES IDX 42 66 39 67 41 68 40 69 59 70 60 71 64 72 61 73 63 74 62 75
REMARK SMILES IDX 49 76 50 77 54 78 51 79 53 80 52 81
REMARK H PARENT 8 15 69 49 47 60
REMARK Flexibility Score: inf
ROOT
ATOM      1  O   UNL A   1      40.656  21.540  26.078  1.00  0.00    -0.374 OA
ENDROOT
BRANCH   1   2
ATOM      2  C   UNL A   1      39.345  22.081  26.265  1.00  0.00     0.202 C 
BRANCH   2   3
ATOM      3  C   UNL A   1      38.297  21.378  25.400  1.00  0.00     0.261 C 
BRANCH   3   4
ATOM      4  O   UNL A   1      36.996  21.824  25.818  1.00  0.00    -0.463 OA
BRANCH   4   5
ATOM      5  C   UNL A   1      35.895  21.157  25.363  1.00  0.00     0.310 C 
ATOM      6  O   UNL A   1      35.883  20.013  24.940  1.00  0.00    -0.252 OA
BRANCH   5   7
ATOM      7  C   UNL A   1      34.661  21.992  25.696  1.00  0.00     0.116 C 
ATOM      8  C   UNL A   1      33.501  21.866  24.716  1.00  0.00     0.097 C 
ATOM      9  C   UNL A   1      33.877  22.594  23.392  1.00  0.00     0.041 C 
ATOM     10  C   UNL A   1      34.785  23.792  23.536  1.00  0.00    -0.030 C 
ATOM     11  C   UNL A   1      35.021  23.459  25.964  1.00  0.00     0.043 C 
ATOM     12  C   UNL A   1      35.302  24.194  24.702  1.00  0.00    -0.030 C 
BRANCH   8  13
ATOM     13  C   UNL A   1      32.018  22.181  25.099  1.00  0.00     0.230 C 
ATOM     14  N   UNL A   1      31.302  23.333  25.062  1.00  0.00    -0.302 N 
ATOM     15  H   UNL A   1      30.335  23.170  25.149  1.00  0.00     0.172 HD
ATOM     16  O   UNL A   1      31.324  21.198  25.426  1.00  0.00    -0.274 OA
BRANCH  14  17
ATOM     17  C   UNL A   1      31.585  24.655  24.935  1.00  0.00     0.189 A 
ATOM     18  C   UNL A   1      32.412  29.446  25.673  1.00  0.00     0.008 C 
ATOM     19  C   UNL A   1      33.680  28.771  25.175  1.00  0.00    -0.009 C 
ATOM     20  C   UNL A   1      33.697  28.577  23.637  1.00  0.00     0.010 C 
ATOM     21  C   UNL A   1      33.850  27.450  25.911  1.00  0.00     0.052 C 
ATOM     22  C   UNL A   1      32.630  27.592  23.106  1.00  0.00     0.058 C 
ATOM     23  C   UNL A   1      32.816  26.547  25.379  1.00  0.00     0.030 A 
ATOM     24  C   UNL A   1      32.387  26.479  24.069  1.00  0.00     0.057 A 
ATOM     25  S   UNL A   1      31.641  25.708  26.268  1.00  0.00    -0.101 S 
ATOM     26  N   UNL A   1      31.685  25.316  23.794  1.00  0.00    -0.225 NA
ENDBRANCH  14  17
ENDBRANCH   8  13
ENDBRANCH   5   7
ENDBRANCH   4   5
ENDBRANCH   3   4
ENDBRANCH   2   3
ENDBRANCH   1   2
BRANCH   1  27
ATOM     27  C   UNL A   1      40.966  20.408  26.888  1.00  0.00     0.202 C 
BRANCH  27  28
ATOM     28  C   UNL A   1      42.342  19.815  26.604  1.00  0.00     0.261 C 
BRANCH  28  29
ATOM     29  O   UNL A   1      42.870  20.330  25.378  1.00  0.00    -0.460 OA
BRANCH  29  30
ATOM     30  C   UNL A   1      44.197  20.141  25.139  1.00  0.00     0.338 C 
ATOM     31  O   UNL A   1      44.840  19.113  25.238  1.00  0.00    -0.246 OA
BRANCH  30  32
ATOM     32  C   UNL A   1      44.760  21.496  25.008  1.00  0.00     0.060 A 
ATOM     33  C   UNL A   1      45.620  21.898  26.029  1.00  0.00     0.016 A 
ATOM     34  C   UNL A   1      44.110  22.432  24.209  1.00  0.00     0.016 A 
ATOM     35  C   UNL A   1      45.501  23.192  26.513  1.00  0.00     0.010 A 
ATOM     36  C   UNL A   1      44.062  23.737  24.659  1.00  0.00     0.010 A 
ATOM     37  C   UNL A   1      44.574  24.052  25.926  1.00  0.00    -0.014 A 
BRANCH  37  38
ATOM     38  C   UNL A   1      44.124  25.266  26.619  1.00  0.00     0.031 A 
ATOM     39  C   UNL A   1      44.987  26.444  26.397  1.00  0.00     0.074 A 
ATOM     40  C   UNL A   1      42.982  25.427  27.331  1.00  0.00     0.049 A 
ATOM     41  N   UNL A   1      46.080  26.675  27.041  1.00  0.00    -0.248 NA
ATOM     42  C   UNL A   1      44.762  27.342  25.256  1.00  0.00     0.031 C 
ATOM     43  C   UNL A   1      41.823  24.537  27.488  1.00  0.00     0.029 A 
ATOM     44  N   UNL A   1      42.592  26.534  28.038  1.00  0.00    -0.354 N 
ATOM     45  C   UNL A   1      46.562  27.866  26.530  1.00  0.00     0.074 A 
ATOM     46  C   UNL A   1      45.889  28.056  25.273  1.00  0.00     0.031 C 
ATOM     47  C   UNL A   1      40.790  25.218  28.057  1.00  0.00     0.029 A 
ATOM     48  C   UNL A   1      41.281  26.509  28.506  1.00  0.00     0.049 A 
ATOM     49  H   UNL A   1      43.197  27.293  28.204  1.00  0.00     0.167 HD
ATOM     50  C   UNL A   1      47.225  28.754  27.317  1.00  0.00     0.031 A 
ATOM     51  C   UNL A   1      40.684  27.459  29.271  1.00  0.00     0.031 A 
ATOM     52  C   UNL A   1      47.399  28.226  28.651  1.00  0.00     0.049 A 
ATOM     53  C   UNL A   1      41.768  28.119  30.029  1.00  0.00     0.074 A 
ATOM     54  C   UNL A   1      48.107  27.193  29.228  1.00  0.00     0.029 A 
ATOM     55  N   UNL A   1      46.400  28.570  29.534  1.00  0.00    -0.354 N 
ATOM     56  N   UNL A   1      42.484  27.499  30.921  1.00  0.00    -0.248 NA
ATOM     57  C   UNL A   1      42.303  29.393  29.575  1.00  0.00     0.031 C 
ATOM     58  C   UNL A   1      47.299  26.732  30.310  1.00  0.00     0.029 A 
ATOM     59  C   UNL A   1      46.151  27.524  30.384  1.00  0.00     0.049 A 
ATOM     60  H   UNL A   1      45.934  29.437  29.551  1.00  0.00     0.167 HD
ATOM     61  C   UNL A   1      43.745  28.049  30.791  1.00  0.00     0.074 A 
ATOM     62  C   UNL A   1      43.532  29.314  30.096  1.00  0.00     0.031 C 
ATOM     63  C   UNL A   1      44.857  27.285  30.992  1.00  0.00     0.031 A 
BRANCH  50  64
ATOM     64  C   UNL A   1      47.322  30.235  27.058  1.00  0.00    -0.014 A 
ATOM     65  C   UNL A   1      48.471  30.908  27.504  1.00  0.00     0.009 A 
ATOM     66  C   UNL A   1      46.259  31.036  26.601  1.00  0.00     0.009 A 
ATOM     67  C   UNL A   1      48.533  32.305  27.536  1.00  0.00     0.001 A 
ATOM     68  C   UNL A   1      46.333  32.431  26.590  1.00  0.00     0.001 A 
ATOM     69  C   UNL A   1      47.463  33.067  27.080  1.00  0.00     0.000 A 
ENDBRANCH  50  64
BRANCH  51  70
ATOM     70  C   UNL A   1      39.292  27.940  29.399  1.00  0.00    -0.014 A 
ATOM     71  C   UNL A   1      38.692  28.096  30.662  1.00  0.00     0.009 A 
ATOM     72  C   UNL A   1      38.688  28.583  28.305  1.00  0.00     0.009 A 
ATOM     73  C   UNL A   1      37.561  28.909  30.834  1.00  0.00     0.001 A 
ATOM     74  C   UNL A   1      37.564  29.403  28.479  1.00  0.00     0.001 A 
ATOM     75  C   UNL A   1      37.011  29.580  29.745  1.00  0.00     0.000 A 
ENDBRANCH  51  70
BRANCH  63  76
ATOM     76  C   UNL A   1      44.671  25.975  31.720  1.00  0.00    -0.014 A 
ATOM     77  C   UNL A   1      44.409  24.755  31.072  1.00  0.00     0.009 A 
ATOM     78  C   UNL A   1      44.876  25.958  33.107  1.00  0.00     0.009 A 
ATOM     79  C   UNL A   1      44.340  23.558  31.794  1.00  0.00     0.001 A 
ATOM     80  C   UNL A   1      44.828  24.761  33.825  1.00  0.00     0.001 A 
ATOM     81  C   UNL A   1      44.557  23.562  33.170  1.00  0.00     0.000 A 
ENDBRANCH  63  76
ENDBRANCH  37  38
ENDBRANCH  30  32
ENDBRANCH  29  30
ENDBRANCH  28  29
ENDBRANCH  27  28
ENDBRANCH   1  27
TORSDOF 16
ENDMDL
MODEL 2
REMARK VINA RESULT:     -11.5      4.874      9.782
REMARK SMILES C[C@@H]1CCc2nc(NC(=O)[C@H]3CC=CC[C@@H]3C(=O)OCCOCCOC(=O)c3ccc(-c4c5nc(c(-c6ccccc6)c6ccc([nH]6)c(-c6ccccc6)c6nc(c(-c7ccccc7)c7ccc4[nH]7)C=C6)C=C5)cc3)sc2C1
REMARK SMILES IDX 22 1 21 2 20 3 19 4 17 5 18 6 16 7 11 8 12 9 13 10 15 11
REMARK SMILES IDX 14 12 9 13 8 14 10 16 7 17 1 18 2 19 3 20 78 21 4 22 77 23
REMARK SMILES IDX 5 24 76 25 6 26 23 27 24 28 25 29 26 30 27 31 28 32 29 33
REMARK SMILES IDX 75 34 30 35 74 36 31 37 32 38 33 39 68 40 34 41 73 42 67 43
REMARK SMILES IDX 69 44 35 45 72 46 66 47 65 48 36 50 58 51 43 52 57 53 44 54
REMARK SMILES IDX 47 55 56 56 70 57 45 58 46 59 55 61 71 62 48 63 37 64 38 65
REMARK SMILES IDX 42 66 39 67 41 68 40 69 59 70 60 71 64 72 61 73 63 74 62 75
REMARK SMILES IDX 49 76 50 77 54 78 51 79 53 80 52 81
REMARK H PARENT 8 15 69 49 47 60
REMARK Flexibility Score: inf
ROOT
ATOM      1  O   UNL A   1      34.213  32.354  28.719  1.00  0.00    -0.374 OA
ENDROOT
BRANCH   1   2
ATOM      2  C   UNL A   1      34.338  31.400  27.660  1.00  0.00     0.202 C 
BRANCH   2   3
ATOM      3  C   UNL A   1      32.987  30.811  27.246  1.00  0.00     0.261 C 
BRANCH   3   4
ATOM      4  O   UNL A   1      33.181  30.038  26.050  1.00  0.00    -0.463 OA
BRANCH   4   5
ATOM      5  C   UNL A   1      32.092  29.712  25.294  1.00  0.00     0.310 C 
ATOM      6  O   UNL A   1      31.090  30.396  25.162  1.00  0.00    -0.252 OA
BRANCH   5   7
ATOM      7  C   UNL A   1      32.440  28.478  24.465  1.00  0.00     0.116 C 
ATOM      8  C   UNL A   1      31.251  27.648  23.996  1.00  0.00     0.097 C 
ATOM      9  C   UNL A   1      30.645  26.898  25.219  1.00  0.00     0.041 C 
ATOM     10  C   UNL A   1      31.623  26.506  26.300  1.00  0.00    -0.030 C 
ATOM     11  C   UNL A   1      33.502  27.610  25.154  1.00  0.00     0.043 C 
ATOM     12  C   UNL A   1      32.923  26.820  26.273  1.00  0.00    -0.030 C 
BRANCH   8  13
ATOM     13  C   UNL A   1      31.307  26.697  22.756  1.00  0.00     0.230 C 
ATOM     14  N   UNL A   1      31.660  25.392  22.635  1.00  0.00    -0.302 N 
ATOM     15  H   UNL A   1      31.376  25.012  21.773  1.00  0.00     0.172 HD
ATOM     16  O   UNL A   1      30.880  27.177  21.688  1.00  0.00    -0.274 OA
BRANCH  14  17
ATOM     17  C   UNL A   1      32.306  24.480  23.406  1.00  0.00     0.189 A 
ATOM     18  C   UNL A   1      35.599  21.495  25.511  1.00  0.00     0.008 C 
ATOM     19  C   UNL A   1      35.094  22.510  26.525  1.00  0.00    -0.009 C 
ATOM     20  C   UNL A   1      33.725  22.121  27.140  1.00  0.00     0.010 C 
ATOM     21  C   UNL A   1      35.044  23.879  25.862  1.00  0.00     0.052 C 
ATOM     22  C   UNL A   1      32.551  22.124  26.136  1.00  0.00     0.058 C 
ATOM     23  C   UNL A   1      33.919  23.836  24.914  1.00  0.00     0.030 A 
ATOM     24  C   UNL A   1      32.712  23.194  25.109  1.00  0.00     0.057 A 
ATOM     25  S   UNL A   1      33.971  24.175  23.254  1.00  0.00    -0.101 S 
ATOM     26  N   UNL A   1      31.731  23.618  24.227  1.00  0.00    -0.225 NA
ENDBRANCH  14  17
ENDBRANCH   8  13
ENDBRANCH   5   7
ENDBRANCH   4   5
ENDBRANCH   3   4
ENDBRANCH   2   3
ENDBRANCH   1   2
BRANCH   1  27
ATOM     27  C   UNL A   1      34.486  33.705  28.353  1.00  0.00     0.202 C 
BRANCH  27  28
ATOM     28  C   UNL A   1      33.801  34.730  29.252  1.00  0.00     0.261 C 
BRANCH  28  29
ATOM     29  O   UNL A   1      33.631  34.207  30.574  1.00  0.00    -0.460 OA
BRANCH  29  30
ATOM     30  C   UNL A   1      33.769  35.076  31.613  1.00  0.00     0.338 C 
ATOM     31  O   UNL A   1      33.371  36.224  31.692  1.00  0.00    -0.246 OA
BRANCH  30  32
ATOM     32  C   UNL A   1      34.743  34.442  32.517  1.00  0.00     0.060 A 
ATOM     33  C   UNL A   1      35.992  35.055  32.590  1.00  0.00     0.016 A 
ATOM     34  C   UNL A   1      34.579  33.105  32.870  1.00  0.00     0.016 A 
ATOM     35  C   UNL A   1      37.119  34.246  32.604  1.00  0.00     0.010 A 
ATOM     36  C   UNL A   1      35.713  32.322  32.958  1.00  0.00     0.010 A 
ATOM     37  C   UNL A   1      36.957  32.862  32.603  1.00  0.00    -0.014 A 
BRANCH  37  38
ATOM     38  C   UNL A   1      38.063  31.970  32.226  1.00  0.00     0.031 A 
ATOM     39  C   UNL A   1      38.899  31.532  33.360  1.00  0.00     0.074 A 
ATOM     40  C   UNL A   1      38.316  31.453  30.999  1.00  0.00     0.049 A 
ATOM     41  N   UNL A   1      39.852  32.233  33.875  1.00  0.00    -0.248 NA
ATOM     42  C   UNL A   1      38.557  30.329  34.132  1.00  0.00     0.031 C 
ATOM     43  C   UNL A   1      37.515  31.488  29.766  1.00  0.00     0.029 A 
ATOM     44  N   UNL A   1      39.384  30.681  30.626  1.00  0.00    -0.354 N 
ATOM     45  C   UNL A   1      40.367  31.458  34.897  1.00  0.00     0.074 A 
ATOM     46  C   UNL A   1      39.365  30.468  35.185  1.00  0.00     0.031 C 
ATOM     47  C   UNL A   1      38.019  30.603  28.863  1.00  0.00     0.029 A 
ATOM     48  C   UNL A   1      39.293  30.111  29.358  1.00  0.00     0.049 A 
ATOM     49  H   UNL A   1      40.162  30.540  31.213  1.00  0.00     0.167 HD
ATOM     50  C   UNL A   1      41.692  31.485  35.202  1.00  0.00     0.031 A 
ATOM     51  C   UNL A   1      40.241  29.355  28.749  1.00  0.00     0.031 A 
ATOM     52  C   UNL A   1      42.386  32.460  34.391  1.00  0.00     0.049 A 
ATOM     53  C   UNL A   1      41.538  29.781  29.320  1.00  0.00     0.074 A 
ATOM     54  C   UNL A   1      42.390  33.832  34.273  1.00  0.00     0.029 A 
ATOM     55  N   UNL A   1      42.920  31.954  33.227  1.00  0.00    -0.354 N 
ATOM     56  N   UNL A   1      42.026  30.974  29.147  1.00  0.00    -0.248 NA
ATOM     57  C   UNL A   1      42.163  28.997  30.373  1.00  0.00     0.031 C 
ATOM     58  C   UNL A   1      42.633  34.097  32.891  1.00  0.00     0.029 A 
ATOM     59  C   UNL A   1      42.812  32.883  32.225  1.00  0.00     0.049 A 
ATOM     60  H   UNL A   1      43.319  31.059  33.129  1.00  0.00     0.167 HD
ATOM     61  C   UNL A   1      42.669  31.257  30.337  1.00  0.00     0.074 A 
ATOM     62  C   UNL A   1      42.878  29.958  30.967  1.00  0.00     0.031 C 
ATOM     63  C   UNL A   1      42.695  32.530  30.824  1.00  0.00     0.031 A 
BRANCH  50  64
ATOM     64  C   UNL A   1      42.447  30.368  35.875  1.00  0.00    -0.014 A 
ATOM     65  C   UNL A   1      43.330  30.702  36.915  1.00  0.00     0.009 A 
ATOM     66  C   UNL A   1      42.503  29.043  35.401  1.00  0.00     0.009 A 
ATOM     67  C   UNL A   1      44.250  29.776  37.418  1.00  0.00     0.001 A 
ATOM     68  C   UNL A   1      43.391  28.103  35.930  1.00  0.00     0.001 A 
ATOM     69  C   UNL A   1      44.282  28.477  36.924  1.00  0.00     0.000 A 
ENDBRANCH  50  64
BRANCH  51  70
ATOM     70  C   UNL A   1      40.191  28.246  27.773  1.00  0.00    -0.014 A 
ATOM     71  C   UNL A   1      41.049  28.221  26.659  1.00  0.00     0.009 A 
ATOM     72  C   UNL A   1      39.556  27.046  28.136  1.00  0.00     0.009 A 
ATOM     73  C   UNL A   1      41.304  27.028  25.966  1.00  0.00     0.001 A 
ATOM     74  C   UNL A   1      39.819  25.852  27.448  1.00  0.00     0.001 A 
ATOM     75  C   UNL A   1      40.705  25.840  26.375  1.00  0.00     0.000 A 
ENDBRANCH  51  70
BRANCH  63  76
ATOM     76  C   UNL A   1      42.356  33.644  29.861  1.00  0.00    -0.014 A 
ATOM     77  C   UNL A   1      41.078  34.220  29.756  1.00  0.00     0.009 A 
ATOM     78  C   UNL A   1      43.399  34.203  29.108  1.00  0.00     0.009 A 
ATOM     79  C   UNL A   1      40.848  35.312  28.912  1.00  0.00     0.001 A 
ATOM     80  C   UNL A   1      43.175  35.306  28.282  1.00  0.00     0.001 A 
ATOM     81  C   UNL A   1      41.900  35.859  28.180  1.00  0.00     0.000 A 
ENDBRANCH  63  76
ENDBRANCH  37  38
ENDBRANCH  30  32
ENDBRANCH  29  30
ENDBRANCH  28  29
ENDBRANCH  27  28
ENDBRANCH   1  27
TORSDOF 16
ENDMDL
MODEL 3
REMARK VINA RESULT:     -10.9      3.253      8.083
REMARK SMILES C[C@@H]1CCc2nc(NC(=O)[C@H]3CC=CC[C@@H]3C(=O)OCCOCCOC(=O)c3ccc(-c4c5nc(c(-c6ccccc6)c6ccc([nH]6)c(-c6ccccc6)c6nc(c(-c7ccccc7)c7ccc4[nH]7)C=C6)C=C5)cc3)sc2C1
REMARK SMILES IDX 22 1 21 2 20 3 19 4 17 5 18 6 16 7 11 8 12 9 13 10 15 11
REMARK SMILES IDX 14 12 9 13 8 14 10 16 7 17 1 18 2 19 3 20 78 21 4 22 77 23
REMARK SMILES IDX 5 24 76 25 6 26 23 27 24 28 25 29 26 30 27 31 28 32 29 33
REMARK SMILES IDX 75 34 30 35 74 36 31 37 32 38 33 39 68 40 34 41 73 42 67 43
REMARK SMILES IDX 69 44 35 45 72 46 66 47 65 48 36 50 58 51 43 52 57 53 44 54
REMARK SMILES IDX 47 55 56 56 70 57 45 58 46 59 55 61 71 62 48 63 37 64 38 65
REMARK SMILES IDX 42 66 39 67 41 68 40 69 59 70 60 71 64 72 61 73 63 74 62 75
REMARK SMILES IDX 49 76 50 77 54 78 51 79 53 80 52 81
REMARK H PARENT 8 15 69 49 47 60
REMARK Flexibility Score: inf
ROOT
ATOM      1  O   UNL A   1      33.865  29.544  27.500  1.00  0.00    -0.374 OA
ENDROOT
BRANCH   1   2
ATOM      2  C   UNL A   1      32.720  30.342  27.183  1.00  0.00     0.202 C 
BRANCH   2   3
ATOM      3  C   UNL A   1      31.764  29.631  26.223  1.00  0.00     0.261 C 
BRANCH   3   4
ATOM      4  O   UNL A   1      32.443  28.485  25.680  1.00  0.00    -0.463 OA
BRANCH   4   5
ATOM      5  C   UNL A   1      32.750  28.473  24.350  1.00  0.00     0.310 C 
ATOM      6  O   UNL A   1      33.380  29.335  23.759  1.00  0.00    -0.252 OA
BRANCH   5   7
ATOM      7  C   UNL A   1      32.383  27.101  23.789  1.00  0.00     0.116 C 
ATOM      8  C   UNL A   1      31.974  27.081  22.321  1.00  0.00     0.097 C 
ATOM      9  C   UNL A   1      30.567  27.732  22.180  1.00  0.00     0.041 C 
ATOM     10  C   UNL A   1      29.639  27.552  23.357  1.00  0.00    -0.030 C 
ATOM     11  C   UNL A   1      31.358  26.380  24.674  1.00  0.00     0.043 C 
ATOM     12  C   UNL A   1      29.990  26.932  24.490  1.00  0.00    -0.030 C 
BRANCH   8  13
ATOM     13  C   UNL A   1      32.068  25.804  21.423  1.00  0.00     0.230 C 
ATOM     14  N   UNL A   1      32.549  24.560  21.672  1.00  0.00    -0.302 N 
ATOM     15  H   UNL A   1      32.265  23.911  20.988  1.00  0.00     0.172 HD
ATOM     16  O   UNL A   1      31.541  25.897  20.297  1.00  0.00    -0.274 OA
BRANCH  14  17
ATOM     17  C   UNL A   1      33.324  23.986  22.628  1.00  0.00     0.189 A 
ATOM     18  C   UNL A   1      35.053  21.637  26.586  1.00  0.00     0.008 C 
ATOM     19  C   UNL A   1      35.454  20.891  25.323  1.00  0.00    -0.009 C 
ATOM     20  C   UNL A   1      36.696  21.504  24.626  1.00  0.00     0.010 C 
ATOM     21  C   UNL A   1      34.254  20.836  24.388  1.00  0.00     0.052 C 
ATOM     22  C   UNL A   1      36.470  22.922  24.053  1.00  0.00     0.058 C 
ATOM     23  C   UNL A   1      34.074  22.202  23.870  1.00  0.00     0.030 A 
ATOM     24  C   UNL A   1      35.078  23.090  23.542  1.00  0.00     0.057 A 
ATOM     25  S   UNL A   1      32.666  23.144  23.949  1.00  0.00    -0.101 S 
ATOM     26  N   UNL A   1      34.631  24.139  22.755  1.00  0.00    -0.225 NA
ENDBRANCH  14  17
ENDBRANCH   8  13
ENDBRANCH   5   7
ENDBRANCH   4   5
ENDBRANCH   3   4
ENDBRANCH   2   3
ENDBRANCH   1   2
BRANCH   1  27
ATOM     27  C   UNL A   1      35.083  30.268  27.658  1.00  0.00     0.202 C 
BRANCH  27  28
ATOM     28  C   UNL A   1      35.991  29.702  28.745  1.00  0.00     0.261 C 
BRANCH  28  29
ATOM     29  O   UNL A   1      37.321  29.519  28.248  1.00  0.00    -0.460 OA
BRANCH  29  30
ATOM     30  C   UNL A   1      38.222  28.922  29.074  1.00  0.00     0.338 C 
ATOM     31  O   UNL A   1      38.014  28.362  30.135  1.00  0.00    -0.246 OA
BRANCH  30  32
ATOM     32  C   UNL A   1      39.541  29.333  28.565  1.00  0.00     0.060 A 
ATOM     33  C   UNL A   1      39.698  29.292  27.181  1.00  0.00     0.016 A 
ATOM     34  C   UNL A   1      40.645  29.289  29.413  1.00  0.00     0.016 A 
ATOM     35  C   UNL A   1      40.887  28.793  26.671  1.00  0.00     0.010 A 
ATOM     36  C   UNL A   1      41.846  28.864  28.880  1.00  0.00     0.010 A 
ATOM     37  C   UNL A   1      41.893  28.407  27.556  1.00  0.00    -0.014 A 
BRANCH  37  38
ATOM     38  C   UNL A   1      42.986  27.527  27.121  1.00  0.00     0.031 A 
ATOM     39  C   UNL A   1      42.612  26.102  27.024  1.00  0.00     0.074 A 
ATOM     40  C   UNL A   1      44.227  27.897  26.721  1.00  0.00     0.049 A 
ATOM     41  N   UNL A   1      42.571  25.291  28.026  1.00  0.00    -0.248 NA
ATOM     42  C   UNL A   1      42.045  25.552  25.785  1.00  0.00     0.031 C 
ATOM     43  C   UNL A   1      44.784  29.232  26.455  1.00  0.00     0.029 A 
ATOM     44  N   UNL A   1      45.271  27.078  26.385  1.00  0.00    -0.354 N 
ATOM     45  C   UNL A   1      42.181  24.074  27.498  1.00  0.00     0.074 A 
ATOM     46  C   UNL A   1      41.602  24.369  26.215  1.00  0.00     0.031 C 
ATOM     47  C   UNL A   1      45.974  29.114  25.805  1.00  0.00     0.029 A 
ATOM     48  C   UNL A   1      46.368  27.716  25.811  1.00  0.00     0.049 A 
ATOM     49  H   UNL A   1      45.248  26.105  26.539  1.00  0.00     0.167 HD
ATOM     50  C   UNL A   1      42.651  22.903  28.004  1.00  0.00     0.031 A 
ATOM     51  C   UNL A   1      47.536  27.130  25.444  1.00  0.00     0.031 A 
ATOM     52  C   UNL A   1      43.488  23.142  29.157  1.00  0.00     0.049 A 
ATOM     53  C   UNL A   1      47.693  25.944  26.314  1.00  0.00     0.074 A 
ATOM     54  C   UNL A   1      43.306  23.617  30.438  1.00  0.00     0.029 A 
ATOM     55  N   UNL A   1      44.829  23.268  28.870  1.00  0.00    -0.354 N 
ATOM     56  N   UNL A   1      47.856  26.031  27.602  1.00  0.00    -0.248 NA
ATOM     57  C   UNL A   1      47.340  24.624  25.817  1.00  0.00     0.031 C 
ATOM     58  C   UNL A   1      44.506  24.319  30.762  1.00  0.00     0.029 A 
ATOM     59  C   UNL A   1      45.394  24.211  29.690  1.00  0.00     0.049 A 
ATOM     60  H   UNL A   1      45.310  22.757  28.179  1.00  0.00     0.167 HD
ATOM     61  C   UNL A   1      47.182  24.936  28.107  1.00  0.00     0.074 A 
ATOM     62  C   UNL A   1      47.052  24.023  26.976  1.00  0.00     0.031 C 
ATOM     63  C   UNL A   1      46.540  25.011  29.307  1.00  0.00     0.031 A 
BRANCH  50  64
ATOM     64  C   UNL A   1      42.746  21.608  27.240  1.00  0.00    -0.014 A 
ATOM     65  C   UNL A   1      43.756  21.487  26.271  1.00  0.00     0.009 A 
ATOM     66  C   UNL A   1      41.771  20.593  27.265  1.00  0.00     0.009 A 
ATOM     67  C   UNL A   1      43.760  20.436  25.348  1.00  0.00     0.001 A 
ATOM     68  C   UNL A   1      41.796  19.518  26.373  1.00  0.00     0.001 A 
ATOM     69  C   UNL A   1      42.779  19.452  25.398  1.00  0.00     0.000 A 
ENDBRANCH  50  64
BRANCH  51  70
ATOM     70  C   UNL A   1      48.528  27.407  24.383  1.00  0.00    -0.014 A 
ATOM     71  C   UNL A   1      49.903  27.205  24.606  1.00  0.00     0.009 A 
ATOM     72  C   UNL A   1      48.092  27.522  23.053  1.00  0.00     0.009 A 
ATOM     73  C   UNL A   1      50.799  27.068  23.535  1.00  0.00     0.001 A 
ATOM     74  C   UNL A   1      48.987  27.376  21.983  1.00  0.00     0.001 A 
ATOM     75  C   UNL A   1      50.337  27.132  22.224  1.00  0.00     0.000 A 
ENDBRANCH  51  70
BRANCH  63  76
ATOM     76  C   UNL A   1      46.909  26.161  30.216  1.00  0.00    -0.014 A 
ATOM     77  C   UNL A   1      46.186  27.365  30.278  1.00  0.00     0.009 A 
ATOM     78  C   UNL A   1      47.964  25.973  31.119  1.00  0.00     0.009 A 
ATOM     79  C   UNL A   1      46.521  28.357  31.207  1.00  0.00     0.001 A 
ATOM     80  C   UNL A   1      48.286  26.953  32.060  1.00  0.00     0.001 A 
ATOM     81  C   UNL A   1      47.567  28.146  32.103  1.00  0.00     0.000 A 
ENDBRANCH  63  76
ENDBRANCH  37  38
ENDBRANCH  30  32
ENDBRANCH  29  30
ENDBRANCH  28  29
ENDBRANCH  27  28
ENDBRANCH   1  27
TORSDOF 16
ENDMDL
