MODEL 1
REMARK VINA RESULT:     -11.8      0.000      0.000
REMARK SMILES CC1(C)[C@@]2(C(=O)OCCOCCOC(=O)c3ccc(-c4c5nc(c(-c6ccccc6)c6ccc([nH]6)c(-c6ccccc6)c6nc(c(-c7ccccc7)c7ccc4[nH]7)C=C6)C=C5)cc3)CC[C@]1(C)/C(=N/NC(=O)c1ccc(Cl)cc1)C2
REMARK SMILES IDX 10 1 9 2 8 3 7 4 5 5 6 6 4 7 1 8 2 9 3 10 66 11 64 12 80 13
REMARK SMILES IDX 65 14 67 15 68 16 69 17 70 18 71 19 72 21 73 22 74 23 79 24
REMARK SMILES IDX 75 25 78 26 76 27 77 28 11 29 12 30 13 31 14 32 15 33 16 34
REMARK SMILES IDX 17 35 63 36 18 37 62 38 19 39 20 40 21 41 56 42 22 43 61 44
REMARK SMILES IDX 55 45 57 46 23 47 60 48 54 49 53 50 24 52 46 53 31 54 45 55
REMARK SMILES IDX 32 56 35 57 44 58 58 59 33 60 34 61 43 63 59 64 36 65 25 66
REMARK SMILES IDX 26 67 30 68 27 69 29 70 28 71 47 72 48 73 52 74 49 75 51 76
REMARK SMILES IDX 50 77 37 78 38 79 42 80 39 81 41 82 40 83
REMARK H PARENT 70 20 57 51 35 62
REMARK Flexibility Score: inf
ROOT
ATOM      1  O   UNL A   1      41.182  20.836  26.789  1.00  0.00    -0.374 OA
ENDROOT
BRANCH   1   2
ATOM      2  C   UNL A   1      39.919  20.730  26.130  1.00  0.00     0.202 C 
BRANCH   2   3
ATOM      3  C   UNL A   1      39.052  21.994  26.138  1.00  0.00     0.261 C 
BRANCH   3   4
ATOM      4  O   UNL A   1      37.708  21.721  25.696  1.00  0.00    -0.463 OA
BRANCH   4   5
ATOM      5  C   UNL A   1      36.905  22.810  25.536  1.00  0.00     0.313 C 
ATOM      6  O   UNL A   1      37.217  23.956  25.819  1.00  0.00    -0.252 OA
BRANCH   5   7
ATOM      7  C   UNL A   1      35.554  22.407  24.976  1.00  0.00     0.079 C 
ATOM      8  C   UNL A   1      34.426  21.933  27.266  1.00  0.00     0.013 C 
ATOM      9  C   UNL A   1      34.323  22.637  25.894  1.00  0.00    -0.008 C 
ATOM     10  C   UNL A   1      33.990  24.121  26.170  1.00  0.00     0.013 C 
ATOM     11  C   UNL A   1      33.358  21.944  24.873  1.00  0.00     0.014 C 
ATOM     12  C   UNL A   1      35.502  20.874  24.685  1.00  0.00     0.021 C 
ATOM     13  C   UNL A   1      35.145  23.143  23.676  1.00  0.00     0.073 C 
ATOM     14  C   UNL A   1      33.992  20.556  24.670  1.00  0.00     0.014 C 
ATOM     15  C   UNL A   1      31.888  21.952  25.226  1.00  0.00     0.018 C 
ATOM     16  C   UNL A   1      33.719  22.692  23.569  1.00  0.00     0.046 C 
ATOM     17  N   UNL A   1      32.835  22.858  22.638  1.00  0.00    -0.181 NA
BRANCH  17  18
ATOM     18  N   UNL A   1      32.989  23.584  21.496  1.00  0.00    -0.243 N 
ATOM     19  C   UNL A   1      32.877  24.915  21.151  1.00  0.00     0.271 C 
ATOM     20  H   UNL A   1      33.242  23.022  20.728  1.00  0.00     0.194 HD
ATOM     21  O   UNL A   1      32.996  25.259  19.975  1.00  0.00    -0.267 OA
BRANCH  19  22
ATOM     22  C   UNL A   1      32.622  25.966  22.141  1.00  0.00     0.041 A 
ATOM     23  C   UNL A   1      31.414  25.902  22.850  1.00  0.00     0.015 A 
ATOM     24  C   UNL A   1      33.572  26.949  22.433  1.00  0.00     0.015 A 
ATOM     25  C   UNL A   1      31.215  26.745  23.944  1.00  0.00     0.021 A 
ATOM     26  C   UNL A   1      33.346  27.816  23.508  1.00  0.00     0.021 A 
ATOM     27  C   UNL A   1      32.187  27.685  24.279  1.00  0.00     0.041 A 
ATOM     28  Cl  UNL A   1      31.984  28.634  25.699  1.00  0.00    -0.084 Cl
ENDBRANCH  19  22
ENDBRANCH  17  18
ENDBRANCH   5   7
ENDBRANCH   4   5
ENDBRANCH   3   4
ENDBRANCH   2   3
ENDBRANCH   1   2
BRANCH   1  29
ATOM     29  C   UNL A   1      42.294  20.276  26.093  1.00  0.00     0.202 C 
BRANCH  29  30
ATOM     30  C   UNL A   1      43.382  21.261  25.657  1.00  0.00     0.261 C 
BRANCH  30  31
ATOM     31  O   UNL A   1      42.810  22.459  25.096  1.00  0.00    -0.460 OA
BRANCH  31  32
ATOM     32  C   UNL A   1      43.573  23.568  25.259  1.00  0.00     0.338 C 
ATOM     33  O   UNL A   1      44.584  23.862  24.653  1.00  0.00    -0.246 OA
BRANCH  32  34
ATOM     34  C   UNL A   1      42.902  24.507  26.181  1.00  0.00     0.060 A 
ATOM     35  C   UNL A   1      43.334  25.837  26.153  1.00  0.00     0.016 A 
ATOM     36  C   UNL A   1      41.915  24.104  27.084  1.00  0.00     0.016 A 
ATOM     37  C   UNL A   1      42.832  26.752  27.073  1.00  0.00     0.010 A 
ATOM     38  C   UNL A   1      41.390  25.035  27.992  1.00  0.00     0.010 A 
ATOM     39  C   UNL A   1      41.887  26.351  28.027  1.00  0.00    -0.014 A 
BRANCH  39  40
ATOM     40  C   UNL A   1      41.560  27.276  29.143  1.00  0.00     0.031 A 
ATOM     41  C   UNL A   1      40.307  28.109  29.069  1.00  0.00     0.074 A 
ATOM     42  C   UNL A   1      42.315  27.305  30.258  1.00  0.00     0.049 A 
ATOM     43  N   UNL A   1      39.781  28.900  29.972  1.00  0.00    -0.248 NA
ATOM     44  C   UNL A   1      39.543  28.042  27.813  1.00  0.00     0.031 C 
ATOM     45  C   UNL A   1      43.533  26.527  30.477  1.00  0.00     0.029 A 
ATOM     46  N   UNL A   1      42.148  28.006  31.427  1.00  0.00    -0.354 N 
ATOM     47  C   UNL A   1      38.630  29.422  29.393  1.00  0.00     0.074 A 
ATOM     48  C   UNL A   1      38.559  28.897  28.047  1.00  0.00     0.031 C 
ATOM     49  C   UNL A   1      43.990  26.776  31.717  1.00  0.00     0.029 A 
ATOM     50  C   UNL A   1      43.117  27.752  32.365  1.00  0.00     0.049 A 
ATOM     51  H   UNL A   1      41.402  28.632  31.578  1.00  0.00     0.167 HD
ATOM     52  C   UNL A   1      37.705  30.252  29.932  1.00  0.00     0.031 A 
ATOM     53  C   UNL A   1      43.288  28.253  33.604  1.00  0.00     0.031 A 
ATOM     54  C   UNL A   1      37.775  30.790  31.265  1.00  0.00     0.049 A 
ATOM     55  C   UNL A   1      42.286  29.233  34.154  1.00  0.00     0.074 A 
ATOM     56  C   UNL A   1      36.873  31.620  31.907  1.00  0.00     0.029 A 
ATOM     57  N   UNL A   1      38.811  30.561  32.156  1.00  0.00    -0.354 N 
ATOM     58  N   UNL A   1      41.179  29.681  33.612  1.00  0.00    -0.248 NA
ATOM     59  C   UNL A   1      42.556  29.769  35.498  1.00  0.00     0.031 C 
ATOM     60  C   UNL A   1      37.399  31.953  33.160  1.00  0.00     0.029 A 
ATOM     61  C   UNL A   1      38.591  31.268  33.328  1.00  0.00     0.049 A 
ATOM     62  H   UNL A   1      39.589  29.983  31.983  1.00  0.00     0.167 HD
ATOM     63  C   UNL A   1      40.610  30.530  34.554  1.00  0.00     0.074 A 
ATOM     64  C   UNL A   1      41.479  30.512  35.713  1.00  0.00     0.031 C 
ATOM     65  C   UNL A   1      39.469  31.258  34.470  1.00  0.00     0.031 A 
BRANCH  52  66
ATOM     66  C   UNL A   1      36.549  30.659  29.059  1.00  0.00    -0.014 A 
ATOM     67  C   UNL A   1      36.437  31.964  28.550  1.00  0.00     0.009 A 
ATOM     68  C   UNL A   1      35.572  29.713  28.712  1.00  0.00     0.009 A 
ATOM     69  C   UNL A   1      35.352  32.320  27.746  1.00  0.00     0.001 A 
ATOM     70  C   UNL A   1      34.507  30.062  27.881  1.00  0.00     0.001 A 
ATOM     71  C   UNL A   1      34.391  31.368  27.408  1.00  0.00     0.000 A 
ENDBRANCH  52  66
BRANCH  53  72
ATOM     72  C   UNL A   1      44.466  27.846  34.416  1.00  0.00    -0.014 A 
ATOM     73  C   UNL A   1      44.410  26.723  35.258  1.00  0.00     0.009 A 
ATOM     74  C   UNL A   1      45.651  28.598  34.372  1.00  0.00     0.009 A 
ATOM     75  C   UNL A   1      45.506  26.380  36.055  1.00  0.00     0.001 A 
ATOM     76  C   UNL A   1      46.755  28.234  35.143  1.00  0.00     0.001 A 
ATOM     77  C   UNL A   1      46.679  27.132  35.993  1.00  0.00     0.000 A 
ENDBRANCH  53  72
BRANCH  65  78
ATOM     78  C   UNL A   1      39.084  32.078  35.672  1.00  0.00    -0.014 A 
ATOM     79  C   UNL A   1      39.505  33.409  35.819  1.00  0.00     0.009 A 
ATOM     80  C   UNL A   1      38.265  31.516  36.666  1.00  0.00     0.009 A 
ATOM     81  C   UNL A   1      39.157  34.143  36.955  1.00  0.00     0.001 A 
ATOM     82  C   UNL A   1      37.887  32.263  37.782  1.00  0.00     0.001 A 
ATOM     83  C   UNL A   1      38.344  33.570  37.934  1.00  0.00     0.000 A 
ENDBRANCH  65  78
ENDBRANCH  39  40
ENDBRANCH  32  34
ENDBRANCH  31  32
ENDBRANCH  30  31
ENDBRANCH  29  30
ENDBRANCH   1  29
TORSDOF 16
ENDMDL
MODEL 2
REMARK VINA RESULT:     -11.6      0.683      1.170
REMARK SMILES CC1(C)[C@@]2(C(=O)OCCOCCOC(=O)c3ccc(-c4c5nc(c(-c6ccccc6)c6ccc([nH]6)c(-c6ccccc6)c6nc(c(-c7ccccc7)c7ccc4[nH]7)C=C6)C=C5)cc3)CC[C@]1(C)/C(=N/NC(=O)c1ccc(Cl)cc1)C2
REMARK SMILES IDX 10 1 9 2 8 3 7 4 5 5 6 6 4 7 1 8 2 9 3 10 66 11 64 12 80 13
REMARK SMILES IDX 65 14 67 15 68 16 69 17 70 18 71 19 72 21 73 22 74 23 79 24
REMARK SMILES IDX 75 25 78 26 76 27 77 28 11 29 12 30 13 31 14 32 15 33 16 34
REMARK SMILES IDX 17 35 63 36 18 37 62 38 19 39 20 40 21 41 56 42 22 43 61 44
REMARK SMILES IDX 55 45 57 46 23 47 60 48 54 49 53 50 24 52 46 53 31 54 45 55
REMARK SMILES IDX 32 56 35 57 44 58 58 59 33 60 34 61 43 63 59 64 36 65 25 66
REMARK SMILES IDX 26 67 30 68 27 69 29 70 28 71 47 72 48 73 52 74 49 75 51 76
REMARK SMILES IDX 50 77 37 78 38 79 42 80 39 81 41 82 40 83
REMARK H PARENT 70 20 57 51 35 62
REMARK Flexibility Score: inf
ROOT
ATOM      1  O   UNL A   1      40.530  20.846  27.449  1.00  0.00    -0.374 OA
ENDROOT
BRANCH   1   2
ATOM      2  C   UNL A   1      39.887  21.052  26.190  1.00  0.00     0.202 C 
BRANCH   2   3
ATOM      3  C   UNL A   1      38.987  22.290  26.094  1.00  0.00     0.261 C 
BRANCH   3   4
ATOM      4  O   UNL A   1      37.636  21.941  25.737  1.00  0.00    -0.463 OA
BRANCH   4   5
ATOM      5  C   UNL A   1      36.751  22.975  25.684  1.00  0.00     0.313 C 
ATOM      6  O   UNL A   1      36.970  24.103  26.096  1.00  0.00    -0.252 OA
BRANCH   5   7
ATOM      7  C   UNL A   1      35.439  22.532  25.063  1.00  0.00     0.079 C 
ATOM      8  C   UNL A   1      34.281  21.864  27.288  1.00  0.00     0.013 C 
ATOM      9  C   UNL A   1      34.174  22.641  25.957  1.00  0.00    -0.008 C 
ATOM     10  C   UNL A   1      33.752  24.085  26.308  1.00  0.00     0.013 C 
ATOM     11  C   UNL A   1      33.276  21.958  24.870  1.00  0.00     0.014 C 
ATOM     12  C   UNL A   1      35.480  21.018  24.684  1.00  0.00     0.021 C 
ATOM     13  C   UNL A   1      35.023  23.320  23.797  1.00  0.00     0.073 C 
ATOM     14  C   UNL A   1      33.992  20.621  24.607  1.00  0.00     0.014 C 
ATOM     15  C   UNL A   1      31.799  21.865  25.181  1.00  0.00     0.018 C 
ATOM     16  C   UNL A   1      33.628  22.799  23.623  1.00  0.00     0.046 C 
ATOM     17  N   UNL A   1      32.761  22.972  22.677  1.00  0.00    -0.181 NA
BRANCH  17  18
ATOM     18  N   UNL A   1      32.903  23.771  21.583  1.00  0.00    -0.243 N 
ATOM     19  C   UNL A   1      32.823  25.125  21.335  1.00  0.00     0.271 C 
ATOM     20  H   UNL A   1      33.115  23.256  20.771  1.00  0.00     0.194 HD
ATOM     21  O   UNL A   1      32.917  25.547  20.182  1.00  0.00    -0.267 OA
BRANCH  19  22
ATOM     22  C   UNL A   1      32.632  26.112  22.403  1.00  0.00     0.041 A 
ATOM     23  C   UNL A   1      33.651  27.055  22.597  1.00  0.00     0.015 A 
ATOM     24  C   UNL A   1      31.451  26.170  23.149  1.00  0.00     0.015 A 
ATOM     25  C   UNL A   1      33.430  28.139  23.448  1.00  0.00     0.021 A 
ATOM     26  C   UNL A   1      31.255  27.240  24.030  1.00  0.00     0.021 A 
ATOM     27  C   UNL A   1      32.228  28.235  24.147  1.00  0.00     0.041 A 
ATOM     28  Cl  UNL A   1      31.920  29.636  25.098  1.00  0.00    -0.084 Cl
ENDBRANCH  19  22
ENDBRANCH  17  18
ENDBRANCH   5   7
ENDBRANCH   4   5
ENDBRANCH   3   4
ENDBRANCH   2   3
ENDBRANCH   1   2
BRANCH   1  29
ATOM     29  C   UNL A   1      41.954  20.796  27.417  1.00  0.00     0.202 C 
BRANCH  29  30
ATOM     30  C   UNL A   1      42.625  21.432  26.197  1.00  0.00     0.261 C 
BRANCH  30  31
ATOM     31  O   UNL A   1      43.429  22.566  26.572  1.00  0.00    -0.460 OA
BRANCH  31  32
ATOM     32  C   UNL A   1      43.180  23.687  25.852  1.00  0.00     0.338 C 
ATOM     33  O   UNL A   1      43.269  23.824  24.648  1.00  0.00    -0.246 OA
BRANCH  32  34
ATOM     34  C   UNL A   1      42.591  24.723  26.724  1.00  0.00     0.060 A 
ATOM     35  C   UNL A   1      43.257  25.952  26.784  1.00  0.00     0.016 A 
ATOM     36  C   UNL A   1      41.453  24.498  27.502  1.00  0.00     0.016 A 
ATOM     37  C   UNL A   1      42.828  26.934  27.672  1.00  0.00     0.010 A 
ATOM     38  C   UNL A   1      41.006  25.499  28.376  1.00  0.00     0.010 A 
ATOM     39  C   UNL A   1      41.725  26.702  28.505  1.00  0.00    -0.014 A 
BRANCH  39  40
ATOM     40  C   UNL A   1      41.448  27.659  29.608  1.00  0.00     0.031 A 
ATOM     41  C   UNL A   1      40.282  28.607  29.487  1.00  0.00     0.074 A 
ATOM     42  C   UNL A   1      42.162  27.623  30.749  1.00  0.00     0.049 A 
ATOM     43  N   UNL A   1      39.802  29.448  30.369  1.00  0.00    -0.248 NA
ATOM     44  C   UNL A   1      39.560  28.606  28.204  1.00  0.00     0.031 C 
ATOM     45  C   UNL A   1      43.292  26.733  31.013  1.00  0.00     0.029 A 
ATOM     46  N   UNL A   1      42.020  28.342  31.910  1.00  0.00    -0.354 N 
ATOM     47  C   UNL A   1      38.727  30.074  29.748  1.00  0.00     0.074 A 
ATOM     48  C   UNL A   1      38.654  29.551  28.402  1.00  0.00     0.031 C 
ATOM     49  C   UNL A   1      43.726  26.944  32.268  1.00  0.00     0.029 A 
ATOM     50  C   UNL A   1      42.927  28.002  32.883  1.00  0.00     0.049 A 
ATOM     51  H   UNL A   1      41.332  29.036  32.033  1.00  0.00     0.167 HD
ATOM     52  C   UNL A   1      37.866  30.990  30.253  1.00  0.00     0.031 A 
ATOM     53  C   UNL A   1      43.101  28.490  34.126  1.00  0.00     0.031 A 
ATOM     54  C   UNL A   1      37.939  31.525  31.587  1.00  0.00     0.049 A 
ATOM     55  C   UNL A   1      42.177  29.564  34.638  1.00  0.00     0.074 A 
ATOM     56  C   UNL A   1      37.097  32.440  32.195  1.00  0.00     0.029 A 
ATOM     57  N   UNL A   1      38.917  31.204  32.515  1.00  0.00    -0.354 N 
ATOM     58  N   UNL A   1      41.137  30.111  34.056  1.00  0.00    -0.248 NA
ATOM     59  C   UNL A   1      42.448  30.078  35.990  1.00  0.00     0.031 C 
ATOM     60  C   UNL A   1      37.607  32.728  33.465  1.00  0.00     0.029 A 
ATOM     61  C   UNL A   1      38.722  31.934  33.677  1.00  0.00     0.049 A 
ATOM     62  H   UNL A   1      39.642  30.554  32.371  1.00  0.00     0.167 HD
ATOM     63  C   UNL A   1      40.618  31.014  34.976  1.00  0.00     0.074 A 
ATOM     64  C   UNL A   1      41.439  30.921  36.165  1.00  0.00     0.031 C 
ATOM     65  C   UNL A   1      39.554  31.846  34.850  1.00  0.00     0.031 A 
BRANCH  52  66
ATOM     66  C   UNL A   1      36.785  31.500  29.338  1.00  0.00    -0.014 A 
ATOM     67  C   UNL A   1      35.669  30.713  29.008  1.00  0.00     0.009 A 
ATOM     68  C   UNL A   1      36.868  32.804  28.824  1.00  0.00     0.009 A 
ATOM     69  C   UNL A   1      34.682  31.207  28.153  1.00  0.00     0.001 A 
ATOM     70  C   UNL A   1      35.864  33.307  27.996  1.00  0.00     0.001 A 
ATOM     71  C   UNL A   1      34.777  32.505  27.652  1.00  0.00     0.000 A 
ENDBRANCH  52  66
BRANCH  53  72
ATOM     72  C   UNL A   1      44.205  27.977  34.980  1.00  0.00    -0.014 A 
ATOM     73  C   UNL A   1      45.469  28.590  34.970  1.00  0.00     0.009 A 
ATOM     74  C   UNL A   1      44.007  26.851  35.794  1.00  0.00     0.009 A 
ATOM     75  C   UNL A   1      46.515  28.068  35.737  1.00  0.00     0.001 A 
ATOM     76  C   UNL A   1      45.043  26.352  36.585  1.00  0.00     0.001 A 
ATOM     77  C   UNL A   1      46.299  26.953  36.548  1.00  0.00     0.000 A 
ENDBRANCH  53  72
BRANCH  65  78
ATOM     78  C   UNL A   1      39.206  32.706  36.036  1.00  0.00    -0.014 A 
ATOM     79  C   UNL A   1      39.741  33.993  36.193  1.00  0.00     0.009 A 
ATOM     80  C   UNL A   1      38.307  32.226  37.004  1.00  0.00     0.009 A 
ATOM     81  C   UNL A   1      39.423  34.763  37.314  1.00  0.00     0.001 A 
ATOM     82  C   UNL A   1      37.962  33.010  38.105  1.00  0.00     0.001 A 
ATOM     83  C   UNL A   1      38.531  34.272  38.268  1.00  0.00     0.000 A 
ENDBRANCH  65  78
ENDBRANCH  39  40
ENDBRANCH  32  34
ENDBRANCH  31  32
ENDBRANCH  30  31
ENDBRANCH  29  30
ENDBRANCH   1  29
TORSDOF 16
ENDMDL
MODEL 3
REMARK VINA RESULT:     -11.5      1.001      5.820
REMARK SMILES CC1(C)[C@@]2(C(=O)OCCOCCOC(=O)c3ccc(-c4c5nc(c(-c6ccccc6)c6ccc([nH]6)c(-c6ccccc6)c6nc(c(-c7ccccc7)c7ccc4[nH]7)C=C6)C=C5)cc3)CC[C@]1(C)/C(=N/NC(=O)c1ccc(Cl)cc1)C2
REMARK SMILES IDX 10 1 9 2 8 3 7 4 5 5 6 6 4 7 1 8 2 9 3 10 66 11 64 12 80 13
REMARK SMILES IDX 65 14 67 15 68 16 69 17 70 18 71 19 72 21 73 22 74 23 79 24
REMARK SMILES IDX 75 25 78 26 76 27 77 28 11 29 12 30 13 31 14 32 15 33 16 34
REMARK SMILES IDX 17 35 63 36 18 37 62 38 19 39 20 40 21 41 56 42 22 43 61 44
REMARK SMILES IDX 55 45 57 46 23 47 60 48 54 49 53 50 24 52 46 53 31 54 45 55
REMARK SMILES IDX 32 56 35 57 44 58 58 59 33 60 34 61 43 63 59 64 36 65 25 66
REMARK SMILES IDX 26 67 30 68 27 69 29 70 28 71 47 72 48 73 52 74 49 75 51 76
REMARK SMILES IDX 50 77 37 78 38 79 42 80 39 81 41 82 40 83
REMARK H PARENT 70 20 57 51 35 62
REMARK Flexibility Score: inf
ROOT
ATOM      1  O   UNL A   1      41.023  21.208  26.910  1.00  0.00    -0.374 OA
ENDROOT
BRANCH   1   2
ATOM      2  C   UNL A   1      39.813  20.942  26.201  1.00  0.00     0.202 C 
BRANCH   2   3
ATOM      3  C   UNL A   1      38.969  22.169  25.833  1.00  0.00     0.261 C 
BRANCH   3   4
ATOM      4  O   UNL A   1      37.562  21.864  25.822  1.00  0.00    -0.463 OA
BRANCH   4   5
ATOM      5  C   UNL A   1      36.725  22.935  25.731  1.00  0.00     0.313 C 
ATOM      6  O   UNL A   1      36.987  24.062  26.122  1.00  0.00    -0.252 OA
BRANCH   5   7
ATOM      7  C   UNL A   1      35.406  22.537  25.096  1.00  0.00     0.079 C 
ATOM      8  C   UNL A   1      34.193  21.933  27.310  1.00  0.00     0.013 C 
ATOM      9  C   UNL A   1      34.133  22.702  25.971  1.00  0.00    -0.008 C 
ATOM     10  C   UNL A   1      33.762  24.164  26.304  1.00  0.00     0.013 C 
ATOM     11  C   UNL A   1      33.225  22.044  24.877  1.00  0.00     0.014 C 
ATOM     12  C   UNL A   1      35.394  21.020  24.728  1.00  0.00     0.021 C 
ATOM     13  C   UNL A   1      35.037  23.330  23.817  1.00  0.00     0.073 C 
ATOM     14  C   UNL A   1      33.893  20.679  24.634  1.00  0.00     0.014 C 
ATOM     15  C   UNL A   1      31.742  22.010  25.168  1.00  0.00     0.018 C 
ATOM     16  C   UNL A   1      33.626  22.861  23.628  1.00  0.00     0.046 C 
ATOM     17  N   UNL A   1      32.778  23.059  22.669  1.00  0.00    -0.181 NA
BRANCH  17  18
ATOM     18  N   UNL A   1      32.966  23.843  21.571  1.00  0.00    -0.243 N 
ATOM     19  C   UNL A   1      32.824  25.183  21.281  1.00  0.00     0.271 C 
ATOM     20  H   UNL A   1      33.280  23.325  20.794  1.00  0.00     0.194 HD
ATOM     21  O   UNL A   1      32.992  25.586  20.130  1.00  0.00    -0.267 OA
BRANCH  19  22
ATOM     22  C   UNL A   1      32.478  26.177  22.303  1.00  0.00     0.041 A 
ATOM     23  C   UNL A   1      33.499  26.586  23.173  1.00  0.00     0.015 A 
ATOM     24  C   UNL A   1      31.209  26.760  22.364  1.00  0.00     0.015 A 
ATOM     25  C   UNL A   1      33.284  27.675  24.019  1.00  0.00     0.021 A 
ATOM     26  C   UNL A   1      30.992  27.828  23.243  1.00  0.00     0.021 A 
ATOM     27  C   UNL A   1      32.040  28.301  24.037  1.00  0.00     0.041 A 
ATOM     28  Cl  UNL A   1      31.825  29.716  24.993  1.00  0.00    -0.084 Cl
ENDBRANCH  19  22
ENDBRANCH  17  18
ENDBRANCH   5   7
ENDBRANCH   4   5
ENDBRANCH   3   4
ENDBRANCH   2   3
ENDBRANCH   1   2
BRANCH   1  29
ATOM     29  C   UNL A   1      42.219  20.735  26.296  1.00  0.00     0.202 C 
BRANCH  29  30
ATOM     30  C   UNL A   1      43.162  21.805  25.740  1.00  0.00     0.261 C 
BRANCH  30  31
ATOM     31  O   UNL A   1      42.430  22.947  25.254  1.00  0.00    -0.460 OA
BRANCH  31  32
ATOM     32  C   UNL A   1      43.136  24.104  25.258  1.00  0.00     0.338 C 
ATOM     33  O   UNL A   1      44.072  24.397  24.541  1.00  0.00    -0.246 OA
BRANCH  32  34
ATOM     34  C   UNL A   1      42.492  25.081  26.158  1.00  0.00     0.060 A 
ATOM     35  C   UNL A   1      43.005  26.383  26.148  1.00  0.00     0.016 A 
ATOM     36  C   UNL A   1      41.451  24.740  27.025  1.00  0.00     0.016 A 
ATOM     37  C   UNL A   1      42.528  27.327  27.053  1.00  0.00     0.010 A 
ATOM     38  C   UNL A   1      40.953  25.700  27.916  1.00  0.00     0.010 A 
ATOM     39  C   UNL A   1      41.527  26.983  27.972  1.00  0.00    -0.014 A 
BRANCH  39  40
ATOM     40  C   UNL A   1      41.219  27.926  29.079  1.00  0.00     0.031 A 
ATOM     41  C   UNL A   1      42.153  28.010  30.258  1.00  0.00     0.074 A 
ATOM     42  C   UNL A   1      40.174  28.771  28.995  1.00  0.00     0.049 A 
ATOM     43  N   UNL A   1      42.130  28.832  31.278  1.00  0.00    -0.248 NA
ATOM     44  C   UNL A   1      43.261  27.042  30.294  1.00  0.00     0.031 C 
ATOM     45  C   UNL A   1      39.212  28.821  27.895  1.00  0.00     0.029 A 
ATOM     46  N   UNL A   1      39.766  29.769  29.846  1.00  0.00    -0.354 N 
ATOM     47  C   UNL A   1      43.215  28.479  32.073  1.00  0.00     0.074 A 
ATOM     48  C   UNL A   1      43.847  27.341  31.443  1.00  0.00     0.031 C 
ATOM     49  C   UNL A   1      38.338  29.816  28.128  1.00  0.00     0.029 A 
ATOM     50  C   UNL A   1      38.659  30.451  29.405  1.00  0.00     0.049 A 
ATOM     51  H   UNL A   1      40.225  29.975  30.693  1.00  0.00     0.167 HD
ATOM     52  C   UNL A   1      43.659  29.056  33.215  1.00  0.00     0.031 A 
ATOM     53  C   UNL A   1      37.977  31.468  29.967  1.00  0.00     0.031 A 
ATOM     54  C   UNL A   1      43.028  30.180  33.856  1.00  0.00     0.049 A 
ATOM     55  C   UNL A   1      38.446  32.042  31.277  1.00  0.00     0.074 A 
ATOM     56  C   UNL A   1      43.419  30.847  35.005  1.00  0.00     0.029 A 
ATOM     57  N   UNL A   1      41.868  30.795  33.412  1.00  0.00    -0.354 N 
ATOM     58  N   UNL A   1      39.500  31.728  31.992  1.00  0.00    -0.248 NA
ATOM     59  C   UNL A   1      37.631  33.124  31.852  1.00  0.00     0.031 C 
ATOM     60  C   UNL A   1      42.455  31.819  35.296  1.00  0.00     0.029 A 
ATOM     61  C   UNL A   1      41.506  31.807  34.286  1.00  0.00     0.049 A 
ATOM     62  H   UNL A   1      41.375  30.549  32.597  1.00  0.00     0.167 HD
ATOM     63  C   UNL A   1      39.488  32.587  33.085  1.00  0.00     0.074 A 
ATOM     64  C   UNL A   1      38.338  33.453  32.925  1.00  0.00     0.031 C 
ATOM     65  C   UNL A   1      40.352  32.654  34.128  1.00  0.00     0.031 A 
BRANCH  52  66
ATOM     66  C   UNL A   1      44.873  28.452  33.869  1.00  0.00    -0.014 A 
ATOM     67  C   UNL A   1      46.169  28.898  33.564  1.00  0.00     0.009 A 
ATOM     68  C   UNL A   1      44.714  27.441  34.830  1.00  0.00     0.009 A 
ATOM     69  C   UNL A   1      47.281  28.318  34.180  1.00  0.00     0.001 A 
ATOM     70  C   UNL A   1      45.824  26.886  35.468  1.00  0.00     0.001 A 
ATOM     71  C   UNL A   1      47.107  27.316  35.135  1.00  0.00     0.000 A 
ENDBRANCH  52  66
BRANCH  53  72
ATOM     72  C   UNL A   1      36.762  32.008  29.299  1.00  0.00    -0.014 A 
ATOM     73  C   UNL A   1      35.525  31.352  29.411  1.00  0.00     0.009 A 
ATOM     74  C   UNL A   1      36.841  33.174  28.521  1.00  0.00     0.009 A 
ATOM     75  C   UNL A   1      34.402  31.840  28.736  1.00  0.00     0.001 A 
ATOM     76  C   UNL A   1      35.711  33.678  27.877  1.00  0.00     0.001 A 
ATOM     77  C   UNL A   1      34.495  33.005  27.975  1.00  0.00     0.000 A 
ENDBRANCH  53  72
BRANCH  65  78
ATOM     78  C   UNL A   1      40.099  33.715  35.166  1.00  0.00    -0.014 A 
ATOM     79  C   UNL A   1      39.324  33.456  36.307  1.00  0.00     0.009 A 
ATOM     80  C   UNL A   1      40.665  34.992  35.010  1.00  0.00     0.009 A 
ATOM     81  C   UNL A   1      39.082  34.463  37.244  1.00  0.00     0.001 A 
ATOM     82  C   UNL A   1      40.452  35.985  35.966  1.00  0.00     0.001 A 
ATOM     83  C   UNL A   1      39.649  35.726  37.074  1.00  0.00     0.000 A 
ENDBRANCH  65  78
ENDBRANCH  39  40
ENDBRANCH  32  34
ENDBRANCH  31  32
ENDBRANCH  30  31
ENDBRANCH  29  30
ENDBRANCH   1  29
TORSDOF 16
ENDMDL
