MODEL 1
REMARK VINA RESULT:     -10.7      0.000      0.000
REMARK SMILES O=C(NC(=S)Nc1cc(C(=O)OCCOCCOC(=O)c2ccc(-c3c4nc(c(-c5ccccc5)c5ccc([nH]5)c(-c5ccccc5)c5nc(c(-c6ccccc6)c6ccc3[nH]6)C=C5)C=C4)cc2)ccc1Br)c1ccc(F)cc1
REMARK SMILES IDX 14 1 13 2 12 3 10 4 11 5 9 6 7 7 8 8 71 9 70 10 72 11 69 12
REMARK SMILES IDX 6 13 4 15 5 16 3 17 1 18 2 19 73 21 74 22 79 23 75 24 78 25
REMARK SMILES IDX 76 26 77 27 15 28 16 29 17 30 18 31 19 32 20 33 21 34 22 35
REMARK SMILES IDX 68 36 23 37 67 38 24 39 25 40 26 41 61 42 27 43 66 44 60 45
REMARK SMILES IDX 62 46 28 47 65 48 59 49 58 50 29 52 51 53 36 54 50 55 37 56
REMARK SMILES IDX 40 57 49 58 63 59 38 60 39 61 48 63 64 64 41 65 30 66 31 67
REMARK SMILES IDX 35 68 32 69 34 70 33 71 52 72 53 73 57 74 54 75 56 76 55 77
REMARK SMILES IDX 42 78 43 79 47 80 44 81 46 82 45 83
REMARK H PARENT 6 14 3 20 62 51 40 62
REMARK Flexibility Score: inf
ROOT
ATOM      1  C   UNL A   1      35.206  32.665  28.042  1.00  0.00     0.202 C 
ENDROOT
BRANCH   1   2
ATOM      2  C   UNL A   1      34.330  31.460  28.407  1.00  0.00     0.261 C 
BRANCH   2   3
ATOM      3  O   UNL A   1      33.825  30.847  27.208  1.00  0.00    -0.460 OA
BRANCH   3   4
ATOM      4  C   UNL A   1      34.346  29.641  26.892  1.00  0.00     0.338 C 
ATOM      5  O   UNL A   1      35.338  29.105  27.346  1.00  0.00    -0.246 OA
BRANCH   4   6
ATOM      6  C   UNL A   1      33.370  28.943  26.038  1.00  0.00     0.062 A 
ATOM      7  C   UNL A   1      30.945  26.984  26.033  1.00  0.00     0.055 A 
ATOM      8  C   UNL A   1      32.256  27.830  26.866  1.00  0.00     0.043 A 
ATOM      9  C   UNL A   1      30.644  27.340  24.297  1.00  0.00     0.041 A 
ATOM     10  C   UNL A   1      31.953  28.570  23.359  1.00  0.00     0.019 A 
ATOM     11  Br  UNL A   1      28.882  26.339  23.905  1.00  0.00    -0.049 Br
ATOM     12  C   UNL A   1      33.271  29.327  24.322  1.00  0.00     0.017 A 
BRANCH   7  13
ATOM     13  N   UNL A   1      30.798  25.646  26.441  1.00  0.00    -0.331 N 
ATOM     14  H   UNL A   1      30.316  25.519  27.290  1.00  0.00     0.169 HD
BRANCH  13  15
ATOM     15  C   UNL A   1      31.220  24.505  25.840  1.00  0.00     0.177 C 
ATOM     16  S   UNL A   1      30.656  23.064  26.498  1.00  0.00    -0.040 S 
BRANCH  15  17
ATOM     17  N   UNL A   1      32.139  24.384  24.795  1.00  0.00    -0.299 N 
ATOM     18  O   UNL A   1      33.757  24.118  23.161  1.00  0.00    -0.269 OA
ATOM     19  C   UNL A   1      33.397  23.899  24.314  1.00  0.00     0.257 C 
ATOM     20  H   UNL A   1      31.730  24.851  24.031  1.00  0.00     0.172 HD
BRANCH  19  21
ATOM     21  C   UNL A   1      34.321  23.205  25.215  1.00  0.00     0.040 A 
ATOM     22  C   UNL A   1      35.689  24.214  25.724  1.00  0.00     0.017 A 
ATOM     23  C   UNL A   1      34.614  21.487  24.906  1.00  0.00     0.017 A 
ATOM     24  C   UNL A   1      37.534  23.392  25.752  1.00  0.00     0.040 A 
ATOM     25  C   UNL A   1      36.236  20.731  25.001  1.00  0.00     0.040 A 
ATOM     26  C   UNL A   1      37.690  21.645  25.384  1.00  0.00     0.123 A 
ATOM     27  F   UNL A   1      38.893  21.062  25.384  1.00  0.00    -0.207 F 
ENDBRANCH  19  21
ENDBRANCH  15  17
ENDBRANCH  13  15
ENDBRANCH   7  13
ENDBRANCH   4   6
ENDBRANCH   3   4
ENDBRANCH   2   3
ENDBRANCH   1   2
BRANCH   1  28
ATOM     28  O   UNL A   1      34.970  33.827  28.843  1.00  0.00    -0.374 OA
BRANCH  28  29
ATOM     29  C   UNL A   1      34.250  34.877  28.195  1.00  0.00     0.202 C 
BRANCH  29  30
ATOM     30  C   UNL A   1      33.285  35.648  29.098  1.00  0.00     0.261 C 
BRANCH  30  31
ATOM     31  O   UNL A   1      32.905  34.826  30.216  1.00  0.00    -0.460 OA
BRANCH  31  32
ATOM     32  C   UNL A   1      32.946  35.458  31.410  1.00  0.00     0.338 C 
ATOM     33  O   UNL A   1      32.161  36.287  31.835  1.00  0.00    -0.246 OA
BRANCH  32  34
ATOM     34  C   UNL A   1      34.005  34.870  32.249  1.00  0.00     0.060 A 
ATOM     35  C   UNL A   1      35.236  35.534  32.267  1.00  0.00     0.016 A 
ATOM     36  C   UNL A   1      33.835  33.664  32.936  1.00  0.00     0.016 A 
ATOM     37  C   UNL A   1      36.330  34.952  32.894  1.00  0.00     0.010 A 
ATOM     38  C   UNL A   1      34.939  33.078  33.566  1.00  0.00     0.010 A 
ATOM     39  C   UNL A   1      36.202  33.694  33.497  1.00  0.00    -0.014 A 
BRANCH  39  40
ATOM     40  C   UNL A   1      37.431  32.956  33.870  1.00  0.00     0.031 A 
ATOM     41  C   UNL A   1      38.005  31.966  32.891  1.00  0.00     0.074 A 
ATOM     42  C   UNL A   1      38.073  33.220  35.021  1.00  0.00     0.049 A 
ATOM     43  N   UNL A   1      39.087  31.235  32.989  1.00  0.00    -0.248 NA
ATOM     44  C   UNL A   1      37.262  31.775  31.635  1.00  0.00     0.031 C 
ATOM     45  C   UNL A   1      37.648  34.196  36.023  1.00  0.00     0.029 A 
ATOM     46  N   UNL A   1      39.231  32.692  35.532  1.00  0.00    -0.354 N 
ATOM     47  C   UNL A   1      39.148  30.496  31.813  1.00  0.00     0.074 A 
ATOM     48  C   UNL A   1      37.978  30.837  31.036  1.00  0.00     0.031 C 
ATOM     49  C   UNL A   1      38.539  34.200  37.029  1.00  0.00     0.029 A 
ATOM     50  C   UNL A   1      39.577  33.208  36.755  1.00  0.00     0.049 A 
ATOM     51  H   UNL A   1      39.764  32.008  35.065  1.00  0.00     0.167 HD
ATOM     52  C   UNL A   1      40.097  29.619  31.410  1.00  0.00     0.031 A 
ATOM     53  C   UNL A   1      40.608  32.905  37.567  1.00  0.00     0.031 A 
ATOM     54  C   UNL A   1      41.258  29.272  32.186  1.00  0.00     0.049 A 
ATOM     55  C   UNL A   1      41.613  31.873  37.128  1.00  0.00     0.074 A 
ATOM     56  C   UNL A   1      42.282  28.398  31.865  1.00  0.00     0.029 A 
ATOM     57  N   UNL A   1      41.546  29.782  33.443  1.00  0.00    -0.354 N 
ATOM     58  N   UNL A   1      41.667  31.192  36.008  1.00  0.00    -0.248 NA
ATOM     59  C   UNL A   1      42.708  31.581  38.064  1.00  0.00     0.031 C 
ATOM     60  C   UNL A   1      43.159  28.336  32.952  1.00  0.00     0.029 A 
ATOM     61  C   UNL A   1      42.720  29.224  33.921  1.00  0.00     0.049 A 
ATOM     62  H   UNL A   1      40.997  30.443  33.924  1.00  0.00     0.167 HD
ATOM     63  C   UNL A   1      42.821  30.421  36.089  1.00  0.00     0.074 A 
ATOM     64  C   UNL A   1      43.442  30.729  37.361  1.00  0.00     0.031 C 
ATOM     65  C   UNL A   1      43.327  29.543  35.188  1.00  0.00     0.031 A 
BRANCH  52  66
ATOM     66  C   UNL A   1      39.896  28.942  30.082  1.00  0.00    -0.014 A 
ATOM     67  C   UNL A   1      40.280  29.557  28.879  1.00  0.00     0.009 A 
ATOM     68  C   UNL A   1      39.332  27.658  30.035  1.00  0.00     0.009 A 
ATOM     69  C   UNL A   1      40.071  28.914  27.657  1.00  0.00     0.001 A 
ATOM     70  C   UNL A   1      39.152  27.005  28.815  1.00  0.00     0.001 A 
ATOM     71  C   UNL A   1      39.513  27.636  27.627  1.00  0.00     0.000 A 
ENDBRANCH  52  66
BRANCH  53  72
ATOM     72  C   UNL A   1      40.743  33.581  38.884  1.00  0.00    -0.014 A 
ATOM     73  C   UNL A   1      40.047  33.112  40.007  1.00  0.00     0.009 A 
ATOM     74  C   UNL A   1      41.555  34.719  39.016  1.00  0.00     0.009 A 
ATOM     75  C   UNL A   1      40.137  33.786  41.228  1.00  0.00     0.001 A 
ATOM     76  C   UNL A   1      41.667  35.372  40.245  1.00  0.00     0.001 A 
ATOM     77  C   UNL A   1      40.949  34.912  41.347  1.00  0.00     0.000 A 
ENDBRANCH  53  72
BRANCH  65  78
ATOM     78  C   UNL A   1      44.643  28.894  35.522  1.00  0.00    -0.014 A 
ATOM     79  C   UNL A   1      44.709  27.665  36.195  1.00  0.00     0.009 A 
ATOM     80  C   UNL A   1      45.838  29.518  35.128  1.00  0.00     0.009 A 
ATOM     81  C   UNL A   1      45.947  27.098  36.509  1.00  0.00     0.001 A 
ATOM     82  C   UNL A   1      47.072  28.933  35.411  1.00  0.00     0.001 A 
ATOM     83  C   UNL A   1      47.126  27.730  36.114  1.00  0.00     0.000 A 
ENDBRANCH  65  78
ENDBRANCH  39  40
ENDBRANCH  32  34
ENDBRANCH  31  32
ENDBRANCH  30  31
ENDBRANCH  29  30
ENDBRANCH  28  29
ENDBRANCH   1  28
TORSDOF 18
ENDMDL
MODEL 2
REMARK VINA RESULT:     -10.6      5.407     10.170
REMARK SMILES O=C(NC(=S)Nc1cc(C(=O)OCCOCCOC(=O)c2ccc(-c3c4nc(c(-c5ccccc5)c5ccc([nH]5)c(-c5ccccc5)c5nc(c(-c6ccccc6)c6ccc3[nH]6)C=C5)C=C4)cc2)ccc1Br)c1ccc(F)cc1
REMARK SMILES IDX 14 1 13 2 12 3 10 4 11 5 9 6 7 7 8 8 71 9 70 10 72 11 69 12
REMARK SMILES IDX 6 13 4 15 5 16 3 17 1 18 2 19 73 21 74 22 79 23 75 24 78 25
REMARK SMILES IDX 76 26 77 27 15 28 16 29 17 30 18 31 19 32 20 33 21 34 22 35
REMARK SMILES IDX 68 36 23 37 67 38 24 39 25 40 26 41 61 42 27 43 66 44 60 45
REMARK SMILES IDX 62 46 28 47 65 48 59 49 58 50 29 52 51 53 36 54 50 55 37 56
REMARK SMILES IDX 40 57 49 58 63 59 38 60 39 61 48 63 64 64 41 65 30 66 31 67
REMARK SMILES IDX 35 68 32 69 34 70 33 71 52 72 53 73 57 74 54 75 56 76 55 77
REMARK SMILES IDX 42 78 43 79 47 80 44 81 46 82 45 83
REMARK H PARENT 6 14 3 20 62 51 40 62
REMARK Flexibility Score: inf
ROOT
ATOM      1  C   UNL A   1      37.093  21.663  24.541  1.00  0.00     0.202 C 
ENDROOT
BRANCH   1   2
ATOM      2  C   UNL A   1      35.567  21.809  24.484  1.00  0.00     0.261 C 
BRANCH   2   3
ATOM      3  O   UNL A   1      34.984  21.282  25.689  1.00  0.00    -0.460 OA
BRANCH   3   4
ATOM      4  C   UNL A   1      33.675  20.956  25.623  1.00  0.00     0.338 C 
ATOM      5  O   UNL A   1      33.156  19.873  25.817  1.00  0.00    -0.246 OA
BRANCH   4   6
ATOM      6  C   UNL A   1      32.908  22.207  25.494  1.00  0.00     0.062 A 
ATOM      7  C   UNL A   1      31.096  23.889  23.595  1.00  0.00     0.055 A 
ATOM      8  C   UNL A   1      32.145  22.501  23.914  1.00  0.00     0.043 A 
ATOM      9  C   UNL A   1      30.683  24.997  24.949  1.00  0.00     0.041 A 
ATOM     10  C   UNL A   1      31.601  24.675  26.727  1.00  0.00     0.019 A 
ATOM     11  Br  UNL A   1      29.247  26.233  24.132  1.00  0.00    -0.049 Br
ATOM     12  C   UNL A   1      32.684  23.248  26.896  1.00  0.00     0.017 A 
BRANCH   7  13
ATOM     13  N   UNL A   1      31.317  24.478  22.338  1.00  0.00    -0.331 N 
ATOM     14  H   UNL A   1      30.505  24.656  21.811  1.00  0.00     0.169 HD
BRANCH  13  15
ATOM     15  C   UNL A   1      32.483  24.838  21.742  1.00  0.00     0.177 C 
ATOM     16  S   UNL A   1      33.325  23.615  20.956  1.00  0.00    -0.040 S 
BRANCH  15  17
ATOM     17  N   UNL A   1      33.109  26.086  21.784  1.00  0.00    -0.299 N 
ATOM     18  O   UNL A   1      34.079  28.178  21.987  1.00  0.00    -0.269 OA
ATOM     19  C   UNL A   1      33.402  27.291  22.498  1.00  0.00     0.257 C 
ATOM     20  H   UNL A   1      33.559  26.182  20.914  1.00  0.00     0.172 HD
BRANCH  19  21
ATOM     21  C   UNL A   1      32.826  27.530  23.824  1.00  0.00     0.040 A 
ATOM     22  C   UNL A   1      31.753  28.943  23.874  1.00  0.00     0.017 A 
ATOM     23  C   UNL A   1      33.859  27.211  25.224  1.00  0.00     0.017 A 
ATOM     24  C   UNL A   1      31.896  30.205  25.445  1.00  0.00     0.040 A 
ATOM     25  C   UNL A   1      33.939  28.286  26.656  1.00  0.00     0.040 A 
ATOM     26  C   UNL A   1      33.011  29.775  26.779  1.00  0.00     0.123 A 
ATOM     27  F   UNL A   1      33.142  30.587  27.835  1.00  0.00    -0.207 F 
ENDBRANCH  19  21
ENDBRANCH  15  17
ENDBRANCH  13  15
ENDBRANCH   7  13
ENDBRANCH   4   6
ENDBRANCH   3   4
ENDBRANCH   2   3
ENDBRANCH   1   2
BRANCH   1  28
ATOM     28  O   UNL A   1      37.730  22.520  25.494  1.00  0.00    -0.374 OA
BRANCH  28  29
ATOM     29  C   UNL A   1      38.901  21.982  26.109  1.00  0.00     0.202 C 
BRANCH  29  30
ATOM     30  C   UNL A   1      39.319  20.600  25.601  1.00  0.00     0.261 C 
BRANCH  30  31
ATOM     31  O   UNL A   1      40.247  20.005  26.525  1.00  0.00    -0.460 OA
BRANCH  31  32
ATOM     32  C   UNL A   1      41.533  20.025  26.109  1.00  0.00     0.338 C 
ATOM     33  O   UNL A   1      42.071  19.260  25.329  1.00  0.00    -0.246 OA
BRANCH  32  34
ATOM     34  C   UNL A   1      42.196  21.247  26.600  1.00  0.00     0.060 A 
ATOM     35  C   UNL A   1      42.212  21.442  27.985  1.00  0.00     0.016 A 
ATOM     36  C   UNL A   1      42.715  22.217  25.737  1.00  0.00     0.016 A 
ATOM     37  C   UNL A   1      42.663  22.645  28.513  1.00  0.00     0.010 A 
ATOM     38  C   UNL A   1      43.168  23.429  26.269  1.00  0.00     0.010 A 
ATOM     39  C   UNL A   1      43.089  23.667  27.654  1.00  0.00    -0.014 A 
BRANCH  39  40
ATOM     40  C   UNL A   1      43.257  25.032  28.204  1.00  0.00     0.031 A 
ATOM     41  C   UNL A   1      44.645  25.515  28.533  1.00  0.00     0.074 A 
ATOM     42  C   UNL A   1      42.205  25.860  28.331  1.00  0.00     0.049 A 
ATOM     43  N   UNL A   1      45.033  26.679  28.988  1.00  0.00    -0.248 NA
ATOM     44  C   UNL A   1      45.743  24.558  28.317  1.00  0.00     0.031 C 
ATOM     45  C   UNL A   1      40.822  25.529  27.994  1.00  0.00     0.029 A 
ATOM     46  N   UNL A   1      42.146  27.158  28.770  1.00  0.00    -0.354 N 
ATOM     47  C   UNL A   1      46.414  26.590  29.120  1.00  0.00     0.074 A 
ATOM     48  C   UNL A   1      46.792  25.250  28.733  1.00  0.00     0.031 C 
ATOM     49  C   UNL A   1      40.048  26.602  28.235  1.00  0.00     0.029 A 
ATOM     50  C   UNL A   1      40.878  27.680  28.769  1.00  0.00     0.049 A 
ATOM     51  H   UNL A   1      42.938  27.667  29.058  1.00  0.00     0.167 HD
ATOM     52  C   UNL A   1      47.292  27.541  29.517  1.00  0.00     0.031 A 
ATOM     53  C   UNL A   1      40.434  28.889  29.167  1.00  0.00     0.031 A 
ATOM     54  C   UNL A   1      46.917  28.873  29.910  1.00  0.00     0.049 A 
ATOM     55  C   UNL A   1      41.422  29.906  29.674  1.00  0.00     0.074 A 
ATOM     56  C   UNL A   1      47.730  29.912  30.325  1.00  0.00     0.029 A 
ATOM     57  N   UNL A   1      45.614  29.347  29.942  1.00  0.00    -0.354 N 
ATOM     58  N   UNL A   1      42.726  29.814  29.779  1.00  0.00    -0.248 NA
ATOM     59  C   UNL A   1      40.873  31.200  30.101  1.00  0.00     0.031 C 
ATOM     60  C   UNL A   1      46.915  30.998  30.662  1.00  0.00     0.029 A 
ATOM     61  C   UNL A   1      45.599  30.658  30.389  1.00  0.00     0.049 A 
ATOM     62  H   UNL A   1      44.817  28.829  29.684  1.00  0.00     0.167 HD
ATOM     63  C   UNL A   1      43.156  31.050  30.248  1.00  0.00     0.074 A 
ATOM     64  C   UNL A   1      41.975  31.877  30.393  1.00  0.00     0.031 C 
ATOM     65  C   UNL A   1      44.416  31.468  30.526  1.00  0.00     0.031 A 
BRANCH  52  66
ATOM     66  C   UNL A   1      48.745  27.158  29.584  1.00  0.00    -0.014 A 
ATOM     67  C   UNL A   1      49.303  26.594  30.743  1.00  0.00     0.009 A 
ATOM     68  C   UNL A   1      49.564  27.343  28.460  1.00  0.00     0.009 A 
ATOM     69  C   UNL A   1      50.658  26.258  30.785  1.00  0.00     0.001 A 
ATOM     70  C   UNL A   1      50.911  26.978  28.494  1.00  0.00     0.001 A 
ATOM     71  C   UNL A   1      51.459  26.445  29.659  1.00  0.00     0.000 A 
ENDBRANCH  52  66
BRANCH  53  72
ATOM     72  C   UNL A   1      38.983  29.205  29.111  1.00  0.00    -0.014 A 
ATOM     73  C   UNL A   1      38.159  29.003  30.228  1.00  0.00     0.009 A 
ATOM     74  C   UNL A   1      38.410  29.691  27.924  1.00  0.00     0.009 A 
ATOM     75  C   UNL A   1      36.786  29.251  30.148  1.00  0.00     0.001 A 
ATOM     76  C   UNL A   1      37.043  29.968  27.858  1.00  0.00     0.001 A 
ATOM     77  C   UNL A   1      36.230  29.737  28.966  1.00  0.00     0.000 A 
ENDBRANCH  53  72
BRANCH  65  78
ATOM     78  C   UNL A   1      44.588  32.898  30.962  1.00  0.00    -0.014 A 
ATOM     79  C   UNL A   1      44.758  33.936  30.035  1.00  0.00     0.009 A 
ATOM     80  C   UNL A   1      44.551  33.208  32.332  1.00  0.00     0.009 A 
ATOM     81  C   UNL A   1      44.936  35.251  30.473  1.00  0.00     0.001 A 
ATOM     82  C   UNL A   1      44.694  34.527  32.765  1.00  0.00     0.001 A 
ATOM     83  C   UNL A   1      44.900  35.545  31.836  1.00  0.00     0.000 A 
ENDBRANCH  65  78
ENDBRANCH  39  40
ENDBRANCH  32  34
ENDBRANCH  31  32
ENDBRANCH  30  31
ENDBRANCH  29  30
ENDBRANCH  28  29
ENDBRANCH   1  28
TORSDOF 18
ENDMDL
MODEL 3
REMARK VINA RESULT:     -10.6      0.824      5.903
REMARK SMILES O=C(NC(=S)Nc1cc(C(=O)OCCOCCOC(=O)c2ccc(-c3c4nc(c(-c5ccccc5)c5ccc([nH]5)c(-c5ccccc5)c5nc(c(-c6ccccc6)c6ccc3[nH]6)C=C5)C=C4)cc2)ccc1Br)c1ccc(F)cc1
REMARK SMILES IDX 14 1 13 2 12 3 10 4 11 5 9 6 7 7 8 8 71 9 70 10 72 11 69 12
REMARK SMILES IDX 6 13 4 15 5 16 3 17 1 18 2 19 73 21 74 22 79 23 75 24 78 25
REMARK SMILES IDX 76 26 77 27 15 28 16 29 17 30 18 31 19 32 20 33 21 34 22 35
REMARK SMILES IDX 68 36 23 37 67 38 24 39 25 40 26 41 61 42 27 43 66 44 60 45
REMARK SMILES IDX 62 46 28 47 65 48 59 49 58 50 29 52 51 53 36 54 50 55 37 56
REMARK SMILES IDX 40 57 49 58 63 59 38 60 39 61 48 63 64 64 41 65 30 66 31 67
REMARK SMILES IDX 35 68 32 69 34 70 33 71 52 72 53 73 57 74 54 75 56 76 55 77
REMARK SMILES IDX 42 78 43 79 47 80 44 81 46 82 45 83
REMARK H PARENT 6 14 3 20 62 51 40 62
REMARK Flexibility Score: inf
ROOT
ATOM      1  C   UNL A   1      35.153  32.422  28.342  1.00  0.00     0.202 C 
ENDROOT
BRANCH   1   2
ATOM      2  C   UNL A   1      34.051  31.361  28.221  1.00  0.00     0.261 C 
BRANCH   2   3
ATOM      3  O   UNL A   1      34.056  30.805  26.895  1.00  0.00    -0.460 OA
BRANCH   3   4
ATOM      4  C   UNL A   1      34.339  29.487  26.804  1.00  0.00     0.338 C 
ATOM      5  O   UNL A   1      35.164  28.847  27.428  1.00  0.00    -0.246 OA
BRANCH   4   6
ATOM      6  C   UNL A   1      33.306  28.866  25.958  1.00  0.00     0.062 A 
ATOM      7  C   UNL A   1      30.798  27.014  25.963  1.00  0.00     0.055 A 
ATOM      8  C   UNL A   1      32.172  27.770  26.781  1.00  0.00     0.043 A 
ATOM      9  C   UNL A   1      30.455  27.451  24.253  1.00  0.00     0.041 A 
ATOM     10  C   UNL A   1      31.786  28.660  23.319  1.00  0.00     0.019 A 
ATOM     11  Br  UNL A   1      28.639  26.544  23.885  1.00  0.00    -0.049 Br
ATOM     12  C   UNL A   1      33.168  29.322  24.263  1.00  0.00     0.017 A 
BRANCH   7  13
ATOM     13  N   UNL A   1      30.606  25.669  26.325  1.00  0.00    -0.331 N 
ATOM     14  H   UNL A   1      29.832  25.500  26.910  1.00  0.00     0.169 HD
BRANCH  13  15
ATOM     15  C   UNL A   1      31.325  24.569  25.987  1.00  0.00     0.177 C 
ATOM     16  S   UNL A   1      31.171  24.036  24.401  1.00  0.00    -0.040 S 
BRANCH  15  17
ATOM     17  N   UNL A   1      32.108  23.774  26.828  1.00  0.00    -0.299 N 
ATOM     18  O   UNL A   1      33.506  22.446  28.110  1.00  0.00    -0.269 OA
ATOM     19  C   UNL A   1      33.327  23.062  27.063  1.00  0.00     0.257 C 
ATOM     20  H   UNL A   1      31.567  23.641  27.640  1.00  0.00     0.172 HD
BRANCH  19  21
ATOM     21  C   UNL A   1      34.354  22.982  26.022  1.00  0.00     0.040 A 
ATOM     22  C   UNL A   1      34.588  21.337  25.398  1.00  0.00     0.017 A 
ATOM     23  C   UNL A   1      35.777  24.018  26.206  1.00  0.00     0.017 A 
ATOM     24  C   UNL A   1      36.474  20.678  25.100  1.00  0.00     0.040 A 
ATOM     25  C   UNL A   1      37.449  23.466  25.874  1.00  0.00     0.040 A 
ATOM     26  C   UNL A   1      37.824  21.827  25.360  1.00  0.00     0.123 A 
ATOM     27  F   UNL A   1      39.089  21.430  25.181  1.00  0.00    -0.207 F 
ENDBRANCH  19  21
ENDBRANCH  15  17
ENDBRANCH  13  15
ENDBRANCH   7  13
ENDBRANCH   4   6
ENDBRANCH   3   4
ENDBRANCH   2   3
ENDBRANCH   1   2
BRANCH   1  28
ATOM     28  O   UNL A   1      34.772  33.583  29.087  1.00  0.00    -0.374 OA
BRANCH  28  29
ATOM     29  C   UNL A   1      33.799  34.417  28.458  1.00  0.00     0.202 C 
BRANCH  29  30
ATOM     30  C   UNL A   1      33.186  35.488  29.363  1.00  0.00     0.261 C 
BRANCH  30  31
ATOM     31  O   UNL A   1      32.612  34.867  30.527  1.00  0.00    -0.460 OA
BRANCH  31  32
ATOM     32  C   UNL A   1      32.868  35.515  31.686  1.00  0.00     0.338 C 
ATOM     33  O   UNL A   1      32.210  36.403  32.198  1.00  0.00    -0.246 OA
BRANCH  32  34
ATOM     34  C   UNL A   1      33.997  34.869  32.379  1.00  0.00     0.060 A 
ATOM     35  C   UNL A   1      35.218  35.553  32.369  1.00  0.00     0.016 A 
ATOM     36  C   UNL A   1      33.898  33.598  32.953  1.00  0.00     0.016 A 
ATOM     37  C   UNL A   1      36.365  34.936  32.849  1.00  0.00     0.010 A 
ATOM     38  C   UNL A   1      35.055  32.976  33.435  1.00  0.00     0.010 A 
ATOM     39  C   UNL A   1      36.300  33.623  33.331  1.00  0.00    -0.014 A 
BRANCH  39  40
ATOM     40  C   UNL A   1      37.564  32.877  33.534  1.00  0.00     0.031 A 
ATOM     41  C   UNL A   1      38.336  33.093  34.809  1.00  0.00     0.074 A 
ATOM     42  C   UNL A   1      37.979  31.963  32.639  1.00  0.00     0.049 A 
ATOM     43  N   UNL A   1      39.443  32.526  35.215  1.00  0.00    -0.248 NA
ATOM     44  C   UNL A   1      37.784  34.078  35.754  1.00  0.00     0.031 C 
ATOM     45  C   UNL A   1      37.290  31.623  31.395  1.00  0.00     0.029 A 
ATOM     46  N   UNL A   1      39.078  31.144  32.653  1.00  0.00    -0.354 N 
ATOM     47  C   UNL A   1      39.722  33.091  36.455  1.00  0.00     0.074 A 
ATOM     48  C   UNL A   1      38.691  34.069  36.717  1.00  0.00     0.031 C 
ATOM     49  C   UNL A   1      37.984  30.660  30.765  1.00  0.00     0.029 A 
ATOM     50  C   UNL A   1      39.176  30.338  31.547  1.00  0.00     0.049 A 
ATOM     51  H   UNL A   1      39.735  31.134  33.387  1.00  0.00     0.167 HD
ATOM     52  C   UNL A   1      40.739  32.813  37.304  1.00  0.00     0.031 A 
ATOM     53  C   UNL A   1      40.128  29.450  31.199  1.00  0.00     0.031 A 
ATOM     54  C   UNL A   1      41.770  31.846  37.041  1.00  0.00     0.049 A 
ATOM     55  C   UNL A   1      41.288  29.211  32.128  1.00  0.00     0.074 A 
ATOM     56  C   UNL A   1      42.842  31.487  37.840  1.00  0.00     0.029 A 
ATOM     57  N   UNL A   1      41.860  31.085  35.886  1.00  0.00    -0.354 N 
ATOM     58  N   UNL A   1      41.532  29.740  33.303  1.00  0.00    -0.248 NA
ATOM     59  C   UNL A   1      42.296  28.238  31.685  1.00  0.00     0.031 C 
ATOM     60  C   UNL A   1      43.612  30.551  37.143  1.00  0.00     0.029 A 
ATOM     61  C   UNL A   1      42.981  30.274  35.940  1.00  0.00     0.049 A 
ATOM     62  H   UNL A   1      41.221  31.116  35.137  1.00  0.00     0.167 HD
ATOM     63  C   UNL A   1      42.699  29.136  33.756  1.00  0.00     0.074 A 
ATOM     64  C   UNL A   1      43.105  28.192  32.735  1.00  0.00     0.031 C 
ATOM     65  C   UNL A   1      43.370  29.338  34.917  1.00  0.00     0.031 A 
BRANCH  52  66
ATOM     66  C   UNL A   1      40.805  33.600  38.585  1.00  0.00    -0.014 A 
ATOM     67  C   UNL A   1      40.183  33.144  39.759  1.00  0.00     0.009 A 
ATOM     68  C   UNL A   1      41.520  34.807  38.623  1.00  0.00     0.009 A 
ATOM     69  C   UNL A   1      40.247  33.898  40.933  1.00  0.00     0.001 A 
ATOM     70  C   UNL A   1      41.608  35.543  39.805  1.00  0.00     0.001 A 
ATOM     71  C   UNL A   1      40.965  35.094  40.956  1.00  0.00     0.000 A 
ENDBRANCH  52  66
BRANCH  53  72
ATOM     72  C   UNL A   1      40.031  28.723  29.906  1.00  0.00    -0.014 A 
ATOM     73  C   UNL A   1      40.499  29.302  28.718  1.00  0.00     0.009 A 
ATOM     74  C   UNL A   1      39.444  27.448  29.853  1.00  0.00     0.009 A 
ATOM     75  C   UNL A   1      40.354  28.634  27.499  1.00  0.00     0.001 A 
ATOM     76  C   UNL A   1      39.329  26.769  28.638  1.00  0.00     0.001 A 
ATOM     77  C   UNL A   1      39.773  27.368  27.461  1.00  0.00     0.000 A 
ENDBRANCH  53  72
BRANCH  65  78
ATOM     78  C   UNL A   1      44.583  28.483  35.169  1.00  0.00    -0.014 A 
ATOM     79  C   UNL A   1      45.872  28.908  34.813  1.00  0.00     0.009 A 
ATOM     80  C   UNL A   1      44.429  27.238  35.800  1.00  0.00     0.009 A 
ATOM     81  C   UNL A   1      46.976  28.083  35.041  1.00  0.00     0.001 A 
ATOM     82  C   UNL A   1      45.537  26.430  36.059  1.00  0.00     0.001 A 
ATOM     83  C   UNL A   1      46.808  26.848  35.667  1.00  0.00     0.000 A 
ENDBRANCH  65  78
ENDBRANCH  39  40
ENDBRANCH  32  34
ENDBRANCH  31  32
ENDBRANCH  30  31
ENDBRANCH  29  30
ENDBRANCH  28  29
ENDBRANCH   1  28
TORSDOF 18
ENDMDL
