MODEL 1
REMARK VINA RESULT:      -9.6      0.000      0.000
REMARK SMILES CCc1ccc(S(=O)(=O)CC(=O)OCCOCCOC(=O)c2ccc(-c3c4nc(c(-c5ccccc5)c5ccc([nH]5)c(-c5ccccc5)c5nc(c(-c6ccccc6)c6ccc3[nH]6)C=C5)C=C4)cc2)cc1
REMARK SMILES IDX 15 1 14 2 13 3 11 4 12 5 10 6 7 7 8 8 9 9 6 10 3 11 4 12
REMARK SMILES IDX 71 13 5 14 70 15 2 16 1 17 16 18 17 19 18 20 19 21 20 22
REMARK SMILES IDX 21 23 22 24 23 25 69 26 24 27 68 28 25 29 26 30 27 31 62 32
REMARK SMILES IDX 28 33 67 34 61 35 63 36 29 37 66 38 60 39 59 40 30 42 52 43
REMARK SMILES IDX 37 44 51 45 38 46 41 47 50 48 64 49 39 50 40 51 49 53 65 54
REMARK SMILES IDX 42 55 31 56 32 57 36 58 33 59 35 60 34 61 53 62 54 63 58 64
REMARK SMILES IDX 55 65 57 66 56 67 43 68 44 69 48 70 45 71 47 72 46 73
REMARK H PARENT 63 41 41 52
REMARK Flexibility Score: inf
ROOT
ATOM      1  C   UNL A   1      36.204  23.589  24.792  1.00  0.00     0.202 C 
ENDROOT
BRANCH   1   2
ATOM      2  C   UNL A   1      35.527  23.486  26.165  1.00  0.00     0.261 C 
BRANCH   2   3
ATOM      3  O   UNL A   1      34.082  23.468  26.152  1.00  0.00    -0.462 OA
BRANCH   3   4
ATOM      4  C   UNL A   1      33.491  22.663  27.066  1.00  0.00     0.321 C 
ATOM      5  O   UNL A   1      33.946  21.571  27.403  1.00  0.00    -0.251 OA
BRANCH   4   6
ATOM      6  C   UNL A   1      32.165  23.092  27.580  1.00  0.00     0.264 C 
BRANCH   6   7
ATOM      7  S   UNL A   1      30.758  22.899  26.568  1.00  0.00     0.189 S 
ATOM      8  O   UNL A   1      29.611  23.109  27.436  1.00  0.00    -0.223 OA
ATOM      9  O   UNL A   1      30.872  21.655  25.829  1.00  0.00    -0.223 OA
BRANCH   7  10
ATOM     10  C   UNL A   1      30.650  24.204  25.369  1.00  0.00     0.067 A 
ATOM     11  C   UNL A   1      30.710  26.181  23.369  1.00  0.00    -0.048 A 
ATOM     12  C   UNL A   1      30.979  24.844  23.053  1.00  0.00     0.005 A 
ATOM     13  C   UNL A   1      30.297  26.488  24.680  1.00  0.00     0.005 A 
ATOM     14  C   UNL A   1      30.961  23.866  24.047  1.00  0.00     0.020 A 
ATOM     15  C   UNL A   1      30.270  25.507  25.684  1.00  0.00     0.020 A 
BRANCH  11  16
ATOM     16  C   UNL A   1      30.898  27.305  22.370  1.00  0.00     0.032 C 
ATOM     17  C   UNL A   1      30.136  28.595  22.670  1.00  0.00     0.009 C 
ENDBRANCH  11  16
ENDBRANCH   7  10
ENDBRANCH   6   7
ENDBRANCH   4   6
ENDBRANCH   3   4
ENDBRANCH   2   3
ENDBRANCH   1   2
BRANCH   1  18
ATOM     18  O   UNL A   1      36.480  22.372  24.102  1.00  0.00    -0.374 OA
BRANCH  18  19
ATOM     19  C   UNL A   1      36.396  21.163  24.846  1.00  0.00     0.202 C 
BRANCH  19  20
ATOM     20  C   UNL A   1      37.702  20.399  25.065  1.00  0.00     0.261 C 
BRANCH  20  21
ATOM     21  O   UNL A   1      38.845  21.255  25.131  1.00  0.00    -0.460 OA
BRANCH  21  22
ATOM     22  C   UNL A   1      39.632  21.018  26.201  1.00  0.00     0.338 C 
ATOM     23  O   UNL A   1      40.126  19.953  26.549  1.00  0.00    -0.246 OA
BRANCH  22  24
ATOM     24  C   UNL A   1      39.969  22.281  26.861  1.00  0.00     0.060 A 
ATOM     25  C   UNL A   1      39.280  23.427  26.447  1.00  0.00     0.016 A 
ATOM     26  C   UNL A   1      41.026  22.357  27.768  1.00  0.00     0.016 A 
ATOM     27  C   UNL A   1      39.698  24.675  26.895  1.00  0.00     0.010 A 
ATOM     28  C   UNL A   1      41.446  23.612  28.213  1.00  0.00     0.010 A 
ATOM     29  C   UNL A   1      40.810  24.775  27.742  1.00  0.00    -0.014 A 
BRANCH  29  30
ATOM     30  C   UNL A   1      41.383  26.110  28.015  1.00  0.00     0.031 A 
ATOM     31  C   UNL A   1      42.710  26.472  27.408  1.00  0.00     0.074 A 
ATOM     32  C   UNL A   1      40.696  27.001  28.748  1.00  0.00     0.049 A 
ATOM     33  N   UNL A   1      43.365  27.602  27.469  1.00  0.00    -0.248 NA
ATOM     34  C   UNL A   1      43.386  25.423  26.627  1.00  0.00     0.031 C 
ATOM     35  C   UNL A   1      39.389  26.761  29.360  1.00  0.00     0.029 A 
ATOM     36  N   UNL A   1      41.001  28.291  29.093  1.00  0.00    -0.354 N 
ATOM     37  C   UNL A   1      44.529  27.401  26.738  1.00  0.00     0.074 A 
ATOM     38  C   UNL A   1      44.506  26.034  26.266  1.00  0.00     0.031 C 
ATOM     39  C   UNL A   1      39.001  27.873  30.005  1.00  0.00     0.029 A 
ATOM     40  C   UNL A   1      40.041  28.891  29.868  1.00  0.00     0.049 A 
ATOM     41  H   UNL A   1      41.829  28.744  28.813  1.00  0.00     0.167 HD
ATOM     42  C   UNL A   1      45.525  28.281  26.480  1.00  0.00     0.031 A 
ATOM     43  C   UNL A   1      40.009  30.123  30.409  1.00  0.00     0.031 A 
ATOM     44  C   UNL A   1      45.548  29.634  26.965  1.00  0.00     0.049 A 
ATOM     45  C   UNL A   1      41.148  31.067  30.145  1.00  0.00     0.074 A 
ATOM     46  C   UNL A   1      46.502  30.613  26.748  1.00  0.00     0.029 A 
ATOM     47  N   UNL A   1      44.572  30.195  27.775  1.00  0.00    -0.354 N 
ATOM     48  N   UNL A   1      42.226  30.877  29.421  1.00  0.00    -0.248 NA
ATOM     49  C   UNL A   1      41.061  32.399  30.759  1.00  0.00     0.031 C 
ATOM     50  C   UNL A   1      46.126  31.753  27.466  1.00  0.00     0.029 A 
ATOM     51  C   UNL A   1      44.913  31.500  28.088  1.00  0.00     0.049 A 
ATOM     52  H   UNL A   1      43.759  29.734  28.082  1.00  0.00     0.167 HD
ATOM     53  C   UNL A   1      42.936  32.069  29.479  1.00  0.00     0.074 A 
ATOM     54  C   UNL A   1      42.157  32.981  30.293  1.00  0.00     0.031 C 
ATOM     55  C   UNL A   1      44.124  32.383  28.907  1.00  0.00     0.031 A 
BRANCH  42  56
ATOM     56  C   UNL A   1      46.685  27.792  25.661  1.00  0.00    -0.014 A 
ATOM     57  C   UNL A   1      47.775  27.141  26.259  1.00  0.00     0.009 A 
ATOM     58  C   UNL A   1      46.673  27.956  24.268  1.00  0.00     0.009 A 
ATOM     59  C   UNL A   1      48.843  26.690  25.479  1.00  0.00     0.001 A 
ATOM     60  C   UNL A   1      47.730  27.484  23.489  1.00  0.00     0.001 A 
ATOM     61  C   UNL A   1      48.818  26.857  24.095  1.00  0.00     0.000 A 
ENDBRANCH  42  56
BRANCH  43  62
ATOM     62  C   UNL A   1      38.858  30.526  31.257  1.00  0.00    -0.014 A 
ATOM     63  C   UNL A   1      38.889  30.335  32.646  1.00  0.00     0.009 A 
ATOM     64  C   UNL A   1      37.727  31.122  30.677  1.00  0.00     0.009 A 
ATOM     65  C   UNL A   1      37.801  30.719  33.436  1.00  0.00     0.001 A 
ATOM     66  C   UNL A   1      36.653  31.527  31.471  1.00  0.00     0.001 A 
ATOM     67  C   UNL A   1      36.688  31.319  32.848  1.00  0.00     0.000 A 
ENDBRANCH  43  62
BRANCH  55  68
ATOM     68  C   UNL A   1      44.644  33.774  29.129  1.00  0.00    -0.014 A 
ATOM     69  C   UNL A   1      44.287  34.826  28.271  1.00  0.00     0.009 A 
ATOM     70  C   UNL A   1      45.460  34.043  30.239  1.00  0.00     0.009 A 
ATOM     71  C   UNL A   1      44.764  36.117  28.506  1.00  0.00     0.001 A 
ATOM     72  C   UNL A   1      45.913  35.340  30.485  1.00  0.00     0.001 A 
ATOM     73  C   UNL A   1      45.571  36.373  29.613  1.00  0.00     0.000 A 
ENDBRANCH  55  68
ENDBRANCH  29  30
ENDBRANCH  22  24
ENDBRANCH  21  22
ENDBRANCH  20  21
ENDBRANCH  19  20
ENDBRANCH  18  19
ENDBRANCH   1  18
TORSDOF 17
ENDMDL
MODEL 2
REMARK VINA RESULT:      -9.5      4.375      8.920
REMARK SMILES CCc1ccc(S(=O)(=O)CC(=O)OCCOCCOC(=O)c2ccc(-c3c4nc(c(-c5ccccc5)c5ccc([nH]5)c(-c5ccccc5)c5nc(c(-c6ccccc6)c6ccc3[nH]6)C=C5)C=C4)cc2)cc1
REMARK SMILES IDX 15 1 14 2 13 3 11 4 12 5 10 6 7 7 8 8 9 9 6 10 3 11 4 12
REMARK SMILES IDX 71 13 5 14 70 15 2 16 1 17 16 18 17 19 18 20 19 21 20 22
REMARK SMILES IDX 21 23 22 24 23 25 69 26 24 27 68 28 25 29 26 30 27 31 62 32
REMARK SMILES IDX 28 33 67 34 61 35 63 36 29 37 66 38 60 39 59 40 30 42 52 43
REMARK SMILES IDX 37 44 51 45 38 46 41 47 50 48 64 49 39 50 40 51 49 53 65 54
REMARK SMILES IDX 42 55 31 56 32 57 36 58 33 59 35 60 34 61 53 62 54 63 58 64
REMARK SMILES IDX 55 65 57 66 56 67 43 68 44 69 48 70 45 71 47 72 46 73
REMARK H PARENT 63 41 41 52
REMARK Flexibility Score: inf
ROOT
ATOM      1  C   UNL A   1      32.877  28.945  25.367  1.00  0.00     0.202 C 
ENDROOT
BRANCH   1   2
ATOM      2  C   UNL A   1      31.599  29.154  24.542  1.00  0.00     0.261 C 
BRANCH   2   3
ATOM      3  O   UNL A   1      30.927  27.948  24.112  1.00  0.00    -0.462 OA
BRANCH   3   4
ATOM      4  C   UNL A   1      30.865  27.750  22.774  1.00  0.00     0.321 C 
ATOM      5  O   UNL A   1      30.397  28.573  21.988  1.00  0.00    -0.251 OA
BRANCH   4   6
ATOM      6  C   UNL A   1      31.278  26.414  22.274  1.00  0.00     0.264 C 
BRANCH   6   7
ATOM      7  S   UNL A   1      32.957  26.128  21.901  1.00  0.00     0.189 S 
ATOM      8  O   UNL A   1      33.656  27.357  22.240  1.00  0.00    -0.223 OA
ATOM      9  O   UNL A   1      33.060  25.600  20.554  1.00  0.00    -0.223 OA
BRANCH   7  10
ATOM     10  C   UNL A   1      33.653  24.909  22.989  1.00  0.00     0.067 A 
ATOM     11  C   UNL A   1      34.953  23.154  24.762  1.00  0.00    -0.048 A 
ATOM     12  C   UNL A   1      34.778  24.501  25.100  1.00  0.00     0.005 A 
ATOM     13  C   UNL A   1      34.363  22.680  23.574  1.00  0.00     0.005 A 
ATOM     14  C   UNL A   1      34.143  25.374  24.215  1.00  0.00     0.020 A 
ATOM     15  C   UNL A   1      33.717  23.552  22.683  1.00  0.00     0.020 A 
BRANCH  11  16
ATOM     16  C   UNL A   1      35.795  22.211  25.597  1.00  0.00     0.032 C 
ATOM     17  C   UNL A   1      37.307  22.402  25.494  1.00  0.00     0.009 C 
ENDBRANCH  11  16
ENDBRANCH   7  10
ENDBRANCH   6   7
ENDBRANCH   4   6
ENDBRANCH   3   4
ENDBRANCH   2   3
ENDBRANCH   1   2
BRANCH   1  18
ATOM     18  O   UNL A   1      32.896  29.468  26.693  1.00  0.00    -0.374 OA
BRANCH  18  19
ATOM     19  C   UNL A   1      32.443  30.804  26.877  1.00  0.00     0.202 C 
BRANCH  19  20
ATOM     20  C   UNL A   1      33.370  31.743  27.650  1.00  0.00     0.261 C 
BRANCH  20  21
ATOM     21  O   UNL A   1      33.156  33.121  27.337  1.00  0.00    -0.460 OA
BRANCH  21  22
ATOM     22  C   UNL A   1      33.326  33.944  28.393  1.00  0.00     0.338 C 
ATOM     23  O   UNL A   1      32.531  34.758  28.846  1.00  0.00    -0.246 OA
BRANCH  22  24
ATOM     24  C   UNL A   1      34.589  33.636  29.066  1.00  0.00     0.060 A 
ATOM     25  C   UNL A   1      35.773  33.968  28.398  1.00  0.00     0.016 A 
ATOM     26  C   UNL A   1      34.607  32.920  30.264  1.00  0.00     0.016 A 
ATOM     27  C   UNL A   1      36.990  33.519  28.898  1.00  0.00     0.010 A 
ATOM     28  C   UNL A   1      35.830  32.468  30.762  1.00  0.00     0.010 A 
ATOM     29  C   UNL A   1      37.018  32.729  30.056  1.00  0.00    -0.014 A 
BRANCH  29  30
ATOM     30  C   UNL A   1      38.283  32.066  30.437  1.00  0.00     0.031 A 
ATOM     31  C   UNL A   1      39.145  32.694  31.497  1.00  0.00     0.074 A 
ATOM     32  C   UNL A   1      38.623  30.892  29.881  1.00  0.00     0.049 A 
ATOM     33  N   UNL A   1      40.260  32.255  32.021  1.00  0.00    -0.248 NA
ATOM     34  C   UNL A   1      38.689  33.984  32.039  1.00  0.00     0.031 C 
ATOM     35  C   UNL A   1      37.845  30.185  28.864  1.00  0.00     0.029 A 
ATOM     36  N   UNL A   1      39.708  30.085  30.101  1.00  0.00    -0.354 N 
ATOM     37  C   UNL A   1      40.640  33.214  32.952  1.00  0.00     0.074 A 
ATOM     38  C   UNL A   1      39.654  34.271  32.902  1.00  0.00     0.031 C 
ATOM     39  C   UNL A   1      38.478  29.042  28.550  1.00  0.00     0.029 A 
ATOM     40  C   UNL A   1      39.712  28.952  29.328  1.00  0.00     0.049 A 
ATOM     41  H   UNL A   1      40.415  30.297  30.752  1.00  0.00     0.167 HD
ATOM     42  C   UNL A   1      41.713  33.209  33.778  1.00  0.00     0.031 A 
ATOM     43  C   UNL A   1      40.615  27.957  29.254  1.00  0.00     0.031 A 
ATOM     44  C   UNL A   1      42.697  32.162  33.811  1.00  0.00     0.049 A 
ATOM     45  C   UNL A   1      41.822  27.997  30.150  1.00  0.00     0.074 A 
ATOM     46  C   UNL A   1      43.813  32.051  34.621  1.00  0.00     0.029 A 
ATOM     47  N   UNL A   1      42.684  31.046  32.988  1.00  0.00    -0.354 N 
ATOM     48  N   UNL A   1      42.150  28.891  31.051  1.00  0.00    -0.248 NA
ATOM     49  C   UNL A   1      42.774  26.885  30.027  1.00  0.00     0.031 C 
ATOM     50  C   UNL A   1      44.502  30.891  34.255  1.00  0.00     0.029 A 
ATOM     51  C   UNL A   1      43.787  30.253  33.253  1.00  0.00     0.049 A 
ATOM     52  H   UNL A   1      41.994  30.847  32.315  1.00  0.00     0.167 HD
ATOM     53  C   UNL A   1      43.336  28.441  31.617  1.00  0.00     0.074 A 
ATOM     54  C   UNL A   1      43.659  27.186  30.967  1.00  0.00     0.031 C 
ATOM     55  C   UNL A   1      44.090  29.013  32.587  1.00  0.00     0.031 A 
BRANCH  42  56
ATOM     56  C   UNL A   1      41.890  34.391  34.688  1.00  0.00    -0.014 A 
ATOM     57  C   UNL A   1      41.440  34.360  36.017  1.00  0.00     0.009 A 
ATOM     58  C   UNL A   1      42.545  35.540  34.219  1.00  0.00     0.009 A 
ATOM     59  C   UNL A   1      41.618  35.468  36.849  1.00  0.00     0.001 A 
ATOM     60  C   UNL A   1      42.741  36.636  35.059  1.00  0.00     0.001 A 
ATOM     61  C   UNL A   1      42.272  36.603  36.371  1.00  0.00     0.000 A 
ENDBRANCH  42  56
BRANCH  43  62
ATOM     62  C   UNL A   1      40.409  26.845  28.292  1.00  0.00    -0.014 A 
ATOM     63  C   UNL A   1      39.646  25.722  28.645  1.00  0.00     0.009 A 
ATOM     64  C   UNL A   1      40.964  26.913  27.003  1.00  0.00     0.009 A 
ATOM     65  C   UNL A   1      39.458  24.681  27.731  1.00  0.00     0.001 A 
ATOM     66  C   UNL A   1      40.753  25.883  26.085  1.00  0.00     0.001 A 
ATOM     67  C   UNL A   1      40.006  24.766  26.451  1.00  0.00     0.000 A 
ENDBRANCH  43  62
BRANCH  55  68
ATOM     68  C   UNL A   1      45.326  28.277  33.016  1.00  0.00    -0.014 A 
ATOM     69  C   UNL A   1      45.277  27.309  34.031  1.00  0.00     0.009 A 
ATOM     70  C   UNL A   1      46.544  28.522  32.362  1.00  0.00     0.009 A 
ATOM     71  C   UNL A   1      46.433  26.620  34.402  1.00  0.00     0.001 A 
ATOM     72  C   UNL A   1      47.691  27.813  32.718  1.00  0.00     0.001 A 
ATOM     73  C   UNL A   1      47.637  26.869  33.742  1.00  0.00     0.000 A 
ENDBRANCH  55  68
ENDBRANCH  29  30
ENDBRANCH  22  24
ENDBRANCH  21  22
ENDBRANCH  20  21
ENDBRANCH  19  20
ENDBRANCH  18  19
ENDBRANCH   1  18
TORSDOF 17
ENDMDL
MODEL 3
REMARK VINA RESULT:      -9.4      3.622      8.030
REMARK SMILES CCc1ccc(S(=O)(=O)CC(=O)OCCOCCOC(=O)c2ccc(-c3c4nc(c(-c5ccccc5)c5ccc([nH]5)c(-c5ccccc5)c5nc(c(-c6ccccc6)c6ccc3[nH]6)C=C5)C=C4)cc2)cc1
REMARK SMILES IDX 15 1 14 2 13 3 11 4 12 5 10 6 7 7 8 8 9 9 6 10 3 11 4 12
REMARK SMILES IDX 71 13 5 14 70 15 2 16 1 17 16 18 17 19 18 20 19 21 20 22
REMARK SMILES IDX 21 23 22 24 23 25 69 26 24 27 68 28 25 29 26 30 27 31 62 32
REMARK SMILES IDX 28 33 67 34 61 35 63 36 29 37 66 38 60 39 59 40 30 42 52 43
REMARK SMILES IDX 37 44 51 45 38 46 41 47 50 48 64 49 39 50 40 51 49 53 65 54
REMARK SMILES IDX 42 55 31 56 32 57 36 58 33 59 35 60 34 61 53 62 54 63 58 64
REMARK SMILES IDX 55 65 57 66 56 67 43 68 44 69 48 70 45 71 47 72 46 73
REMARK H PARENT 63 41 41 52
REMARK Flexibility Score: inf
ROOT
ATOM      1  C   UNL A   1      31.583  28.648  23.786  1.00  0.00     0.202 C 
ENDROOT
BRANCH   1   2
ATOM      2  C   UNL A   1      31.660  27.247  23.163  1.00  0.00     0.261 C 
BRANCH   2   3
ATOM      3  O   UNL A   1      32.640  27.081  22.113  1.00  0.00    -0.462 OA
BRANCH   3   4
ATOM      4  C   UNL A   1      32.867  25.808  21.711  1.00  0.00     0.321 C 
ATOM      5  O   UNL A   1      33.183  25.507  20.561  1.00  0.00    -0.251 OA
BRANCH   4   6
ATOM      6  C   UNL A   1      32.595  24.734  22.699  1.00  0.00     0.264 C 
BRANCH   6   7
ATOM      7  S   UNL A   1      33.921  24.060  23.609  1.00  0.00     0.189 S 
ATOM      8  O   UNL A   1      33.865  24.688  24.920  1.00  0.00    -0.223 OA
ATOM      9  O   UNL A   1      35.135  24.162  22.823  1.00  0.00    -0.223 OA
BRANCH   7  10
ATOM     10  C   UNL A   1      33.659  22.334  23.935  1.00  0.00     0.067 A 
ATOM     11  C   UNL A   1      33.508  19.569  24.429  1.00  0.00    -0.048 A 
ATOM     12  C   UNL A   1      34.476  20.351  25.069  1.00  0.00     0.005 A 
ATOM     13  C   UNL A   1      32.546  20.216  23.629  1.00  0.00     0.005 A 
ATOM     14  C   UNL A   1      34.558  21.721  24.815  1.00  0.00     0.020 A 
ATOM     15  C   UNL A   1      32.619  21.595  23.375  1.00  0.00     0.020 A 
BRANCH  11  16
ATOM     16  C   UNL A   1      33.495  18.056  24.523  1.00  0.00     0.032 C 
ATOM     17  C   UNL A   1      32.963  17.319  23.296  1.00  0.00     0.009 C 
ENDBRANCH  11  16
ENDBRANCH   7  10
ENDBRANCH   6   7
ENDBRANCH   4   6
ENDBRANCH   3   4
ENDBRANCH   2   3
ENDBRANCH   1   2
BRANCH   1  18
ATOM     18  O   UNL A   1      31.425  28.730  25.200  1.00  0.00    -0.374 OA
BRANCH  18  19
ATOM     19  C   UNL A   1      32.164  27.811  25.997  1.00  0.00     0.202 C 
BRANCH  19  20
ATOM     20  C   UNL A   1      33.619  28.173  26.291  1.00  0.00     0.261 C 
BRANCH  20  21
ATOM     21  O   UNL A   1      33.803  28.737  27.592  1.00  0.00    -0.460 OA
BRANCH  21  22
ATOM     22  C   UNL A   1      34.353  29.969  27.572  1.00  0.00     0.338 C 
ATOM     23  O   UNL A   1      33.807  31.031  27.303  1.00  0.00    -0.246 OA
BRANCH  22  24
ATOM     24  C   UNL A   1      35.726  29.908  28.076  1.00  0.00     0.060 A 
ATOM     25  C   UNL A   1      36.762  30.047  27.145  1.00  0.00     0.016 A 
ATOM     26  C   UNL A   1      35.987  29.590  29.410  1.00  0.00     0.016 A 
ATOM     27  C   UNL A   1      38.072  29.799  27.537  1.00  0.00     0.010 A 
ATOM     28  C   UNL A   1      37.303  29.338  29.800  1.00  0.00     0.010 A 
ATOM     29  C   UNL A   1      38.341  29.399  28.854  1.00  0.00    -0.014 A 
BRANCH  29  30
ATOM     30  C   UNL A   1      39.696  28.912  29.189  1.00  0.00     0.031 A 
ATOM     31  C   UNL A   1      40.596  29.776  30.028  1.00  0.00     0.074 A 
ATOM     32  C   UNL A   1      40.090  27.690  28.794  1.00  0.00     0.049 A 
ATOM     33  N   UNL A   1      41.795  29.522  30.484  1.00  0.00    -0.248 NA
ATOM     34  C   UNL A   1      40.075  31.100  30.404  1.00  0.00     0.031 C 
ATOM     35  C   UNL A   1      39.285  26.761  28.000  1.00  0.00     0.029 A 
ATOM     36  N   UNL A   1      41.264  27.019  29.015  1.00  0.00    -0.354 N 
ATOM     37  C   UNL A   1      42.172  30.652  31.199  1.00  0.00     0.074 A 
ATOM     38  C   UNL A   1      41.089  31.604  31.093  1.00  0.00     0.031 C 
ATOM     39  C   UNL A   1      39.991  25.635  27.804  1.00  0.00     0.029 A 
ATOM     40  C   UNL A   1      41.300  25.774  28.438  1.00  0.00     0.049 A 
ATOM     41  H   UNL A   1      42.009  27.394  29.537  1.00  0.00     0.167 HD
ATOM     42  C   UNL A   1      43.317  30.871  31.886  1.00  0.00     0.031 A 
ATOM     43  C   UNL A   1      42.282  24.856  28.423  1.00  0.00     0.031 A 
ATOM     44  C   UNL A   1      44.396  29.925  31.974  1.00  0.00     0.049 A 
ATOM     45  C   UNL A   1      43.563  25.141  29.156  1.00  0.00     0.074 A 
ATOM     46  C   UNL A   1      45.593  30.042  32.658  1.00  0.00     0.029 A 
ATOM     47  N   UNL A   1      44.408  28.688  31.348  1.00  0.00    -0.354 N 
ATOM     48  N   UNL A   1      43.892  26.199  29.858  1.00  0.00    -0.248 NA
ATOM     49  C   UNL A   1      44.601  24.103  29.106  1.00  0.00     0.031 C 
ATOM     50  C   UNL A   1      46.351  28.893  32.407  1.00  0.00     0.029 A 
ATOM     51  C   UNL A   1      45.603  28.040  31.610  1.00  0.00     0.049 A 
ATOM     52  H   UNL A   1      43.676  28.324  30.800  1.00  0.00     0.167 HD
ATOM     53  C   UNL A   1      45.167  25.946  30.349  1.00  0.00     0.074 A 
ATOM     54  C   UNL A   1      45.542  24.628  29.877  1.00  0.00     0.031 C 
ATOM     55  C   UNL A   1      45.956  26.732  31.121  1.00  0.00     0.031 A 
BRANCH  42  56
ATOM     56  C   UNL A   1      43.471  32.201  32.568  1.00  0.00    -0.014 A 
ATOM     57  C   UNL A   1      43.051  32.392  33.893  1.00  0.00     0.009 A 
ATOM     58  C   UNL A   1      44.073  33.269  31.885  1.00  0.00     0.009 A 
ATOM     59  C   UNL A   1      43.205  33.636  34.511  1.00  0.00     0.001 A 
ATOM     60  C   UNL A   1      44.247  34.503  32.512  1.00  0.00     0.001 A 
ATOM     61  C   UNL A   1      43.807  34.688  33.822  1.00  0.00     0.000 A 
ENDBRANCH  42  56
BRANCH  43  62
ATOM     62  C   UNL A   1      42.088  23.583  27.682  1.00  0.00    -0.014 A 
ATOM     63  C   UNL A   1      42.490  23.464  26.343  1.00  0.00     0.009 A 
ATOM     64  C   UNL A   1      41.513  22.473  28.321  1.00  0.00     0.009 A 
ATOM     65  C   UNL A   1      42.305  22.261  25.655  1.00  0.00     0.001 A 
ATOM     66  C   UNL A   1      41.352  21.266  27.638  1.00  0.00     0.001 A 
ATOM     67  C   UNL A   1      41.742  21.163  26.305  1.00  0.00     0.000 A 
ENDBRANCH  43  62
BRANCH  55  68
ATOM     68  C   UNL A   1      47.293  26.179  31.519  1.00  0.00    -0.014 A 
ATOM     69  C   UNL A   1      47.490  25.593  32.779  1.00  0.00     0.009 A 
ATOM     70  C   UNL A   1      48.356  26.201  30.602  1.00  0.00     0.009 A 
ATOM     71  C   UNL A   1      48.736  25.065  33.122  1.00  0.00     0.001 A 
ATOM     72  C   UNL A   1      49.592  25.649  30.939  1.00  0.00     0.001 A 
ATOM     73  C   UNL A   1      49.782  25.089  32.201  1.00  0.00     0.000 A 
ENDBRANCH  55  68
ENDBRANCH  29  30
ENDBRANCH  22  24
ENDBRANCH  21  22
ENDBRANCH  20  21
ENDBRANCH  19  20
ENDBRANCH  18  19
ENDBRANCH   1  18
TORSDOF 17
ENDMDL
