MODEL 1
REMARK VINA RESULT:     -10.0      0.000      0.000
REMARK SMILES C[C@H](Cc1ccco1)[NH2+]Cc1cc(C(=O)OCCOCCOC(=O)c2ccc(-c3c4nc(c(-c5ccccc5)c5ccc([nH]5)c(-c5ccccc5)c5nc(c(-c6ccccc6)c6ccc3[nH]6)C=C5)C=C4)cc2)cs1
REMARK SMILES IDX 17 1 16 2 14 3 15 4 13 5 11 6 12 7 74 8 73 9 10 10 9 11 2 14
REMARK SMILES IDX 1 15 3 16 4 17 5 18 8 19 6 20 7 21 18 22 19 23 20 24 21 25
REMARK SMILES IDX 22 26 23 27 24 28 25 29 26 30 72 31 27 32 71 33 28 34 29 35
REMARK SMILES IDX 30 36 65 37 31 38 70 39 64 40 66 41 32 42 69 43 63 44 62 45
REMARK SMILES IDX 33 47 55 48 40 49 54 50 41 51 44 52 53 53 67 54 42 55 43 56
REMARK SMILES IDX 52 58 68 59 45 60 34 61 35 62 39 63 36 64 38 65 37 66 56 67
REMARK SMILES IDX 57 68 61 69 58 70 60 71 59 72 46 73 47 74 51 75 48 76 50 77
REMARK SMILES IDX 49 78
REMARK H PARENT 9 12 9 13 66 46 44 57
REMARK Flexibility Score: inf
ROOT
ATOM      1  C   UNL A   1      43.545  18.782  25.538  1.00  0.00     0.261 C 
ENDROOT
BRANCH   1   2
ATOM      2  O   UNL A   1      42.242  19.364  25.370  1.00  0.00    -0.460 OA
BRANCH   2   3
ATOM      3  C   UNL A   1      41.636  19.787  26.517  1.00  0.00     0.339 C 
ATOM      4  O   UNL A   1      42.089  19.631  27.645  1.00  0.00    -0.246 OA
BRANCH   3   5
ATOM      5  C   UNL A   1      40.398  20.523  26.260  1.00  0.00     0.071 A 
ATOM      6  C   UNL A   1      38.251  21.049  25.442  1.00  0.00     0.060 A 
ATOM      7  C   UNL A   1      39.227  20.073  25.558  1.00  0.00     0.037 A 
ATOM      8  S   UNL A   1      38.714  22.480  26.269  1.00  0.00    -0.142 S 
ATOM      9  C   UNL A   1      40.238  21.833  26.670  1.00  0.00     0.081 A 
BRANCH   6  10
ATOM     10  C   UNL A   1      36.925  20.965  24.726  1.00  0.00     0.308 C 
BRANCH  10  11
ATOM     11  N   UNL A   1      35.776  20.864  25.627  1.00  0.00    -0.339 N 
ATOM     12  H   UNL A   1      35.698  19.890  25.918  1.00  0.00     0.346 HD
ATOM     13  H   UNL A   1      35.970  21.523  26.380  1.00  0.00     0.346 HD
BRANCH  11  14
ATOM     14  C   UNL A   1      34.462  21.275  25.087  1.00  0.00     0.187 C 
ATOM     15  C   UNL A   1      34.050  22.702  25.474  1.00  0.00     0.075 C 
BRANCH  14  16
ATOM     16  C   UNL A   1      33.429  20.190  25.515  1.00  0.00     0.140 C 
BRANCH  16  17
ATOM     17  C   UNL A   1      33.464  18.942  24.706  1.00  0.00     0.109 A 
ATOM     18  C   UNL A   1      32.479  18.228  24.055  1.00  0.00     0.046 A 
ATOM     19  O   UNL A   1      34.680  18.366  24.497  1.00  0.00    -0.469 OA
ATOM     20  C   UNL A   1      33.133  17.167  23.387  1.00  0.00     0.042 A 
ATOM     21  C   UNL A   1      34.468  17.289  23.697  1.00  0.00     0.195 A 
ENDBRANCH  16  17
ENDBRANCH  14  16
ENDBRANCH  11  14
ENDBRANCH  10  11
ENDBRANCH   6  10
ENDBRANCH   3   5
ENDBRANCH   2   3
ENDBRANCH   1   2
BRANCH   1  22
ATOM     22  C   UNL A   1      44.485  19.233  24.419  1.00  0.00     0.202 C 
BRANCH  22  23
ATOM     23  O   UNL A   1      45.728  19.767  24.874  1.00  0.00    -0.374 OA
BRANCH  23  24
ATOM     24  C   UNL A   1      45.708  21.132  25.303  1.00  0.00     0.202 C 
BRANCH  24  25
ATOM     25  C   UNL A   1      44.861  22.062  24.427  1.00  0.00     0.261 C 
BRANCH  25  26
ATOM     26  O   UNL A   1      44.124  23.000  25.236  1.00  0.00    -0.460 OA
BRANCH  26  27
ATOM     27  C   UNL A   1      44.612  24.263  25.239  1.00  0.00     0.338 C 
ATOM     28  O   UNL A   1      45.495  24.718  24.532  1.00  0.00    -0.246 OA
BRANCH  27  29
ATOM     29  C   UNL A   1      43.789  25.112  26.126  1.00  0.00     0.060 A 
ATOM     30  C   UNL A   1      44.217  26.430  26.331  1.00  0.00     0.016 A 
ATOM     31  C   UNL A   1      42.659  24.625  26.787  1.00  0.00     0.016 A 
ATOM     32  C   UNL A   1      43.549  27.249  27.239  1.00  0.00     0.010 A 
ATOM     33  C   UNL A   1      41.991  25.447  27.702  1.00  0.00     0.010 A 
ATOM     34  C   UNL A   1      42.456  26.749  27.960  1.00  0.00    -0.014 A 
BRANCH  34  35
ATOM     35  C   UNL A   1      41.904  27.538  29.087  1.00  0.00     0.031 A 
ATOM     36  C   UNL A   1      42.606  27.500  30.417  1.00  0.00     0.074 A 
ATOM     37  C   UNL A   1      40.814  28.308  28.923  1.00  0.00     0.049 A 
ATOM     38  N   UNL A   1      42.301  28.111  31.533  1.00  0.00    -0.248 NA
ATOM     39  C   UNL A   1      43.814  26.663  30.499  1.00  0.00     0.031 C 
ATOM     40  C   UNL A   1      40.065  28.464  27.678  1.00  0.00     0.029 A 
ATOM     41  N   UNL A   1      40.149  29.107  29.819  1.00  0.00    -0.354 N 
ATOM     42  C   UNL A   1      43.274  27.730  32.449  1.00  0.00     0.074 A 
ATOM     43  C   UNL A   1      44.161  26.812  31.768  1.00  0.00     0.031 C 
ATOM     44  C   UNL A   1      39.040  29.307  27.889  1.00  0.00     0.029 A 
ATOM     45  C   UNL A   1      39.044  29.727  29.289  1.00  0.00     0.049 A 
ATOM     46  H   UNL A   1      40.436  29.224  30.754  1.00  0.00     0.167 HD
ATOM     47  C   UNL A   1      43.421  28.113  33.740  1.00  0.00     0.031 A 
ATOM     48  C   UNL A   1      38.134  30.530  29.872  1.00  0.00     0.031 A 
ATOM     49  C   UNL A   1      42.536  29.015  34.425  1.00  0.00     0.049 A 
ATOM     50  C   UNL A   1      38.279  30.886  31.327  1.00  0.00     0.074 A 
ATOM     51  C   UNL A   1      42.613  29.474  35.728  1.00  0.00     0.029 A 
ATOM     52  N   UNL A   1      41.407  29.590  33.863  1.00  0.00    -0.354 N 
ATOM     53  N   UNL A   1      39.220  30.541  32.172  1.00  0.00    -0.248 NA
ATOM     54  C   UNL A   1      37.238  31.750  31.904  1.00  0.00     0.031 C 
ATOM     55  C   UNL A   1      41.501  30.289  35.970  1.00  0.00     0.029 A 
ATOM     56  C   UNL A   1      40.763  30.379  34.801  1.00  0.00     0.049 A 
ATOM     57  H   UNL A   1      41.108  29.456  32.935  1.00  0.00     0.167 HD
ATOM     58  C   UNL A   1      38.900  31.168  33.371  1.00  0.00     0.074 A 
ATOM     59  C   UNL A   1      37.686  31.922  33.140  1.00  0.00     0.031 C 
ATOM     60  C   UNL A   1      39.557  31.125  34.556  1.00  0.00     0.031 A 
BRANCH  47  61
ATOM     61  C   UNL A   1      44.573  27.526  34.504  1.00  0.00    -0.014 A 
ATOM     62  C   UNL A   1      44.443  26.316  35.203  1.00  0.00     0.009 A 
ATOM     63  C   UNL A   1      45.814  28.181  34.503  1.00  0.00     0.009 A 
ATOM     64  C   UNL A   1      45.525  25.789  35.912  1.00  0.00     0.001 A 
ATOM     65  C   UNL A   1      46.902  27.640  35.191  1.00  0.00     0.001 A 
ATOM     66  C   UNL A   1      46.754  26.449  35.901  1.00  0.00     0.000 A 
ENDBRANCH  47  61
BRANCH  48  67
ATOM     67  C   UNL A   1      36.988  31.050  29.080  1.00  0.00    -0.014 A 
ATOM     68  C   UNL A   1      36.944  32.396  28.684  1.00  0.00     0.009 A 
ATOM     69  C   UNL A   1      35.922  30.205  28.736  1.00  0.00     0.009 A 
ATOM     70  C   UNL A   1      35.843  32.887  27.978  1.00  0.00     0.001 A 
ATOM     71  C   UNL A   1      34.836  30.693  28.008  1.00  0.00     0.001 A 
ATOM     72  C   UNL A   1      34.793  32.036  27.638  1.00  0.00     0.000 A 
ENDBRANCH  48  67
BRANCH  60  73
ATOM     73  C   UNL A   1      38.999  31.946  35.685  1.00  0.00    -0.014 A 
ATOM     74  C   UNL A   1      38.189  31.370  36.675  1.00  0.00     0.009 A 
ATOM     75  C   UNL A   1      39.327  33.308  35.780  1.00  0.00     0.009 A 
ATOM     76  C   UNL A   1      37.695  32.150  37.722  1.00  0.00     0.001 A 
ATOM     77  C   UNL A   1      38.853  34.078  36.842  1.00  0.00     0.001 A 
ATOM     78  C   UNL A   1      38.030  33.501  37.808  1.00  0.00     0.000 A 
ENDBRANCH  60  73
ENDBRANCH  34  35
ENDBRANCH  27  29
ENDBRANCH  26  27
ENDBRANCH  25  26
ENDBRANCH  24  25
ENDBRANCH  23  24
ENDBRANCH  22  23
ENDBRANCH   1  22
TORSDOF 19
ENDMDL
MODEL 2
REMARK VINA RESULT:      -9.5      4.351      7.125
REMARK SMILES C[C@H](Cc1ccco1)[NH2+]Cc1cc(C(=O)OCCOCCOC(=O)c2ccc(-c3c4nc(c(-c5ccccc5)c5ccc([nH]5)c(-c5ccccc5)c5nc(c(-c6ccccc6)c6ccc3[nH]6)C=C5)C=C4)cc2)cs1
REMARK SMILES IDX 17 1 16 2 14 3 15 4 13 5 11 6 12 7 74 8 73 9 10 10 9 11 2 14
REMARK SMILES IDX 1 15 3 16 4 17 5 18 8 19 6 20 7 21 18 22 19 23 20 24 21 25
REMARK SMILES IDX 22 26 23 27 24 28 25 29 26 30 72 31 27 32 71 33 28 34 29 35
REMARK SMILES IDX 30 36 65 37 31 38 70 39 64 40 66 41 32 42 69 43 63 44 62 45
REMARK SMILES IDX 33 47 55 48 40 49 54 50 41 51 44 52 53 53 67 54 42 55 43 56
REMARK SMILES IDX 52 58 68 59 45 60 34 61 35 62 39 63 36 64 38 65 37 66 56 67
REMARK SMILES IDX 57 68 61 69 58 70 60 71 59 72 46 73 47 74 51 75 48 76 50 77
REMARK SMILES IDX 49 78
REMARK H PARENT 9 12 9 13 66 46 44 57
REMARK Flexibility Score: inf
ROOT
ATOM      1  C   UNL A   1      45.816  22.452  23.825  1.00  0.00     0.261 C 
ENDROOT
BRANCH   1   2
ATOM      2  O   UNL A   1      45.541  23.649  24.571  1.00  0.00    -0.460 OA
BRANCH   2   3
ATOM      3  C   UNL A   1      46.426  23.933  25.570  1.00  0.00     0.339 C 
ATOM      4  O   UNL A   1      46.744  23.157  26.463  1.00  0.00    -0.246 OA
BRANCH   3   5
ATOM      5  C   UNL A   1      47.024  25.261  25.431  1.00  0.00     0.071 A 
ATOM      6  C   UNL A   1      47.502  27.537  25.812  1.00  0.00     0.060 A 
ATOM      7  C   UNL A   1      46.828  26.416  26.264  1.00  0.00     0.037 A 
ATOM      8  S   UNL A   1      48.451  27.166  24.430  1.00  0.00    -0.142 S 
ATOM      9  C   UNL A   1      47.872  25.564  24.382  1.00  0.00     0.081 A 
BRANCH   6  10
ATOM     10  C   UNL A   1      47.487  28.933  26.386  1.00  0.00     0.308 C 
BRANCH  10  11
ATOM     11  N   UNL A   1      46.364  29.185  27.291  1.00  0.00    -0.339 N 
ATOM     12  H   UNL A   1      45.724  28.395  27.213  1.00  0.00     0.346 HD
ATOM     13  H   UNL A   1      46.786  29.307  28.211  1.00  0.00     0.346 HD
BRANCH  11  14
ATOM     14  C   UNL A   1      45.581  30.418  27.060  1.00  0.00     0.187 C 
ATOM     15  C   UNL A   1      46.196  31.673  27.695  1.00  0.00     0.075 C 
BRANCH  14  16
ATOM     16  C   UNL A   1      44.123  30.131  27.529  1.00  0.00     0.140 C 
BRANCH  16  17
ATOM     17  C   UNL A   1      43.366  29.183  26.670  1.00  0.00     0.109 A 
ATOM     18  C   UNL A   1      42.089  29.218  26.146  1.00  0.00     0.046 A 
ATOM     19  O   UNL A   1      44.016  28.062  26.251  1.00  0.00    -0.469 OA
ATOM     20  C   UNL A   1      41.960  28.064  25.340  1.00  0.00     0.042 A 
ATOM     21  C   UNL A   1      43.154  27.389  25.446  1.00  0.00     0.195 A 
ENDBRANCH  16  17
ENDBRANCH  14  16
ENDBRANCH  11  14
ENDBRANCH  10  11
ENDBRANCH   6  10
ENDBRANCH   3   5
ENDBRANCH   2   3
ENDBRANCH   1   2
BRANCH   1  22
ATOM     22  C   UNL A   1      44.970  21.288  24.344  1.00  0.00     0.202 C 
BRANCH  22  23
ATOM     23  O   UNL A   1      45.720  20.260  24.990  1.00  0.00    -0.374 OA
BRANCH  23  24
ATOM     24  C   UNL A   1      44.978  19.116  25.424  1.00  0.00     0.202 C 
BRANCH  24  25
ATOM     25  C   UNL A   1      43.477  19.180  25.122  1.00  0.00     0.261 C 
BRANCH  25  26
ATOM     26  O   UNL A   1      42.708  19.173  26.341  1.00  0.00    -0.460 OA
BRANCH  26  27
ATOM     27  C   UNL A   1      41.662  20.034  26.366  1.00  0.00     0.338 C 
ATOM     28  O   UNL A   1      40.489  19.780  26.151  1.00  0.00    -0.246 OA
BRANCH  27  29
ATOM     29  C   UNL A   1      42.110  21.347  26.876  1.00  0.00     0.060 A 
ATOM     30  C   UNL A   1      42.144  21.518  28.265  1.00  0.00     0.016 A 
ATOM     31  C   UNL A   1      42.438  22.405  26.024  1.00  0.00     0.016 A 
ATOM     32  C   UNL A   1      42.452  22.764  28.808  1.00  0.00     0.010 A 
ATOM     33  C   UNL A   1      42.743  23.657  26.571  1.00  0.00     0.010 A 
ATOM     34  C   UNL A   1      42.715  23.851  27.964  1.00  0.00    -0.014 A 
BRANCH  34  35
ATOM     35  C   UNL A   1      42.806  25.215  28.537  1.00  0.00     0.031 A 
ATOM     36  C   UNL A   1      44.124  25.690  29.083  1.00  0.00     0.074 A 
ATOM     37  C   UNL A   1      41.741  26.035  28.541  1.00  0.00     0.049 A 
ATOM     38  N   UNL A   1      44.431  26.841  29.627  1.00  0.00    -0.248 NA
ATOM     39  C   UNL A   1      45.249  24.742  29.004  1.00  0.00     0.031 C 
ATOM     40  C   UNL A   1      40.419  25.712  28.008  1.00  0.00     0.029 A 
ATOM     41  N   UNL A   1      41.610  27.318  29.013  1.00  0.00    -0.354 N 
ATOM     42  C   UNL A   1      45.777  26.754  29.958  1.00  0.00     0.074 A 
ATOM     43  C   UNL A   1      46.222  25.429  29.583  1.00  0.00     0.031 C 
ATOM     44  C   UNL A   1      39.608  26.770  28.184  1.00  0.00     0.029 A 
ATOM     45  C   UNL A   1      40.346  27.831  28.868  1.00  0.00     0.049 A 
ATOM     46  H   UNL A   1      42.353  27.822  29.419  1.00  0.00     0.167 HD
ATOM     47  C   UNL A   1      46.576  27.693  30.519  1.00  0.00     0.031 A 
ATOM     48  C   UNL A   1      39.838  29.017  29.254  1.00  0.00     0.031 A 
ATOM     49  C   UNL A   1      46.137  29.007  30.904  1.00  0.00     0.049 A 
ATOM     50  C   UNL A   1      40.727  30.019  29.939  1.00  0.00     0.074 A 
ATOM     51  C   UNL A   1      46.877  30.033  31.465  1.00  0.00     0.029 A 
ATOM     52  N   UNL A   1      44.838  29.473  30.775  1.00  0.00    -0.354 N 
ATOM     53  N   UNL A   1      42.005  29.934  30.220  1.00  0.00    -0.248 NA
ATOM     54  C   UNL A   1      40.103  31.285  30.353  1.00  0.00     0.031 C 
ATOM     55  C   UNL A   1      46.014  31.104  31.721  1.00  0.00     0.029 A 
ATOM     56  C   UNL A   1      44.749  30.763  31.269  1.00  0.00     0.049 A 
ATOM     57  H   UNL A   1      44.091  28.962  30.388  1.00  0.00     0.167 HD
ATOM     58  C   UNL A   1      42.344  31.143  30.816  1.00  0.00     0.074 A 
ATOM     59  C   UNL A   1      41.140  31.948  30.846  1.00  0.00     0.031 C 
ATOM     60  C   UNL A   1      43.545  31.552  31.291  1.00  0.00     0.031 A 
BRANCH  47  61
ATOM     61  C   UNL A   1      48.007  27.316  30.776  1.00  0.00    -0.014 A 
ATOM     62  C   UNL A   1      49.006  27.553  29.819  1.00  0.00     0.009 A 
ATOM     63  C   UNL A   1      48.364  26.740  32.005  1.00  0.00     0.009 A 
ATOM     64  C   UNL A   1      50.330  27.190  30.077  1.00  0.00     0.001 A 
ATOM     65  C   UNL A   1      49.692  26.403  32.270  1.00  0.00     0.001 A 
ATOM     66  C   UNL A   1      50.673  26.621  31.303  1.00  0.00     0.000 A 
ENDBRANCH  47  61
BRANCH  48  67
ATOM     67  C   UNL A   1      38.404  29.325  29.013  1.00  0.00    -0.014 A 
ATOM     68  C   UNL A   1      37.966  29.755  27.751  1.00  0.00     0.009 A 
ATOM     69  C   UNL A   1      37.469  29.210  30.053  1.00  0.00     0.009 A 
ATOM     70  C   UNL A   1      36.624  30.084  27.544  1.00  0.00     0.001 A 
ATOM     71  C   UNL A   1      36.124  29.514  29.835  1.00  0.00     0.001 A 
ATOM     72  C   UNL A   1      35.705  29.960  28.584  1.00  0.00     0.000 A 
ENDBRANCH  48  67
BRANCH  60  73
ATOM     73  C   UNL A   1      43.629  32.944  31.851  1.00  0.00    -0.014 A 
ATOM     74  C   UNL A   1      43.911  34.046  31.029  1.00  0.00     0.009 A 
ATOM     75  C   UNL A   1      43.379  33.159  33.216  1.00  0.00     0.009 A 
ATOM     76  C   UNL A   1      43.969  35.331  31.570  1.00  0.00     0.001 A 
ATOM     77  C   UNL A   1      43.412  34.448  33.748  1.00  0.00     0.001 A 
ATOM     78  C   UNL A   1      43.715  35.532  32.926  1.00  0.00     0.000 A 
ENDBRANCH  60  73
ENDBRANCH  34  35
ENDBRANCH  27  29
ENDBRANCH  26  27
ENDBRANCH  25  26
ENDBRANCH  24  25
ENDBRANCH  23  24
ENDBRANCH  22  23
ENDBRANCH   1  22
TORSDOF 19
ENDMDL
MODEL 3
REMARK VINA RESULT:      -9.4      0.721      5.958
REMARK SMILES C[C@H](Cc1ccco1)[NH2+]Cc1cc(C(=O)OCCOCCOC(=O)c2ccc(-c3c4nc(c(-c5ccccc5)c5ccc([nH]5)c(-c5ccccc5)c5nc(c(-c6ccccc6)c6ccc3[nH]6)C=C5)C=C4)cc2)cs1
REMARK SMILES IDX 17 1 16 2 14 3 15 4 13 5 11 6 12 7 74 8 73 9 10 10 9 11 2 14
REMARK SMILES IDX 1 15 3 16 4 17 5 18 8 19 6 20 7 21 18 22 19 23 20 24 21 25
REMARK SMILES IDX 22 26 23 27 24 28 25 29 26 30 72 31 27 32 71 33 28 34 29 35
REMARK SMILES IDX 30 36 65 37 31 38 70 39 64 40 66 41 32 42 69 43 63 44 62 45
REMARK SMILES IDX 33 47 55 48 40 49 54 50 41 51 44 52 53 53 67 54 42 55 43 56
REMARK SMILES IDX 52 58 68 59 45 60 34 61 35 62 39 63 36 64 38 65 37 66 56 67
REMARK SMILES IDX 57 68 61 69 58 70 60 71 59 72 46 73 47 74 51 75 48 76 50 77
REMARK SMILES IDX 49 78
REMARK H PARENT 9 12 9 13 66 46 44 57
REMARK Flexibility Score: inf
ROOT
ATOM      1  C   UNL A   1      43.143  18.810  25.825  1.00  0.00     0.261 C 
ENDROOT
BRANCH   1   2
ATOM      2  O   UNL A   1      42.131  19.743  25.410  1.00  0.00    -0.460 OA
BRANCH   2   3
ATOM      3  C   UNL A   1      41.488  20.399  26.419  1.00  0.00     0.339 C 
ATOM      4  O   UNL A   1      42.013  20.748  27.470  1.00  0.00    -0.246 OA
BRANCH   3   5
ATOM      5  C   UNL A   1      40.098  20.711  26.090  1.00  0.00     0.071 A 
ATOM      6  C   UNL A   1      37.896  20.479  25.283  1.00  0.00     0.060 A 
ATOM      7  C   UNL A   1      39.101  19.842  25.527  1.00  0.00     0.037 A 
ATOM      8  S   UNL A   1      37.942  22.107  25.827  1.00  0.00    -0.142 S 
ATOM      9  C   UNL A   1      39.582  21.981  26.271  1.00  0.00     0.081 A 
BRANCH   6  10
ATOM     10  C   UNL A   1      36.650  19.912  24.649  1.00  0.00     0.308 C 
BRANCH  10  11
ATOM     11  N   UNL A   1      35.433  20.152  25.427  1.00  0.00    -0.339 N 
ATOM     12  H   UNL A   1      35.156  19.265  25.847  1.00  0.00     0.346 HD
ATOM     13  H   UNL A   1      35.683  20.883  26.092  1.00  0.00     0.346 HD
BRANCH  11  14
ATOM     14  C   UNL A   1      34.262  20.682  24.695  1.00  0.00     0.187 C 
ATOM     15  C   UNL A   1      34.040  22.189  24.885  1.00  0.00     0.075 C 
BRANCH  14  16
ATOM     16  C   UNL A   1      33.034  19.814  25.100  1.00  0.00     0.140 C 
BRANCH  16  17
ATOM     17  C   UNL A   1      33.245  18.346  24.994  1.00  0.00     0.109 A 
ATOM     18  C   UNL A   1      32.580  17.268  25.544  1.00  0.00     0.046 A 
ATOM     19  O   UNL A   1      34.248  17.914  24.181  1.00  0.00    -0.469 OA
ATOM     20  C   UNL A   1      33.196  16.110  25.016  1.00  0.00     0.042 A 
ATOM     21  C   UNL A   1      34.212  16.557  24.201  1.00  0.00     0.195 A 
ENDBRANCH  16  17
ENDBRANCH  14  16
ENDBRANCH  11  14
ENDBRANCH  10  11
ENDBRANCH   6  10
ENDBRANCH   3   5
ENDBRANCH   2   3
ENDBRANCH   1   2
BRANCH   1  22
ATOM     22  C   UNL A   1      44.520  19.253  25.328  1.00  0.00     0.202 C 
BRANCH  22  23
ATOM     23  O   UNL A   1      44.492  20.032  24.133  1.00  0.00    -0.374 OA
BRANCH  23  24
ATOM     24  C   UNL A   1      45.105  21.322  24.206  1.00  0.00     0.202 C 
BRANCH  24  25
ATOM     25  C   UNL A   1      44.118  22.495  24.232  1.00  0.00     0.261 C 
BRANCH  25  26
ATOM     26  O   UNL A   1      44.165  23.177  25.501  1.00  0.00    -0.460 OA
BRANCH  26  27
ATOM     27  C   UNL A   1      44.539  24.477  25.441  1.00  0.00     0.338 C 
ATOM     28  O   UNL A   1      45.310  24.990  24.648  1.00  0.00    -0.246 OA
BRANCH  27  29
ATOM     29  C   UNL A   1      43.732  25.272  26.391  1.00  0.00     0.060 A 
ATOM     30  C   UNL A   1      44.032  26.635  26.503  1.00  0.00     0.016 A 
ATOM     31  C   UNL A   1      42.743  24.696  27.192  1.00  0.00     0.016 A 
ATOM     32  C   UNL A   1      43.382  27.417  27.457  1.00  0.00     0.010 A 
ATOM     33  C   UNL A   1      42.095  25.481  28.153  1.00  0.00     0.010 A 
ATOM     34  C   UNL A   1      42.439  26.836  28.314  1.00  0.00    -0.014 A 
BRANCH  34  35
ATOM     35  C   UNL A   1      41.932  27.610  29.472  1.00  0.00     0.031 A 
ATOM     36  C   UNL A   1      40.627  28.348  29.341  1.00  0.00     0.074 A 
ATOM     37  C   UNL A   1      42.601  27.629  30.638  1.00  0.00     0.049 A 
ATOM     38  N   UNL A   1      39.998  29.082  30.223  1.00  0.00    -0.248 NA
ATOM     39  C   UNL A   1      39.939  28.242  28.044  1.00  0.00     0.031 C 
ATOM     40  C   UNL A   1      43.854  26.925  30.908  1.00  0.00     0.029 A 
ATOM     41  N   UNL A   1      42.313  28.269  31.817  1.00  0.00    -0.354 N 
ATOM     42  C   UNL A   1      38.846  29.529  29.588  1.00  0.00     0.074 A 
ATOM     43  C   UNL A   1      38.877  29.009  28.238  1.00  0.00     0.031 C 
ATOM     44  C   UNL A   1      44.228  27.174  32.175  1.00  0.00     0.029 A 
ATOM     45  C   UNL A   1      43.259  28.076  32.793  1.00  0.00     0.049 A 
ATOM     46  H   UNL A   1      41.504  28.816  31.950  1.00  0.00     0.167 HD
ATOM     47  C   UNL A   1      37.847  30.298  30.083  1.00  0.00     0.031 A 
ATOM     48  C   UNL A   1      43.338  28.580  34.039  1.00  0.00     0.031 A 
ATOM     49  C   UNL A   1      37.817  30.827  31.420  1.00  0.00     0.049 A 
ATOM     50  C   UNL A   1      42.252  29.490  34.544  1.00  0.00     0.074 A 
ATOM     51  C   UNL A   1      36.839  31.603  32.017  1.00  0.00     0.029 A 
ATOM     52  N   UNL A   1      38.813  30.640  32.364  1.00  0.00    -0.354 N 
ATOM     53  N   UNL A   1      41.154  29.881  33.942  1.00  0.00    -0.248 NA
ATOM     54  C   UNL A   1      42.412  30.022  35.906  1.00  0.00     0.031 C 
ATOM     55  C   UNL A   1      37.268  31.928  33.309  1.00  0.00     0.029 A 
ATOM     56  C   UNL A   1      38.487  31.307  33.532  1.00  0.00     0.049 A 
ATOM     57  H   UNL A   1      39.631  30.110  32.225  1.00  0.00     0.167 HD
ATOM     58  C   UNL A   1      40.481  30.679  34.860  1.00  0.00     0.074 A 
ATOM     59  C   UNL A   1      41.288  30.707  36.063  1.00  0.00     0.031 C 
ATOM     60  C   UNL A   1      39.299  31.326  34.721  1.00  0.00     0.031 A 
BRANCH  47  61
ATOM     61  C   UNL A   1      36.716  30.638  29.156  1.00  0.00    -0.014 A 
ATOM     62  C   UNL A   1      35.789  29.665  28.751  1.00  0.00     0.009 A 
ATOM     63  C   UNL A   1      36.559  31.957  28.703  1.00  0.00     0.009 A 
ATOM     64  C   UNL A   1      34.745  30.001  27.885  1.00  0.00     0.001 A 
ATOM     65  C   UNL A   1      35.501  32.295  27.859  1.00  0.00     0.001 A 
ATOM     66  C   UNL A   1      34.600  31.316  27.444  1.00  0.00     0.000 A 
ENDBRANCH  47  61
BRANCH  48  67
ATOM     67  C   UNL A   1      44.502  28.246  34.903  1.00  0.00    -0.014 A 
ATOM     68  C   UNL A   1      44.635  26.965  35.461  1.00  0.00     0.009 A 
ATOM     69  C   UNL A   1      45.474  29.216  35.189  1.00  0.00     0.009 A 
ATOM     70  C   UNL A   1      45.707  26.672  36.306  1.00  0.00     0.001 A 
ATOM     71  C   UNL A   1      46.559  28.912  36.013  1.00  0.00     0.001 A 
ATOM     72  C   UNL A   1      46.669  27.643  36.578  1.00  0.00     0.000 A 
ENDBRANCH  48  67
BRANCH  60  73
ATOM     73  C   UNL A   1      38.785  32.090  35.909  1.00  0.00    -0.014 A 
ATOM     74  C   UNL A   1      37.984  31.474  36.882  1.00  0.00     0.009 A 
ATOM     75  C   UNL A   1      39.148  33.436  36.077  1.00  0.00     0.009 A 
ATOM     76  C   UNL A   1      37.531  32.202  37.985  1.00  0.00     0.001 A 
ATOM     77  C   UNL A   1      38.716  34.152  37.194  1.00  0.00     0.001 A 
ATOM     78  C   UNL A   1      37.901  33.537  38.142  1.00  0.00     0.000 A 
ENDBRANCH  60  73
ENDBRANCH  34  35
ENDBRANCH  27  29
ENDBRANCH  26  27
ENDBRANCH  25  26
ENDBRANCH  24  25
ENDBRANCH  23  24
ENDBRANCH  22  23
ENDBRANCH   1  22
TORSDOF 19
ENDMDL
