MODEL 1
REMARK VINA RESULT:     -10.1      0.000      0.000
REMARK SMILES COC(=O)[C@H]1Sc2nnc(CCC(=O)OCCOCCOC(=O)c3ccc(-c4c5nc(c(-c6ccccc6)c6ccc([nH]6)c(-c6ccccc6)c6nc(c(-c7ccccc7)c7ccc4[nH]7)C=C6)C=C5)cc3)c(=O)n2N=C1C
REMARK SMILES IDX 17 1 16 2 15 3 13 4 14 5 12 6 11 7 10 8 5 9 6 10 76 11 7 12
REMARK SMILES IDX 75 13 77 14 8 15 74 16 9 17 72 18 73 19 3 20 4 21 2 22 1 23
REMARK SMILES IDX 18 24 19 25 20 26 21 27 22 28 23 29 24 30 25 31 71 32 26 33
REMARK SMILES IDX 70 34 27 35 28 36 29 37 64 38 30 39 69 40 63 41 65 42 31 43
REMARK SMILES IDX 68 44 62 45 61 46 32 48 54 49 39 50 53 51 40 52 43 53 52 54
REMARK SMILES IDX 66 55 41 56 42 57 51 59 67 60 44 61 33 62 34 63 38 64 35 65
REMARK SMILES IDX 37 66 36 67 55 68 56 69 60 70 57 71 59 72 58 73 45 74 46 75
REMARK SMILES IDX 50 76 47 77 49 78 48 79
REMARK H PARENT 65 47 43 58
REMARK Flexibility Score: inf
ROOT
ATOM      1  C   UNL A   1      40.969  20.601  26.662  1.00  0.00     0.202 C 
ENDROOT
BRANCH   1   2
ATOM      2  C   UNL A   1      39.532  20.941  26.265  1.00  0.00     0.261 C 
BRANCH   2   3
ATOM      3  O   UNL A   1      39.234  22.338  26.479  1.00  0.00    -0.463 OA
BRANCH   3   4
ATOM      4  C   UNL A   1      38.139  22.841  25.849  1.00  0.00     0.306 C 
ATOM      5  O   UNL A   1      37.700  23.974  25.973  1.00  0.00    -0.252 OA
BRANCH   4   6
ATOM      6  C   UNL A   1      37.505  21.786  24.972  1.00  0.00     0.129 C 
BRANCH   6   7
ATOM      7  C   UNL A   1      36.026  21.562  25.275  1.00  0.00     0.076 C 
BRANCH   7   8
ATOM      8  C   UNL A   1      35.174  22.452  24.404  1.00  0.00     0.131 A 
ATOM      9  C   UNL A   1      32.389  26.750  23.916  1.00  0.00     0.210 C 
ATOM     10  S   UNL A   1      32.973  25.767  22.531  1.00  0.00    -0.063 SA
ATOM     11  C   UNL A   1      32.649  26.160  25.273  1.00  0.00     0.061 C 
ATOM     12  C   UNL A   1      33.875  24.505  23.307  1.00  0.00     0.214 A 
ATOM     13  N   UNL A   1      33.014  24.951  25.542  1.00  0.00    -0.171 NA
ATOM     14  C   UNL A   1      32.441  27.024  26.489  1.00  0.00     0.065 C 
ATOM     15  N   UNL A   1      34.782  23.883  22.620  1.00  0.00    -0.123 NA
ATOM     16  N   UNL A   1      33.529  24.151  24.578  1.00  0.00    -0.169 N 
ATOM     17  N   UNL A   1      35.605  22.937  23.281  1.00  0.00    -0.147 NA
ATOM     18  C   UNL A   1      33.859  22.881  24.963  1.00  0.00     0.296 A 
ATOM     19  O   UNL A   1      33.223  22.115  25.667  1.00  0.00    -0.265 OA
BRANCH   9  20
ATOM     20  C   UNL A   1      32.895  28.166  23.757  1.00  0.00     0.325 C 
ATOM     21  O   UNL A   1      34.021  28.526  24.078  1.00  0.00    -0.250 OA
BRANCH  20  22
ATOM     22  O   UNL A   1      31.944  28.966  23.200  1.00  0.00    -0.468 OA
ATOM     23  C   UNL A   1      30.675  28.994  23.859  1.00  0.00     0.282 C 
ENDBRANCH  20  22
ENDBRANCH   9  20
ENDBRANCH   7   8
ENDBRANCH   6   7
ENDBRANCH   4   6
ENDBRANCH   3   4
ENDBRANCH   2   3
ENDBRANCH   1   2
BRANCH   1  24
ATOM     24  O   UNL A   1      41.874  20.662  25.556  1.00  0.00    -0.374 OA
BRANCH  24  25
ATOM     25  C   UNL A   1      43.221  20.311  25.874  1.00  0.00     0.202 C 
BRANCH  25  26
ATOM     26  C   UNL A   1      44.255  21.303  25.320  1.00  0.00     0.261 C 
BRANCH  26  27
ATOM     27  O   UNL A   1      43.633  22.407  24.637  1.00  0.00    -0.460 OA
BRANCH  27  28
ATOM     28  C   UNL A   1      44.287  23.590  24.711  1.00  0.00     0.338 C 
ATOM     29  O   UNL A   1      45.275  23.920  24.075  1.00  0.00    -0.246 OA
BRANCH  28  30
ATOM     30  C   UNL A   1      43.582  24.522  25.630  1.00  0.00     0.060 A 
ATOM     31  C   UNL A   1      44.148  25.791  25.823  1.00  0.00     0.016 A 
ATOM     32  C   UNL A   1      42.417  24.176  26.322  1.00  0.00     0.016 A 
ATOM     33  C   UNL A   1      43.585  26.693  26.731  1.00  0.00     0.010 A 
ATOM     34  C   UNL A   1      41.850  25.084  27.229  1.00  0.00     0.010 A 
ATOM     35  C   UNL A   1      42.446  26.340  27.462  1.00  0.00    -0.014 A 
BRANCH  35  36
ATOM     36  C   UNL A   1      41.945  27.214  28.555  1.00  0.00     0.031 A 
ATOM     37  C   UNL A   1      42.565  27.110  29.919  1.00  0.00     0.074 A 
ATOM     38  C   UNL A   1      40.954  28.105  28.369  1.00  0.00     0.049 A 
ATOM     39  N   UNL A   1      42.288  27.807  30.992  1.00  0.00    -0.248 NA
ATOM     40  C   UNL A   1      43.664  26.147  30.088  1.00  0.00     0.031 C 
ATOM     41  C   UNL A   1      40.316  28.428  27.100  1.00  0.00     0.029 A 
ATOM     42  N   UNL A   1      40.256  28.857  29.284  1.00  0.00    -0.354 N 
ATOM     43  C   UNL A   1      43.257  27.457  31.918  1.00  0.00     0.074 A 
ATOM     44  C   UNL A   1      44.033  26.383  31.338  1.00  0.00     0.031 C 
ATOM     45  C   UNL A   1      39.206  29.151  27.335  1.00  0.00     0.029 A 
ATOM     46  C   UNL A   1      39.109  29.410  28.766  1.00  0.00     0.049 A 
ATOM     47  H   UNL A   1      40.548  28.987  30.215  1.00  0.00     0.167 HD
ATOM     48  C   UNL A   1      43.538  28.050  33.100  1.00  0.00     0.031 A 
ATOM     49  C   UNL A   1      38.089  30.038  29.377  1.00  0.00     0.031 A 
ATOM     50  C   UNL A   1      42.750  29.090  33.700  1.00  0.00     0.049 A 
ATOM     51  C   UNL A   1      38.215  30.417  30.823  1.00  0.00     0.074 A 
ATOM     52  C   UNL A   1      43.006  29.821  34.847  1.00  0.00     0.029 A 
ATOM     53  N   UNL A   1      41.525  29.519  33.218  1.00  0.00    -0.354 N 
ATOM     54  N   UNL A   1      39.212  30.193  31.641  1.00  0.00    -0.248 NA
ATOM     55  C   UNL A   1      37.119  31.205  31.406  1.00  0.00     0.031 C 
ATOM     56  C   UNL A   1      41.904  30.651  35.090  1.00  0.00     0.029 A 
ATOM     57  C   UNL A   1      40.985  30.463  34.072  1.00  0.00     0.049 A 
ATOM     58  H   UNL A   1      41.102  29.198  32.388  1.00  0.00     0.167 HD
ATOM     59  C   UNL A   1      38.912  30.894  32.800  1.00  0.00     0.074 A 
ATOM     60  C   UNL A   1      37.610  31.496  32.604  1.00  0.00     0.031 C 
ATOM     61  C   UNL A   1      39.690  31.068  33.894  1.00  0.00     0.031 A 
BRANCH  48  62
ATOM     62  C   UNL A   1      44.808  27.630  33.771  1.00  0.00    -0.014 A 
ATOM     63  C   UNL A   1      44.793  26.560  34.683  1.00  0.00     0.009 A 
ATOM     64  C   UNL A   1      46.018  28.273  33.490  1.00  0.00     0.009 A 
ATOM     65  C   UNL A   1      45.963  26.163  35.327  1.00  0.00     0.001 A 
ATOM     66  C   UNL A   1      47.192  27.861  34.124  1.00  0.00     0.001 A 
ATOM     67  C   UNL A   1      47.163  26.813  35.044  1.00  0.00     0.000 A 
ENDBRANCH  48  62
BRANCH  49  68
ATOM     68  C   UNL A   1      36.853  30.361  28.626  1.00  0.00    -0.014 A 
ATOM     69  C   UNL A   1      36.534  31.681  28.282  1.00  0.00     0.009 A 
ATOM     70  C   UNL A   1      35.965  29.329  28.287  1.00  0.00     0.009 A 
ATOM     71  C   UNL A   1      35.333  31.963  27.627  1.00  0.00     0.001 A 
ATOM     72  C   UNL A   1      34.767  29.615  27.629  1.00  0.00     0.001 A 
ATOM     73  C   UNL A   1      34.450  30.932  27.303  1.00  0.00     0.000 A 
ENDBRANCH  49  68
BRANCH  61  74
ATOM     74  C   UNL A   1      39.201  32.015  34.949  1.00  0.00    -0.014 A 
ATOM     75  C   UNL A   1      39.556  33.371  34.943  1.00  0.00     0.009 A 
ATOM     76  C   UNL A   1      38.327  31.541  35.942  1.00  0.00     0.009 A 
ATOM     77  C   UNL A   1      39.054  34.232  35.920  1.00  0.00     0.001 A 
ATOM     78  C   UNL A   1      37.810  32.409  36.904  1.00  0.00     0.001 A 
ATOM     79  C   UNL A   1      38.176  33.753  36.894  1.00  0.00     0.000 A 
ENDBRANCH  61  74
ENDBRANCH  35  36
ENDBRANCH  28  30
ENDBRANCH  27  28
ENDBRANCH  26  27
ENDBRANCH  25  26
ENDBRANCH  24  25
ENDBRANCH   1  24
TORSDOF 18
ENDMDL
MODEL 2
REMARK VINA RESULT:      -9.8      3.398      4.785
REMARK SMILES COC(=O)[C@H]1Sc2nnc(CCC(=O)OCCOCCOC(=O)c3ccc(-c4c5nc(c(-c6ccccc6)c6ccc([nH]6)c(-c6ccccc6)c6nc(c(-c7ccccc7)c7ccc4[nH]7)C=C6)C=C5)cc3)c(=O)n2N=C1C
REMARK SMILES IDX 17 1 16 2 15 3 13 4 14 5 12 6 11 7 10 8 5 9 6 10 76 11 7 12
REMARK SMILES IDX 75 13 77 14 8 15 74 16 9 17 72 18 73 19 3 20 4 21 2 22 1 23
REMARK SMILES IDX 18 24 19 25 20 26 21 27 22 28 23 29 24 30 25 31 71 32 26 33
REMARK SMILES IDX 70 34 27 35 28 36 29 37 64 38 30 39 69 40 63 41 65 42 31 43
REMARK SMILES IDX 68 44 62 45 61 46 32 48 54 49 39 50 53 51 40 52 43 53 52 54
REMARK SMILES IDX 66 55 41 56 42 57 51 59 67 60 44 61 33 62 34 63 38 64 35 65
REMARK SMILES IDX 37 66 36 67 55 68 56 69 60 70 57 71 59 72 58 73 45 74 46 75
REMARK SMILES IDX 50 76 47 77 49 78 48 79
REMARK H PARENT 65 47 43 58
REMARK Flexibility Score: inf
ROOT
ATOM      1  C   UNL A   1      38.207  22.934  25.587  1.00  0.00     0.202 C 
ENDROOT
BRANCH   1   2
ATOM      2  C   UNL A   1      36.813  23.467  25.250  1.00  0.00     0.261 C 
BRANCH   2   3
ATOM      3  O   UNL A   1      35.821  22.999  26.190  1.00  0.00    -0.463 OA
BRANCH   3   4
ATOM      4  C   UNL A   1      34.854  22.174  25.709  1.00  0.00     0.306 C 
ATOM      5  O   UNL A   1      34.855  21.632  24.615  1.00  0.00    -0.252 OA
BRANCH   4   6
ATOM      6  C   UNL A   1      33.738  22.025  26.719  1.00  0.00     0.129 C 
BRANCH   6   7
ATOM      7  C   UNL A   1      32.466  21.426  26.124  1.00  0.00     0.076 C 
BRANCH   7   8
ATOM      8  C   UNL A   1      31.627  22.508  25.489  1.00  0.00     0.131 A 
ATOM      9  C   UNL A   1      30.476  27.507  25.094  1.00  0.00     0.210 C 
ATOM     10  S   UNL A   1      29.964  26.260  23.907  1.00  0.00    -0.063 SA
ATOM     11  C   UNL A   1      31.166  26.978  26.319  1.00  0.00     0.061 C 
ATOM     12  C   UNL A   1      30.680  24.811  24.537  1.00  0.00     0.214 A 
ATOM     13  N   UNL A   1      31.213  25.751  26.721  1.00  0.00    -0.171 NA
ATOM     14  C   UNL A   1      31.864  27.950  27.233  1.00  0.00     0.065 C 
ATOM     15  N   UNL A   1      30.886  23.821  23.725  1.00  0.00    -0.123 NA
ATOM     16  N   UNL A   1      30.909  24.734  25.879  1.00  0.00    -0.169 N 
ATOM     17  N   UNL A   1      31.581  22.682  24.205  1.00  0.00    -0.147 NA
ATOM     18  C   UNL A   1      30.966  23.476  26.412  1.00  0.00     0.296 A 
ATOM     19  O   UNL A   1      30.552  23.093  27.494  1.00  0.00    -0.265 OA
BRANCH   9  20
ATOM     20  C   UNL A   1      31.256  28.580  24.368  1.00  0.00     0.325 C 
ATOM     21  O   UNL A   1      30.975  29.772  24.411  1.00  0.00    -0.250 OA
BRANCH  20  22
ATOM     22  O   UNL A   1      32.307  28.045  23.689  1.00  0.00    -0.468 OA
ATOM     23  C   UNL A   1      33.580  28.663  23.902  1.00  0.00     0.282 C 
ENDBRANCH  20  22
ENDBRANCH   9  20
ENDBRANCH   7   8
ENDBRANCH   6   7
ENDBRANCH   4   6
ENDBRANCH   3   4
ENDBRANCH   2   3
ENDBRANCH   1   2
BRANCH   1  24
ATOM     24  O   UNL A   1      38.183  21.578  26.041  1.00  0.00    -0.374 OA
BRANCH  24  25
ATOM     25  C   UNL A   1      38.162  20.605  24.996  1.00  0.00     0.202 C 
BRANCH  25  26
ATOM     26  C   UNL A   1      39.082  19.405  25.264  1.00  0.00     0.261 C 
BRANCH  26  27
ATOM     27  O   UNL A   1      39.926  19.615  26.411  1.00  0.00    -0.460 OA
BRANCH  27  28
ATOM     28  C   UNL A   1      41.254  19.682  26.161  1.00  0.00     0.338 C 
ATOM     29  O   UNL A   1      41.938  18.833  25.612  1.00  0.00    -0.246 OA
BRANCH  28  30
ATOM     30  C   UNL A   1      41.798  21.005  26.565  1.00  0.00     0.060 A 
ATOM     31  C   UNL A   1      41.637  21.389  27.904  1.00  0.00     0.016 A 
ATOM     32  C   UNL A   1      42.424  21.879  25.670  1.00  0.00     0.016 A 
ATOM     33  C   UNL A   1      42.053  22.650  28.341  1.00  0.00     0.010 A 
ATOM     34  C   UNL A   1      42.845  23.143  26.110  1.00  0.00     0.010 A 
ATOM     35  C   UNL A   1      42.638  23.550  27.444  1.00  0.00    -0.014 A 
BRANCH  35  36
ATOM     36  C   UNL A   1      42.919  24.951  27.850  1.00  0.00     0.031 A 
ATOM     37  C   UNL A   1      44.296  25.315  28.328  1.00  0.00     0.074 A 
ATOM     38  C   UNL A   1      41.983  25.917  27.803  1.00  0.00     0.049 A 
ATOM     39  N   UNL A   1      44.744  26.488  28.695  1.00  0.00    -0.248 NA
ATOM     40  C   UNL A   1      45.307  24.247  28.344  1.00  0.00     0.031 C 
ATOM     41  C   UNL A   1      40.637  25.783  27.264  1.00  0.00     0.029 A 
ATOM     42  N   UNL A   1      42.009  27.201  28.294  1.00  0.00    -0.354 N 
ATOM     43  C   UNL A   1      46.109  26.325  28.862  1.00  0.00     0.074 A 
ATOM     44  C   UNL A   1      46.392  24.914  28.705  1.00  0.00     0.031 C 
ATOM     45  C   UNL A   1      39.908  26.854  27.623  1.00  0.00     0.029 A 
ATOM     46  C   UNL A   1      40.766  27.785  28.345  1.00  0.00     0.049 A 
ATOM     47  H   UNL A   1      42.834  27.656  28.579  1.00  0.00     0.167 HD
ATOM     48  C   UNL A   1      47.053  27.279  29.028  1.00  0.00     0.031 A 
ATOM     49  C   UNL A   1      40.363  28.932  28.921  1.00  0.00     0.031 A 
ATOM     50  C   UNL A   1      46.778  28.674  29.224  1.00  0.00     0.049 A 
ATOM     51  C   UNL A   1      41.386  29.891  29.451  1.00  0.00     0.074 A 
ATOM     52  C   UNL A   1      47.667  29.731  29.305  1.00  0.00     0.029 A 
ATOM     53  N   UNL A   1      45.512  29.202  29.413  1.00  0.00    -0.354 N 
ATOM     54  N   UNL A   1      42.689  29.768  29.468  1.00  0.00    -0.248 NA
ATOM     55  C   UNL A   1      40.894  31.179  29.964  1.00  0.00     0.031 C 
ATOM     56  C   UNL A   1      46.941  30.891  29.601  1.00  0.00     0.029 A 
ATOM     57  C   UNL A   1      45.598  30.559  29.665  1.00  0.00     0.049 A 
ATOM     58  H   UNL A   1      44.674  28.686  29.372  1.00  0.00     0.167 HD
ATOM     59  C   UNL A   1      43.177  30.994  29.895  1.00  0.00     0.074 A 
ATOM     60  C   UNL A   1      42.030  31.826  30.191  1.00  0.00     0.031 C 
ATOM     61  C   UNL A   1      44.468  31.399  29.966  1.00  0.00     0.031 A 
BRANCH  48  62
ATOM     62  C   UNL A   1      48.478  26.833  28.916  1.00  0.00    -0.014 A 
ATOM     63  C   UNL A   1      49.186  26.465  30.074  1.00  0.00     0.009 A 
ATOM     64  C   UNL A   1      49.113  26.759  27.671  1.00  0.00     0.009 A 
ATOM     65  C   UNL A   1      50.516  26.060  29.990  1.00  0.00     0.001 A 
ATOM     66  C   UNL A   1      50.441  26.336  27.590  1.00  0.00     0.001 A 
ATOM     67  C   UNL A   1      51.142  25.994  28.747  1.00  0.00     0.000 A 
ENDBRANCH  48  62
BRANCH  49  68
ATOM     68  C   UNL A   1      38.919  29.248  29.024  1.00  0.00    -0.014 A 
ATOM     69  C   UNL A   1      38.192  28.963  30.187  1.00  0.00     0.009 A 
ATOM     70  C   UNL A   1      38.257  29.807  27.920  1.00  0.00     0.009 A 
ATOM     71  C   UNL A   1      36.819  29.216  30.235  1.00  0.00     0.001 A 
ATOM     72  C   UNL A   1      36.885  30.061  27.972  1.00  0.00     0.001 A 
ATOM     73  C   UNL A   1      36.167  29.762  29.128  1.00  0.00     0.000 A 
ENDBRANCH  49  68
BRANCH  61  74
ATOM     74  C   UNL A   1      44.725  32.838  30.301  1.00  0.00    -0.014 A 
ATOM     75  C   UNL A   1      44.944  33.258  31.620  1.00  0.00     0.009 A 
ATOM     76  C   UNL A   1      44.795  33.781  29.262  1.00  0.00     0.009 A 
ATOM     77  C   UNL A   1      45.217  34.600  31.893  1.00  0.00     0.001 A 
ATOM     78  C   UNL A   1      45.089  35.117  29.536  1.00  0.00     0.001 A 
ATOM     79  C   UNL A   1      45.296  35.526  30.851  1.00  0.00     0.000 A 
ENDBRANCH  61  74
ENDBRANCH  35  36
ENDBRANCH  28  30
ENDBRANCH  27  28
ENDBRANCH  26  27
ENDBRANCH  25  26
ENDBRANCH  24  25
ENDBRANCH   1  24
TORSDOF 18
ENDMDL
MODEL 3
REMARK VINA RESULT:      -9.7      2.814      8.536
REMARK SMILES COC(=O)[C@H]1Sc2nnc(CCC(=O)OCCOCCOC(=O)c3ccc(-c4c5nc(c(-c6ccccc6)c6ccc([nH]6)c(-c6ccccc6)c6nc(c(-c7ccccc7)c7ccc4[nH]7)C=C6)C=C5)cc3)c(=O)n2N=C1C
REMARK SMILES IDX 17 1 16 2 15 3 13 4 14 5 12 6 11 7 10 8 5 9 6 10 76 11 7 12
REMARK SMILES IDX 75 13 77 14 8 15 74 16 9 17 72 18 73 19 3 20 4 21 2 22 1 23
REMARK SMILES IDX 18 24 19 25 20 26 21 27 22 28 23 29 24 30 25 31 71 32 26 33
REMARK SMILES IDX 70 34 27 35 28 36 29 37 64 38 30 39 69 40 63 41 65 42 31 43
REMARK SMILES IDX 68 44 62 45 61 46 32 48 54 49 39 50 53 51 40 52 43 53 52 54
REMARK SMILES IDX 66 55 41 56 42 57 51 59 67 60 44 61 33 62 34 63 38 64 35 65
REMARK SMILES IDX 37 66 36 67 55 68 56 69 60 70 57 71 59 72 58 73 45 74 46 75
REMARK SMILES IDX 50 76 47 77 49 78 48 79
REMARK H PARENT 65 47 43 58
REMARK Flexibility Score: inf
ROOT
ATOM      1  C   UNL A   1      32.631  30.430  26.816  1.00  0.00     0.202 C 
ENDROOT
BRANCH   1   2
ATOM      2  C   UNL A   1      32.388  29.153  26.010  1.00  0.00     0.261 C 
BRANCH   2   3
ATOM      3  O   UNL A   1      33.521  28.822  25.177  1.00  0.00    -0.463 OA
BRANCH   3   4
ATOM      4  C   UNL A   1      33.303  28.744  23.838  1.00  0.00     0.306 C 
ATOM      5  O   UNL A   1      34.155  28.840  22.968  1.00  0.00    -0.252 OA
BRANCH   4   6
ATOM      6  C   UNL A   1      31.832  28.540  23.554  1.00  0.00     0.129 C 
BRANCH   6   7
ATOM      7  C   UNL A   1      31.568  27.844  22.222  1.00  0.00     0.076 C 
BRANCH   7   8
ATOM      8  C   UNL A   1      31.511  26.348  22.417  1.00  0.00     0.131 A 
ATOM      9  C   UNL A   1      33.885  22.015  23.850  1.00  0.00     0.210 C 
ATOM     10  S   UNL A   1      32.108  22.167  23.641  1.00  0.00    -0.063 SA
ATOM     11  C   UNL A   1      34.682  23.222  23.441  1.00  0.00     0.061 C 
ATOM     12  C   UNL A   1      31.911  23.835  23.210  1.00  0.00     0.214 A 
ATOM     13  N   UNL A   1      34.270  24.232  22.750  1.00  0.00    -0.171 NA
ATOM     14  C   UNL A   1      36.136  23.292  23.826  1.00  0.00     0.065 C 
ATOM     15  N   UNL A   1      30.757  24.392  23.411  1.00  0.00    -0.123 NA
ATOM     16  N   UNL A   1      32.946  24.469  22.589  1.00  0.00    -0.169 N 
ATOM     17  N   UNL A   1      30.624  25.783  23.177  1.00  0.00    -0.147 NA
ATOM     18  C   UNL A   1      32.618  25.549  21.817  1.00  0.00     0.296 A 
ATOM     19  O   UNL A   1      33.107  25.896  20.755  1.00  0.00    -0.265 OA
BRANCH   9  20
ATOM     20  C   UNL A   1      34.172  21.541  25.257  1.00  0.00     0.325 C 
ATOM     21  O   UNL A   1      33.833  22.151  26.263  1.00  0.00    -0.250 OA
BRANCH  20  22
ATOM     22  O   UNL A   1      34.832  20.350  25.245  1.00  0.00    -0.468 OA
ATOM     23  C   UNL A   1      34.181  19.270  24.570  1.00  0.00     0.282 C 
ENDBRANCH  20  22
ENDBRANCH   9  20
ENDBRANCH   7   8
ENDBRANCH   6   7
ENDBRANCH   4   6
ENDBRANCH   3   4
ENDBRANCH   2   3
ENDBRANCH   1   2
BRANCH   1  24
ATOM     24  O   UNL A   1      31.476  31.271  26.875  1.00  0.00    -0.374 OA
BRANCH  24  25
ATOM     25  C   UNL A   1      31.743  32.659  26.669  1.00  0.00     0.202 C 
BRANCH  25  26
ATOM     26  C   UNL A   1      32.821  33.217  27.609  1.00  0.00     0.261 C 
BRANCH  26  27
ATOM     27  O   UNL A   1      32.451  34.495  28.159  1.00  0.00    -0.460 OA
BRANCH  27  28
ATOM     28  C   UNL A   1      33.418  35.144  28.847  1.00  0.00     0.338 C 
ATOM     29  O   UNL A   1      33.402  36.309  29.209  1.00  0.00    -0.246 OA
BRANCH  28  30
ATOM     30  C   UNL A   1      34.517  34.212  29.212  1.00  0.00     0.060 A 
ATOM     31  C   UNL A   1      34.263  33.276  30.226  1.00  0.00     0.016 A 
ATOM     32  C   UNL A   1      35.782  34.252  28.616  1.00  0.00     0.016 A 
ATOM     33  C   UNL A   1      35.271  32.418  30.676  1.00  0.00     0.010 A 
ATOM     34  C   UNL A   1      36.792  33.387  29.065  1.00  0.00     0.010 A 
ATOM     35  C   UNL A   1      36.552  32.482  30.119  1.00  0.00    -0.014 A 
BRANCH  35  36
ATOM     36  C   UNL A   1      37.674  31.706  30.707  1.00  0.00     0.031 A 
ATOM     37  C   UNL A   1      38.285  32.165  32.000  1.00  0.00     0.074 A 
ATOM     38  C   UNL A   1      38.168  30.597  30.126  1.00  0.00     0.049 A 
ATOM     39  N   UNL A   1      39.249  31.607  32.687  1.00  0.00    -0.248 NA
ATOM     40  C   UNL A   1      37.710  33.365  32.628  1.00  0.00     0.031 C 
ATOM     41  C   UNL A   1      37.634  29.938  28.942  1.00  0.00     0.029 A 
ATOM     42  N   UNL A   1      39.292  29.865  30.426  1.00  0.00    -0.354 N 
ATOM     43  C   UNL A   1      39.307  32.310  33.879  1.00  0.00     0.074 A 
ATOM     44  C   UNL A   1      38.391  33.423  33.762  1.00  0.00     0.031 C 
ATOM     45  C   UNL A   1      38.525  29.033  28.501  1.00  0.00     0.029 A 
ATOM     46  C   UNL A   1      39.650  28.993  29.426  1.00  0.00     0.049 A 
ATOM     47  H   UNL A   1      39.790  29.956  31.270  1.00  0.00     0.167 HD
ATOM     48  C   UNL A   1      39.986  31.994  35.005  1.00  0.00     0.031 A 
ATOM     49  C   UNL A   1      40.766  28.258  29.266  1.00  0.00     0.031 A 
ATOM     50  C   UNL A   1      40.926  30.915  35.116  1.00  0.00     0.049 A 
ATOM     51  C   UNL A   1      41.750  28.155  30.393  1.00  0.00     0.074 A 
ATOM     52  C   UNL A   1      41.591  30.455  36.240  1.00  0.00     0.029 A 
ATOM     53  N   UNL A   1      41.366  30.149  34.050  1.00  0.00    -0.354 N 
ATOM     54  N   UNL A   1      41.706  28.727  31.570  1.00  0.00    -0.248 NA
ATOM     55  C   UNL A   1      42.890  27.246  30.205  1.00  0.00     0.031 C 
ATOM     56  C   UNL A   1      42.478  29.449  35.840  1.00  0.00     0.029 A 
ATOM     57  C   UNL A   1      42.335  29.258  34.476  1.00  0.00     0.049 A 
ATOM     58  H   UNL A   1      41.038  30.228  33.125  1.00  0.00     0.167 HD
ATOM     59  C   UNL A   1      42.749  28.172  32.296  1.00  0.00     0.074 A 
ATOM     60  C   UNL A   1      43.450  27.269  31.408  1.00  0.00     0.031 C 
ATOM     61  C   UNL A   1      43.045  28.357  33.605  1.00  0.00     0.031 A 
BRANCH  48  62
ATOM     62  C   UNL A   1      39.656  32.792  36.228  1.00  0.00    -0.014 A 
ATOM     63  C   UNL A   1      40.449  33.901  36.571  1.00  0.00     0.009 A 
ATOM     64  C   UNL A   1      38.555  32.463  37.027  1.00  0.00     0.009 A 
ATOM     65  C   UNL A   1      40.164  34.648  37.712  1.00  0.00     0.001 A 
ATOM     66  C   UNL A   1      38.263  33.224  38.160  1.00  0.00     0.001 A 
ATOM     67  C   UNL A   1      39.069  34.309  38.505  1.00  0.00     0.000 A 
ENDBRANCH  48  62
BRANCH  49  68
ATOM     68  C   UNL A   1      41.016  27.548  27.990  1.00  0.00    -0.014 A 
ATOM     69  C   UNL A   1      41.691  28.170  26.931  1.00  0.00     0.009 A 
ATOM     70  C   UNL A   1      40.532  26.242  27.822  1.00  0.00     0.009 A 
ATOM     71  C   UNL A   1      41.860  27.499  25.718  1.00  0.00     0.001 A 
ATOM     72  C   UNL A   1      40.705  25.573  26.609  1.00  0.00     0.001 A 
ATOM     73  C   UNL A   1      41.366  26.203  25.557  1.00  0.00     0.000 A 
ENDBRANCH  49  68
BRANCH  61  74
ATOM     74  C   UNL A   1      44.129  27.507  34.197  1.00  0.00    -0.014 A 
ATOM     75  C   UNL A   1      45.445  27.974  34.320  1.00  0.00     0.009 A 
ATOM     76  C   UNL A   1      43.808  26.230  34.685  1.00  0.00     0.009 A 
ATOM     77  C   UNL A   1      46.422  27.169  34.909  1.00  0.00     0.001 A 
ATOM     78  C   UNL A   1      44.781  25.438  35.293  1.00  0.00     0.001 A 
ATOM     79  C   UNL A   1      46.089  25.906  35.401  1.00  0.00     0.000 A 
ENDBRANCH  61  74
ENDBRANCH  35  36
ENDBRANCH  28  30
ENDBRANCH  27  28
ENDBRANCH  26  27
ENDBRANCH  25  26
ENDBRANCH  24  25
ENDBRANCH   1  24
TORSDOF 18
ENDMDL
