MODEL 1
REMARK VINA RESULT:      -9.1      0.000      0.000
REMARK SMILES CCC(CC)NC(=O)NC[C@H]1CC[C@H](C(=O)OCCOCCOC(=O)c2ccc(-c3c4nc(c(-c5ccccc5)c5ccc([nH]5)c(-c5ccccc5)c5nc(c(-c6ccccc6)c6ccc3[nH]6)C=C5)C=C4)cc2)O1
REMARK SMILES IDX 19 1 18 2 17 3 15 4 16 5 14 6 11 7 12 8 74 9 13 10 10 11
REMARK SMILES IDX 9 12 6 13 7 14 8 16 3 18 2 19 1 20 4 21 5 22 20 23 21 24
REMARK SMILES IDX 22 25 23 26 24 27 25 28 26 29 27 30 73 31 28 32 72 33 29 34
REMARK SMILES IDX 30 35 31 36 66 37 32 38 71 39 65 40 67 41 33 42 70 43 64 44
REMARK SMILES IDX 63 45 34 47 56 48 41 49 55 50 42 51 45 52 54 53 68 54 43 55
REMARK SMILES IDX 44 56 53 58 69 59 46 60 35 61 36 62 40 63 37 64 39 65 38 66
REMARK SMILES IDX 57 67 58 68 62 69 59 70 61 71 60 72 47 73 48 74 52 75 49 76
REMARK SMILES IDX 51 77 50 78
REMARK H PARENT 6 15 9 17 67 46 45 57
REMARK Flexibility Score: inf
ROOT
ATOM      1  C   UNL A   1      38.216  21.423  25.456  1.00  0.00     0.202 C 
ENDROOT
BRANCH   1   2
ATOM      2  C   UNL A   1      36.902  22.153  25.747  1.00  0.00     0.261 C 
BRANCH   2   3
ATOM      3  O   UNL A   1      35.786  21.245  25.701  1.00  0.00    -0.461 OA
BRANCH   3   4
ATOM      4  C   UNL A   1      34.644  21.679  26.300  1.00  0.00     0.335 C 
ATOM      5  O   UNL A   1      34.343  21.472  27.471  1.00  0.00    -0.249 OA
BRANCH   4   6
ATOM      6  C   UNL A   1      33.760  22.485  25.347  1.00  0.00     0.228 C 
ATOM      7  C   UNL A   1      34.178  23.694  23.399  1.00  0.00     0.138 C 
ATOM      8  C   UNL A   1      34.364  24.651  24.560  1.00  0.00     0.037 C 
ATOM      9  O   UNL A   1      34.238  22.386  23.995  1.00  0.00    -0.361 OA
ATOM     10  C   UNL A   1      33.598  23.971  25.664  1.00  0.00     0.047 C 
BRANCH   7  11
ATOM     11  C   UNL A   1      32.828  23.826  22.663  1.00  0.00     0.149 C 
BRANCH  11  12
ATOM     12  N   UNL A   1      32.933  24.292  21.297  1.00  0.00    -0.336 N 
ATOM     13  N   UNL A   1      32.368  26.584  21.317  1.00  0.00    -0.335 N 
ATOM     14  C   UNL A   1      32.736  25.464  20.690  1.00  0.00     0.315 C 
ATOM     15  H   UNL A   1      32.209  27.329  20.694  1.00  0.00     0.165 HD
ATOM     16  O   UNL A   1      32.895  25.509  19.469  1.00  0.00    -0.249 OA
ATOM     17  H   UNL A   1      33.216  23.584  20.673  1.00  0.00     0.165 HD
BRANCH  13  18
ATOM     18  C   UNL A   1      32.146  26.964  22.708  1.00  0.00     0.083 C 
BRANCH  18  19
ATOM     19  C   UNL A   1      32.518  28.437  22.921  1.00  0.00     0.021 C 
ATOM     20  C   UNL A   1      33.581  28.622  23.994  1.00  0.00     0.006 C 
ENDBRANCH  18  19
BRANCH  18  21
ATOM     21  C   UNL A   1      30.725  26.567  23.147  1.00  0.00     0.021 C 
ATOM     22  C   UNL A   1      30.138  27.396  24.280  1.00  0.00     0.006 C 
ENDBRANCH  18  21
ENDBRANCH  13  18
ENDBRANCH  11  12
ENDBRANCH   7  11
ENDBRANCH   4   6
ENDBRANCH   3   4
ENDBRANCH   2   3
ENDBRANCH   1   2
BRANCH   1  23
ATOM     23  O   UNL A   1      39.389  21.961  26.067  1.00  0.00    -0.374 OA
BRANCH  23  24
ATOM     24  C   UNL A   1      40.415  21.047  26.445  1.00  0.00     0.202 C 
BRANCH  24  25
ATOM     25  C   UNL A   1      41.858  21.467  26.131  1.00  0.00     0.261 C 
BRANCH  25  26
ATOM     26  O   UNL A   1      42.097  22.867  26.373  1.00  0.00    -0.460 OA
BRANCH  26  27
ATOM     27  C   UNL A   1      42.773  23.134  27.517  1.00  0.00     0.338 C 
ATOM     28  O   UNL A   1      42.985  22.370  28.449  1.00  0.00    -0.246 OA
BRANCH  27  29
ATOM     29  C   UNL A   1      43.403  24.465  27.449  1.00  0.00     0.060 A 
ATOM     30  C   UNL A   1      43.607  25.016  26.178  1.00  0.00     0.016 A 
ATOM     31  C   UNL A   1      43.879  25.117  28.589  1.00  0.00     0.016 A 
ATOM     32  C   UNL A   1      44.329  26.200  26.037  1.00  0.00     0.010 A 
ATOM     33  C   UNL A   1      44.613  26.301  28.443  1.00  0.00     0.010 A 
ATOM     34  C   UNL A   1      44.870  26.830  27.165  1.00  0.00    -0.014 A 
BRANCH  34  35
ATOM     35  C   UNL A   1      45.810  27.964  26.984  1.00  0.00     0.031 A 
ATOM     36  C   UNL A   1      47.276  27.683  26.790  1.00  0.00     0.074 A 
ATOM     37  C   UNL A   1      45.360  29.232  26.943  1.00  0.00     0.049 A 
ATOM     38  N   UNL A   1      48.263  28.524  26.607  1.00  0.00    -0.248 NA
ATOM     39  C   UNL A   1      47.683  26.269  26.799  1.00  0.00     0.031 C 
ATOM     40  C   UNL A   1      43.962  29.640  27.067  1.00  0.00     0.029 A 
ATOM     41  N   UNL A   1      46.043  30.412  26.780  1.00  0.00    -0.354 N 
ATOM     42  C   UNL A   1      49.406  27.742  26.486  1.00  0.00     0.074 A 
ATOM     43  C   UNL A   1      48.995  26.363  26.637  1.00  0.00     0.031 C 
ATOM     44  C   UNL A   1      43.890  30.979  26.979  1.00  0.00     0.029 A 
ATOM     45  C   UNL A   1      45.237  31.524  26.822  1.00  0.00     0.049 A 
ATOM     46  H   UNL A   1      47.017  30.458  26.646  1.00  0.00     0.167 HD
ATOM     47  C   UNL A   1      50.683  28.135  26.263  1.00  0.00     0.031 A 
ATOM     48  C   UNL A   1      45.552  32.832  26.759  1.00  0.00     0.031 A 
ATOM     49  C   UNL A   1      51.101  29.504  26.115  1.00  0.00     0.049 A 
ATOM     50  C   UNL A   1      46.991  33.244  26.593  1.00  0.00     0.074 A 
ATOM     51  C   UNL A   1      52.370  29.994  25.862  1.00  0.00     0.029 A 
ATOM     52  N   UNL A   1      50.260  30.600  26.215  1.00  0.00    -0.354 N 
ATOM     53  N   UNL A   1      48.054  32.492  26.445  1.00  0.00    -0.248 NA
ATOM     54  C   UNL A   1      47.269  34.689  26.578  1.00  0.00     0.031 C 
ATOM     55  C   UNL A   1      52.308  31.390  25.862  1.00  0.00     0.029 A 
ATOM     56  C   UNL A   1      50.990  31.767  26.061  1.00  0.00     0.049 A 
ATOM     57  H   UNL A   1      49.290  30.557  26.373  1.00  0.00     0.167 HD
ATOM     58  C   UNL A   1      49.121  33.371  26.293  1.00  0.00     0.074 A 
ATOM     59  C   UNL A   1      48.574  34.711  26.353  1.00  0.00     0.031 C 
ATOM     60  C   UNL A   1      50.435  33.093  26.118  1.00  0.00     0.031 A 
BRANCH  47  61
ATOM     61  C   UNL A   1      51.737  27.068  26.193  1.00  0.00    -0.014 A 
ATOM     62  C   UNL A   1      52.472  26.694  27.328  1.00  0.00     0.009 A 
ATOM     63  C   UNL A   1      51.953  26.385  24.985  1.00  0.00     0.009 A 
ATOM     64  C   UNL A   1      53.420  25.671  27.249  1.00  0.00     0.001 A 
ATOM     65  C   UNL A   1      52.885  25.348  24.915  1.00  0.00     0.001 A 
ATOM     66  C   UNL A   1      53.621  24.996  26.045  1.00  0.00     0.000 A 
ENDBRANCH  47  61
BRANCH  48  67
ATOM     67  C   UNL A   1      44.491  33.865  26.883  1.00  0.00    -0.014 A 
ATOM     68  C   UNL A   1      44.072  34.314  28.145  1.00  0.00     0.009 A 
ATOM     69  C   UNL A   1      43.859  34.374  25.738  1.00  0.00     0.009 A 
ATOM     70  C   UNL A   1      43.022  35.229  28.257  1.00  0.00     0.001 A 
ATOM     71  C   UNL A   1      42.829  35.310  25.852  1.00  0.00     0.001 A 
ATOM     72  C   UNL A   1      42.404  35.728  27.112  1.00  0.00     0.000 A 
ENDBRANCH  48  67
BRANCH  60  73
ATOM     73  C   UNL A   1      51.370  34.257  25.944  1.00  0.00    -0.014 A 
ATOM     74  C   UNL A   1      52.047  34.816  27.038  1.00  0.00     0.009 A 
ATOM     75  C   UNL A   1      51.606  34.773  24.660  1.00  0.00     0.009 A 
ATOM     76  C   UNL A   1      52.919  35.892  26.852  1.00  0.00     0.001 A 
ATOM     77  C   UNL A   1      52.497  35.829  24.474  1.00  0.00     0.001 A 
ATOM     78  C   UNL A   1      53.147  36.393  25.570  1.00  0.00     0.000 A 
ENDBRANCH  60  73
ENDBRANCH  34  35
ENDBRANCH  27  29
ENDBRANCH  26  27
ENDBRANCH  25  26
ENDBRANCH  24  25
ENDBRANCH  23  24
ENDBRANCH   1  23
TORSDOF 19
ENDMDL
MODEL 2
REMARK VINA RESULT:      -9.1      6.486     10.770
REMARK SMILES CCC(CC)NC(=O)NC[C@H]1CC[C@H](C(=O)OCCOCCOC(=O)c2ccc(-c3c4nc(c(-c5ccccc5)c5ccc([nH]5)c(-c5ccccc5)c5nc(c(-c6ccccc6)c6ccc3[nH]6)C=C5)C=C4)cc2)O1
REMARK SMILES IDX 19 1 18 2 17 3 15 4 16 5 14 6 11 7 12 8 74 9 13 10 10 11
REMARK SMILES IDX 9 12 6 13 7 14 8 16 3 18 2 19 1 20 4 21 5 22 20 23 21 24
REMARK SMILES IDX 22 25 23 26 24 27 25 28 26 29 27 30 73 31 28 32 72 33 29 34
REMARK SMILES IDX 30 35 31 36 66 37 32 38 71 39 65 40 67 41 33 42 70 43 64 44
REMARK SMILES IDX 63 45 34 47 56 48 41 49 55 50 42 51 45 52 54 53 68 54 43 55
REMARK SMILES IDX 44 56 53 58 69 59 46 60 35 61 36 62 40 63 37 64 39 65 38 66
REMARK SMILES IDX 57 67 58 68 62 69 59 70 61 71 60 72 47 73 48 74 52 75 49 76
REMARK SMILES IDX 51 77 50 78
REMARK H PARENT 6 15 9 17 67 46 45 57
REMARK Flexibility Score: inf
ROOT
ATOM      1  C   UNL A   1      32.042  28.475  24.521  1.00  0.00     0.202 C 
ENDROOT
BRANCH   1   2
ATOM      2  C   UNL A   1      32.943  28.603  23.290  1.00  0.00     0.261 C 
BRANCH   2   3
ATOM      3  O   UNL A   1      33.964  27.588  23.291  1.00  0.00    -0.461 OA
BRANCH   3   4
ATOM      4  C   UNL A   1      33.727  26.509  22.495  1.00  0.00     0.335 C 
ATOM      5  O   UNL A   1      33.613  26.548  21.275  1.00  0.00    -0.249 OA
BRANCH   4   6
ATOM      6  C   UNL A   1      33.631  25.209  23.296  1.00  0.00     0.228 C 
ATOM      7  C   UNL A   1      33.849  22.957  22.742  1.00  0.00     0.138 C 
ATOM      8  C   UNL A   1      32.393  23.322  22.535  1.00  0.00     0.037 C 
ATOM      9  O   UNL A   1      34.537  24.220  22.781  1.00  0.00    -0.361 OA
ATOM     10  C   UNL A   1      32.249  24.562  23.377  1.00  0.00     0.047 C 
BRANCH   7  11
ATOM     11  C   UNL A   1      34.148  22.205  24.056  1.00  0.00     0.149 C 
BRANCH  11  12
ATOM     12  N   UNL A   1      33.461  20.939  24.192  1.00  0.00    -0.336 N 
ATOM     13  N   UNL A   1      31.822  21.231  25.866  1.00  0.00    -0.335 N 
ATOM     14  C   UNL A   1      32.468  20.491  24.962  1.00  0.00     0.315 C 
ATOM     15  H   UNL A   1      31.166  20.709  26.382  1.00  0.00     0.165 HD
ATOM     16  O   UNL A   1      32.134  19.311  24.834  1.00  0.00    -0.249 OA
ATOM     17  H   UNL A   1      33.804  20.252  23.575  1.00  0.00     0.165 HD
BRANCH  13  18
ATOM     18  C   UNL A   1      31.860  22.633  26.270  1.00  0.00     0.083 C 
BRANCH  18  19
ATOM     19  C   UNL A   1      30.460  23.253  26.165  1.00  0.00     0.021 C 
ATOM     20  C   UNL A   1      29.531  22.791  27.279  1.00  0.00     0.006 C 
ENDBRANCH  18  19
BRANCH  18  21
ATOM     21  C   UNL A   1      32.549  22.772  27.640  1.00  0.00     0.021 C 
ATOM     22  C   UNL A   1      33.929  22.141  27.741  1.00  0.00     0.006 C 
ENDBRANCH  18  21
ENDBRANCH  13  18
ENDBRANCH  11  12
ENDBRANCH   7  11
ENDBRANCH   4   6
ENDBRANCH   3   4
ENDBRANCH   2   3
ENDBRANCH   1   2
BRANCH   1  23
ATOM     23  O   UNL A   1      30.917  29.352  24.577  1.00  0.00    -0.374 OA
BRANCH  23  24
ATOM     24  C   UNL A   1      31.079  30.592  25.263  1.00  0.00     0.202 C 
BRANCH  24  25
ATOM     25  C   UNL A   1      31.799  30.539  26.617  1.00  0.00     0.261 C 
BRANCH  25  26
ATOM     26  O   UNL A   1      33.223  30.725  26.499  1.00  0.00    -0.460 OA
BRANCH  26  27
ATOM     27  C   UNL A   1      33.748  31.624  27.367  1.00  0.00     0.338 C 
ATOM     28  O   UNL A   1      33.186  32.590  27.866  1.00  0.00    -0.246 OA
BRANCH  27  29
ATOM     29  C   UNL A   1      35.092  31.202  27.803  1.00  0.00     0.060 A 
ATOM     30  C   UNL A   1      35.308  29.829  27.984  1.00  0.00     0.016 A 
ATOM     31  C   UNL A   1      36.088  32.125  28.127  1.00  0.00     0.016 A 
ATOM     32  C   UNL A   1      36.506  29.377  28.534  1.00  0.00     0.010 A 
ATOM     33  C   UNL A   1      37.288  31.668  28.689  1.00  0.00     0.010 A 
ATOM     34  C   UNL A   1      37.488  30.296  28.927  1.00  0.00    -0.014 A 
BRANCH  34  35
ATOM     35  C   UNL A   1      38.661  29.819  29.702  1.00  0.00     0.031 A 
ATOM     36  C   UNL A   1      38.808  30.229  31.142  1.00  0.00     0.074 A 
ATOM     37  C   UNL A   1      39.563  28.989  29.145  1.00  0.00     0.049 A 
ATOM     38  N   UNL A   1      39.749  29.920  31.999  1.00  0.00    -0.248 NA
ATOM     39  C   UNL A   1      37.756  31.098  31.692  1.00  0.00     0.031 C 
ATOM     40  C   UNL A   1      39.513  28.477  27.778  1.00  0.00     0.029 A 
ATOM     41  N   UNL A   1      40.700  28.431  29.674  1.00  0.00    -0.354 N 
ATOM     42  C   UNL A   1      39.406  30.559  33.184  1.00  0.00     0.074 A 
ATOM     43  C   UNL A   1      38.183  31.292  32.932  1.00  0.00     0.031 C 
ATOM     44  C   UNL A   1      40.575  27.679  27.573  1.00  0.00     0.029 A 
ATOM     45  C   UNL A   1      41.395  27.648  28.782  1.00  0.00     0.049 A 
ATOM     46  H   UNL A   1      40.991  28.576  30.603  1.00  0.00     0.167 HD
ATOM     47  C   UNL A   1      40.046  30.536  34.378  1.00  0.00     0.031 A 
ATOM     48  C   UNL A   1      42.565  26.997  28.922  1.00  0.00     0.031 A 
ATOM     49  C   UNL A   1      41.263  29.815  34.636  1.00  0.00     0.049 A 
ATOM     50  C   UNL A   1      43.298  27.056  30.236  1.00  0.00     0.074 A 
ATOM     51  C   UNL A   1      41.969  29.714  35.822  1.00  0.00     0.029 A 
ATOM     52  N   UNL A   1      41.958  29.077  33.692  1.00  0.00    -0.354 N 
ATOM     53  N   UNL A   1      42.942  27.636  31.356  1.00  0.00    -0.248 NA
ATOM     54  C   UNL A   1      44.593  26.361  30.304  1.00  0.00     0.031 C 
ATOM     55  C   UNL A   1      43.121  28.959  35.583  1.00  0.00     0.029 A 
ATOM     56  C   UNL A   1      43.103  28.546  34.261  1.00  0.00     0.049 A 
ATOM     57  H   UNL A   1      41.681  28.951  32.756  1.00  0.00     0.167 HD
ATOM     58  C   UNL A   1      43.954  27.354  32.267  1.00  0.00     0.074 A 
ATOM     59  C   UNL A   1      44.930  26.540  31.573  1.00  0.00     0.031 C 
ATOM     60  C   UNL A   1      44.064  27.734  33.562  1.00  0.00     0.031 A 
BRANCH  47  61
ATOM     61  C   UNL A   1      39.456  31.342  35.498  1.00  0.00    -0.014 A 
ATOM     62  C   UNL A   1      38.407  30.841  36.284  1.00  0.00     0.009 A 
ATOM     63  C   UNL A   1      40.002  32.598  35.811  1.00  0.00     0.009 A 
ATOM     64  C   UNL A   1      37.901  31.592  37.347  1.00  0.00     0.001 A 
ATOM     65  C   UNL A   1      39.509  33.337  36.887  1.00  0.00     0.001 A 
ATOM     66  C   UNL A   1      38.456  32.836  37.651  1.00  0.00     0.000 A 
ENDBRANCH  47  61
BRANCH  48  67
ATOM     67  C   UNL A   1      43.147  26.250  27.777  1.00  0.00    -0.014 A 
ATOM     68  C   UNL A   1      43.966  26.899  26.840  1.00  0.00     0.009 A 
ATOM     69  C   UNL A   1      42.848  24.892  27.590  1.00  0.00     0.009 A 
ATOM     70  C   UNL A   1      44.449  26.209  25.725  1.00  0.00     0.001 A 
ATOM     71  C   UNL A   1      43.354  24.197  26.490  1.00  0.00     0.001 A 
ATOM     72  C   UNL A   1      44.145  24.860  25.552  1.00  0.00     0.000 A 
ENDBRANCH  48  67
BRANCH  60  73
ATOM     73  C   UNL A   1      45.263  27.246  34.326  1.00  0.00    -0.014 A 
ATOM     74  C   UNL A   1      46.124  28.141  34.978  1.00  0.00     0.009 A 
ATOM     75  C   UNL A   1      45.509  25.868  34.425  1.00  0.00     0.009 A 
ATOM     76  C   UNL A   1      47.228  27.665  35.690  1.00  0.00     0.001 A 
ATOM     77  C   UNL A   1      46.597  25.394  35.160  1.00  0.00     0.001 A 
ATOM     78  C   UNL A   1      47.459  26.293  35.784  1.00  0.00     0.000 A 
ENDBRANCH  60  73
ENDBRANCH  34  35
ENDBRANCH  27  29
ENDBRANCH  26  27
ENDBRANCH  25  26
ENDBRANCH  24  25
ENDBRANCH  23  24
ENDBRANCH   1  23
TORSDOF 19
ENDMDL
MODEL 3
REMARK VINA RESULT:      -9.0      3.437      5.746
REMARK SMILES CCC(CC)NC(=O)NC[C@H]1CC[C@H](C(=O)OCCOCCOC(=O)c2ccc(-c3c4nc(c(-c5ccccc5)c5ccc([nH]5)c(-c5ccccc5)c5nc(c(-c6ccccc6)c6ccc3[nH]6)C=C5)C=C4)cc2)O1
REMARK SMILES IDX 19 1 18 2 17 3 15 4 16 5 14 6 11 7 12 8 74 9 13 10 10 11
REMARK SMILES IDX 9 12 6 13 7 14 8 16 3 18 2 19 1 20 4 21 5 22 20 23 21 24
REMARK SMILES IDX 22 25 23 26 24 27 25 28 26 29 27 30 73 31 28 32 72 33 29 34
REMARK SMILES IDX 30 35 31 36 66 37 32 38 71 39 65 40 67 41 33 42 70 43 64 44
REMARK SMILES IDX 63 45 34 47 56 48 41 49 55 50 42 51 45 52 54 53 68 54 43 55
REMARK SMILES IDX 44 56 53 58 69 59 46 60 35 61 36 62 40 63 37 64 39 65 38 66
REMARK SMILES IDX 57 67 58 68 62 69 59 70 61 71 60 72 47 73 48 74 52 75 49 76
REMARK SMILES IDX 51 77 50 78
REMARK H PARENT 6 15 9 17 67 46 45 57
REMARK Flexibility Score: inf
ROOT
ATOM      1  C   UNL A   1      36.849  21.851  24.731  1.00  0.00     0.202 C 
ENDROOT
BRANCH   1   2
ATOM      2  C   UNL A   1      35.968  23.079  24.979  1.00  0.00     0.261 C 
BRANCH   2   3
ATOM      3  O   UNL A   1      34.813  23.066  24.122  1.00  0.00    -0.461 OA
BRANCH   3   4
ATOM      4  C   UNL A   1      33.611  22.937  24.749  1.00  0.00     0.335 C 
ATOM      5  O   UNL A   1      33.264  21.962  25.406  1.00  0.00    -0.249 OA
BRANCH   4   6
ATOM      6  C   UNL A   1      32.723  24.168  24.559  1.00  0.00     0.228 C 
ATOM      7  C   UNL A   1      32.047  25.898  25.965  1.00  0.00     0.138 C 
ATOM      8  C   UNL A   1      31.032  24.783  26.119  1.00  0.00     0.037 C 
ATOM      9  O   UNL A   1      33.189  25.267  25.359  1.00  0.00    -0.361 OA
ATOM     10  C   UNL A   1      31.236  23.985  24.859  1.00  0.00     0.047 C 
BRANCH   7  11
ATOM     11  C   UNL A   1      31.599  27.059  25.053  1.00  0.00     0.149 C 
BRANCH  11  12
ATOM     12  N   UNL A   1      32.588  27.476  24.083  1.00  0.00    -0.336 N 
ATOM     13  N   UNL A   1      33.590  29.437  24.934  1.00  0.00    -0.335 N 
ATOM     14  C   UNL A   1      33.449  28.492  24.002  1.00  0.00     0.315 C 
ATOM     15  H   UNL A   1      34.227  30.138  24.667  1.00  0.00     0.165 HD
ATOM     16  O   UNL A   1      34.153  28.565  22.992  1.00  0.00    -0.249 OA
ATOM     17  H   UNL A   1      32.639  26.872  23.307  1.00  0.00     0.165 HD
BRANCH  13  18
ATOM     18  C   UNL A   1      33.021  29.677  26.256  1.00  0.00     0.083 C 
BRANCH  18  19
ATOM     19  C   UNL A   1      34.047  30.378  27.156  1.00  0.00     0.021 C 
ATOM     20  C   UNL A   1      34.951  29.397  27.888  1.00  0.00     0.006 C 
ENDBRANCH  18  19
BRANCH  18  21
ATOM     21  C   UNL A   1      31.657  30.379  26.129  1.00  0.00     0.021 C 
ATOM     22  C   UNL A   1      31.647  31.853  26.506  1.00  0.00     0.006 C 
ENDBRANCH  18  21
ENDBRANCH  13  18
ENDBRANCH  11  12
ENDBRANCH   7  11
ENDBRANCH   4   6
ENDBRANCH   3   4
ENDBRANCH   2   3
ENDBRANCH   1   2
BRANCH   1  23
ATOM     23  O   UNL A   1      36.251  20.580  24.981  1.00  0.00    -0.374 OA
BRANCH  23  24
ATOM     24  C   UNL A   1      37.104  19.438  24.991  1.00  0.00     0.202 C 
BRANCH  24  25
ATOM     25  C   UNL A   1      38.615  19.710  24.973  1.00  0.00     0.261 C 
BRANCH  25  26
ATOM     26  O   UNL A   1      39.199  19.698  26.290  1.00  0.00    -0.460 OA
BRANCH  26  27
ATOM     27  C   UNL A   1      40.521  19.997  26.323  1.00  0.00     0.338 C 
ATOM     28  O   UNL A   1      41.443  19.336  25.863  1.00  0.00    -0.246 OA
BRANCH  27  29
ATOM     29  C   UNL A   1      40.733  21.356  26.854  1.00  0.00     0.060 A 
ATOM     30  C   UNL A   1      40.107  22.414  26.183  1.00  0.00     0.016 A 
ATOM     31  C   UNL A   1      41.604  21.606  27.917  1.00  0.00     0.016 A 
ATOM     32  C   UNL A   1      40.384  23.732  26.543  1.00  0.00     0.010 A 
ATOM     33  C   UNL A   1      41.888  22.932  28.270  1.00  0.00     0.010 A 
ATOM     34  C   UNL A   1      41.306  24.001  27.563  1.00  0.00    -0.014 A 
BRANCH  34  35
ATOM     35  C   UNL A   1      41.750  25.398  27.791  1.00  0.00     0.031 A 
ATOM     36  C   UNL A   1      43.059  25.860  27.208  1.00  0.00     0.074 A 
ATOM     37  C   UNL A   1      40.976  26.266  28.469  1.00  0.00     0.049 A 
ATOM     38  N   UNL A   1      43.629  27.037  27.281  1.00  0.00    -0.248 NA
ATOM     39  C   UNL A   1      43.826  24.867  26.439  1.00  0.00     0.031 C 
ATOM     40  C   UNL A   1      39.666  25.963  29.042  1.00  0.00     0.029 A 
ATOM     41  N   UNL A   1      41.186  27.585  28.785  1.00  0.00    -0.354 N 
ATOM     42  C   UNL A   1      44.820  26.924  26.574  1.00  0.00     0.074 A 
ATOM     43  C   UNL A   1      44.903  25.560  26.098  1.00  0.00     0.031 C 
ATOM     44  C   UNL A   1      39.189  27.066  29.644  1.00  0.00     0.029 A 
ATOM     45  C   UNL A   1      40.171  28.142  29.524  1.00  0.00     0.049 A 
ATOM     46  H   UNL A   1      41.988  28.085  28.508  1.00  0.00     0.167 HD
ATOM     47  C   UNL A   1      45.759  27.871  26.336  1.00  0.00     0.031 A 
ATOM     48  C   UNL A   1      40.055  29.374  30.056  1.00  0.00     0.031 A 
ATOM     49  C   UNL A   1      45.686  29.228  26.808  1.00  0.00     0.049 A 
ATOM     50  C   UNL A   1      41.153  30.383  29.845  1.00  0.00     0.074 A 
ATOM     51  C   UNL A   1      46.579  30.263  26.594  1.00  0.00     0.029 A 
ATOM     52  N   UNL A   1      44.665  29.736  27.594  1.00  0.00    -0.354 N 
ATOM     53  N   UNL A   1      42.255  30.271  29.145  1.00  0.00    -0.248 NA
ATOM     54  C   UNL A   1      40.983  31.692  30.495  1.00  0.00     0.031 C 
ATOM     55  C   UNL A   1      46.127  31.384  27.296  1.00  0.00     0.029 A 
ATOM     56  C   UNL A   1      44.924  31.061  27.902  1.00  0.00     0.049 A 
ATOM     57  H   UNL A   1      43.875  29.230  27.892  1.00  0.00     0.167 HD
ATOM     58  C   UNL A   1      42.895  31.501  29.249  1.00  0.00     0.074 A 
ATOM     59  C   UNL A   1      42.051  32.347  30.065  1.00  0.00     0.031 C 
ATOM     60  C   UNL A   1      44.076  31.894  28.712  1.00  0.00     0.031 A 
BRANCH  47  61
ATOM     61  C   UNL A   1      46.971  27.466  25.548  1.00  0.00    -0.014 A 
ATOM     62  C   UNL A   1      47.046  27.681  24.163  1.00  0.00     0.009 A 
ATOM     63  C   UNL A   1      48.079  26.917  26.213  1.00  0.00     0.009 A 
ATOM     64  C   UNL A   1      48.199  27.333  23.457  1.00  0.00     0.001 A 
ATOM     65  C   UNL A   1      49.238  26.590  25.508  1.00  0.00     0.001 A 
ATOM     66  C   UNL A   1      49.295  26.794  24.131  1.00  0.00     0.000 A 
ENDBRANCH  47  61
BRANCH  48  67
ATOM     67  C   UNL A   1      38.866  29.727  30.875  1.00  0.00    -0.014 A 
ATOM     68  C   UNL A   1      37.722  30.279  30.278  1.00  0.00     0.009 A 
ATOM     69  C   UNL A   1      38.887  29.555  32.268  1.00  0.00     0.009 A 
ATOM     70  C   UNL A   1      36.637  30.678  31.063  1.00  0.00     0.001 A 
ATOM     71  C   UNL A   1      37.791  29.928  33.047  1.00  0.00     0.001 A 
ATOM     72  C   UNL A   1      36.672  30.500  32.445  1.00  0.00     0.000 A 
ENDBRANCH  48  67
BRANCH  60  73
ATOM     73  C   UNL A   1      44.510  33.311  28.962  1.00  0.00    -0.014 A 
ATOM     74  C   UNL A   1      45.309  33.643  30.066  1.00  0.00     0.009 A 
ATOM     75  C   UNL A   1      44.145  34.319  28.056  1.00  0.00     0.009 A 
ATOM     76  C   UNL A   1      45.709  34.966  30.273  1.00  0.00     0.001 A 
ATOM     77  C   UNL A   1      44.569  35.634  28.251  1.00  0.00     0.001 A 
ATOM     78  C   UNL A   1      45.343  35.958  29.363  1.00  0.00     0.000 A 
ENDBRANCH  60  73
ENDBRANCH  34  35
ENDBRANCH  27  29
ENDBRANCH  26  27
ENDBRANCH  25  26
ENDBRANCH  24  25
ENDBRANCH  23  24
ENDBRANCH   1  23
TORSDOF 19
ENDMDL
