MODEL 1
REMARK VINA RESULT:     -11.5      0.000      0.000
REMARK SMILES O=C(OCCOCCOC(=O)c1ccc(-n2cc(CSc3nc4ccccc4c(=O)n3-c3ccc(Br)cc3)nn2)cc1)c1ccc(-c2c3nc(c(-c4ccccc4)c4ccc([nH]4)c(-c4ccccc4)c4nc(c(-c5ccccc5)c5ccc2[nH]5)C=C4)C=C3)cc1
REMARK SMILES IDX 7 1 6 2 5 3 4 4 3 5 2 6 1 7 43 8 44 9 90 10 45 11 89 12
REMARK SMILES IDX 46 13 47 14 48 15 83 16 49 17 88 18 82 19 84 20 50 21 87 22
REMARK SMILES IDX 81 23 80 24 51 26 73 27 58 28 72 29 59 30 62 31 71 32 85 33
REMARK SMILES IDX 60 34 61 35 70 37 86 38 63 39 52 40 53 41 57 42 54 43 56 44
REMARK SMILES IDX 55 45 74 46 75 47 79 48 76 49 78 50 77 51 64 52 65 53 69 54
REMARK SMILES IDX 66 55 68 56 67 57 8 58 9 59 10 60 11 61 12 62 13 63 42 64
REMARK SMILES IDX 14 65 41 66 15 67 16 68 17 69 40 70 18 71 39 72 19 73 20 74
REMARK SMILES IDX 21 75 22 76 31 77 23 78 29 79 24 80 28 81 30 82 25 83 27 84
REMARK SMILES IDX 26 85 32 86 33 87 38 88 34 89 37 90 35 91 36 92
REMARK H PARENT 84 25 62 36
REMARK Flexibility Score: inf
ROOT
ATOM      1  C   UNL A   1      46.065  27.464  25.870  1.00  0.00     0.202 C 
ENDROOT
BRANCH   1   2
ATOM      2  O   UNL A   1      45.762  27.228  27.254  1.00  0.00    -0.374 OA
BRANCH   2   3
ATOM      3  C   UNL A   1      46.879  27.024  28.114  1.00  0.00     0.202 C 
BRANCH   3   4
ATOM      4  C   UNL A   1      47.021  25.657  28.780  1.00  0.00     0.261 C 
BRANCH   4   5
ATOM      5  O   UNL A   1      46.140  25.473  29.902  1.00  0.00    -0.460 OA
BRANCH   5   6
ATOM      6  C   UNL A   1      44.881  24.988  29.829  1.00  0.00     0.338 C 
ATOM      7  O   UNL A   1      44.674  23.779  29.909  1.00  0.00    -0.246 OA
BRANCH   6   8
ATOM      8  C   UNL A   1      43.736  25.927  29.941  1.00  0.00     0.060 A 
ATOM      9  C   UNL A   1      42.738  26.097  28.984  1.00  0.00     0.016 A 
ATOM     10  C   UNL A   1      43.760  26.772  31.061  1.00  0.00     0.016 A 
ATOM     11  C   UNL A   1      41.978  27.248  28.981  1.00  0.00     0.010 A 
ATOM     12  C   UNL A   1      42.941  27.883  31.111  1.00  0.00     0.010 A 
ATOM     13  C   UNL A   1      42.138  28.170  30.014  1.00  0.00    -0.014 A 
BRANCH  13  14
ATOM     14  C   UNL A   1      41.377  29.401  29.925  1.00  0.00     0.031 A 
ATOM     15  C   UNL A   1      42.185  30.607  29.609  1.00  0.00     0.074 A 
ATOM     16  C   UNL A   1      40.039  29.423  30.055  1.00  0.00     0.049 A 
ATOM     17  N   UNL A   1      42.315  31.689  30.306  1.00  0.00    -0.248 NA
ATOM     18  C   UNL A   1      43.053  30.544  28.422  1.00  0.00     0.031 C 
ATOM     19  C   UNL A   1      39.106  28.293  30.115  1.00  0.00     0.029 A 
ATOM     20  N   UNL A   1      39.214  30.500  30.042  1.00  0.00    -0.354 N 
ATOM     21  C   UNL A   1      43.167  32.513  29.575  1.00  0.00     0.074 A 
ATOM     22  C   UNL A   1      43.682  31.716  28.490  1.00  0.00     0.031 C 
ATOM     23  C   UNL A   1      37.853  28.741  29.871  1.00  0.00     0.029 A 
ATOM     24  C   UNL A   1      37.885  30.191  29.794  1.00  0.00     0.049 A 
ATOM     25  H   UNL A   1      39.529  31.420  30.195  1.00  0.00     0.167 HD
ATOM     26  C   UNL A   1      43.249  33.852  29.795  1.00  0.00     0.031 A 
ATOM     27  C   UNL A   1      36.906  31.069  29.470  1.00  0.00     0.031 A 
ATOM     28  C   UNL A   1      42.749  34.222  31.091  1.00  0.00     0.049 A 
ATOM     29  C   UNL A   1      37.361  32.419  29.879  1.00  0.00     0.074 A 
ATOM     30  C   UNL A   1      43.134  33.945  32.387  1.00  0.00     0.029 A 
ATOM     31  N   UNL A   1      41.456  34.681  31.173  1.00  0.00    -0.354 N 
ATOM     32  N   UNL A   1      37.518  32.774  31.122  1.00  0.00    -0.248 NA
ATOM     33  C   UNL A   1      38.081  33.226  28.905  1.00  0.00     0.031 C 
ATOM     34  C   UNL A   1      41.912  33.774  33.102  1.00  0.00     0.029 A 
ATOM     35  C   UNL A   1      40.860  34.022  32.219  1.00  0.00     0.049 A 
ATOM     36  H   UNL A   1      41.038  35.356  30.591  1.00  0.00     0.167 HD
ATOM     37  C   UNL A   1      38.671  33.545  31.128  1.00  0.00     0.074 A 
ATOM     38  C   UNL A   1      38.916  33.871  29.724  1.00  0.00     0.031 C 
ATOM     39  C   UNL A   1      39.473  33.610  32.232  1.00  0.00     0.031 A 
BRANCH  26  40
ATOM     40  C   UNL A   1      43.457  34.846  28.685  1.00  0.00    -0.014 A 
ATOM     41  C   UNL A   1      44.706  35.474  28.545  1.00  0.00     0.009 A 
ATOM     42  C   UNL A   1      42.388  35.386  27.942  1.00  0.00     0.009 A 
ATOM     43  C   UNL A   1      44.860  36.611  27.741  1.00  0.00     0.001 A 
ATOM     44  C   UNL A   1      42.545  36.496  27.111  1.00  0.00     0.001 A 
ATOM     45  C   UNL A   1      43.778  37.125  27.029  1.00  0.00     0.000 A 
ENDBRANCH  26  40
BRANCH  27  46
ATOM     46  C   UNL A   1      35.776  30.858  28.543  1.00  0.00    -0.014 A 
ATOM     47  C   UNL A   1      35.473  29.579  28.054  1.00  0.00     0.009 A 
ATOM     48  C   UNL A   1      34.825  31.879  28.348  1.00  0.00     0.009 A 
ATOM     49  C   UNL A   1      34.248  29.326  27.420  1.00  0.00     0.001 A 
ATOM     50  C   UNL A   1      33.604  31.626  27.715  1.00  0.00     0.001 A 
ATOM     51  C   UNL A   1      33.310  30.345  27.263  1.00  0.00     0.000 A 
ENDBRANCH  27  46
BRANCH  39  52
ATOM     52  C   UNL A   1      38.975  32.957  33.502  1.00  0.00    -0.014 A 
ATOM     53  C   UNL A   1      38.317  33.672  34.521  1.00  0.00     0.009 A 
ATOM     54  C   UNL A   1      39.033  31.561  33.606  1.00  0.00     0.009 A 
ATOM     55  C   UNL A   1      37.769  33.011  35.625  1.00  0.00     0.001 A 
ATOM     56  C   UNL A   1      38.465  30.899  34.699  1.00  0.00     0.001 A 
ATOM     57  C   UNL A   1      37.840  31.624  35.711  1.00  0.00     0.000 A 
ENDBRANCH  39  52
ENDBRANCH  13  14
ENDBRANCH   6   8
ENDBRANCH   5   6
ENDBRANCH   4   5
ENDBRANCH   3   4
ENDBRANCH   2   3
ENDBRANCH   1   2
BRANCH   1  58
ATOM     58  C   UNL A   1      46.779  26.362  25.073  1.00  0.00     0.261 C 
BRANCH  58  59
ATOM     59  O   UNL A   1      45.874  25.314  24.680  1.00  0.00    -0.460 OA
BRANCH  59  60
ATOM     60  C   UNL A   1      45.882  24.223  25.490  1.00  0.00     0.338 C 
ATOM     61  O   UNL A   1      46.841  23.680  25.982  1.00  0.00    -0.246 OA
BRANCH  60  62
ATOM     62  C   UNL A   1      44.489  23.932  25.902  1.00  0.00     0.060 A 
ATOM     63  C   UNL A   1      44.268  22.766  26.656  1.00  0.00     0.018 A 
ATOM     64  C   UNL A   1      43.428  24.758  25.539  1.00  0.00     0.018 A 
ATOM     65  C   UNL A   1      42.982  22.395  27.031  1.00  0.00     0.029 A 
ATOM     66  C   UNL A   1      42.129  24.341  25.828  1.00  0.00     0.029 A 
ATOM     67  C   UNL A   1      41.915  23.142  26.538  1.00  0.00     0.066 A 
BRANCH  67  68
ATOM     68  N   UNL A   1      40.654  22.521  26.487  1.00  0.00    -0.220 N 
ATOM     69  C   UNL A   1      39.482  23.216  26.380  1.00  0.00     0.141 A 
ATOM     70  N   UNL A   1      40.432  21.215  26.224  1.00  0.00    -0.062 NA
ATOM     71  C   UNL A   1      38.537  22.296  25.999  1.00  0.00     0.093 A 
ATOM     72  N   UNL A   1      39.127  21.058  25.996  1.00  0.00    -0.134 NA
BRANCH  71  73
ATOM     73  C   UNL A   1      37.082  22.506  25.857  1.00  0.00     0.138 C 
BRANCH  73  74
ATOM     74  S   UNL A   1      36.339  23.469  24.547  1.00  0.00    -0.081 SA
BRANCH  74  75
ATOM     75  C   UNL A   1      34.720  24.040  24.863  1.00  0.00     0.176 A 
ATOM     76  N   UNL A   1      34.621  25.321  24.648  1.00  0.00    -0.223 NA
ATOM     77  N   UNL A   1      33.628  23.291  25.275  1.00  0.00    -0.255 N 
ATOM     78  C   UNL A   1      33.416  25.965  24.947  1.00  0.00     0.079 A 
ATOM     79  C   UNL A   1      32.768  23.969  26.152  1.00  0.00     0.266 A 
ATOM     80  C   UNL A   1      33.134  27.236  24.447  1.00  0.00     0.029 A 
ATOM     81  C   UNL A   1      32.525  25.385  25.836  1.00  0.00     0.066 A 
ATOM     82  O   UNL A   1      32.219  23.493  27.144  1.00  0.00    -0.268 OA
ATOM     83  C   UNL A   1      32.003  27.933  24.888  1.00  0.00     0.002 A 
ATOM     84  C   UNL A   1      31.419  26.086  26.328  1.00  0.00     0.016 A 
ATOM     85  C   UNL A   1      31.165  27.372  25.855  1.00  0.00     0.001 A 
BRANCH  77  86
ATOM     86  C   UNL A   1      33.294  21.933  24.897  1.00  0.00     0.051 A 
ATOM     87  C   UNL A   1      33.775  20.842  25.655  1.00  0.00     0.028 A 
ATOM     88  C   UNL A   1      32.466  21.597  23.819  1.00  0.00     0.028 A 
ATOM     89  C   UNL A   1      33.657  19.517  25.223  1.00  0.00     0.018 A 
ATOM     90  C   UNL A   1      32.387  20.277  23.340  1.00  0.00     0.018 A 
ATOM     91  C   UNL A   1      33.027  19.250  24.020  1.00  0.00     0.018 A 
ATOM     92  Br  UNL A   1      33.077  17.509  23.297  1.00  0.00    -0.051 Br
ENDBRANCH  77  86
ENDBRANCH  74  75
ENDBRANCH  73  74
ENDBRANCH  71  73
ENDBRANCH  67  68
ENDBRANCH  60  62
ENDBRANCH  59  60
ENDBRANCH  58  59
ENDBRANCH   1  58
TORSDOF 19
ENDMDL
MODEL 2
REMARK VINA RESULT:     -11.2      1.528      3.037
REMARK SMILES O=C(OCCOCCOC(=O)c1ccc(-n2cc(CSc3nc4ccccc4c(=O)n3-c3ccc(Br)cc3)nn2)cc1)c1ccc(-c2c3nc(c(-c4ccccc4)c4ccc([nH]4)c(-c4ccccc4)c4nc(c(-c5ccccc5)c5ccc2[nH]5)C=C4)C=C3)cc1
REMARK SMILES IDX 7 1 6 2 5 3 4 4 3 5 2 6 1 7 43 8 44 9 90 10 45 11 89 12
REMARK SMILES IDX 46 13 47 14 48 15 83 16 49 17 88 18 82 19 84 20 50 21 87 22
REMARK SMILES IDX 81 23 80 24 51 26 73 27 58 28 72 29 59 30 62 31 71 32 85 33
REMARK SMILES IDX 60 34 61 35 70 37 86 38 63 39 52 40 53 41 57 42 54 43 56 44
REMARK SMILES IDX 55 45 74 46 75 47 79 48 76 49 78 50 77 51 64 52 65 53 69 54
REMARK SMILES IDX 66 55 68 56 67 57 8 58 9 59 10 60 11 61 12 62 13 63 42 64
REMARK SMILES IDX 14 65 41 66 15 67 16 68 17 69 40 70 18 71 39 72 19 73 20 74
REMARK SMILES IDX 21 75 22 76 31 77 23 78 29 79 24 80 28 81 30 82 25 83 27 84
REMARK SMILES IDX 26 85 32 86 33 87 38 88 34 89 37 90 35 91 36 92
REMARK H PARENT 84 25 62 36
REMARK Flexibility Score: inf
ROOT
ATOM      1  C   UNL A   1      45.777  29.167  26.817  1.00  0.00     0.202 C 
ENDROOT
BRANCH   1   2
ATOM      2  O   UNL A   1      45.632  28.308  27.960  1.00  0.00    -0.374 OA
BRANCH   2   3
ATOM      3  C   UNL A   1      46.836  27.752  28.483  1.00  0.00     0.202 C 
BRANCH   3   4
ATOM      4  C   UNL A   1      46.938  26.230  28.561  1.00  0.00     0.261 C 
BRANCH   4   5
ATOM      5  O   UNL A   1      46.341  25.678  29.748  1.00  0.00    -0.460 OA
BRANCH   5   6
ATOM      6  C   UNL A   1      45.104  25.139  29.816  1.00  0.00     0.338 C 
ATOM      7  O   UNL A   1      44.960  23.927  29.958  1.00  0.00    -0.246 OA
BRANCH   6   8
ATOM      8  C   UNL A   1      43.936  26.035  30.008  1.00  0.00     0.060 A 
ATOM      9  C   UNL A   1      42.897  26.210  29.096  1.00  0.00     0.016 A 
ATOM     10  C   UNL A   1      43.974  26.835  31.160  1.00  0.00     0.016 A 
ATOM     11  C   UNL A   1      42.101  27.334  29.168  1.00  0.00     0.010 A 
ATOM     12  C   UNL A   1      43.123  27.916  31.286  1.00  0.00     0.010 A 
ATOM     13  C   UNL A   1      42.271  28.219  30.231  1.00  0.00    -0.014 A 
BRANCH  13  14
ATOM     14  C   UNL A   1      41.469  29.426  30.221  1.00  0.00     0.031 A 
ATOM     15  C   UNL A   1      42.225  30.670  29.920  1.00  0.00     0.074 A 
ATOM     16  C   UNL A   1      40.137  29.400  30.406  1.00  0.00     0.049 A 
ATOM     17  N   UNL A   1      42.349  31.729  30.652  1.00  0.00    -0.248 NA
ATOM     18  C   UNL A   1      43.045  30.680  28.697  1.00  0.00     0.031 C 
ATOM     19  C   UNL A   1      39.244  28.238  30.459  1.00  0.00     0.029 A 
ATOM     20  N   UNL A   1      39.279  30.449  30.467  1.00  0.00    -0.354 N 
ATOM     21  C   UNL A   1      43.144  32.607  29.920  1.00  0.00     0.074 A 
ATOM     22  C   UNL A   1      43.638  31.869  28.785  1.00  0.00     0.031 C 
ATOM     23  C   UNL A   1      37.968  28.653  30.283  1.00  0.00     0.029 A 
ATOM     24  C   UNL A   1      37.952  30.106  30.261  1.00  0.00     0.049 A 
ATOM     25  H   UNL A   1      39.571  31.373  30.643  1.00  0.00     0.167 HD
ATOM     26  C   UNL A   1      43.193  33.938  30.189  1.00  0.00     0.031 A 
ATOM     27  C   UNL A   1      36.933  30.962  30.011  1.00  0.00     0.031 A 
ATOM     28  C   UNL A   1      42.736  34.243  31.516  1.00  0.00     0.049 A 
ATOM     29  C   UNL A   1      37.361  32.310  30.453  1.00  0.00     0.074 A 
ATOM     30  C   UNL A   1      43.183  33.931  32.785  1.00  0.00     0.029 A 
ATOM     31  N   UNL A   1      41.434  34.656  31.668  1.00  0.00    -0.354 N 
ATOM     32  N   UNL A   1      37.558  32.623  31.702  1.00  0.00    -0.248 NA
ATOM     33  C   UNL A   1      38.014  33.176  29.483  1.00  0.00     0.031 C 
ATOM     34  C   UNL A   1      41.998  33.693  33.541  1.00  0.00     0.029 A 
ATOM     35  C   UNL A   1      40.902  33.939  32.711  1.00  0.00     0.049 A 
ATOM     36  H   UNL A   1      40.971  35.338  31.130  1.00  0.00     0.167 HD
ATOM     37  C   UNL A   1      38.686  33.431  31.691  1.00  0.00     0.074 A 
ATOM     38  C   UNL A   1      38.863  33.817  30.292  1.00  0.00     0.031 C 
ATOM     39  C   UNL A   1      39.531  33.482  32.764  1.00  0.00     0.031 A 
BRANCH  26  40
ATOM     40  C   UNL A   1      43.323  34.980  29.110  1.00  0.00    -0.014 A 
ATOM     41  C   UNL A   1      42.196  35.331  28.348  1.00  0.00     0.009 A 
ATOM     42  C   UNL A   1      44.573  35.430  28.640  1.00  0.00     0.009 A 
ATOM     43  C   UNL A   1      42.324  36.052  27.153  1.00  0.00     0.001 A 
ATOM     44  C   UNL A   1      44.701  36.181  27.470  1.00  0.00     0.001 A 
ATOM     45  C   UNL A   1      43.577  36.471  26.712  1.00  0.00     0.000 A 
ENDBRANCH  26  40
BRANCH  27  46
ATOM     46  C   UNL A   1      35.772  30.748  29.123  1.00  0.00    -0.014 A 
ATOM     47  C   UNL A   1      34.839  31.770  28.897  1.00  0.00     0.009 A 
ATOM     48  C   UNL A   1      35.726  29.618  28.283  1.00  0.00     0.009 A 
ATOM     49  C   UNL A   1      33.914  31.677  27.846  1.00  0.00     0.001 A 
ATOM     50  C   UNL A   1      34.804  29.525  27.237  1.00  0.00     0.001 A 
ATOM     51  C   UNL A   1      33.906  30.562  27.010  1.00  0.00     0.000 A 
ENDBRANCH  27  46
BRANCH  39  52
ATOM     52  C   UNL A   1      39.106  32.766  34.027  1.00  0.00    -0.014 A 
ATOM     53  C   UNL A   1      38.349  33.385  35.038  1.00  0.00     0.009 A 
ATOM     54  C   UNL A   1      39.344  31.389  34.130  1.00  0.00     0.009 A 
ATOM     55  C   UNL A   1      37.877  32.656  36.135  1.00  0.00     0.001 A 
ATOM     56  C   UNL A   1      38.855  30.655  35.215  1.00  0.00     0.001 A 
ATOM     57  C   UNL A   1      38.128  31.289  36.220  1.00  0.00     0.000 A 
ENDBRANCH  39  52
ENDBRANCH  13  14
ENDBRANCH   6   8
ENDBRANCH   5   6
ENDBRANCH   4   5
ENDBRANCH   3   4
ENDBRANCH   2   3
ENDBRANCH   1   2
BRANCH   1  58
ATOM     58  C   UNL A   1      46.329  28.572  25.513  1.00  0.00     0.261 C 
BRANCH  58  59
ATOM     59  O   UNL A   1      45.381  27.691  24.884  1.00  0.00    -0.460 OA
BRANCH  59  60
ATOM     60  C   UNL A   1      45.721  26.375  24.914  1.00  0.00     0.338 C 
ATOM     61  O   UNL A   1      46.815  25.895  24.739  1.00  0.00    -0.246 OA
BRANCH  60  62
ATOM     62  C   UNL A   1      44.577  25.605  25.455  1.00  0.00     0.060 A 
ATOM     63  C   UNL A   1      44.867  24.402  26.123  1.00  0.00     0.018 A 
ATOM     64  C   UNL A   1      43.261  26.030  25.290  1.00  0.00     0.018 A 
ATOM     65  C   UNL A   1      43.844  23.594  26.607  1.00  0.00     0.029 A 
ATOM     66  C   UNL A   1      42.230  25.179  25.687  1.00  0.00     0.029 A 
ATOM     67  C   UNL A   1      42.531  23.950  26.308  1.00  0.00     0.066 A 
BRANCH  67  68
ATOM     68  N   UNL A   1      41.558  22.935  26.346  1.00  0.00    -0.220 N 
ATOM     69  C   UNL A   1      40.215  23.189  26.393  1.00  0.00     0.141 A 
ATOM     70  N   UNL A   1      41.762  21.638  26.033  1.00  0.00    -0.062 NA
ATOM     71  C   UNL A   1      39.602  22.008  26.057  1.00  0.00     0.093 A 
ATOM     72  N   UNL A   1      40.572  21.047  25.926  1.00  0.00    -0.134 NA
BRANCH  71  73
ATOM     73  C   UNL A   1      38.155  21.710  26.070  1.00  0.00     0.138 C 
BRANCH  73  74
ATOM     74  S   UNL A   1      36.904  22.818  25.435  1.00  0.00    -0.081 SA
BRANCH  74  75
ATOM     75  C   UNL A   1      35.377  22.074  25.036  1.00  0.00     0.176 A 
ATOM     76  N   UNL A   1      35.476  20.776  25.012  1.00  0.00    -0.223 NA
ATOM     77  N   UNL A   1      34.171  22.710  24.782  1.00  0.00    -0.255 N 
ATOM     78  C   UNL A   1      34.369  20.021  24.612  1.00  0.00     0.079 A 
ATOM     79  C   UNL A   1      33.387  22.079  23.803  1.00  0.00     0.266 A 
ATOM     80  C   UNL A   1      34.297  18.652  24.871  1.00  0.00     0.029 A 
ATOM     81  C   UNL A   1      33.369  20.610  23.855  1.00  0.00     0.066 A 
ATOM     82  O   UNL A   1      32.736  22.638  22.922  1.00  0.00    -0.268 OA
ATOM     83  C   UNL A   1      33.264  17.883  24.321  1.00  0.00     0.002 A 
ATOM     84  C   UNL A   1      32.360  19.850  23.253  1.00  0.00     0.016 A 
ATOM     85  C   UNL A   1      32.317  18.476  23.484  1.00  0.00     0.001 A 
BRANCH  77  86
ATOM     86  C   UNL A   1      33.655  23.911  25.408  1.00  0.00     0.051 A 
ATOM     87  C   UNL A   1      32.478  23.861  26.187  1.00  0.00     0.028 A 
ATOM     88  C   UNL A   1      34.276  25.164  25.336  1.00  0.00     0.028 A 
ATOM     89  C   UNL A   1      31.828  25.013  26.640  1.00  0.00     0.018 A 
ATOM     90  C   UNL A   1      33.607  26.335  25.733  1.00  0.00     0.018 A 
ATOM     91  C   UNL A   1      32.361  26.255  26.340  1.00  0.00     0.018 A 
ATOM     92  Br  UNL A   1      31.378  27.818  26.719  1.00  0.00    -0.051 Br
ENDBRANCH  77  86
ENDBRANCH  74  75
ENDBRANCH  73  74
ENDBRANCH  71  73
ENDBRANCH  67  68
ENDBRANCH  60  62
ENDBRANCH  59  60
ENDBRANCH  58  59
ENDBRANCH   1  58
TORSDOF 19
ENDMDL
MODEL 3
REMARK VINA RESULT:     -10.9      6.186     13.390
REMARK SMILES O=C(OCCOCCOC(=O)c1ccc(-n2cc(CSc3nc4ccccc4c(=O)n3-c3ccc(Br)cc3)nn2)cc1)c1ccc(-c2c3nc(c(-c4ccccc4)c4ccc([nH]4)c(-c4ccccc4)c4nc(c(-c5ccccc5)c5ccc2[nH]5)C=C4)C=C3)cc1
REMARK SMILES IDX 7 1 6 2 5 3 4 4 3 5 2 6 1 7 43 8 44 9 90 10 45 11 89 12
REMARK SMILES IDX 46 13 47 14 48 15 83 16 49 17 88 18 82 19 84 20 50 21 87 22
REMARK SMILES IDX 81 23 80 24 51 26 73 27 58 28 72 29 59 30 62 31 71 32 85 33
REMARK SMILES IDX 60 34 61 35 70 37 86 38 63 39 52 40 53 41 57 42 54 43 56 44
REMARK SMILES IDX 55 45 74 46 75 47 79 48 76 49 78 50 77 51 64 52 65 53 69 54
REMARK SMILES IDX 66 55 68 56 67 57 8 58 9 59 10 60 11 61 12 62 13 63 42 64
REMARK SMILES IDX 14 65 41 66 15 67 16 68 17 69 40 70 18 71 39 72 19 73 20 74
REMARK SMILES IDX 21 75 22 76 31 77 23 78 29 79 24 80 28 81 30 82 25 83 27 84
REMARK SMILES IDX 26 85 32 86 33 87 38 88 34 89 37 90 35 91 36 92
REMARK H PARENT 84 25 62 36
REMARK Flexibility Score: inf
ROOT
ATOM      1  C   UNL A   1      34.297  33.851  33.245  1.00  0.00     0.202 C 
ENDROOT
BRANCH   1   2
ATOM      2  O   UNL A   1      33.847  34.798  32.263  1.00  0.00    -0.374 OA
BRANCH   2   3
ATOM      3  C   UNL A   1      34.238  34.539  30.917  1.00  0.00     0.202 C 
BRANCH   3   4
ATOM      4  C   UNL A   1      34.679  33.118  30.569  1.00  0.00     0.261 C 
BRANCH   4   5
ATOM      5  O   UNL A   1      34.613  32.828  29.162  1.00  0.00    -0.460 OA
BRANCH   5   6
ATOM      6  C   UNL A   1      34.722  31.596  28.618  1.00  0.00     0.338 C 
ATOM      7  O   UNL A   1      33.750  31.059  28.093  1.00  0.00    -0.246 OA
BRANCH   6   8
ATOM      8  C   UNL A   1      36.073  31.020  28.400  1.00  0.00     0.060 A 
ATOM      9  C   UNL A   1      36.333  29.737  27.921  1.00  0.00     0.016 A 
ATOM     10  C   UNL A   1      37.144  31.819  28.828  1.00  0.00     0.016 A 
ATOM     11  C   UNL A   1      37.566  29.159  28.141  1.00  0.00     0.010 A 
ATOM     12  C   UNL A   1      38.405  31.275  28.971  1.00  0.00     0.010 A 
ATOM     13  C   UNL A   1      38.575  29.916  28.732  1.00  0.00    -0.014 A 
BRANCH  13  14
ATOM     14  C   UNL A   1      39.827  29.242  29.017  1.00  0.00     0.031 A 
ATOM     15  C   UNL A   1      40.078  28.986  30.460  1.00  0.00     0.074 A 
ATOM     16  C   UNL A   1      40.653  28.829  28.040  1.00  0.00     0.049 A 
ATOM     17  N   UNL A   1      41.068  29.393  31.185  1.00  0.00    -0.248 NA
ATOM     18  C   UNL A   1      39.024  28.287  31.212  1.00  0.00     0.031 C 
ATOM     19  C   UNL A   1      40.413  28.791  26.594  1.00  0.00     0.029 A 
ATOM     20  N   UNL A   1      41.866  28.234  28.165  1.00  0.00    -0.354 N 
ATOM     21  C   UNL A   1      40.844  28.878  32.459  1.00  0.00     0.074 A 
ATOM     22  C   UNL A   1      39.520  28.309  32.448  1.00  0.00     0.031 C 
ATOM     23  C   UNL A   1      41.325  27.975  26.016  1.00  0.00     0.029 A 
ATOM     24  C   UNL A   1      42.289  27.569  27.025  1.00  0.00     0.049 A 
ATOM     25  H   UNL A   1      42.400  28.271  28.992  1.00  0.00     0.167 HD
ATOM     26  C   UNL A   1      41.832  28.782  33.387  1.00  0.00     0.031 A 
ATOM     27  C   UNL A   1      43.313  26.686  26.946  1.00  0.00     0.031 A 
ATOM     28  C   UNL A   1      42.941  29.647  33.094  1.00  0.00     0.049 A 
ATOM     29  C   UNL A   1      44.182  26.900  28.127  1.00  0.00     0.074 A 
ATOM     30  C   UNL A   1      43.100  31.016  33.010  1.00  0.00     0.029 A 
ATOM     31  N   UNL A   1      44.026  29.103  32.450  1.00  0.00    -0.354 N 
ATOM     32  N   UNL A   1      44.887  27.979  28.309  1.00  0.00    -0.248 NA
ATOM     33  C   UNL A   1      43.914  26.121  29.328  1.00  0.00     0.031 C 
ATOM     34  C   UNL A   1      43.982  31.214  31.908  1.00  0.00     0.029 A 
ATOM     35  C   UNL A   1      44.360  29.959  31.429  1.00  0.00     0.049 A 
ATOM     36  H   UNL A   1      44.479  28.260  32.679  1.00  0.00     0.167 HD
ATOM     37  C   UNL A   1      44.780  28.249  29.666  1.00  0.00     0.074 A 
ATOM     38  C   UNL A   1      44.254  27.019  30.256  1.00  0.00     0.031 C 
ATOM     39  C   UNL A   1      44.859  29.527  30.142  1.00  0.00     0.031 A 
BRANCH  26  40
ATOM     40  C   UNL A   1      41.925  27.637  34.359  1.00  0.00    -0.014 A 
ATOM     41  C   UNL A   1      41.526  27.829  35.693  1.00  0.00     0.009 A 
ATOM     42  C   UNL A   1      42.642  26.458  34.075  1.00  0.00     0.009 A 
ATOM     43  C   UNL A   1      41.873  26.910  36.693  1.00  0.00     0.001 A 
ATOM     44  C   UNL A   1      42.957  25.522  35.061  1.00  0.00     0.001 A 
ATOM     45  C   UNL A   1      42.592  25.760  36.377  1.00  0.00     0.000 A 
ENDBRANCH  26  40
BRANCH  27  46
ATOM     46  C   UNL A   1      43.395  25.472  26.108  1.00  0.00    -0.014 A 
ATOM     47  C   UNL A   1      44.512  25.229  25.297  1.00  0.00     0.009 A 
ATOM     48  C   UNL A   1      42.487  24.415  26.310  1.00  0.00     0.009 A 
ATOM     49  C   UNL A   1      44.729  23.962  24.735  1.00  0.00     0.001 A 
ATOM     50  C   UNL A   1      42.702  23.152  25.749  1.00  0.00     0.001 A 
ATOM     51  C   UNL A   1      43.831  22.923  24.972  1.00  0.00     0.000 A 
ENDBRANCH  27  46
BRANCH  39  52
ATOM     52  C   UNL A   1      45.240  30.618  29.165  1.00  0.00    -0.014 A 
ATOM     53  C   UNL A   1      46.565  31.059  28.992  1.00  0.00     0.009 A 
ATOM     54  C   UNL A   1      44.262  31.107  28.290  1.00  0.00     0.009 A 
ATOM     55  C   UNL A   1      46.891  31.987  27.997  1.00  0.00     0.001 A 
ATOM     56  C   UNL A   1      44.591  32.017  27.281  1.00  0.00     0.001 A 
ATOM     57  C   UNL A   1      45.904  32.462  27.139  1.00  0.00     0.000 A 
ENDBRANCH  39  52
ENDBRANCH  13  14
ENDBRANCH   6   8
ENDBRANCH   5   6
ENDBRANCH   4   5
ENDBRANCH   3   4
ENDBRANCH   2   3
ENDBRANCH   1   2
BRANCH   1  58
ATOM     58  C   UNL A   1      35.200  34.344  34.386  1.00  0.00     0.261 C 
BRANCH  58  59
ATOM     59  O   UNL A   1      36.537  34.619  33.928  1.00  0.00    -0.460 OA
BRANCH  59  60
ATOM     60  C   UNL A   1      37.369  33.544  33.922  1.00  0.00     0.338 C 
ATOM     61  O   UNL A   1      37.314  32.570  34.633  1.00  0.00    -0.246 OA
BRANCH  60  62
ATOM     62  C   UNL A   1      38.229  33.620  32.719  1.00  0.00     0.060 A 
ATOM     63  C   UNL A   1      39.357  32.783  32.677  1.00  0.00     0.018 A 
ATOM     64  C   UNL A   1      37.957  34.504  31.676  1.00  0.00     0.018 A 
ATOM     65  C   UNL A   1      40.244  32.838  31.608  1.00  0.00     0.029 A 
ATOM     66  C   UNL A   1      38.892  34.632  30.650  1.00  0.00     0.029 A 
ATOM     67  C   UNL A   1      40.048  33.825  30.646  1.00  0.00     0.066 A 
BRANCH  67  68
ATOM     68  N   UNL A   1      41.159  34.209  29.872  1.00  0.00    -0.220 N 
ATOM     69  C   UNL A   1      41.125  35.239  28.974  1.00  0.00     0.141 A 
ATOM     70  N   UNL A   1      42.441  33.859  30.110  1.00  0.00    -0.062 NA
ATOM     71  C   UNL A   1      42.436  35.538  28.700  1.00  0.00     0.093 A 
ATOM     72  N   UNL A   1      43.224  34.618  29.343  1.00  0.00    -0.134 NA
BRANCH  71  73
ATOM     73  C   UNL A   1      42.951  36.498  27.703  1.00  0.00     0.138 C 
BRANCH  73  74
ATOM     74  S   UNL A   1      44.195  37.732  28.059  1.00  0.00    -0.081 SA
BRANCH  74  75
ATOM     75  C   UNL A   1      43.624  39.154  28.893  1.00  0.00     0.176 A 
ATOM     76  N   UNL A   1      44.101  39.215  30.104  1.00  0.00    -0.223 NA
ATOM     77  N   UNL A   1      42.786  40.142  28.397  1.00  0.00    -0.255 N 
ATOM     78  C   UNL A   1      43.667  40.240  30.950  1.00  0.00     0.079 A 
ATOM     79  C   UNL A   1      41.904  40.674  29.351  1.00  0.00     0.266 A 
ATOM     80  C   UNL A   1      44.363  40.555  32.117  1.00  0.00     0.029 A 
ATOM     81  C   UNL A   1      42.471  40.891  30.690  1.00  0.00     0.066 A 
ATOM     82  O   UNL A   1      40.722  40.961  29.167  1.00  0.00    -0.268 OA
ATOM     83  C   UNL A   1      43.827  41.467  33.034  1.00  0.00     0.002 A 
ATOM     84  C   UNL A   1      41.894  41.763  31.618  1.00  0.00     0.016 A 
ATOM     85  C   UNL A   1      42.576  42.043  32.801  1.00  0.00     0.001 A 
BRANCH  77  86
ATOM     86  C   UNL A   1      42.738  40.665  27.047  1.00  0.00     0.051 A 
ATOM     87  C   UNL A   1      43.850  41.348  26.507  1.00  0.00     0.028 A 
ATOM     88  C   UNL A   1      41.649  40.509  26.181  1.00  0.00     0.028 A 
ATOM     89  C   UNL A   1      43.787  42.047  25.296  1.00  0.00     0.018 A 
ATOM     90  C   UNL A   1      41.549  41.251  24.991  1.00  0.00     0.018 A 
ATOM     91  C   UNL A   1      42.602  42.057  24.581  1.00  0.00     0.018 A 
ATOM     92  Br  UNL A   1      42.415  43.189  23.085  1.00  0.00    -0.051 Br
ENDBRANCH  77  86
ENDBRANCH  74  75
ENDBRANCH  73  74
ENDBRANCH  71  73
ENDBRANCH  67  68
ENDBRANCH  60  62
ENDBRANCH  59  60
ENDBRANCH  58  59
ENDBRANCH   1  58
TORSDOF 19
ENDMDL
