MODEL 1
REMARK VINA RESULT:     -10.8      0.000      0.000
REMARK SMILES Cc1nc(-c2ccc(S(=O)(=O)N3CC[NH2+][C@H](C(=O)OCCOCCOC(=O)c4ccc(-c5c6nc(c(-c7ccccc7)c7ccc([nH]7)c(-c7ccccc7)c7nc(c(-c8ccccc8)c8ccc5[nH]8)C=C7)C=C6)cc4)C3)s2)cs1
REMARK SMILES IDX 21 1 20 2 19 3 17 4 18 5 16 6 12 7 13 8 76 9 14 10 15 11
REMARK SMILES IDX 9 14 10 15 11 16 8 17 5 18 6 19 77 20 7 21 4 22 1 23 2 24
REMARK SMILES IDX 3 25 79 26 78 27 22 28 23 29 24 30 25 31 26 32 27 33 28 34
REMARK SMILES IDX 29 35 75 36 30 37 74 38 31 39 32 40 33 41 68 42 34 43 73 44
REMARK SMILES IDX 67 45 69 46 35 47 72 48 66 49 65 50 36 52 58 53 43 54 57 55
REMARK SMILES IDX 44 56 47 57 56 58 70 59 45 60 46 61 55 63 71 64 48 65 37 66
REMARK SMILES IDX 38 67 42 68 39 69 41 70 40 71 59 72 60 73 64 74 61 75 63 76
REMARK SMILES IDX 62 77 49 78 50 79 54 80 51 81 53 82 52 83
REMARK H PARENT 15 12 15 13 69 51 47 62
REMARK Flexibility Score: inf
ROOT
ATOM      1  C   UNL A   1      34.259  31.971  27.770  1.00  0.00     0.202 C 
ENDROOT
BRANCH   1   2
ATOM      2  C   UNL A   1      33.467  30.674  27.600  1.00  0.00     0.261 C 
BRANCH   2   3
ATOM      3  O   UNL A   1      33.242  30.336  26.218  1.00  0.00    -0.459 OA
BRANCH   3   4
ATOM      4  C   UNL A   1      31.946  30.465  25.830  1.00  0.00     0.366 C 
ATOM      5  O   UNL A   1      31.219  31.408  26.126  1.00  0.00    -0.245 OA
BRANCH   4   6
ATOM      6  C   UNL A   1      31.443  29.326  24.970  1.00  0.00     0.308 C 
ATOM      7  N   UNL A   1      31.621  26.949  24.518  1.00  0.00    -0.185 NA
ATOM      8  C   UNL A   1      30.955  27.118  23.195  1.00  0.00     0.164 C 
ATOM      9  C   UNL A   1      32.402  28.145  24.931  1.00  0.00     0.180 C 
ATOM     10  C   UNL A   1      30.305  28.514  22.990  1.00  0.00     0.278 C 
ATOM     11  N   UNL A   1      30.986  29.686  23.595  1.00  0.00    -0.332 N 
ATOM     12  H   UNL A   1      30.335  30.470  23.646  1.00  0.00     0.347 HD
ATOM     13  H   UNL A   1      31.787  29.953  23.024  1.00  0.00     0.347 HD
BRANCH   7  14
ATOM     14  S   UNL A   1      30.912  26.013  25.750  1.00  0.00     0.253 S 
ATOM     15  O   UNL A   1      29.555  25.751  25.328  1.00  0.00    -0.206 OA
ATOM     16  O   UNL A   1      31.207  26.657  27.015  1.00  0.00    -0.206 OA
BRANCH  14  17
ATOM     17  C   UNL A   1      31.696  24.402  25.890  1.00  0.00     0.135 A 
ATOM     18  C   UNL A   1      32.308  22.047  25.402  1.00  0.00     0.055 A 
ATOM     19  C   UNL A   1      32.936  22.526  26.527  1.00  0.00     0.023 A 
ATOM     20  S   UNL A   1      31.354  23.246  24.653  1.00  0.00    -0.121 S 
ATOM     21  C   UNL A   1      32.527  23.845  26.843  1.00  0.00     0.034 A 
BRANCH  18  22
ATOM     22  C   UNL A   1      32.469  20.614  25.001  1.00  0.00     0.091 A 
ATOM     23  C   UNL A   1      32.351  18.337  22.157  1.00  0.00     0.079 C 
ATOM     24  C   UNL A   1      32.466  18.995  23.487  1.00  0.00     0.090 A 
ATOM     25  N   UNL A   1      32.173  20.256  23.694  1.00  0.00    -0.241 NA
ATOM     26  S   UNL A   1      33.011  18.136  24.869  1.00  0.00    -0.127 S 
ATOM     27  C   UNL A   1      32.928  19.586  25.794  1.00  0.00     0.096 A 
ENDBRANCH  18  22
ENDBRANCH  14  17
ENDBRANCH   7  14
ENDBRANCH   4   6
ENDBRANCH   3   4
ENDBRANCH   2   3
ENDBRANCH   1   2
BRANCH   1  28
ATOM     28  O   UNL A   1      33.545  33.191  27.945  1.00  0.00    -0.374 OA
BRANCH  28  29
ATOM     29  C   UNL A   1      34.155  34.239  28.692  1.00  0.00     0.202 C 
BRANCH  29  30
ATOM     30  C   UNL A   1      33.246  35.305  29.326  1.00  0.00     0.261 C 
BRANCH  30  31
ATOM     31  O   UNL A   1      32.538  34.853  30.496  1.00  0.00    -0.460 OA
BRANCH  31  32
ATOM     32  C   UNL A   1      32.852  35.539  31.626  1.00  0.00     0.338 C 
ATOM     33  O   UNL A   1      32.246  36.480  32.113  1.00  0.00    -0.246 OA
BRANCH  32  34
ATOM     34  C   UNL A   1      33.965  34.895  32.344  1.00  0.00     0.060 A 
ATOM     35  C   UNL A   1      35.175  35.600  32.406  1.00  0.00     0.016 A 
ATOM     36  C   UNL A   1      33.882  33.583  32.814  1.00  0.00     0.016 A 
ATOM     37  C   UNL A   1      36.323  34.976  32.879  1.00  0.00     0.010 A 
ATOM     38  C   UNL A   1      35.044  32.951  33.277  1.00  0.00     0.010 A 
ATOM     39  C   UNL A   1      36.276  33.630  33.262  1.00  0.00    -0.014 A 
BRANCH  39  40
ATOM     40  C   UNL A   1      37.559  32.908  33.445  1.00  0.00     0.031 A 
ATOM     41  C   UNL A   1      38.336  33.125  34.715  1.00  0.00     0.074 A 
ATOM     42  C   UNL A   1      37.976  32.002  32.544  1.00  0.00     0.049 A 
ATOM     43  N   UNL A   1      39.432  32.540  35.128  1.00  0.00    -0.248 NA
ATOM     44  C   UNL A   1      37.801  34.130  35.650  1.00  0.00     0.031 C 
ATOM     45  C   UNL A   1      37.286  31.665  31.301  1.00  0.00     0.029 A 
ATOM     46  N   UNL A   1      39.079  31.186  32.552  1.00  0.00    -0.354 N 
ATOM     47  C   UNL A   1      39.716  33.103  36.367  1.00  0.00     0.074 A 
ATOM     48  C   UNL A   1      38.698  34.098  36.624  1.00  0.00     0.031 C 
ATOM     49  C   UNL A   1      37.979  30.704  30.666  1.00  0.00     0.029 A 
ATOM     50  C   UNL A   1      39.168  30.374  31.449  1.00  0.00     0.049 A 
ATOM     51  H   UNL A   1      39.742  31.183  33.279  1.00  0.00     0.167 HD
ATOM     52  C   UNL A   1      40.726  32.813  37.221  1.00  0.00     0.031 A 
ATOM     53  C   UNL A   1      40.105  29.468  31.111  1.00  0.00     0.031 A 
ATOM     54  C   UNL A   1      41.745  31.833  36.963  1.00  0.00     0.049 A 
ATOM     55  C   UNL A   1      41.256  29.210  32.046  1.00  0.00     0.074 A 
ATOM     56  C   UNL A   1      42.809  31.462  37.767  1.00  0.00     0.029 A 
ATOM     57  N   UNL A   1      41.830  31.071  35.809  1.00  0.00    -0.354 N 
ATOM     58  N   UNL A   1      41.498  29.733  33.223  1.00  0.00    -0.248 NA
ATOM     59  C   UNL A   1      42.257  28.226  31.607  1.00  0.00     0.031 C 
ATOM     60  C   UNL A   1      43.566  30.509  37.078  1.00  0.00     0.029 A 
ATOM     61  C   UNL A   1      42.943  30.248  35.868  1.00  0.00     0.049 A 
ATOM     62  H   UNL A   1      41.195  31.110  35.058  1.00  0.00     0.167 HD
ATOM     63  C   UNL A   1      42.661  29.122  33.678  1.00  0.00     0.074 A 
ATOM     64  C   UNL A   1      43.066  28.179  32.655  1.00  0.00     0.031 C 
ATOM     65  C   UNL A   1      43.332  29.321  34.839  1.00  0.00     0.031 A 
BRANCH  52  66
ATOM     66  C   UNL A   1      40.790  33.595  38.502  1.00  0.00    -0.014 A 
ATOM     67  C   UNL A   1      40.183  33.123  39.677  1.00  0.00     0.009 A 
ATOM     68  C   UNL A   1      41.486  34.813  38.539  1.00  0.00     0.009 A 
ATOM     69  C   UNL A   1      40.243  33.873  40.853  1.00  0.00     0.001 A 
ATOM     70  C   UNL A   1      41.567  35.548  39.723  1.00  0.00     0.001 A 
ATOM     71  C   UNL A   1      40.938  35.082  40.877  1.00  0.00     0.000 A 
ENDBRANCH  52  66
BRANCH  53  72
ATOM     72  C   UNL A   1      40.002  28.737  29.821  1.00  0.00    -0.014 A 
ATOM     73  C   UNL A   1      39.449  27.449  29.767  1.00  0.00     0.009 A 
ATOM     74  C   UNL A   1      40.475  29.323  28.636  1.00  0.00     0.009 A 
ATOM     75  C   UNL A   1      39.393  26.754  28.556  1.00  0.00     0.001 A 
ATOM     76  C   UNL A   1      40.395  28.637  27.423  1.00  0.00     0.001 A 
ATOM     77  C   UNL A   1      39.862  27.350  27.385  1.00  0.00     0.000 A 
ENDBRANCH  53  72
BRANCH  65  78
ATOM     78  C   UNL A   1      44.555  28.480  35.077  1.00  0.00    -0.014 A 
ATOM     79  C   UNL A   1      45.831  28.925  34.694  1.00  0.00     0.009 A 
ATOM     80  C   UNL A   1      44.431  27.240  35.721  1.00  0.00     0.009 A 
ATOM     81  C   UNL A   1      46.953  28.126  34.921  1.00  0.00     0.001 A 
ATOM     82  C   UNL A   1      45.558  26.456  35.972  1.00  0.00     0.001 A 
ATOM     83  C   UNL A   1      46.816  26.895  35.562  1.00  0.00     0.000 A 
ENDBRANCH  65  78
ENDBRANCH  39  40
ENDBRANCH  32  34
ENDBRANCH  31  32
ENDBRANCH  30  31
ENDBRANCH  29  30
ENDBRANCH  28  29
ENDBRANCH   1  28
TORSDOF 17
ENDMDL
MODEL 2
REMARK VINA RESULT:     -10.6      4.800      9.514
REMARK SMILES Cc1nc(-c2ccc(S(=O)(=O)N3CC[NH2+][C@H](C(=O)OCCOCCOC(=O)c4ccc(-c5c6nc(c(-c7ccccc7)c7ccc([nH]7)c(-c7ccccc7)c7nc(c(-c8ccccc8)c8ccc5[nH]8)C=C7)C=C6)cc4)C3)s2)cs1
REMARK SMILES IDX 21 1 20 2 19 3 17 4 18 5 16 6 12 7 13 8 76 9 14 10 15 11
REMARK SMILES IDX 9 14 10 15 11 16 8 17 5 18 6 19 77 20 7 21 4 22 1 23 2 24
REMARK SMILES IDX 3 25 79 26 78 27 22 28 23 29 24 30 25 31 26 32 27 33 28 34
REMARK SMILES IDX 29 35 75 36 30 37 74 38 31 39 32 40 33 41 68 42 34 43 73 44
REMARK SMILES IDX 67 45 69 46 35 47 72 48 66 49 65 50 36 52 58 53 43 54 57 55
REMARK SMILES IDX 44 56 47 57 56 58 70 59 45 60 46 61 55 63 71 64 48 65 37 66
REMARK SMILES IDX 38 67 42 68 39 69 41 70 40 71 59 72 60 73 64 74 61 75 63 76
REMARK SMILES IDX 62 77 49 78 50 79 54 80 51 81 53 82 52 83
REMARK H PARENT 15 12 15 13 69 51 47 62
REMARK Flexibility Score: inf
ROOT
ATOM      1  C   UNL A   1      35.175  23.999  24.156  1.00  0.00     0.202 C 
ENDROOT
BRANCH   1   2
ATOM      2  C   UNL A   1      34.462  25.270  23.691  1.00  0.00     0.261 C 
BRANCH   2   3
ATOM      3  O   UNL A   1      34.041  25.199  22.315  1.00  0.00    -0.459 OA
BRANCH   3   4
ATOM      4  C   UNL A   1      32.755  25.594  22.119  1.00  0.00     0.366 C 
ATOM      5  O   UNL A   1      32.211  25.685  21.023  1.00  0.00    -0.245 OA
BRANCH   4   6
ATOM      6  C   UNL A   1      32.009  25.921  23.395  1.00  0.00     0.308 C 
ATOM      7  N   UNL A   1      30.553  25.043  25.124  1.00  0.00    -0.185 NA
ATOM      8  C   UNL A   1      30.190  26.420  25.564  1.00  0.00     0.164 C 
ATOM      9  C   UNL A   1      30.862  24.960  23.673  1.00  0.00     0.180 C 
ATOM     10  C   UNL A   1      31.083  27.533  24.950  1.00  0.00     0.278 C 
ATOM     11  N   UNL A   1      31.569  27.337  23.561  1.00  0.00    -0.332 N 
ATOM     12  H   UNL A   1      32.354  27.963  23.383  1.00  0.00     0.347 HD
ATOM     13  H   UNL A   1      30.820  27.545  22.901  1.00  0.00     0.347 HD
BRANCH   7  14
ATOM     14  S   UNL A   1      31.372  23.972  26.162  1.00  0.00     0.253 S 
ATOM     15  O   UNL A   1      30.415  23.569  27.166  1.00  0.00    -0.206 OA
ATOM     16  O   UNL A   1      32.637  24.586  26.517  1.00  0.00    -0.206 OA
BRANCH  14  17
ATOM     17  C   UNL A   1      31.847  22.461  25.312  1.00  0.00     0.135 A 
ATOM     18  C   UNL A   1      32.575  20.119  24.933  1.00  0.00     0.055 A 
ATOM     19  C   UNL A   1      32.403  20.808  23.756  1.00  0.00     0.023 A 
ATOM     20  S   UNL A   1      32.168  21.072  26.287  1.00  0.00    -0.121 S 
ATOM     21  C   UNL A   1      32.060  22.164  23.979  1.00  0.00     0.034 A 
BRANCH  18  22
ATOM     22  C   UNL A   1      33.111  18.722  24.918  1.00  0.00     0.091 A 
ATOM     23  C   UNL A   1      32.323  15.272  25.792  1.00  0.00     0.079 C 
ATOM     24  C   UNL A   1      32.929  16.553  25.337  1.00  0.00     0.090 A 
ATOM     25  N   UNL A   1      32.371  17.723  25.533  1.00  0.00    -0.241 NA
ATOM     26  S   UNL A   1      34.426  16.589  24.498  1.00  0.00    -0.127 S 
ATOM     27  C   UNL A   1      34.270  18.294  24.310  1.00  0.00     0.096 A 
ENDBRANCH  18  22
ENDBRANCH  14  17
ENDBRANCH   7  14
ENDBRANCH   4   6
ENDBRANCH   3   4
ENDBRANCH   2   3
ENDBRANCH   1   2
BRANCH   1  28
ATOM     28  O   UNL A   1      35.719  23.122  23.176  1.00  0.00    -0.374 OA
BRANCH  28  29
ATOM     29  C   UNL A   1      37.026  22.595  23.381  1.00  0.00     0.202 C 
BRANCH  29  30
ATOM     30  C   UNL A   1      37.195  21.437  24.380  1.00  0.00     0.261 C 
BRANCH  30  31
ATOM     31  O   UNL A   1      37.536  21.858  25.714  1.00  0.00    -0.460 OA
BRANCH  31  32
ATOM     32  C   UNL A   1      38.857  21.737  26.008  1.00  0.00     0.338 C 
ATOM     33  O   UNL A   1      39.638  20.901  25.582  1.00  0.00    -0.246 OA
BRANCH  32  34
ATOM     34  C   UNL A   1      39.328  22.882  26.807  1.00  0.00     0.060 A 
ATOM     35  C   UNL A   1      38.676  24.107  26.608  1.00  0.00     0.016 A 
ATOM     36  C   UNL A   1      40.463  22.805  27.615  1.00  0.00     0.016 A 
ATOM     37  C   UNL A   1      39.193  25.272  27.164  1.00  0.00     0.010 A 
ATOM     38  C   UNL A   1      40.992  23.982  28.162  1.00  0.00     0.010 A 
ATOM     39  C   UNL A   1      40.386  25.223  27.895  1.00  0.00    -0.014 A 
BRANCH  39  40
ATOM     40  C   UNL A   1      41.080  26.501  28.190  1.00  0.00     0.031 A 
ATOM     41  C   UNL A   1      42.426  26.753  27.565  1.00  0.00     0.074 A 
ATOM     42  C   UNL A   1      40.482  27.460  28.918  1.00  0.00     0.049 A 
ATOM     43  N   UNL A   1      43.174  27.826  27.611  1.00  0.00    -0.248 NA
ATOM     44  C   UNL A   1      43.002  25.651  26.776  1.00  0.00     0.031 C 
ATOM     45  C   UNL A   1      39.161  27.356  29.532  1.00  0.00     0.029 A 
ATOM     46  N   UNL A   1      40.911  28.720  29.246  1.00  0.00    -0.354 N 
ATOM     47  C   UNL A   1      44.304  27.529  26.858  1.00  0.00     0.074 A 
ATOM     48  C   UNL A   1      44.161  26.167  26.395  1.00  0.00     0.031 C 
ATOM     49  C   UNL A   1      38.881  28.511  30.159  1.00  0.00     0.029 A 
ATOM     50  C   UNL A   1      40.011  29.425  30.006  1.00  0.00     0.049 A 
ATOM     51  H   UNL A   1      41.781  29.085  28.964  1.00  0.00     0.167 HD
ATOM     52  C   UNL A   1      45.363  28.322  26.567  1.00  0.00     0.031 A 
ATOM     53  C   UNL A   1      40.093  30.668  30.520  1.00  0.00     0.031 A 
ATOM     54  C   UNL A   1      45.515  29.672  27.036  1.00  0.00     0.049 A 
ATOM     55  C   UNL A   1      41.311  31.505  30.239  1.00  0.00     0.074 A 
ATOM     56  C   UNL A   1      46.550  30.559  26.793  1.00  0.00     0.029 A 
ATOM     57  N   UNL A   1      44.606  30.329  27.849  1.00  0.00    -0.354 N 
ATOM     58  N   UNL A   1      42.360  31.220  29.507  1.00  0.00    -0.248 NA
ATOM     59  C   UNL A   1      41.347  32.843  30.848  1.00  0.00     0.031 C 
ATOM     60  C   UNL A   1      46.289  31.737  27.500  1.00  0.00     0.029 A 
ATOM     61  C   UNL A   1      45.067  31.603  28.138  1.00  0.00     0.049 A 
ATOM     62  H   UNL A   1      43.759  29.947  28.174  1.00  0.00     0.167 HD
ATOM     63  C   UNL A   1      43.167  32.351  29.544  1.00  0.00     0.074 A 
ATOM     64  C   UNL A   1      42.478  33.331  30.358  1.00  0.00     0.031 C 
ATOM     65  C   UNL A   1      44.370  32.562  28.954  1.00  0.00     0.031 A 
BRANCH  52  66
ATOM     66  C   UNL A   1      46.458  27.726  25.728  1.00  0.00    -0.014 A 
ATOM     67  C   UNL A   1      46.533  27.973  24.347  1.00  0.00     0.009 A 
ATOM     68  C   UNL A   1      47.438  26.924  26.329  1.00  0.00     0.009 A 
ATOM     69  C   UNL A   1      47.551  27.399  23.582  1.00  0.00     0.001 A 
ATOM     70  C   UNL A   1      48.470  26.372  25.566  1.00  0.00     0.001 A 
ATOM     71  C   UNL A   1      48.520  26.603  24.192  1.00  0.00     0.000 A 
ENDBRANCH  52  66
BRANCH  53  72
ATOM     72  C   UNL A   1      38.989  31.198  31.361  1.00  0.00    -0.014 A 
ATOM     73  C   UNL A   1      37.938  31.931  30.791  1.00  0.00     0.009 A 
ATOM     74  C   UNL A   1      38.992  30.986  32.750  1.00  0.00     0.009 A 
ATOM     75  C   UNL A   1      36.925  32.460  31.595  1.00  0.00     0.001 A 
ATOM     76  C   UNL A   1      37.967  31.494  33.548  1.00  0.00     0.001 A 
ATOM     77  C   UNL A   1      36.939  32.238  32.972  1.00  0.00     0.000 A 
ENDBRANCH  53  72
BRANCH  65  78
ATOM     78  C   UNL A   1      45.000  33.913  29.144  1.00  0.00    -0.014 A 
ATOM     79  C   UNL A   1      45.872  34.167  30.214  1.00  0.00     0.009 A 
ATOM     80  C   UNL A   1      44.740  34.936  28.219  1.00  0.00     0.009 A 
ATOM     81  C   UNL A   1      46.443  35.431  30.374  1.00  0.00     0.001 A 
ATOM     82  C   UNL A   1      45.334  36.190  28.365  1.00  0.00     0.001 A 
ATOM     83  C   UNL A   1      46.176  36.440  29.448  1.00  0.00     0.000 A 
ENDBRANCH  65  78
ENDBRANCH  39  40
ENDBRANCH  32  34
ENDBRANCH  31  32
ENDBRANCH  30  31
ENDBRANCH  29  30
ENDBRANCH  28  29
ENDBRANCH   1  28
TORSDOF 17
ENDMDL
MODEL 3
REMARK VINA RESULT:     -10.6      3.895      8.147
REMARK SMILES Cc1nc(-c2ccc(S(=O)(=O)N3CC[NH2+][C@H](C(=O)OCCOCCOC(=O)c4ccc(-c5c6nc(c(-c7ccccc7)c7ccc([nH]7)c(-c7ccccc7)c7nc(c(-c8ccccc8)c8ccc5[nH]8)C=C7)C=C6)cc4)C3)s2)cs1
REMARK SMILES IDX 21 1 20 2 19 3 17 4 18 5 16 6 12 7 13 8 76 9 14 10 15 11
REMARK SMILES IDX 9 14 10 15 11 16 8 17 5 18 6 19 77 20 7 21 4 22 1 23 2 24
REMARK SMILES IDX 3 25 79 26 78 27 22 28 23 29 24 30 25 31 26 32 27 33 28 34
REMARK SMILES IDX 29 35 75 36 30 37 74 38 31 39 32 40 33 41 68 42 34 43 73 44
REMARK SMILES IDX 67 45 69 46 35 47 72 48 66 49 65 50 36 52 58 53 43 54 57 55
REMARK SMILES IDX 44 56 47 57 56 58 70 59 45 60 46 61 55 63 71 64 48 65 37 66
REMARK SMILES IDX 38 67 42 68 39 69 41 70 40 71 59 72 60 73 64 74 61 75 63 76
REMARK SMILES IDX 62 77 49 78 50 79 54 80 51 81 53 82 52 83
REMARK H PARENT 15 12 15 13 69 51 47 62
REMARK Flexibility Score: inf
ROOT
ATOM      1  C   UNL A   1      35.542  22.764  23.845  1.00  0.00     0.202 C 
ENDROOT
BRANCH   1   2
ATOM      2  C   UNL A   1      34.990  24.142  23.474  1.00  0.00     0.261 C 
BRANCH   2   3
ATOM      3  O   UNL A   1      34.197  24.119  22.272  1.00  0.00    -0.459 OA
BRANCH   3   4
ATOM      4  C   UNL A   1      33.440  25.234  22.099  1.00  0.00     0.366 C 
ATOM      5  O   UNL A   1      33.267  25.801  21.025  1.00  0.00    -0.245 OA
BRANCH   4   6
ATOM      6  C   UNL A   1      32.793  25.744  23.369  1.00  0.00     0.308 C 
ATOM      7  N   UNL A   1      31.242  25.217  25.158  1.00  0.00    -0.185 NA
ATOM      8  C   UNL A   1      31.143  26.654  25.539  1.00  0.00     0.164 C 
ATOM      9  C   UNL A   1      31.500  25.018  23.708  1.00  0.00     0.180 C 
ATOM     10  C   UNL A   1      32.206  27.561  24.862  1.00  0.00     0.278 C 
ATOM     11  N   UNL A   1      32.618  27.222  23.476  1.00  0.00    -0.332 N 
ATOM     12  H   UNL A   1      33.499  27.687  23.258  1.00  0.00     0.347 HD
ATOM     13  H   UNL A   1      31.904  27.533  22.818  1.00  0.00     0.347 HD
BRANCH   7  14
ATOM     14  S   UNL A   1      31.880  24.061  26.233  1.00  0.00     0.253 S 
ATOM     15  O   UNL A   1      30.874  23.855  27.249  1.00  0.00    -0.206 OA
ATOM     16  O   UNL A   1      33.230  24.471  26.567  1.00  0.00    -0.206 OA
BRANCH  14  17
ATOM     17  C   UNL A   1      32.097  22.465  25.434  1.00  0.00     0.135 A 
ATOM     18  C   UNL A   1      32.736  20.094  25.080  1.00  0.00     0.055 A 
ATOM     19  C   UNL A   1      32.160  20.651  23.962  1.00  0.00     0.023 A 
ATOM     20  S   UNL A   1      32.770  21.191  26.385  1.00  0.00    -0.121 S 
ATOM     21  C   UNL A   1      31.865  22.024  24.145  1.00  0.00     0.034 A 
BRANCH  18  22
ATOM     22  C   UNL A   1      33.284  18.702  25.032  1.00  0.00     0.091 A 
ATOM     23  C   UNL A   1      32.495  15.217  25.753  1.00  0.00     0.079 C 
ATOM     24  C   UNL A   1      33.105  16.518  25.366  1.00  0.00     0.090 A 
ATOM     25  N   UNL A   1      32.531  17.676  25.585  1.00  0.00    -0.241 NA
ATOM     26  S   UNL A   1      34.629  16.595  24.579  1.00  0.00    -0.127 S 
ATOM     27  C   UNL A   1      34.466  18.304  24.448  1.00  0.00     0.096 A 
ENDBRANCH  18  22
ENDBRANCH  14  17
ENDBRANCH   7  14
ENDBRANCH   4   6
ENDBRANCH   3   4
ENDBRANCH   2   3
ENDBRANCH   1   2
BRANCH   1  28
ATOM     28  O   UNL A   1      36.096  22.574  25.143  1.00  0.00    -0.374 OA
BRANCH  28  29
ATOM     29  C   UNL A   1      36.873  21.407  25.391  1.00  0.00     0.202 C 
BRANCH  29  30
ATOM     30  C   UNL A   1      38.404  21.521  25.307  1.00  0.00     0.261 C 
BRANCH  30  31
ATOM     31  O   UNL A   1      39.037  21.867  26.553  1.00  0.00    -0.460 OA
BRANCH  31  32
ATOM     32  C   UNL A   1      40.153  22.629  26.409  1.00  0.00     0.338 C 
ATOM     33  O   UNL A   1      41.173  22.342  25.805  1.00  0.00    -0.246 OA
BRANCH  32  34
ATOM     34  C   UNL A   1      39.939  23.986  26.942  1.00  0.00     0.060 A 
ATOM     35  C   UNL A   1      40.697  25.019  26.373  1.00  0.00     0.016 A 
ATOM     36  C   UNL A   1      39.138  24.225  28.060  1.00  0.00     0.016 A 
ATOM     37  C   UNL A   1      40.707  26.281  26.958  1.00  0.00     0.010 A 
ATOM     38  C   UNL A   1      39.161  25.493  28.656  1.00  0.00     0.010 A 
ATOM     39  C   UNL A   1      39.985  26.508  28.135  1.00  0.00    -0.014 A 
BRANCH  39  40
ATOM     40  C   UNL A   1      40.271  27.742  28.906  1.00  0.00     0.031 A 
ATOM     41  C   UNL A   1      41.628  27.901  29.539  1.00  0.00     0.074 A 
ATOM     42  C   UNL A   1      39.379  28.747  28.959  1.00  0.00     0.049 A 
ATOM     43  N   UNL A   1      42.129  28.925  30.182  1.00  0.00    -0.248 NA
ATOM     44  C   UNL A   1      42.545  26.754  29.424  1.00  0.00     0.031 C 
ATOM     45  C   UNL A   1      38.054  28.734  28.344  1.00  0.00     0.029 A 
ATOM     46  N   UNL A   1      39.469  29.982  29.549  1.00  0.00    -0.354 N 
ATOM     47  C   UNL A   1      43.417  28.547  30.545  1.00  0.00     0.074 A 
ATOM     48  C   UNL A   1      43.609  27.191  30.082  1.00  0.00     0.031 C 
ATOM     49  C   UNL A   1      37.454  29.913  28.582  1.00  0.00     0.029 A 
ATOM     50  C   UNL A   1      38.345  30.751  29.381  1.00  0.00     0.049 A 
ATOM     51  H   UNL A   1      40.263  30.286  30.044  1.00  0.00     0.167 HD
ATOM     52  C   UNL A   1      44.361  29.267  31.197  1.00  0.00     0.031 A 
ATOM     53  C   UNL A   1      38.068  31.993  29.826  1.00  0.00     0.031 A 
ATOM     54  C   UNL A   1      44.169  30.611  31.670  1.00  0.00     0.049 A 
ATOM     55  C   UNL A   1      39.110  32.748  30.607  1.00  0.00     0.074 A 
ATOM     56  C   UNL A   1      45.066  31.427  32.337  1.00  0.00     0.029 A 
ATOM     57  N   UNL A   1      42.997  31.335  31.528  1.00  0.00    -0.354 N 
ATOM     58  N   UNL A   1      40.330  32.388  30.922  1.00  0.00    -0.248 NA
ATOM     59  C   UNL A   1      38.736  34.089  31.082  1.00  0.00     0.031 C 
ATOM     60  C   UNL A   1      44.419  32.628  32.642  1.00  0.00     0.029 A 
ATOM     61  C   UNL A   1      43.137  32.580  32.117  1.00  0.00     0.049 A 
ATOM     62  H   UNL A   1      42.184  31.012  31.077  1.00  0.00     0.167 HD
ATOM     63  C   UNL A   1      40.879  33.465  31.607  1.00  0.00     0.074 A 
ATOM     64  C   UNL A   1      39.863  34.497  31.647  1.00  0.00     0.031 C 
ATOM     65  C   UNL A   1      42.114  33.592  32.151  1.00  0.00     0.031 A 
BRANCH  52  66
ATOM     66  C   UNL A   1      45.677  28.593  31.465  1.00  0.00    -0.014 A 
ATOM     67  C   UNL A   1      45.910  27.902  32.665  1.00  0.00     0.009 A 
ATOM     68  C   UNL A   1      46.689  28.633  30.496  1.00  0.00     0.009 A 
ATOM     69  C   UNL A   1      47.145  27.293  32.901  1.00  0.00     0.001 A 
ATOM     70  C   UNL A   1      47.914  28.002  30.723  1.00  0.00     0.001 A 
ATOM     71  C   UNL A   1      48.144  27.340  31.928  1.00  0.00     0.000 A 
ENDBRANCH  52  66
BRANCH  53  72
ATOM     72  C   UNL A   1      36.742  32.603  29.549  1.00  0.00    -0.014 A 
ATOM     73  C   UNL A   1      35.676  32.446  30.447  1.00  0.00     0.009 A 
ATOM     74  C   UNL A   1      36.532  33.333  28.367  1.00  0.00     0.009 A 
ATOM     75  C   UNL A   1      34.422  32.989  30.158  1.00  0.00     0.001 A 
ATOM     76  C   UNL A   1      35.285  33.896  28.093  1.00  0.00     0.001 A 
ATOM     77  C   UNL A   1      34.228  33.716  28.983  1.00  0.00     0.000 A 
ENDBRANCH  53  72
BRANCH  65  78
ATOM     78  C   UNL A   1      42.443  34.903  32.808  1.00  0.00    -0.014 A 
ATOM     79  C   UNL A   1      43.187  35.887  32.139  1.00  0.00     0.009 A 
ATOM     80  C   UNL A   1      41.975  35.167  34.105  1.00  0.00     0.009 A 
ATOM     81  C   UNL A   1      43.486  37.096  32.770  1.00  0.00     0.001 A 
ATOM     82  C   UNL A   1      42.250  36.387  34.722  1.00  0.00     0.001 A 
ATOM     83  C   UNL A   1      43.014  37.346  34.059  1.00  0.00     0.000 A 
ENDBRANCH  65  78
ENDBRANCH  39  40
ENDBRANCH  32  34
ENDBRANCH  31  32
ENDBRANCH  30  31
ENDBRANCH  29  30
ENDBRANCH  28  29
ENDBRANCH   1  28
TORSDOF 17
ENDMDL
