MODEL 1
REMARK VINA RESULT:     -11.1      0.000      0.000
REMARK SMILES CCCc1cc(S(F)(F)(F)(F)F)cc2c1O[C@@H](C(F)(F)F)C(C(=O)OCCOCCOC(=O)c1ccc(-c3c4nc(c(-c5ccccc5)c5ccc([nH]5)c(-c5ccccc5)c5nc(c(-c6ccccc6)c6ccc3[nH]6)C=C5)C=C4)cc1)=C2
REMARK SMILES IDX 28 1 27 2 26 3 25 4 23 5 24 6 22 7 4 8 5 9 15 10 6 11 14 12
REMARK SMILES IDX 16 13 13 14 82 15 17 16 3 17 2 18 1 19 7 20 8 21 9 22 10 23
REMARK SMILES IDX 11 24 12 25 18 26 19 27 20 28 21 29 29 30 30 31 31 32 32 33
REMARK SMILES IDX 33 34 34 35 35 36 81 37 36 38 80 39 37 40 38 41 39 42 74 43
REMARK SMILES IDX 40 44 79 45 73 46 75 47 41 48 78 49 72 50 71 51 42 53 64 54
REMARK SMILES IDX 49 55 63 56 50 57 53 58 62 59 76 60 51 61 52 62 61 64 77 65
REMARK SMILES IDX 54 66 43 67 44 68 48 69 45 70 47 71 46 72 65 73 66 74 70 75
REMARK SMILES IDX 67 76 69 77 68 78 55 79 56 80 60 81 57 82 59 83 58 84
REMARK H PARENT 75 52 53 63
REMARK Flexibility Score: inf
ROOT
ATOM      1  O   UNL A   1      42.920  19.818  25.139  1.00  0.00    -0.374 OA
ENDROOT
BRANCH   1   2
ATOM      2  C   UNL A   1      42.579  19.654  26.507  1.00  0.00     0.202 C 
BRANCH   2   3
ATOM      3  C   UNL A   1      41.066  19.620  26.651  1.00  0.00     0.261 C 
BRANCH   3   4
ATOM      4  O   UNL A   1      40.607  20.877  27.128  1.00  0.00    -0.460 OA
BRANCH   4   5
ATOM      5  C   UNL A   1      40.292  21.912  26.209  1.00  0.00     0.338 C 
ATOM      6  O   UNL A   1      41.225  22.537  25.612  1.00  0.00    -0.246 OA
BRANCH   5   7
ATOM      7  C   UNL A   1      38.841  22.273  25.939  1.00  0.00     0.087 C 
ATOM      8  C   UNL A   1      34.800  23.307  25.706  1.00  0.00    -0.004 A 
ATOM      9  C   UNL A   1      33.876  22.379  25.261  1.00  0.00     0.032 A 
ATOM     10  C   UNL A   1      36.114  22.924  25.824  1.00  0.00     0.131 A 
ATOM     11  C   UNL A   1      34.255  21.101  24.947  1.00  0.00     0.108 A 
ATOM     12  C   UNL A   1      36.537  21.648  25.498  1.00  0.00     0.019 A 
ATOM     13  O   UNL A   1      36.999  23.819  26.373  1.00  0.00    -0.475 OA
ATOM     14  C   UNL A   1      35.582  20.739  25.058  1.00  0.00     0.036 A 
ATOM     15  C   UNL A   1      37.941  21.329  25.694  1.00  0.00     0.027 C 
ATOM     16  C   UNL A   1      38.388  23.727  25.945  1.00  0.00     0.316 C 
BRANCH   8  17
ATOM     17  C   UNL A   1      34.384  24.736  26.015  1.00  0.00     0.039 C 
BRANCH  17  18
ATOM     18  C   UNL A   1      34.139  25.484  24.714  1.00  0.00     0.001 C 
ATOM     19  C   UNL A   1      33.650  26.890  25.023  1.00  0.00     0.004 C 
ENDBRANCH  17  18
ENDBRANCH   8  17
BRANCH  11  20
ATOM     20  S   UNL A   1      33.025  19.896  24.390  1.00  0.00     0.310 S 
ATOM     21  F   UNL A   1      31.707  20.614  24.903  1.00  0.00    -0.094 F 
ATOM     22  F   UNL A   1      33.073  19.144  25.773  1.00  0.00    -0.094 F 
ATOM     23  F   UNL A   1      32.114  18.788  23.788  1.00  0.00    -0.094 F 
ATOM     24  F   UNL A   1      32.874  20.732  23.058  1.00  0.00    -0.094 F 
ATOM     25  F   UNL A   1      33.856  21.082  25.024  1.00  0.00    -0.094 F 
ENDBRANCH  11  20
BRANCH  16  26
ATOM     26  C   UNL A   1      39.258  24.516  26.911  1.00  0.00     0.430 C 
ATOM     27  F   UNL A   1      38.547  25.506  27.441  1.00  0.00    -0.167 F 
ATOM     28  F   UNL A   1      39.688  23.711  27.878  1.00  0.00    -0.167 F 
ATOM     29  F   UNL A   1      40.301  25.019  26.257  1.00  0.00    -0.167 F 
ENDBRANCH  16  26
ENDBRANCH   5   7
ENDBRANCH   4   5
ENDBRANCH   3   4
ENDBRANCH   2   3
ENDBRANCH   1   2
BRANCH   1  30
ATOM     30  C   UNL A   1      44.281  20.213  25.034  1.00  0.00     0.202 C 
BRANCH  30  31
ATOM     31  C   UNL A   1      44.352  21.671  24.609  1.00  0.00     0.261 C 
BRANCH  31  32
ATOM     32  O   UNL A   1      44.767  22.465  25.711  1.00  0.00    -0.460 OA
BRANCH  32  33
ATOM     33  C   UNL A   1      44.771  23.881  25.602  1.00  0.00     0.338 C 
ATOM     34  O   UNL A   1      45.281  24.438  24.581  1.00  0.00    -0.246 OA
BRANCH  33  35
ATOM     35  C   UNL A   1      44.167  24.729  26.709  1.00  0.00     0.060 A 
ATOM     36  C   UNL A   1      43.459  24.113  27.728  1.00  0.00     0.016 A 
ATOM     37  C   UNL A   1      44.329  26.047  26.684  1.00  0.00     0.016 A 
ATOM     38  C   UNL A   1      42.708  25.007  28.527  1.00  0.00     0.010 A 
ATOM     39  C   UNL A   1      43.670  26.851  27.581  1.00  0.00     0.010 A 
ATOM     40  C   UNL A   1      42.905  26.312  28.578  1.00  0.00    -0.014 A 
BRANCH  40  41
ATOM     41  C   UNL A   1      42.313  27.170  29.685  1.00  0.00     0.031 A 
ATOM     42  C   UNL A   1      42.977  27.206  30.911  1.00  0.00     0.074 A 
ATOM     43  C   UNL A   1      41.149  27.869  29.414  1.00  0.00     0.049 A 
ATOM     44  N   UNL A   1      42.649  27.913  31.994  1.00  0.00    -0.248 NA
ATOM     45  C   UNL A   1      44.195  26.439  31.213  1.00  0.00     0.031 C 
ATOM     46  C   UNL A   1      40.478  27.845  28.174  1.00  0.00     0.029 A 
ATOM     47  N   UNL A   1      40.440  28.691  30.261  1.00  0.00    -0.354 N 
ATOM     48  C   UNL A   1      43.535  27.701  32.969  1.00  0.00     0.074 A 
ATOM     49  C   UNL A   1      44.538  26.745  32.483  1.00  0.00     0.031 C 
ATOM     50  C   UNL A   1      39.375  28.632  28.278  1.00  0.00     0.029 A 
ATOM     51  C   UNL A   1      39.339  29.162  29.582  1.00  0.00     0.049 A 
ATOM     52  H   UNL A   1      40.680  28.906  31.191  1.00  0.00     0.167 HD
ATOM     53  C   UNL A   1      43.546  28.271  34.244  1.00  0.00     0.031 A 
ATOM     54  C   UNL A   1      38.344  30.004  30.056  1.00  0.00     0.031 A 
ATOM     55  C   UNL A   1      42.577  29.147  34.703  1.00  0.00     0.049 A 
ATOM     56  C   UNL A   1      38.325  30.527  31.350  1.00  0.00     0.074 A 
ATOM     57  C   UNL A   1      42.577  29.735  35.983  1.00  0.00     0.029 A 
ATOM     58  N   UNL A   1      41.462  29.598  34.032  1.00  0.00    -0.354 N 
ATOM     59  N   UNL A   1      39.232  30.347  32.312  1.00  0.00    -0.248 NA
ATOM     60  C   UNL A   1      37.261  31.394  31.874  1.00  0.00     0.031 C 
ATOM     61  C   UNL A   1      41.474  30.522  36.086  1.00  0.00     0.029 A 
ATOM     62  C   UNL A   1      40.764  30.438  34.872  1.00  0.00     0.049 A 
ATOM     63  H   UNL A   1      41.206  29.361  33.112  1.00  0.00     0.167 HD
ATOM     64  C   UNL A   1      38.881  31.022  33.408  1.00  0.00     0.074 A 
ATOM     65  C   UNL A   1      37.604  31.700  33.144  1.00  0.00     0.031 C 
ATOM     66  C   UNL A   1      39.576  31.104  34.616  1.00  0.00     0.031 A 
BRANCH  53  67
ATOM     67  C   UNL A   1      44.688  27.908  35.181  1.00  0.00    -0.014 A 
ATOM     68  C   UNL A   1      45.896  28.575  35.064  1.00  0.00     0.009 A 
ATOM     69  C   UNL A   1      44.506  26.968  36.101  1.00  0.00     0.009 A 
ATOM     70  C   UNL A   1      46.955  27.973  35.783  1.00  0.00     0.001 A 
ATOM     71  C   UNL A   1      45.559  26.523  36.863  1.00  0.00     0.001 A 
ATOM     72  C   UNL A   1      46.796  27.096  36.757  1.00  0.00     0.000 A 
ENDBRANCH  53  67
BRANCH  54  73
ATOM     73  C   UNL A   1      37.214  30.380  29.113  1.00  0.00    -0.014 A 
ATOM     74  C   UNL A   1      37.225  31.623  28.503  1.00  0.00     0.009 A 
ATOM     75  C   UNL A   1      36.228  29.516  28.898  1.00  0.00     0.009 A 
ATOM     76  C   UNL A   1      35.995  31.977  27.901  1.00  0.00     0.001 A 
ATOM     77  C   UNL A   1      35.114  29.889  28.184  1.00  0.00     0.001 A 
ATOM     78  C   UNL A   1      35.032  31.124  27.604  1.00  0.00     0.000 A 
ENDBRANCH  54  73
BRANCH  66  79
ATOM     79  C   UNL A   1      38.993  31.974  35.718  1.00  0.00    -0.014 A 
ATOM     80  C   UNL A   1      39.319  33.320  35.765  1.00  0.00     0.009 A 
ATOM     81  C   UNL A   1      38.182  31.430  36.616  1.00  0.00     0.009 A 
ATOM     82  C   UNL A   1      38.963  33.953  36.978  1.00  0.00     0.001 A 
ATOM     83  C   UNL A   1      37.763  32.152  37.708  1.00  0.00     0.001 A 
ATOM     84  C   UNL A   1      38.095  33.471  37.849  1.00  0.00     0.000 A 
ENDBRANCH  66  79
ENDBRANCH  40  41
ENDBRANCH  33  35
ENDBRANCH  32  33
ENDBRANCH  31  32
ENDBRANCH  30  31
ENDBRANCH   1  30
TORSDOF 18
ENDMDL
MODEL 2
REMARK VINA RESULT:     -10.9      0.360      5.625
REMARK SMILES CCCc1cc(S(F)(F)(F)(F)F)cc2c1O[C@@H](C(F)(F)F)C(C(=O)OCCOCCOC(=O)c1ccc(-c3c4nc(c(-c5ccccc5)c5ccc([nH]5)c(-c5ccccc5)c5nc(c(-c6ccccc6)c6ccc3[nH]6)C=C5)C=C4)cc1)=C2
REMARK SMILES IDX 28 1 27 2 26 3 25 4 23 5 24 6 22 7 4 8 5 9 15 10 6 11 14 12
REMARK SMILES IDX 16 13 13 14 82 15 17 16 3 17 2 18 1 19 7 20 8 21 9 22 10 23
REMARK SMILES IDX 11 24 12 25 18 26 19 27 20 28 21 29 29 30 30 31 31 32 32 33
REMARK SMILES IDX 33 34 34 35 35 36 81 37 36 38 80 39 37 40 38 41 39 42 74 43
REMARK SMILES IDX 40 44 79 45 73 46 75 47 41 48 78 49 72 50 71 51 42 53 64 54
REMARK SMILES IDX 49 55 63 56 50 57 53 58 62 59 76 60 51 61 52 62 61 64 77 65
REMARK SMILES IDX 54 66 43 67 44 68 48 69 45 70 47 71 46 72 65 73 66 74 70 75
REMARK SMILES IDX 67 76 69 77 68 78 55 79 56 80 60 81 57 82 59 83 58 84
REMARK H PARENT 75 52 53 63
REMARK Flexibility Score: inf
ROOT
ATOM      1  O   UNL A   1      43.066  19.830  25.036  1.00  0.00    -0.374 OA
ENDROOT
BRANCH   1   2
ATOM      2  C   UNL A   1      42.626  19.364  26.303  1.00  0.00     0.202 C 
BRANCH   2   3
ATOM      3  C   UNL A   1      41.112  19.465  26.382  1.00  0.00     0.261 C 
BRANCH   3   4
ATOM      4  O   UNL A   1      40.749  20.722  26.936  1.00  0.00    -0.460 OA
BRANCH   4   5
ATOM      5  C   UNL A   1      40.360  21.788  26.083  1.00  0.00     0.338 C 
ATOM      6  O   UNL A   1      41.245  22.494  25.504  1.00  0.00    -0.246 OA
BRANCH   5   7
ATOM      7  C   UNL A   1      38.886  22.084  25.861  1.00  0.00     0.087 C 
ATOM      8  C   UNL A   1      34.794  22.919  25.761  1.00  0.00    -0.004 A 
ATOM      9  C   UNL A   1      33.906  21.962  25.305  1.00  0.00     0.032 A 
ATOM     10  C   UNL A   1      36.128  22.600  25.834  1.00  0.00     0.131 A 
ATOM     11  C   UNL A   1      34.340  20.716  24.936  1.00  0.00     0.108 A 
ATOM     12  C   UNL A   1      36.606  21.359  25.453  1.00  0.00     0.019 A 
ATOM     13  O   UNL A   1      36.981  23.519  26.392  1.00  0.00    -0.475 OA
ATOM     14  C   UNL A   1      35.686  20.418  25.003  1.00  0.00     0.036 A 
ATOM     15  C   UNL A   1      38.029  21.105  25.603  1.00  0.00     0.027 C 
ATOM     16  C   UNL A   1      38.361  23.512  25.929  1.00  0.00     0.316 C 
BRANCH   8  17
ATOM     17  C   UNL A   1      34.315  24.314  26.130  1.00  0.00     0.039 C 
BRANCH  17  18
ATOM     18  C   UNL A   1      34.325  25.197  24.893  1.00  0.00     0.001 C 
ATOM     19  C   UNL A   1      33.433  26.405  25.125  1.00  0.00     0.004 C 
ENDBRANCH  17  18
ENDBRANCH   8  17
BRANCH  11  20
ATOM     20  S   UNL A   1      33.158  19.470  24.366  1.00  0.00     0.310 S 
ATOM     21  F   UNL A   1      32.805  18.792  25.755  1.00  0.00    -0.094 F 
ATOM     22  F   UNL A   1      34.300  18.396  24.209  1.00  0.00    -0.094 F 
ATOM     23  F   UNL A   1      32.127  18.511  23.705  1.00  0.00    -0.094 F 
ATOM     24  F   UNL A   1      31.998  20.502  24.658  1.00  0.00    -0.094 F 
ATOM     25  F   UNL A   1      34.168  20.408  25.139  1.00  0.00    -0.094 F 
ENDBRANCH  11  20
BRANCH  16  26
ATOM     26  C   UNL A   1      39.215  24.310  26.901  1.00  0.00     0.430 C 
ATOM     27  F   UNL A   1      40.235  24.858  26.248  1.00  0.00    -0.167 F 
ATOM     28  F   UNL A   1      38.479  25.267  27.457  1.00  0.00    -0.167 F 
ATOM     29  F   UNL A   1      39.679  23.500  27.850  1.00  0.00    -0.167 F 
ENDBRANCH  16  26
ENDBRANCH   5   7
ENDBRANCH   4   5
ENDBRANCH   3   4
ENDBRANCH   2   3
ENDBRANCH   1   2
BRANCH   1  30
ATOM     30  C   UNL A   1      44.481  19.956  25.042  1.00  0.00     0.202 C 
BRANCH  30  31
ATOM     31  C   UNL A   1      44.863  21.378  24.664  1.00  0.00     0.261 C 
BRANCH  31  32
ATOM     32  O   UNL A   1      44.571  22.250  25.747  1.00  0.00    -0.460 OA
BRANCH  32  33
ATOM     33  C   UNL A   1      44.492  23.650  25.528  1.00  0.00     0.338 C 
ATOM     34  O   UNL A   1      44.920  24.149  24.441  1.00  0.00    -0.246 OA
BRANCH  33  35
ATOM     35  C   UNL A   1      43.895  24.553  26.596  1.00  0.00     0.060 A 
ATOM     36  C   UNL A   1      44.116  25.919  26.531  1.00  0.00     0.016 A 
ATOM     37  C   UNL A   1      43.169  24.019  27.571  1.00  0.00     0.016 A 
ATOM     38  C   UNL A   1      43.767  26.613  27.714  1.00  0.00     0.010 A 
ATOM     39  C   UNL A   1      42.747  24.786  28.629  1.00  0.00     0.010 A 
ATOM     40  C   UNL A   1      42.982  26.132  28.660  1.00  0.00    -0.014 A 
BRANCH  40  41
ATOM     41  C   UNL A   1      42.371  27.026  29.728  1.00  0.00     0.031 A 
ATOM     42  C   UNL A   1      41.209  27.728  29.408  1.00  0.00     0.074 A 
ATOM     43  C   UNL A   1      43.003  27.093  30.958  1.00  0.00     0.049 A 
ATOM     44  N   UNL A   1      40.501  28.534  30.201  1.00  0.00    -0.248 NA
ATOM     45  C   UNL A   1      40.555  27.685  28.092  1.00  0.00     0.031 C 
ATOM     46  C   UNL A   1      44.172  26.380  31.292  1.00  0.00     0.029 A 
ATOM     47  N   UNL A   1      42.636  27.838  32.057  1.00  0.00    -0.354 N 
ATOM     48  C   UNL A   1      39.441  29.011  29.546  1.00  0.00     0.074 A 
ATOM     49  C   UNL A   1      39.464  28.477  28.178  1.00  0.00     0.031 C 
ATOM     50  C   UNL A   1      44.510  26.699  32.569  1.00  0.00     0.029 A 
ATOM     51  C   UNL A   1      43.558  27.616  33.055  1.00  0.00     0.049 A 
ATOM     52  H   UNL A   1      41.849  28.426  32.119  1.00  0.00     0.167 HD
ATOM     53  C   UNL A   1      38.455  29.868  30.037  1.00  0.00     0.031 A 
ATOM     54  C   UNL A   1      43.588  28.173  34.324  1.00  0.00     0.031 A 
ATOM     55  C   UNL A   1      38.460  30.392  31.320  1.00  0.00     0.049 A 
ATOM     56  C   UNL A   1      42.633  29.077  34.795  1.00  0.00     0.074 A 
ATOM     57  C   UNL A   1      37.470  31.251  31.832  1.00  0.00     0.029 A 
ATOM     58  N   UNL A   1      39.396  30.189  32.309  1.00  0.00    -0.354 N 
ATOM     59  N   UNL A   1      41.552  29.522  34.153  1.00  0.00    -0.248 NA
ATOM     60  C   UNL A   1      42.672  29.699  36.125  1.00  0.00     0.031 C 
ATOM     61  C   UNL A   1      37.808  31.571  33.109  1.00  0.00     0.029 A 
ATOM     62  C   UNL A   1      39.017  30.916  33.416  1.00  0.00     0.049 A 
ATOM     63  H   UNL A   1      40.198  29.624  32.238  1.00  0.00     0.167 HD
ATOM     64  C   UNL A   1      40.867  30.360  34.933  1.00  0.00     0.074 A 
ATOM     65  C   UNL A   1      41.581  30.492  36.211  1.00  0.00     0.031 C 
ATOM     66  C   UNL A   1      39.672  31.018  34.633  1.00  0.00     0.031 A 
BRANCH  53  67
ATOM     67  C   UNL A   1      37.310  30.249  29.111  1.00  0.00    -0.014 A 
ATOM     68  C   UNL A   1      37.240  31.543  28.621  1.00  0.00     0.009 A 
ATOM     69  C   UNL A   1      36.404  29.337  28.780  1.00  0.00     0.009 A 
ATOM     70  C   UNL A   1      36.004  31.859  28.009  1.00  0.00     0.001 A 
ATOM     71  C   UNL A   1      35.286  29.691  28.063  1.00  0.00     0.001 A 
ATOM     72  C   UNL A   1      35.122  30.965  27.598  1.00  0.00     0.000 A 
ENDBRANCH  53  67
BRANCH  54  73
ATOM     73  C   UNL A   1      44.723  27.779  35.254  1.00  0.00    -0.014 A 
ATOM     74  C   UNL A   1      45.918  28.477  35.200  1.00  0.00     0.009 A 
ATOM     75  C   UNL A   1      44.555  26.765  36.096  1.00  0.00     0.009 A 
ATOM     76  C   UNL A   1      46.985  27.842  35.877  1.00  0.00     0.001 A 
ATOM     77  C   UNL A   1      45.614  26.283  36.828  1.00  0.00     0.001 A 
ATOM     78  C   UNL A   1      46.838  26.887  36.778  1.00  0.00     0.000 A 
ENDBRANCH  54  73
BRANCH  66  79
ATOM     79  C   UNL A   1      39.053  31.899  35.705  1.00  0.00    -0.014 A 
ATOM     80  C   UNL A   1      39.365  33.249  35.740  1.00  0.00     0.009 A 
ATOM     81  C   UNL A   1      38.223  31.362  36.591  1.00  0.00     0.009 A 
ATOM     82  C   UNL A   1      38.971  33.898  36.933  1.00  0.00     0.001 A 
ATOM     83  C   UNL A   1      37.769  32.096  37.660  1.00  0.00     0.001 A 
ATOM     84  C   UNL A   1      38.086  33.421  37.789  1.00  0.00     0.000 A 
ENDBRANCH  66  79
ENDBRANCH  40  41
ENDBRANCH  33  35
ENDBRANCH  32  33
ENDBRANCH  31  32
ENDBRANCH  30  31
ENDBRANCH   1  30
TORSDOF 18
ENDMDL
MODEL 3
REMARK VINA RESULT:     -10.5      3.955      8.611
REMARK SMILES CCCc1cc(S(F)(F)(F)(F)F)cc2c1O[C@@H](C(F)(F)F)C(C(=O)OCCOCCOC(=O)c1ccc(-c3c4nc(c(-c5ccccc5)c5ccc([nH]5)c(-c5ccccc5)c5nc(c(-c6ccccc6)c6ccc3[nH]6)C=C5)C=C4)cc1)=C2
REMARK SMILES IDX 28 1 27 2 26 3 25 4 23 5 24 6 22 7 4 8 5 9 15 10 6 11 14 12
REMARK SMILES IDX 16 13 13 14 82 15 17 16 3 17 2 18 1 19 7 20 8 21 9 22 10 23
REMARK SMILES IDX 11 24 12 25 18 26 19 27 20 28 21 29 29 30 30 31 31 32 32 33
REMARK SMILES IDX 33 34 34 35 35 36 81 37 36 38 80 39 37 40 38 41 39 42 74 43
REMARK SMILES IDX 40 44 79 45 73 46 75 47 41 48 78 49 72 50 71 51 42 53 64 54
REMARK SMILES IDX 49 55 63 56 50 57 53 58 62 59 76 60 51 61 52 62 61 64 77 65
REMARK SMILES IDX 54 66 43 67 44 68 48 69 45 70 47 71 46 72 65 73 66 74 70 75
REMARK SMILES IDX 67 76 69 77 68 78 55 79 56 80 60 81 57 82 59 83 58 84
REMARK H PARENT 75 52 53 63
REMARK Flexibility Score: inf
ROOT
ATOM      1  O   UNL A   1      33.757  31.341  27.625  1.00  0.00    -0.374 OA
ENDROOT
BRANCH   1   2
ATOM      2  C   UNL A   1      33.390  30.162  26.924  1.00  0.00     0.202 C 
BRANCH   2   3
ATOM      3  C   UNL A   1      31.931  30.253  26.509  1.00  0.00     0.261 C 
BRANCH   3   4
ATOM      4  O   UNL A   1      31.582  29.103  25.752  1.00  0.00    -0.460 OA
BRANCH   4   5
ATOM      5  C   UNL A   1      31.564  27.825  26.370  1.00  0.00     0.338 C 
ATOM      6  O   UNL A   1      31.059  27.687  27.528  1.00  0.00    -0.246 OA
BRANCH   5   7
ATOM      7  C   UNL A   1      32.148  26.623  25.647  1.00  0.00     0.087 C 
ATOM      8  C   UNL A   1      33.419  23.037  23.922  1.00  0.00    -0.004 A 
ATOM      9  C   UNL A   1      34.685  22.551  24.195  1.00  0.00     0.032 A 
ATOM     10  C   UNL A   1      33.007  24.190  24.544  1.00  0.00     0.131 A 
ATOM     11  C   UNL A   1      35.515  23.200  25.070  1.00  0.00     0.108 A 
ATOM     12  C   UNL A   1      33.824  24.882  25.420  1.00  0.00     0.019 A 
ATOM     13  O   UNL A   1      31.710  24.598  24.352  1.00  0.00    -0.475 OA
ATOM     14  C   UNL A   1      35.089  24.364  25.675  1.00  0.00     0.036 A 
ATOM     15  C   UNL A   1      33.283  26.070  26.057  1.00  0.00     0.027 C 
ATOM     16  C   UNL A   1      31.444  26.027  24.435  1.00  0.00     0.316 C 
BRANCH   8  17
ATOM     17  C   UNL A   1      32.515  22.338  22.919  1.00  0.00     0.039 C 
BRANCH  17  18
ATOM     18  C   UNL A   1      32.492  20.846  23.212  1.00  0.00     0.001 C 
ATOM     19  C   UNL A   1      32.154  20.623  24.677  1.00  0.00     0.004 C 
ENDBRANCH  17  18
ENDBRANCH   8  17
BRANCH  11  20
ATOM     20  S   UNL A   1      37.159  22.533  25.431  1.00  0.00     0.310 S 
ATOM     21  F   UNL A   1      37.466  21.833  24.042  1.00  0.00    -0.094 F 
ATOM     22  F   UNL A   1      36.545  21.163  25.909  1.00  0.00    -0.094 F 
ATOM     23  F   UNL A   1      38.576  22.093  25.898  1.00  0.00    -0.094 F 
ATOM     24  F   UNL A   1      37.778  23.852  24.821  1.00  0.00    -0.094 F 
ATOM     25  F   UNL A   1      35.747  22.945  24.853  1.00  0.00    -0.094 F 
ENDBRANCH  11  20
BRANCH  16  26
ATOM     26  C   UNL A   1      29.946  26.246  24.573  1.00  0.00     0.430 C 
ATOM     27  F   UNL A   1      29.660  27.521  24.328  1.00  0.00    -0.167 F 
ATOM     28  F   UNL A   1      29.303  25.472  23.704  1.00  0.00    -0.167 F 
ATOM     29  F   UNL A   1      29.565  25.935  25.809  1.00  0.00    -0.167 F 
ENDBRANCH  16  26
ENDBRANCH   5   7
ENDBRANCH   4   5
ENDBRANCH   3   4
ENDBRANCH   2   3
ENDBRANCH   1   2
BRANCH   1  30
ATOM     30  C   UNL A   1      32.662  32.246  27.636  1.00  0.00     0.202 C 
BRANCH  30  31
ATOM     31  C   UNL A   1      33.184  33.672  27.573  1.00  0.00     0.261 C 
BRANCH  31  32
ATOM     32  O   UNL A   1      32.566  34.448  28.589  1.00  0.00    -0.460 OA
BRANCH  32  33
ATOM     33  C   UNL A   1      33.332  34.918  29.688  1.00  0.00     0.338 C 
ATOM     34  O   UNL A   1      32.971  35.963  30.313  1.00  0.00    -0.246 OA
BRANCH  33  35
ATOM     35  C   UNL A   1      34.585  34.172  30.115  1.00  0.00     0.060 A 
ATOM     36  C   UNL A   1      35.800  34.498  29.536  1.00  0.00     0.016 A 
ATOM     37  C   UNL A   1      34.495  33.221  31.038  1.00  0.00     0.016 A 
ATOM     38  C   UNL A   1      36.828  33.557  29.791  1.00  0.00     0.010 A 
ATOM     39  C   UNL A   1      35.577  32.428  31.333  1.00  0.00     0.010 A 
ATOM     40  C   UNL A   1      36.794  32.655  30.755  1.00  0.00    -0.014 A 
BRANCH  40  41
ATOM     41  C   UNL A   1      38.043  31.909  31.197  1.00  0.00     0.031 A 
ATOM     42  C   UNL A   1      38.682  32.333  32.362  1.00  0.00     0.074 A 
ATOM     43  C   UNL A   1      38.475  30.848  30.419  1.00  0.00     0.049 A 
ATOM     44  N   UNL A   1      39.761  31.802  32.938  1.00  0.00    -0.248 NA
ATOM     45  C   UNL A   1      38.244  33.480  33.172  1.00  0.00     0.031 C 
ATOM     46  C   UNL A   1      37.830  30.407  29.246  1.00  0.00     0.029 A 
ATOM     47  N   UNL A   1      39.576  30.045  30.622  1.00  0.00    -0.354 N 
ATOM     48  C   UNL A   1      40.067  32.472  34.051  1.00  0.00     0.074 A 
ATOM     49  C   UNL A   1      39.100  33.565  34.214  1.00  0.00     0.031 C 
ATOM     50  C   UNL A   1      38.538  29.361  28.744  1.00  0.00     0.029 A 
ATOM     51  C   UNL A   1      39.636  29.130  29.595  1.00  0.00     0.049 A 
ATOM     52  H   UNL A   1      40.209  30.112  31.373  1.00  0.00     0.167 HD
ATOM     53  C   UNL A   1      41.113  32.212  34.938  1.00  0.00     0.031 A 
ATOM     54  C   UNL A   1      40.588  28.143  29.391  1.00  0.00     0.031 A 
ATOM     55  C   UNL A   1      42.040  31.198  34.758  1.00  0.00     0.049 A 
ATOM     56  C   UNL A   1      41.668  27.921  30.247  1.00  0.00     0.074 A 
ATOM     57  C   UNL A   1      43.096  30.918  35.646  1.00  0.00     0.029 A 
ATOM     58  N   UNL A   1      42.114  30.299  33.717  1.00  0.00    -0.354 N 
ATOM     59  N   UNL A   1      41.951  28.566  31.380  1.00  0.00    -0.248 NA
ATOM     60  C   UNL A   1      42.701  26.900  30.024  1.00  0.00     0.031 C 
ATOM     61  C   UNL A   1      43.804  29.872  35.143  1.00  0.00     0.029 A 
ATOM     62  C   UNL A   1      43.202  29.481  33.931  1.00  0.00     0.049 A 
ATOM     63  H   UNL A   1      41.499  30.250  32.951  1.00  0.00     0.167 HD
ATOM     64  C   UNL A   1      43.055  28.060  31.934  1.00  0.00     0.074 A 
ATOM     65  C   UNL A   1      43.557  26.986  31.066  1.00  0.00     0.031 C 
ATOM     66  C   UNL A   1      43.660  28.447  33.131  1.00  0.00     0.031 A 
BRANCH  53  67
ATOM     67  C   UNL A   1      41.244  33.092  36.171  1.00  0.00    -0.014 A 
ATOM     68  C   UNL A   1      42.145  34.144  36.158  1.00  0.00     0.009 A 
ATOM     69  C   UNL A   1      40.488  32.847  37.234  1.00  0.00     0.009 A 
ATOM     70  C   UNL A   1      42.383  34.712  37.432  1.00  0.00     0.001 A 
ATOM     71  C   UNL A   1      40.686  33.534  38.407  1.00  0.00     0.001 A 
ATOM     72  C   UNL A   1      41.601  34.547  38.483  1.00  0.00     0.000 A 
ENDBRANCH  53  67
BRANCH  54  73
ATOM     73  C   UNL A   1      40.447  27.253  28.167  1.00  0.00    -0.014 A 
ATOM     74  C   UNL A   1      39.681  26.103  28.251  1.00  0.00     0.009 A 
ATOM     75  C   UNL A   1      41.070  27.586  27.042  1.00  0.00     0.009 A 
ATOM     76  C   UNL A   1      39.865  25.210  27.169  1.00  0.00     0.001 A 
ATOM     77  C   UNL A   1      41.096  26.719  25.976  1.00  0.00     0.001 A 
ATOM     78  C   UNL A   1      40.409  25.538  26.011  1.00  0.00     0.000 A 
ENDBRANCH  54  73
BRANCH  66  79
ATOM     79  C   UNL A   1      44.900  27.691  33.582  1.00  0.00    -0.014 A 
ATOM     80  C   UNL A   1      46.150  28.139  33.190  1.00  0.00     0.009 A 
ATOM     81  C   UNL A   1      44.763  26.612  34.344  1.00  0.00     0.009 A 
ATOM     82  C   UNL A   1      47.190  27.208  33.418  1.00  0.00     0.001 A 
ATOM     83  C   UNL A   1      45.847  25.823  34.640  1.00  0.00     0.001 A 
ATOM     84  C   UNL A   1      47.105  26.174  34.235  1.00  0.00     0.000 A 
ENDBRANCH  66  79
ENDBRANCH  40  41
ENDBRANCH  33  35
ENDBRANCH  32  33
ENDBRANCH  31  32
ENDBRANCH  30  31
ENDBRANCH   1  30
TORSDOF 18
ENDMDL
