MODEL 1
REMARK VINA RESULT:      -9.8      0.000      0.000
REMARK SMILES O=C(Cc1c[nH]c(=O)n(Cc2ccccc2)c1=O)OCCOCCOC(=O)c1ccc(-c2c3nc(c(-c4ccccc4)c4ccc([nH]4)c(-c4ccccc4)c4nc(c(-c5ccccc5)c5ccc2[nH]5)C=C4)C=C3)cc1
REMARK SMILES IDX 21 1 20 2 19 3 2 4 1 5 3 6 4 7 5 8 17 9 6 10 9 11 18 12 7 13
REMARK SMILES IDX 8 15 10 16 11 17 12 18 16 19 13 20 15 21 14 22 22 23 23 24
REMARK SMILES IDX 24 25 25 26 26 27 27 28 28 29 29 30 75 31 30 32 74 33 31 34
REMARK SMILES IDX 32 35 33 36 68 37 34 38 73 39 67 40 69 41 35 42 72 43 66 44
REMARK SMILES IDX 65 45 36 47 58 48 43 49 57 50 44 51 47 52 56 53 70 54 45 55
REMARK SMILES IDX 46 56 55 58 71 59 48 60 37 61 38 62 42 63 39 64 41 65 40 66
REMARK SMILES IDX 59 67 60 68 64 69 61 70 63 71 62 72 49 73 50 74 54 75 51 76
REMARK SMILES IDX 53 77 52 78
REMARK H PARENT 6 14 69 46 47 57
REMARK Flexibility Score: inf
ROOT
ATOM      1  C   UNL A   1      30.639  26.772  24.914  1.00  0.00     0.202 C 
ENDROOT
BRANCH   1   2
ATOM      2  C   UNL A   1      29.989  25.781  25.873  1.00  0.00     0.261 C 
BRANCH   2   3
ATOM      3  O   UNL A   1      30.857  24.876  26.576  1.00  0.00    -0.463 OA
BRANCH   3   4
ATOM      4  C   UNL A   1      30.600  23.590  26.917  1.00  0.00     0.310 C 
ATOM      5  O   UNL A   1      29.519  23.312  27.435  1.00  0.00    -0.252 OA
BRANCH   4   6
ATOM      6  C   UNL A   1      31.654  22.516  26.722  1.00  0.00     0.165 C 
BRANCH   6   7
ATOM      7  C   UNL A   1      32.413  22.564  25.436  1.00  0.00     0.045 A 
ATOM      8  C   UNL A   1      32.119  21.870  24.329  1.00  0.00     0.097 A 
ATOM      9  C   UNL A   1      33.556  23.522  25.378  1.00  0.00     0.260 A 
ATOM     10  N   UNL A   1      32.650  22.225  23.129  1.00  0.00    -0.314 N 
ATOM     11  N   UNL A   1      34.145  23.687  24.140  1.00  0.00    -0.256 N 
ATOM     12  O   UNL A   1      33.929  24.090  26.402  1.00  0.00    -0.269 OA
ATOM     13  C   UNL A   1      33.587  23.209  22.970  1.00  0.00     0.328 A 
ATOM     14  H   UNL A   1      32.342  21.745  22.327  1.00  0.00     0.171 HD
ATOM     15  O   UNL A   1      33.896  23.578  21.839  1.00  0.00    -0.248 OA
BRANCH  11  16
ATOM     16  C   UNL A   1      35.480  24.259  24.067  1.00  0.00     0.166 C 
BRANCH  16  17
ATOM     17  C   UNL A   1      36.448  23.276  24.712  1.00  0.00    -0.028 A 
ATOM     18  C   UNL A   1      37.406  23.734  25.635  1.00  0.00     0.005 A 
ATOM     19  C   UNL A   1      36.507  21.941  24.292  1.00  0.00     0.005 A 
ATOM     20  C   UNL A   1      38.434  22.904  26.075  1.00  0.00     0.000 A 
ATOM     21  C   UNL A   1      37.518  21.099  24.764  1.00  0.00     0.000 A 
ATOM     22  C   UNL A   1      38.491  21.585  25.638  1.00  0.00     0.000 A 
ENDBRANCH  16  17
ENDBRANCH  11  16
ENDBRANCH   6   7
ENDBRANCH   4   6
ENDBRANCH   3   4
ENDBRANCH   2   3
ENDBRANCH   1   2
BRANCH   1  23
ATOM     23  O   UNL A   1      31.020  28.035  25.423  1.00  0.00    -0.374 OA
BRANCH  23  24
ATOM     24  C   UNL A   1      32.386  28.219  25.804  1.00  0.00     0.202 C 
BRANCH  24  25
ATOM     25  C   UNL A   1      32.653  28.913  27.142  1.00  0.00     0.261 C 
BRANCH  25  26
ATOM     26  O   UNL A   1      34.055  28.896  27.468  1.00  0.00    -0.460 OA
BRANCH  26  27
ATOM     27  C   UNL A   1      34.596  30.086  27.824  1.00  0.00     0.338 C 
ATOM     28  O   UNL A   1      34.018  31.151  27.973  1.00  0.00    -0.246 OA
BRANCH  27  29
ATOM     29  C   UNL A   1      35.991  29.854  28.244  1.00  0.00     0.060 A 
ATOM     30  C   UNL A   1      36.285  29.454  29.547  1.00  0.00     0.016 A 
ATOM     31  C   UNL A   1      37.014  30.031  27.301  1.00  0.00     0.016 A 
ATOM     32  C   UNL A   1      37.610  29.194  29.897  1.00  0.00     0.010 A 
ATOM     33  C   UNL A   1      38.338  29.767  27.652  1.00  0.00     0.010 A 
ATOM     34  C   UNL A   1      38.640  29.321  28.945  1.00  0.00    -0.014 A 
BRANCH  34  35
ATOM     35  C   UNL A   1      39.994  28.819  29.274  1.00  0.00     0.031 A 
ATOM     36  C   UNL A   1      40.455  27.460  28.852  1.00  0.00     0.074 A 
ATOM     37  C   UNL A   1      40.817  29.641  29.953  1.00  0.00     0.049 A 
ATOM     38  N   UNL A   1      41.650  26.938  28.955  1.00  0.00    -0.248 NA
ATOM     39  C   UNL A   1      39.456  26.569  28.242  1.00  0.00     0.031 C 
ATOM     40  C   UNL A   1      40.452  30.977  30.432  1.00  0.00     0.029 A 
ATOM     41  N   UNL A   1      42.125  29.495  30.334  1.00  0.00    -0.354 N 
ATOM     42  C   UNL A   1      41.558  25.668  28.402  1.00  0.00     0.074 A 
ATOM     43  C   UNL A   1      40.177  25.477  28.011  1.00  0.00     0.031 C 
ATOM     44  C   UNL A   1      41.527  31.547  30.995  1.00  0.00     0.029 A 
ATOM     45  C   UNL A   1      42.643  30.608  30.954  1.00  0.00     0.049 A 
ATOM     46  H   UNL A   1      42.645  28.673  30.179  1.00  0.00     0.167 HD
ATOM     47  C   UNL A   1      42.545  24.760  28.223  1.00  0.00     0.031 A 
ATOM     48  C   UNL A   1      43.879  30.853  31.427  1.00  0.00     0.031 A 
ATOM     49  C   UNL A   1      43.912  24.960  28.638  1.00  0.00     0.049 A 
ATOM     50  C   UNL A   1      44.943  29.806  31.254  1.00  0.00     0.074 A 
ATOM     51  C   UNL A   1      44.990  24.110  28.468  1.00  0.00     0.029 A 
ATOM     52  N   UNL A   1      44.385  26.078  29.309  1.00  0.00    -0.354 N 
ATOM     53  N   UNL A   1      44.863  28.644  30.653  1.00  0.00    -0.248 NA
ATOM     54  C   UNL A   1      46.272  30.107  31.807  1.00  0.00     0.031 C 
ATOM     55  C   UNL A   1      46.096  24.676  29.104  1.00  0.00     0.029 A 
ATOM     56  C   UNL A   1      45.732  25.920  29.593  1.00  0.00     0.049 A 
ATOM     57  H   UNL A   1      43.845  26.866  29.547  1.00  0.00     0.167 HD
ATOM     58  C   UNL A   1      46.131  28.085  30.733  1.00  0.00     0.074 A 
ATOM     59  C   UNL A   1      46.969  29.045  31.423  1.00  0.00     0.031 C 
ATOM     60  C   UNL A   1      46.559  26.883  30.278  1.00  0.00     0.031 A 
BRANCH  47  61
ATOM     61  C   UNL A   1      42.212  23.461  27.540  1.00  0.00    -0.014 A 
ATOM     62  C   UNL A   1      41.814  22.349  28.301  1.00  0.00     0.009 A 
ATOM     63  C   UNL A   1      42.431  23.295  26.163  1.00  0.00     0.009 A 
ATOM     64  C   UNL A   1      41.669  21.095  27.706  1.00  0.00     0.001 A 
ATOM     65  C   UNL A   1      42.255  22.046  25.564  1.00  0.00     0.001 A 
ATOM     66  C   UNL A   1      41.888  20.945  26.337  1.00  0.00     0.000 A 
ENDBRANCH  47  61
BRANCH  48  67
ATOM     67  C   UNL A   1      44.173  32.164  32.066  1.00  0.00    -0.014 A 
ATOM     68  C   UNL A   1      44.650  33.242  31.300  1.00  0.00     0.009 A 
ATOM     69  C   UNL A   1      44.032  32.333  33.451  1.00  0.00     0.009 A 
ATOM     70  C   UNL A   1      45.002  34.448  31.908  1.00  0.00     0.001 A 
ATOM     71  C   UNL A   1      44.350  33.554  34.053  1.00  0.00     0.001 A 
ATOM     72  C   UNL A   1      44.846  34.605  33.283  1.00  0.00     0.000 A 
ENDBRANCH  48  67
BRANCH  60  73
ATOM     73  C   UNL A   1      48.004  26.518  30.488  1.00  0.00    -0.014 A 
ATOM     74  C   UNL A   1      48.392  25.865  31.670  1.00  0.00     0.009 A 
ATOM     75  C   UNL A   1      48.994  26.928  29.583  1.00  0.00     0.009 A 
ATOM     76  C   UNL A   1      49.741  25.654  31.955  1.00  0.00     0.001 A 
ATOM     77  C   UNL A   1      50.343  26.683  29.855  1.00  0.00     0.001 A 
ATOM     78  C   UNL A   1      50.716  26.062  31.046  1.00  0.00     0.000 A 
ENDBRANCH  60  73
ENDBRANCH  34  35
ENDBRANCH  27  29
ENDBRANCH  26  27
ENDBRANCH  25  26
ENDBRANCH  24  25
ENDBRANCH  23  24
ENDBRANCH   1  23
TORSDOF 17
ENDMDL
MODEL 2
REMARK VINA RESULT:      -9.7      1.161      2.377
REMARK SMILES O=C(Cc1c[nH]c(=O)n(Cc2ccccc2)c1=O)OCCOCCOC(=O)c1ccc(-c2c3nc(c(-c4ccccc4)c4ccc([nH]4)c(-c4ccccc4)c4nc(c(-c5ccccc5)c5ccc2[nH]5)C=C4)C=C3)cc1
REMARK SMILES IDX 21 1 20 2 19 3 2 4 1 5 3 6 4 7 5 8 17 9 6 10 9 11 18 12 7 13
REMARK SMILES IDX 8 15 10 16 11 17 12 18 16 19 13 20 15 21 14 22 22 23 23 24
REMARK SMILES IDX 24 25 25 26 26 27 27 28 28 29 29 30 75 31 30 32 74 33 31 34
REMARK SMILES IDX 32 35 33 36 68 37 34 38 73 39 67 40 69 41 35 42 72 43 66 44
REMARK SMILES IDX 65 45 36 47 58 48 43 49 57 50 44 51 47 52 56 53 70 54 45 55
REMARK SMILES IDX 46 56 55 58 71 59 48 60 37 61 38 62 42 63 39 64 41 65 40 66
REMARK SMILES IDX 59 67 60 68 64 69 61 70 63 71 62 72 49 73 50 74 54 75 51 76
REMARK SMILES IDX 53 77 52 78
REMARK H PARENT 6 14 69 46 47 57
REMARK Flexibility Score: inf
ROOT
ATOM      1  C   UNL A   1      30.862  29.311  24.122  1.00  0.00     0.202 C 
ENDROOT
BRANCH   1   2
ATOM      2  C   UNL A   1      30.672  27.902  23.571  1.00  0.00     0.261 C 
BRANCH   2   3
ATOM      3  O   UNL A   1      31.209  27.625  22.267  1.00  0.00    -0.463 OA
BRANCH   3   4
ATOM      4  C   UNL A   1      32.118  26.675  21.937  1.00  0.00     0.310 C 
ATOM      5  O   UNL A   1      31.805  25.802  21.128  1.00  0.00    -0.252 OA
BRANCH   4   6
ATOM      6  C   UNL A   1      33.482  26.651  22.603  1.00  0.00     0.165 C 
BRANCH   6   7
ATOM      7  C   UNL A   1      33.591  25.835  23.850  1.00  0.00     0.045 A 
ATOM      8  C   UNL A   1      33.378  26.280  25.095  1.00  0.00     0.097 A 
ATOM      9  C   UNL A   1      33.904  24.387  23.668  1.00  0.00     0.260 A 
ATOM     10  N   UNL A   1      33.174  25.405  26.115  1.00  0.00    -0.314 N 
ATOM     11  N   UNL A   1      33.836  23.607  24.805  1.00  0.00    -0.256 N 
ATOM     12  O   UNL A   1      34.218  23.966  22.557  1.00  0.00    -0.269 OA
ATOM     13  C   UNL A   1      33.281  24.047  25.990  1.00  0.00     0.328 A 
ATOM     14  H   UNL A   1      32.934  25.771  26.997  1.00  0.00     0.171 HD
ATOM     15  O   UNL A   1      32.924  23.321  26.915  1.00  0.00    -0.248 OA
BRANCH  11  16
ATOM     16  C   UNL A   1      34.504  22.314  24.810  1.00  0.00     0.166 C 
BRANCH  16  17
ATOM     17  C   UNL A   1      35.975  22.547  25.131  1.00  0.00    -0.028 A 
ATOM     18  C   UNL A   1      36.909  21.512  24.944  1.00  0.00     0.005 A 
ATOM     19  C   UNL A   1      36.399  23.728  25.755  1.00  0.00     0.005 A 
ATOM     20  C   UNL A   1      38.211  21.624  25.425  1.00  0.00     0.000 A 
ATOM     21  C   UNL A   1      37.716  23.852  26.204  1.00  0.00     0.000 A 
ATOM     22  C   UNL A   1      38.615  22.794  26.057  1.00  0.00     0.000 A 
ENDBRANCH  16  17
ENDBRANCH  11  16
ENDBRANCH   6   7
ENDBRANCH   4   6
ENDBRANCH   3   4
ENDBRANCH   2   3
ENDBRANCH   1   2
BRANCH   1  23
ATOM     23  O   UNL A   1      32.011  29.568  24.907  1.00  0.00    -0.374 OA
BRANCH  23  24
ATOM     24  C   UNL A   1      31.817  29.983  26.261  1.00  0.00     0.202 C 
BRANCH  24  25
ATOM     25  C   UNL A   1      32.893  29.586  27.276  1.00  0.00     0.261 C 
BRANCH  25  26
ATOM     26  O   UNL A   1      34.149  30.222  26.980  1.00  0.00    -0.460 OA
BRANCH  26  27
ATOM     27  C   UNL A   1      34.748  30.864  28.012  1.00  0.00     0.338 C 
ATOM     28  O   UNL A   1      34.255  31.699  28.754  1.00  0.00    -0.246 OA
BRANCH  27  29
ATOM     29  C   UNL A   1      36.051  30.222  28.265  1.00  0.00     0.060 A 
ATOM     30  C   UNL A   1      37.049  30.224  27.291  1.00  0.00     0.016 A 
ATOM     31  C   UNL A   1      36.271  29.620  29.513  1.00  0.00     0.016 A 
ATOM     32  C   UNL A   1      38.286  29.653  27.582  1.00  0.00     0.010 A 
ATOM     33  C   UNL A   1      37.511  29.051  29.804  1.00  0.00     0.010 A 
ATOM     34  C   UNL A   1      38.535  29.089  28.848  1.00  0.00    -0.014 A 
BRANCH  34  35
ATOM     35  C   UNL A   1      39.918  28.702  29.210  1.00  0.00     0.031 A 
ATOM     36  C   UNL A   1      40.490  27.373  28.832  1.00  0.00     0.074 A 
ATOM     37  C   UNL A   1      40.664  29.603  29.879  1.00  0.00     0.049 A 
ATOM     38  N   UNL A   1      41.719  26.948  28.966  1.00  0.00    -0.248 NA
ATOM     39  C   UNL A   1      39.573  26.392  28.232  1.00  0.00     0.031 C 
ATOM     40  C   UNL A   1      40.189  30.919  30.316  1.00  0.00     0.029 A 
ATOM     41  N   UNL A   1      41.973  29.569  30.282  1.00  0.00    -0.354 N 
ATOM     42  C   UNL A   1      41.735  25.661  28.446  1.00  0.00     0.074 A 
ATOM     43  C   UNL A   1      40.379  25.354  28.041  1.00  0.00     0.031 C 
ATOM     44  C   UNL A   1      41.207  31.586  30.878  1.00  0.00     0.029 A 
ATOM     45  C   UNL A   1      42.393  30.735  30.879  1.00  0.00     0.049 A 
ATOM     46  H   UNL A   1      42.558  28.786  30.157  1.00  0.00     0.167 HD
ATOM     47  C   UNL A   1      42.792  24.828  28.307  1.00  0.00     0.031 A 
ATOM     48  C   UNL A   1      43.599  31.088  31.362  1.00  0.00     0.031 A 
ATOM     49  C   UNL A   1      44.132  25.145  28.735  1.00  0.00     0.049 A 
ATOM     50  C   UNL A   1      44.743  30.122  31.233  1.00  0.00     0.074 A 
ATOM     51  C   UNL A   1      45.276  24.377  28.604  1.00  0.00     0.029 A 
ATOM     52  N   UNL A   1      44.507  26.313  29.383  1.00  0.00    -0.354 N 
ATOM     53  N   UNL A   1      44.763  28.942  30.663  1.00  0.00    -0.248 NA
ATOM     54  C   UNL A   1      46.035  30.539  31.797  1.00  0.00     0.031 C 
ATOM     55  C   UNL A   1      46.324  25.043  29.240  1.00  0.00     0.029 A 
ATOM     56  C   UNL A   1      45.857  26.267  29.690  1.00  0.00     0.049 A 
ATOM     57  H   UNL A   1      43.903  27.062  29.591  1.00  0.00     0.167 HD
ATOM     58  C   UNL A   1      46.069  28.485  30.777  1.00  0.00     0.074 A 
ATOM     59  C   UNL A   1      46.818  29.526  31.452  1.00  0.00     0.031 C 
ATOM     60  C   UNL A   1      46.595  27.309  30.360  1.00  0.00     0.031 A 
BRANCH  47  61
ATOM     61  C   UNL A   1      42.572  23.490  27.655  1.00  0.00    -0.014 A 
ATOM     62  C   UNL A   1      42.690  23.361  26.261  1.00  0.00     0.009 A 
ATOM     63  C   UNL A   1      42.105  22.395  28.398  1.00  0.00     0.009 A 
ATOM     64  C   UNL A   1      42.323  22.175  25.623  1.00  0.00     0.001 A 
ATOM     65  C   UNL A   1      41.767  21.198  27.761  1.00  0.00     0.001 A 
ATOM     66  C   UNL A   1      41.863  21.094  26.373  1.00  0.00     0.000 A 
ENDBRANCH  47  61
BRANCH  48  67
ATOM     67  C   UNL A   1      43.780  32.434  31.969  1.00  0.00    -0.014 A 
ATOM     68  C   UNL A   1      43.543  32.638  33.339  1.00  0.00     0.009 A 
ATOM     69  C   UNL A   1      44.136  33.535  31.176  1.00  0.00     0.009 A 
ATOM     70  C   UNL A   1      43.634  33.915  33.896  1.00  0.00     0.001 A 
ATOM     71  C   UNL A   1      44.264  34.806  31.744  1.00  0.00     0.001 A 
ATOM     72  C   UNL A   1      44.001  34.997  33.099  1.00  0.00     0.000 A 
ENDBRANCH  48  67
BRANCH  60  73
ATOM     73  C   UNL A   1      48.061  27.063  30.601  1.00  0.00    -0.014 A 
ATOM     74  C   UNL A   1      48.997  27.416  29.615  1.00  0.00     0.009 A 
ATOM     75  C   UNL A   1      48.502  26.373  31.740  1.00  0.00     0.009 A 
ATOM     76  C   UNL A   1      50.340  27.060  29.750  1.00  0.00     0.001 A 
ATOM     77  C   UNL A   1      49.853  26.049  31.889  1.00  0.00     0.001 A 
ATOM     78  C   UNL A   1      50.767  26.378  30.889  1.00  0.00     0.000 A 
ENDBRANCH  60  73
ENDBRANCH  34  35
ENDBRANCH  27  29
ENDBRANCH  26  27
ENDBRANCH  25  26
ENDBRANCH  24  25
ENDBRANCH  23  24
ENDBRANCH   1  23
TORSDOF 17
ENDMDL
MODEL 3
REMARK VINA RESULT:      -9.6      3.696      8.689
REMARK SMILES O=C(Cc1c[nH]c(=O)n(Cc2ccccc2)c1=O)OCCOCCOC(=O)c1ccc(-c2c3nc(c(-c4ccccc4)c4ccc([nH]4)c(-c4ccccc4)c4nc(c(-c5ccccc5)c5ccc2[nH]5)C=C4)C=C3)cc1
REMARK SMILES IDX 21 1 20 2 19 3 2 4 1 5 3 6 4 7 5 8 17 9 6 10 9 11 18 12 7 13
REMARK SMILES IDX 8 15 10 16 11 17 12 18 16 19 13 20 15 21 14 22 22 23 23 24
REMARK SMILES IDX 24 25 25 26 26 27 27 28 28 29 29 30 75 31 30 32 74 33 31 34
REMARK SMILES IDX 32 35 33 36 68 37 34 38 73 39 67 40 69 41 35 42 72 43 66 44
REMARK SMILES IDX 65 45 36 47 58 48 43 49 57 50 44 51 47 52 56 53 70 54 45 55
REMARK SMILES IDX 46 56 55 58 71 59 48 60 37 61 38 62 42 63 39 64 41 65 40 66
REMARK SMILES IDX 59 67 60 68 64 69 61 70 63 71 62 72 49 73 50 74 54 75 51 76
REMARK SMILES IDX 53 77 52 78
REMARK H PARENT 6 14 69 46 47 57
REMARK Flexibility Score: inf
ROOT
ATOM      1  C   UNL A   1      36.531  21.910  24.245  1.00  0.00     0.202 C 
ENDROOT
BRANCH   1   2
ATOM      2  C   UNL A   1      35.053  21.865  24.615  1.00  0.00     0.261 C 
BRANCH   2   3
ATOM      3  O   UNL A   1      34.105  22.225  23.597  1.00  0.00    -0.463 OA
BRANCH   3   4
ATOM      4  C   UNL A   1      33.592  23.456  23.351  1.00  0.00     0.310 C 
ATOM      5  O   UNL A   1      32.505  23.547  22.781  1.00  0.00    -0.252 OA
BRANCH   4   6
ATOM      6  C   UNL A   1      34.373  24.704  23.716  1.00  0.00     0.165 C 
BRANCH   6   7
ATOM      7  C   UNL A   1      33.575  25.955  23.885  1.00  0.00     0.045 A 
ATOM      8  C   UNL A   1      33.411  26.908  22.957  1.00  0.00     0.097 A 
ATOM      9  C   UNL A   1      32.853  26.110  25.181  1.00  0.00     0.260 A 
ATOM     10  N   UNL A   1      32.414  27.824  23.077  1.00  0.00    -0.314 N 
ATOM     11  N   UNL A   1      31.984  27.180  25.266  1.00  0.00    -0.256 N 
ATOM     12  O   UNL A   1      33.067  25.320  26.097  1.00  0.00    -0.269 OA
ATOM     13  C   UNL A   1      31.598  27.926  24.169  1.00  0.00     0.328 A 
ATOM     14  H   UNL A   1      32.272  28.453  22.333  1.00  0.00     0.171 HD
ATOM     15  O   UNL A   1      30.622  28.673  24.132  1.00  0.00    -0.248 OA
BRANCH  11  16
ATOM     16  C   UNL A   1      31.564  27.642  26.579  1.00  0.00     0.166 C 
BRANCH  16  17
ATOM     17  C   UNL A   1      32.501  28.765  27.004  1.00  0.00    -0.028 A 
ATOM     18  C   UNL A   1      32.037  30.093  27.043  1.00  0.00     0.005 A 
ATOM     19  C   UNL A   1      33.866  28.526  27.213  1.00  0.00     0.005 A 
ATOM     20  C   UNL A   1      32.918  31.156  27.218  1.00  0.00     0.000 A 
ATOM     21  C   UNL A   1      34.742  29.593  27.425  1.00  0.00     0.000 A 
ATOM     22  C   UNL A   1      34.273  30.907  27.408  1.00  0.00     0.000 A 
ENDBRANCH  16  17
ENDBRANCH  11  16
ENDBRANCH   6   7
ENDBRANCH   4   6
ENDBRANCH   3   4
ENDBRANCH   2   3
ENDBRANCH   1   2
BRANCH   1  23
ATOM     23  O   UNL A   1      37.417  22.574  25.126  1.00  0.00    -0.374 OA
BRANCH  23  24
ATOM     24  C   UNL A   1      38.241  21.772  25.977  1.00  0.00     0.202 C 
BRANCH  24  25
ATOM     25  C   UNL A   1      39.567  22.379  26.442  1.00  0.00     0.261 C 
BRANCH  25  26
ATOM     26  O   UNL A   1      39.529  23.817  26.393  1.00  0.00    -0.460 OA
BRANCH  26  27
ATOM     27  C   UNL A   1      40.708  24.450  26.599  1.00  0.00     0.338 C 
ATOM     28  O   UNL A   1      41.774  24.237  26.042  1.00  0.00    -0.246 OA
BRANCH  27  29
ATOM     29  C   UNL A   1      40.460  25.628  27.452  1.00  0.00     0.060 A 
ATOM     30  C   UNL A   1      39.500  25.587  28.462  1.00  0.00     0.016 A 
ATOM     31  C   UNL A   1      41.221  26.786  27.234  1.00  0.00     0.016 A 
ATOM     32  C   UNL A   1      39.327  26.700  29.282  1.00  0.00     0.010 A 
ATOM     33  C   UNL A   1      41.049  27.898  28.058  1.00  0.00     0.010 A 
ATOM     34  C   UNL A   1      40.119  27.851  29.105  1.00  0.00    -0.014 A 
BRANCH  34  35
ATOM     35  C   UNL A   1      40.079  28.922  30.127  1.00  0.00     0.031 A 
ATOM     36  C   UNL A   1      39.094  30.045  30.055  1.00  0.00     0.074 A 
ATOM     37  C   UNL A   1      40.953  28.843  31.149  1.00  0.00     0.049 A 
ATOM     38  N   UNL A   1      38.857  30.978  30.941  1.00  0.00    -0.248 NA
ATOM     39  C   UNL A   1      38.271  30.143  28.839  1.00  0.00     0.031 C 
ATOM     40  C   UNL A   1      41.972  27.800  31.296  1.00  0.00     0.029 A 
ATOM     41  N   UNL A   1      41.112  29.625  32.263  1.00  0.00    -0.354 N 
ATOM     42  C   UNL A   1      37.843  31.760  30.406  1.00  0.00     0.074 A 
ATOM     43  C   UNL A   1      37.544  31.224  29.094  1.00  0.00     0.031 C 
ATOM     44  C   UNL A   1      42.613  27.976  32.460  1.00  0.00     0.029 A 
ATOM     45  C   UNL A   1      42.082  29.163  33.122  1.00  0.00     0.049 A 
ATOM     46  H   UNL A   1      40.584  30.438  32.433  1.00  0.00     0.167 HD
ATOM     47  C   UNL A   1      37.212  32.815  30.973  1.00  0.00     0.031 A 
ATOM     48  C   UNL A   1      42.491  29.632  34.316  1.00  0.00     0.031 A 
ATOM     49  C   UNL A   1      37.538  33.347  32.273  1.00  0.00     0.049 A 
ATOM     50  C   UNL A   1      41.801  30.833  34.899  1.00  0.00     0.074 A 
ATOM     51  C   UNL A   1      36.930  34.392  32.946  1.00  0.00     0.029 A 
ATOM     52  N   UNL A   1      38.560  32.886  33.090  1.00  0.00    -0.354 N 
ATOM     53  N   UNL A   1      40.786  31.511  34.421  1.00  0.00    -0.248 NA
ATOM     54  C   UNL A   1      42.298  31.326  36.192  1.00  0.00     0.031 C 
ATOM     55  C   UNL A   1      37.632  34.615  34.131  1.00  0.00     0.029 A 
ATOM     56  C   UNL A   1      38.622  33.652  34.242  1.00  0.00     0.049 A 
ATOM     57  H   UNL A   1      39.152  32.127  32.881  1.00  0.00     0.167 HD
ATOM     58  C   UNL A   1      40.507  32.493  35.361  1.00  0.00     0.074 A 
ATOM     59  C   UNL A   1      41.445  32.310  36.449  1.00  0.00     0.031 C 
ATOM     60  C   UNL A   1      39.559  33.460  35.322  1.00  0.00     0.031 A 
BRANCH  47  61
ATOM     61  C   UNL A   1      36.092  33.474  30.216  1.00  0.00    -0.014 A 
ATOM     62  C   UNL A   1      34.759  33.264  30.609  1.00  0.00     0.009 A 
ATOM     63  C   UNL A   1      36.343  34.182  29.030  1.00  0.00     0.009 A 
ATOM     64  C   UNL A   1      33.704  33.724  29.821  1.00  0.00     0.001 A 
ATOM     65  C   UNL A   1      35.285  34.668  28.258  1.00  0.00     0.001 A 
ATOM     66  C   UNL A   1      33.967  34.426  28.646  1.00  0.00     0.000 A 
ENDBRANCH  47  61
BRANCH  48  67
ATOM     67  C   UNL A   1      43.581  28.929  35.045  1.00  0.00    -0.014 A 
ATOM     68  C   UNL A   1      44.917  29.341  34.905  1.00  0.00     0.009 A 
ATOM     69  C   UNL A   1      43.302  27.808  35.842  1.00  0.00     0.009 A 
ATOM     70  C   UNL A   1      45.949  28.635  35.525  1.00  0.00     0.001 A 
ATOM     71  C   UNL A   1      44.334  27.125  36.491  1.00  0.00     0.001 A 
ATOM     72  C   UNL A   1      45.657  27.531  36.322  1.00  0.00     0.000 A 
ENDBRANCH  48  67
BRANCH  60  73
ATOM     73  C   UNL A   1      39.460  34.404  36.490  1.00  0.00    -0.014 A 
ATOM     74  C   UNL A   1      40.166  35.619  36.465  1.00  0.00     0.009 A 
ATOM     75  C   UNL A   1      38.776  34.041  37.660  1.00  0.00     0.009 A 
ATOM     76  C   UNL A   1      40.212  36.437  37.595  1.00  0.00     0.001 A 
ATOM     77  C   UNL A   1      38.794  34.880  38.777  1.00  0.00     0.001 A 
ATOM     78  C   UNL A   1      39.524  36.067  38.749  1.00  0.00     0.000 A 
ENDBRANCH  60  73
ENDBRANCH  34  35
ENDBRANCH  27  29
ENDBRANCH  26  27
ENDBRANCH  25  26
ENDBRANCH  24  25
ENDBRANCH  23  24
ENDBRANCH   1  23
TORSDOF 17
ENDMDL
