MODEL 1
REMARK VINA RESULT:     -10.8      0.000      0.000
REMARK SMILES Cc1cc(OCC(=O)N/C(=C/c2ccccc2Cl)C(=O)OCCOCCOC(=O)c2ccc(-c3c4nc(c(-c5ccccc5)c5ccc([nH]5)c(-c5ccccc5)c5nc(c(-c6ccccc6)c6ccc3[nH]6)C=C5)C=C4)cc2)cc(C)c1Cl
REMARK SMILES IDX 23 1 22 2 21 3 19 4 20 5 10 6 11 7 9 8 7 9 8 10 6 12 5 13
REMARK SMILES IDX 4 14 1 15 2 16 3 17 81 18 79 19 82 20 78 21 80 22 12 23
REMARK SMILES IDX 13 24 17 25 14 26 16 27 18 28 15 29 24 30 25 31 26 32 27 33
REMARK SMILES IDX 28 34 29 35 30 36 31 37 77 38 32 39 76 40 33 41 34 42 35 43
REMARK SMILES IDX 70 44 36 45 75 46 69 47 71 48 37 49 74 50 68 51 67 52 38 54
REMARK SMILES IDX 60 55 45 56 59 57 46 58 49 59 58 60 72 61 47 62 48 63 57 65
REMARK SMILES IDX 73 66 50 67 39 68 40 69 44 70 41 71 43 72 42 73 61 74 62 75
REMARK SMILES IDX 66 76 63 77 65 78 64 79 51 80 52 81 56 82 53 83 55 84 54 85
REMARK H PARENT 9 11 71 53 49 64
REMARK Flexibility Score: inf
ROOT
ATOM      1  C   UNL A   1      33.661  28.259  25.077  1.00  0.00     0.202 C 
ENDROOT
BRANCH   1   2
ATOM      2  C   UNL A   1      33.067  27.342  26.150  1.00  0.00     0.261 C 
BRANCH   2   3
ATOM      3  O   UNL A   1      32.714  26.067  25.616  1.00  0.00    -0.459 OA
BRANCH   3   4
ATOM      4  C   UNL A   1      31.445  25.681  25.880  1.00  0.00     0.354 C 
ATOM      5  O   UNL A   1      30.717  26.141  26.745  1.00  0.00    -0.244 OA
BRANCH   4   6
ATOM      6  C   UNL A   1      31.053  24.559  24.988  1.00  0.00     0.128 C 
ATOM      7  C   UNL A   1      30.492  24.859  23.795  1.00  0.00     0.043 C 
BRANCH   6   8
ATOM      8  N   UNL A   1      31.274  23.233  25.311  1.00  0.00    -0.317 N 
ATOM      9  C   UNL A   1      32.231  22.304  25.023  1.00  0.00     0.262 C 
ATOM     10  O   UNL A   1      32.072  21.188  25.542  1.00  0.00    -0.271 OA
ATOM     11  H   UNL A   1      30.567  22.869  25.891  1.00  0.00     0.170 HD
BRANCH   9  12
ATOM     12  C   UNL A   1      33.519  22.576  24.228  1.00  0.00     0.329 C 
BRANCH  12  13
ATOM     13  O   UNL A   1      34.507  23.458  24.699  1.00  0.00    -0.484 OA
BRANCH  13  14
ATOM     14  C   UNL A   1      35.706  22.911  25.048  1.00  0.00     0.120 A 
ATOM     15  C   UNL A   1      37.798  19.763  24.827  1.00  0.00     0.046 C 
ATOM     16  C   UNL A   1      37.402  21.179  25.135  1.00  0.00    -0.029 A 
ATOM     17  C   UNL A   1      36.112  21.608  24.782  1.00  0.00     0.051 A 
ATOM     18  C   UNL A   1      38.281  22.086  25.763  1.00  0.00     0.047 A 
ATOM     19  C   UNL A   1      37.872  23.398  26.049  1.00  0.00    -0.029 A 
ATOM     20  Cl  UNL A   1      39.885  21.579  26.185  1.00  0.00    -0.084 Cl
ATOM     21  C   UNL A   1      36.566  23.776  25.722  1.00  0.00     0.051 A 
ATOM     22  C   UNL A   1      38.775  24.421  26.676  1.00  0.00     0.046 C 
ENDBRANCH  13  14
ENDBRANCH  12  13
ENDBRANCH   9  12
ENDBRANCH   6   8
BRANCH   7  23
ATOM     23  C   UNL A   1      30.069  26.201  23.344  1.00  0.00    -0.005 A 
ATOM     24  C   UNL A   1      28.773  26.601  23.715  1.00  0.00     0.010 A 
ATOM     25  C   UNL A   1      30.864  27.108  22.621  1.00  0.00     0.048 A 
ATOM     26  C   UNL A   1      28.316  27.893  23.449  1.00  0.00     0.001 A 
ATOM     27  C   UNL A   1      30.422  28.418  22.403  1.00  0.00     0.021 A 
ATOM     28  Cl  UNL A   1      32.375  26.658  21.915  1.00  0.00    -0.084 Cl
ATOM     29  C   UNL A   1      29.154  28.813  22.825  1.00  0.00     0.002 A 
ENDBRANCH   7  23
ENDBRANCH   4   6
ENDBRANCH   3   4
ENDBRANCH   2   3
ENDBRANCH   1   2
BRANCH   1  30
ATOM     30  O   UNL A   1      32.886  29.370  24.635  1.00  0.00    -0.374 OA
BRANCH  30  31
ATOM     31  C   UNL A   1      31.730  29.758  25.378  1.00  0.00     0.202 C 
BRANCH  31  32
ATOM     32  C   UNL A   1      31.799  30.970  26.306  1.00  0.00     0.261 C 
BRANCH  32  33
ATOM     33  O   UNL A   1      32.722  30.801  27.391  1.00  0.00    -0.460 OA
BRANCH  33  34
ATOM     34  C   UNL A   1      33.582  31.832  27.556  1.00  0.00     0.338 C 
ATOM     35  O   UNL A   1      33.337  33.028  27.496  1.00  0.00    -0.246 OA
BRANCH  34  36
ATOM     36  C   UNL A   1      34.885  31.319  27.989  1.00  0.00     0.060 A 
ATOM     37  C   UNL A   1      34.997  29.952  28.270  1.00  0.00     0.016 A 
ATOM     38  C   UNL A   1      35.947  32.193  28.218  1.00  0.00     0.016 A 
ATOM     39  C   UNL A   1      36.172  29.456  28.820  1.00  0.00     0.010 A 
ATOM     40  C   UNL A   1      37.121  31.697  28.782  1.00  0.00     0.010 A 
ATOM     41  C   UNL A   1      37.224  30.334  29.111  1.00  0.00    -0.014 A 
BRANCH  41  42
ATOM     42  C   UNL A   1      38.393  29.848  29.871  1.00  0.00     0.031 A 
ATOM     43  C   UNL A   1      38.599  30.328  31.279  1.00  0.00     0.074 A 
ATOM     44  C   UNL A   1      39.249  28.984  29.302  1.00  0.00     0.049 A 
ATOM     45  N   UNL A   1      39.583  30.074  32.102  1.00  0.00    -0.248 NA
ATOM     46  C   UNL A   1      37.560  31.213  31.830  1.00  0.00     0.031 C 
ATOM     47  C   UNL A   1      39.112  28.419  27.960  1.00  0.00     0.029 A 
ATOM     48  N   UNL A   1      40.410  28.441  29.784  1.00  0.00    -0.354 N 
ATOM     49  C   UNL A   1      39.286  30.772  33.266  1.00  0.00     0.074 A 
ATOM     50  C   UNL A   1      38.046  31.481  33.034  1.00  0.00     0.031 C 
ATOM     51  C   UNL A   1      40.162  27.614  27.720  1.00  0.00     0.029 A 
ATOM     52  C   UNL A   1      41.054  27.638  28.877  1.00  0.00     0.049 A 
ATOM     53  H   UNL A   1      40.749  28.609  30.693  1.00  0.00     0.167 HD
ATOM     54  C   UNL A   1      39.986  30.814  34.424  1.00  0.00     0.031 A 
ATOM     55  C   UNL A   1      42.244  27.017  28.964  1.00  0.00     0.031 A 
ATOM     56  C   UNL A   1      41.228  30.120  34.636  1.00  0.00     0.049 A 
ATOM     57  C   UNL A   1      43.046  27.153  30.229  1.00  0.00     0.074 A 
ATOM     58  C   UNL A   1      42.010  30.077  35.776  1.00  0.00     0.029 A 
ATOM     59  N   UNL A   1      41.874  29.355  33.677  1.00  0.00    -0.354 N 
ATOM     60  N   UNL A   1      42.745  27.791  31.334  1.00  0.00    -0.248 NA
ATOM     61  C   UNL A   1      44.352  26.480  30.258  1.00  0.00     0.031 C 
ATOM     62  C   UNL A   1      43.161  29.336  35.487  1.00  0.00     0.029 A 
ATOM     63  C   UNL A   1      43.066  28.868  34.185  1.00  0.00     0.049 A 
ATOM     64  H   UNL A   1      41.536  29.183  32.768  1.00  0.00     0.167 HD
ATOM     65  C   UNL A   1      43.813  27.583  32.197  1.00  0.00     0.074 A 
ATOM     66  C   UNL A   1      44.760  26.742  31.492  1.00  0.00     0.031 C 
ATOM     67  C   UNL A   1      43.998  28.046  33.458  1.00  0.00     0.031 A 
BRANCH  54  68
ATOM     68  C   UNL A   1      39.443  31.671  35.532  1.00  0.00    -0.014 A 
ATOM     69  C   UNL A   1      39.889  32.988  35.725  1.00  0.00     0.009 A 
ATOM     70  C   UNL A   1      38.449  31.161  36.382  1.00  0.00     0.009 A 
ATOM     71  C   UNL A   1      39.373  33.765  36.764  1.00  0.00     0.001 A 
ATOM     72  C   UNL A   1      37.916  31.949  37.404  1.00  0.00     0.001 A 
ATOM     73  C   UNL A   1      38.384  33.246  37.599  1.00  0.00     0.000 A 
ENDBRANCH  54  68
BRANCH  55  74
ATOM     74  C   UNL A   1      42.761  26.238  27.811  1.00  0.00    -0.014 A 
ATOM     75  C   UNL A   1      43.557  26.849  26.831  1.00  0.00     0.009 A 
ATOM     76  C   UNL A   1      42.459  24.872  27.684  1.00  0.00     0.009 A 
ATOM     77  C   UNL A   1      44.020  26.114  25.737  1.00  0.00     0.001 A 
ATOM     78  C   UNL A   1      42.948  24.134  26.605  1.00  0.00     0.001 A 
ATOM     79  C   UNL A   1      43.720  24.757  25.628  1.00  0.00     0.000 A 
ENDBRANCH  55  74
BRANCH  67  80
ATOM     80  C   UNL A   1      45.266  27.640  34.155  1.00  0.00    -0.014 A 
ATOM     81  C   UNL A   1      45.344  26.437  34.874  1.00  0.00     0.009 A 
ATOM     82  C   UNL A   1      46.406  28.451  34.056  1.00  0.00     0.009 A 
ATOM     83  C   UNL A   1      46.533  26.072  35.509  1.00  0.00     0.001 A 
ATOM     84  C   UNL A   1      47.602  28.069  34.666  1.00  0.00     0.001 A 
ATOM     85  C   UNL A   1      47.661  26.885  35.400  1.00  0.00     0.000 A 
ENDBRANCH  67  80
ENDBRANCH  41  42
ENDBRANCH  34  36
ENDBRANCH  33  34
ENDBRANCH  32  33
ENDBRANCH  31  32
ENDBRANCH  30  31
ENDBRANCH   1  30
TORSDOF 19
ENDMDL
MODEL 2
REMARK VINA RESULT:     -10.5      0.687      5.784
REMARK SMILES Cc1cc(OCC(=O)N/C(=C/c2ccccc2Cl)C(=O)OCCOCCOC(=O)c2ccc(-c3c4nc(c(-c5ccccc5)c5ccc([nH]5)c(-c5ccccc5)c5nc(c(-c6ccccc6)c6ccc3[nH]6)C=C5)C=C4)cc2)cc(C)c1Cl
REMARK SMILES IDX 23 1 22 2 21 3 19 4 20 5 10 6 11 7 9 8 7 9 8 10 6 12 5 13
REMARK SMILES IDX 4 14 1 15 2 16 3 17 81 18 79 19 82 20 78 21 80 22 12 23
REMARK SMILES IDX 13 24 17 25 14 26 16 27 18 28 15 29 24 30 25 31 26 32 27 33
REMARK SMILES IDX 28 34 29 35 30 36 31 37 77 38 32 39 76 40 33 41 34 42 35 43
REMARK SMILES IDX 70 44 36 45 75 46 69 47 71 48 37 49 74 50 68 51 67 52 38 54
REMARK SMILES IDX 60 55 45 56 59 57 46 58 49 59 58 60 72 61 47 62 48 63 57 65
REMARK SMILES IDX 73 66 50 67 39 68 40 69 44 70 41 71 43 72 42 73 61 74 62 75
REMARK SMILES IDX 66 76 63 77 65 78 64 79 51 80 52 81 56 82 53 83 55 84 54 85
REMARK H PARENT 9 11 71 53 49 64
REMARK Flexibility Score: inf
ROOT
ATOM      1  C   UNL A   1      33.091  27.392  26.096  1.00  0.00     0.202 C 
ENDROOT
BRANCH   1   2
ATOM      2  C   UNL A   1      31.917  26.507  26.523  1.00  0.00     0.261 C 
BRANCH   2   3
ATOM      3  O   UNL A   1      32.105  25.151  26.119  1.00  0.00    -0.459 OA
BRANCH   3   4
ATOM      4  C   UNL A   1      30.972  24.414  26.086  1.00  0.00     0.354 C 
ATOM      5  O   UNL A   1      30.051  24.473  26.885  1.00  0.00    -0.244 OA
BRANCH   4   6
ATOM      6  C   UNL A   1      31.012  23.460  24.948  1.00  0.00     0.128 C 
ATOM      7  C   UNL A   1      30.860  23.952  23.698  1.00  0.00     0.043 C 
BRANCH   6   8
ATOM      8  N   UNL A   1      31.237  22.105  25.113  1.00  0.00    -0.317 N 
ATOM      9  C   UNL A   1      32.266  21.247  24.854  1.00  0.00     0.262 C 
ATOM     10  O   UNL A   1      32.077  20.065  25.180  1.00  0.00    -0.271 OA
ATOM     11  H   UNL A   1      30.465  21.647  25.516  1.00  0.00     0.170 HD
BRANCH   9  12
ATOM     12  C   UNL A   1      33.648  21.658  24.319  1.00  0.00     0.329 C 
BRANCH  12  13
ATOM     13  O   UNL A   1      34.317  22.800  24.796  1.00  0.00    -0.484 OA
BRANCH  13  14
ATOM     14  C   UNL A   1      35.639  22.658  25.098  1.00  0.00     0.120 A 
ATOM     15  C   UNL A   1      38.621  24.421  26.626  1.00  0.00     0.046 C 
ATOM     16  C   UNL A   1      37.783  23.341  26.001  1.00  0.00    -0.029 A 
ATOM     17  C   UNL A   1      36.448  23.630  25.676  1.00  0.00     0.051 A 
ATOM     18  C   UNL A   1      38.295  22.055  25.733  1.00  0.00     0.047 A 
ATOM     19  C   UNL A   1      37.488  21.074  25.134  1.00  0.00    -0.029 A 
ATOM     20  Cl  UNL A   1      39.935  21.676  26.149  1.00  0.00    -0.084 Cl
ATOM     21  C   UNL A   1      36.176  21.411  24.785  1.00  0.00     0.051 A 
ATOM     22  C   UNL A   1      37.962  19.675  24.863  1.00  0.00     0.046 C 
ENDBRANCH  13  14
ENDBRANCH  12  13
ENDBRANCH   9  12
ENDBRANCH   6   8
BRANCH   7  23
ATOM     23  C   UNL A   1      30.486  25.338  23.346  1.00  0.00    -0.005 A 
ATOM     24  C   UNL A   1      29.240  25.785  23.820  1.00  0.00     0.010 A 
ATOM     25  C   UNL A   1      31.287  26.241  22.625  1.00  0.00     0.048 A 
ATOM     26  C   UNL A   1      28.842  27.112  23.652  1.00  0.00     0.001 A 
ATOM     27  C   UNL A   1      30.908  27.583  22.504  1.00  0.00     0.021 A 
ATOM     28  Cl  UNL A   1      32.725  25.751  21.802  1.00  0.00    -0.084 Cl
ATOM     29  C   UNL A   1      29.691  28.020  23.026  1.00  0.00     0.002 A 
ENDBRANCH   7  23
ENDBRANCH   4   6
ENDBRANCH   3   4
ENDBRANCH   2   3
ENDBRANCH   1   2
BRANCH   1  30
ATOM     30  O   UNL A   1      32.814  28.546  25.308  1.00  0.00    -0.374 OA
BRANCH  30  31
ATOM     31  C   UNL A   1      31.725  29.396  25.668  1.00  0.00     0.202 C 
BRANCH  31  32
ATOM     32  C   UNL A   1      31.981  30.625  26.540  1.00  0.00     0.261 C 
BRANCH  32  33
ATOM     33  O   UNL A   1      33.299  31.166  26.384  1.00  0.00    -0.460 OA
BRANCH  33  34
ATOM     34  C   UNL A   1      33.698  31.963  27.401  1.00  0.00     0.338 C 
ATOM     35  O   UNL A   1      33.074  32.871  27.930  1.00  0.00    -0.246 OA
BRANCH  34  36
ATOM     36  C   UNL A   1      34.982  31.485  27.924  1.00  0.00     0.060 A 
ATOM     37  C   UNL A   1      35.056  30.168  28.393  1.00  0.00     0.016 A 
ATOM     38  C   UNL A   1      36.063  32.358  28.049  1.00  0.00     0.016 A 
ATOM     39  C   UNL A   1      36.210  29.726  29.027  1.00  0.00     0.010 A 
ATOM     40  C   UNL A   1      37.215  31.918  28.697  1.00  0.00     0.010 A 
ATOM     41  C   UNL A   1      37.279  30.612  29.214  1.00  0.00    -0.014 A 
BRANCH  41  42
ATOM     42  C   UNL A   1      38.424  30.209  30.054  1.00  0.00     0.031 A 
ATOM     43  C   UNL A   1      39.431  29.244  29.500  1.00  0.00     0.074 A 
ATOM     44  C   UNL A   1      38.553  30.710  31.293  1.00  0.00     0.049 A 
ATOM     45  N   UNL A   1      40.476  28.716  30.083  1.00  0.00    -0.248 NA
ATOM     46  C   UNL A   1      39.235  28.817  28.105  1.00  0.00     0.031 C 
ATOM     47  C   UNL A   1      37.658  31.690  31.907  1.00  0.00     0.029 A 
ATOM     48  N   UNL A   1      39.488  30.451  32.259  1.00  0.00    -0.354 N 
ATOM     49  C   UNL A   1      41.058  27.889  29.130  1.00  0.00     0.074 A 
ATOM     50  C   UNL A   1      40.237  27.964  27.942  1.00  0.00     0.031 C 
ATOM     51  C   UNL A   1      38.082  31.941  33.157  1.00  0.00     0.029 A 
ATOM     52  C   UNL A   1      39.254  31.115  33.437  1.00  0.00     0.049 A 
ATOM     53  H   UNL A   1      40.255  29.848  32.122  1.00  0.00     0.167 HD
ATOM     54  C   UNL A   1      42.179  27.138  29.239  1.00  0.00     0.031 A 
ATOM     55  C   UNL A   1      39.900  31.040  34.614  1.00  0.00     0.031 A 
ATOM     56  C   UNL A   1      42.977  27.056  30.433  1.00  0.00     0.049 A 
ATOM     57  C   UNL A   1      41.089  30.128  34.738  1.00  0.00     0.074 A 
ATOM     58  C   UNL A   1      44.142  26.342  30.646  1.00  0.00     0.029 A 
ATOM     59  N   UNL A   1      42.681  27.706  31.622  1.00  0.00    -0.354 N 
ATOM     60  N   UNL A   1      41.649  29.372  33.824  1.00  0.00    -0.248 NA
ATOM     61  C   UNL A   1      41.737  30.062  36.054  1.00  0.00     0.031 C 
ATOM     62  C   UNL A   1      44.517  26.511  31.984  1.00  0.00     0.029 A 
ATOM     63  C   UNL A   1      43.619  27.378  32.585  1.00  0.00     0.049 A 
ATOM     64  H   UNL A   1      41.917  28.311  31.760  1.00  0.00     0.167 HD
ATOM     65  C   UNL A   1      42.724  28.754  34.448  1.00  0.00     0.074 A 
ATOM     66  C   UNL A   1      42.750  29.241  35.813  1.00  0.00     0.031 C 
ATOM     67  C   UNL A   1      43.612  27.863  33.941  1.00  0.00     0.031 A 
BRANCH  54  68
ATOM     68  C   UNL A   1      42.581  26.314  28.048  1.00  0.00    -0.014 A 
ATOM     69  C   UNL A   1      43.444  26.821  27.064  1.00  0.00     0.009 A 
ATOM     70  C   UNL A   1      42.107  24.999  27.921  1.00  0.00     0.009 A 
ATOM     71  C   UNL A   1      43.800  26.039  25.964  1.00  0.00     0.001 A 
ATOM     72  C   UNL A   1      42.486  24.209  26.834  1.00  0.00     0.001 A 
ATOM     73  C   UNL A   1      43.325  24.732  25.852  1.00  0.00     0.000 A 
ENDBRANCH  54  68
BRANCH  55  74
ATOM     74  C   UNL A   1      39.417  31.828  35.777  1.00  0.00    -0.014 A 
ATOM     75  C   UNL A   1      40.002  33.060  36.102  1.00  0.00     0.009 A 
ATOM     76  C   UNL A   1      38.362  31.347  36.570  1.00  0.00     0.009 A 
ATOM     77  C   UNL A   1      39.557  33.783  37.211  1.00  0.00     0.001 A 
ATOM     78  C   UNL A   1      37.900  32.087  37.661  1.00  0.00     0.001 A 
ATOM     79  C   UNL A   1      38.503  33.299  37.985  1.00  0.00     0.000 A 
ENDBRANCH  55  74
BRANCH  67  80
ATOM     80  C   UNL A   1      44.688  27.370  34.867  1.00  0.00    -0.014 A 
ATOM     81  C   UNL A   1      45.899  28.066  35.007  1.00  0.00     0.009 A 
ATOM     82  C   UNL A   1      44.471  26.218  35.638  1.00  0.00     0.009 A 
ATOM     83  C   UNL A   1      46.884  27.597  35.877  1.00  0.00     0.001 A 
ATOM     84  C   UNL A   1      45.445  25.769  36.530  1.00  0.00     0.001 A 
ATOM     85  C   UNL A   1      46.655  26.453  36.641  1.00  0.00     0.000 A 
ENDBRANCH  67  80
ENDBRANCH  41  42
ENDBRANCH  34  36
ENDBRANCH  33  34
ENDBRANCH  32  33
ENDBRANCH  31  32
ENDBRANCH  30  31
ENDBRANCH   1  30
TORSDOF 19
ENDMDL
MODEL 3
REMARK VINA RESULT:     -10.5      3.589      8.869
REMARK SMILES Cc1cc(OCC(=O)N/C(=C/c2ccccc2Cl)C(=O)OCCOCCOC(=O)c2ccc(-c3c4nc(c(-c5ccccc5)c5ccc([nH]5)c(-c5ccccc5)c5nc(c(-c6ccccc6)c6ccc3[nH]6)C=C5)C=C4)cc2)cc(C)c1Cl
REMARK SMILES IDX 23 1 22 2 21 3 19 4 20 5 10 6 11 7 9 8 7 9 8 10 6 12 5 13
REMARK SMILES IDX 4 14 1 15 2 16 3 17 81 18 79 19 82 20 78 21 80 22 12 23
REMARK SMILES IDX 13 24 17 25 14 26 16 27 18 28 15 29 24 30 25 31 26 32 27 33
REMARK SMILES IDX 28 34 29 35 30 36 31 37 77 38 32 39 76 40 33 41 34 42 35 43
REMARK SMILES IDX 70 44 36 45 75 46 69 47 71 48 37 49 74 50 68 51 67 52 38 54
REMARK SMILES IDX 60 55 45 56 59 57 46 58 49 59 58 60 72 61 47 62 48 63 57 65
REMARK SMILES IDX 73 66 50 67 39 68 40 69 44 70 41 71 43 72 42 73 61 74 62 75
REMARK SMILES IDX 66 76 63 77 65 78 64 79 51 80 52 81 56 82 53 83 55 84 54 85
REMARK H PARENT 9 11 71 53 49 64
REMARK Flexibility Score: inf
ROOT
ATOM      1  C   UNL A   1      37.593  21.883  25.722  1.00  0.00     0.202 C 
ENDROOT
BRANCH   1   2
ATOM      2  C   UNL A   1      36.491  21.095  25.009  1.00  0.00     0.261 C 
BRANCH   2   3
ATOM      3  O   UNL A   1      35.262  21.135  25.734  1.00  0.00    -0.459 OA
BRANCH   3   4
ATOM      4  C   UNL A   1      34.182  21.463  24.989  1.00  0.00     0.354 C 
ATOM      5  O   UNL A   1      34.196  22.046  23.917  1.00  0.00    -0.244 OA
BRANCH   4   6
ATOM      6  C   UNL A   1      32.934  21.051  25.683  1.00  0.00     0.128 C 
ATOM      7  C   UNL A   1      32.523  19.770  25.548  1.00  0.00     0.043 C 
BRANCH   6   8
ATOM      8  N   UNL A   1      32.207  21.909  26.487  1.00  0.00    -0.317 N 
ATOM      9  C   UNL A   1      31.399  22.990  26.284  1.00  0.00     0.262 C 
ATOM     10  O   UNL A   1      30.899  23.488  27.304  1.00  0.00    -0.271 OA
ATOM     11  H   UNL A   1      32.293  21.685  27.442  1.00  0.00     0.170 HD
BRANCH   9  12
ATOM     12  C   UNL A   1      30.979  23.535  24.908  1.00  0.00     0.329 C 
BRANCH  12  13
ATOM     13  O   UNL A   1      30.252  24.731  24.777  1.00  0.00    -0.484 OA
BRANCH  13  14
ATOM     14  C   UNL A   1      30.927  25.892  25.009  1.00  0.00     0.120 A 
ATOM     15  C   UNL A   1      31.645  28.528  27.630  1.00  0.00     0.046 C 
ATOM     16  C   UNL A   1      31.699  27.772  26.333  1.00  0.00    -0.029 A 
ATOM     17  C   UNL A   1      30.905  26.621  26.192  1.00  0.00     0.051 A 
ATOM     18  C   UNL A   1      32.518  28.179  25.260  1.00  0.00     0.047 A 
ATOM     19  C   UNL A   1      32.532  27.456  24.055  1.00  0.00    -0.029 A 
ATOM     20  Cl  UNL A   1      33.520  29.584  25.425  1.00  0.00    -0.084 Cl
ATOM     21  C   UNL A   1      31.696  26.341  23.937  1.00  0.00     0.051 A 
ATOM     22  C   UNL A   1      33.413  27.815  22.894  1.00  0.00     0.046 C 
ENDBRANCH  13  14
ENDBRANCH  12  13
ENDBRANCH   9  12
ENDBRANCH   6   8
BRANCH   7  23
ATOM     23  C   UNL A   1      33.099  18.761  24.635  1.00  0.00    -0.005 A 
ATOM     24  C   UNL A   1      33.957  17.813  25.220  1.00  0.00     0.010 A 
ATOM     25  C   UNL A   1      32.824  18.652  23.261  1.00  0.00     0.048 A 
ATOM     26  C   UNL A   1      34.458  16.743  24.476  1.00  0.00     0.001 A 
ATOM     27  C   UNL A   1      33.286  17.550  22.532  1.00  0.00     0.021 A 
ATOM     28  Cl  UNL A   1      31.975  19.876  22.385  1.00  0.00    -0.084 Cl
ATOM     29  C   UNL A   1      34.094  16.592  23.142  1.00  0.00     0.002 A 
ENDBRANCH   7  23
ENDBRANCH   4   6
ENDBRANCH   3   4
ENDBRANCH   2   3
ENDBRANCH   1   2
BRANCH   1  30
ATOM     30  O   UNL A   1      38.927  21.389  25.652  1.00  0.00    -0.374 OA
BRANCH  30  31
ATOM     31  C   UNL A   1      39.151  20.014  25.339  1.00  0.00     0.202 C 
BRANCH  31  32
ATOM     32  C   UNL A   1      40.276  19.252  26.038  1.00  0.00     0.261 C 
BRANCH  32  33
ATOM     33  O   UNL A   1      41.506  19.255  25.299  1.00  0.00    -0.460 OA
BRANCH  33  34
ATOM     34  C   UNL A   1      42.597  19.559  26.037  1.00  0.00     0.338 C 
ATOM     35  O   UNL A   1      43.602  18.882  26.203  1.00  0.00    -0.246 OA
BRANCH  34  36
ATOM     36  C   UNL A   1      42.493  20.939  26.520  1.00  0.00     0.060 A 
ATOM     37  C   UNL A   1      42.747  21.977  25.617  1.00  0.00     0.016 A 
ATOM     38  C   UNL A   1      42.257  21.198  27.871  1.00  0.00     0.016 A 
ATOM     39  C   UNL A   1      42.801  23.288  26.071  1.00  0.00     0.010 A 
ATOM     40  C   UNL A   1      42.324  22.513  28.328  1.00  0.00     0.010 A 
ATOM     41  C   UNL A   1      42.626  23.556  27.434  1.00  0.00    -0.014 A 
BRANCH  41  42
ATOM     42  C   UNL A   1      42.874  24.917  27.951  1.00  0.00     0.031 A 
ATOM     43  C   UNL A   1      44.267  25.297  28.363  1.00  0.00     0.074 A 
ATOM     44  C   UNL A   1      41.862  25.794  28.039  1.00  0.00     0.049 A 
ATOM     45  N   UNL A   1      44.694  26.413  28.893  1.00  0.00    -0.248 NA
ATOM     46  C   UNL A   1      45.315  24.285  28.152  1.00  0.00     0.031 C 
ATOM     47  C   UNL A   1      40.484  25.540  27.619  1.00  0.00     0.029 A 
ATOM     48  N   UNL A   1      41.839  27.074  28.523  1.00  0.00    -0.354 N 
ATOM     49  C   UNL A   1      46.059  26.237  29.086  1.00  0.00     0.074 A 
ATOM     50  C   UNL A   1      46.382  24.899  28.642  1.00  0.00     0.031 C 
ATOM     51  C   UNL A   1      39.744  26.633  27.877  1.00  0.00     0.029 A 
ATOM     52  C   UNL A   1      40.590  27.641  28.509  1.00  0.00     0.049 A 
ATOM     53  H   UNL A   1      42.642  27.543  28.850  1.00  0.00     0.167 HD
ATOM     54  C   UNL A   1      46.959  27.116  29.586  1.00  0.00     0.031 A 
ATOM     55  C   UNL A   1      40.176  28.832  28.980  1.00  0.00     0.031 A 
ATOM     56  C   UNL A   1      46.621  28.438  30.042  1.00  0.00     0.049 A 
ATOM     57  C   UNL A   1      41.179  29.755  29.614  1.00  0.00     0.074 A 
ATOM     58  C   UNL A   1      47.457  29.417  30.548  1.00  0.00     0.029 A 
ATOM     59  N   UNL A   1      45.337  28.960  30.056  1.00  0.00    -0.354 N 
ATOM     60  N   UNL A   1      42.472  29.591  29.767  1.00  0.00    -0.248 NA
ATOM     61  C   UNL A   1      40.667  31.027  30.139  1.00  0.00     0.031 C 
ATOM     62  C   UNL A   1      46.669  30.509  30.926  1.00  0.00     0.029 A 
ATOM     63  C   UNL A   1      45.350  30.233  30.600  1.00  0.00     0.049 A 
ATOM     64  H   UNL A   1      44.533  28.494  29.729  1.00  0.00     0.167 HD
ATOM     65  C   UNL A   1      42.930  30.745  30.388  1.00  0.00     0.074 A 
ATOM     66  C   UNL A   1      41.780  31.608  30.565  1.00  0.00     0.031 C 
ATOM     67  C   UNL A   1      44.189  31.065  30.779  1.00  0.00     0.031 A 
BRANCH  54  68
ATOM     68  C   UNL A   1      48.385  26.657  29.703  1.00  0.00    -0.014 A 
ATOM     69  C   UNL A   1      49.318  26.897  28.682  1.00  0.00     0.009 A 
ATOM     70  C   UNL A   1      48.809  25.997  30.867  1.00  0.00     0.009 A 
ATOM     71  C   UNL A   1      50.637  26.457  28.811  1.00  0.00     0.001 A 
ATOM     72  C   UNL A   1      50.135  25.582  31.005  1.00  0.00     0.001 A 
ATOM     73  C   UNL A   1      51.045  25.805  29.974  1.00  0.00     0.000 A 
ENDBRANCH  54  68
BRANCH  55  74
ATOM     74  C   UNL A   1      38.741  29.203  28.897  1.00  0.00    -0.014 A 
ATOM     75  C   UNL A   1      38.211  29.762  27.724  1.00  0.00     0.009 A 
ATOM     76  C   UNL A   1      37.890  29.000  29.996  1.00  0.00     0.009 A 
ATOM     77  C   UNL A   1      36.865  30.130  27.662  1.00  0.00     0.001 A 
ATOM     78  C   UNL A   1      36.538  29.342  29.920  1.00  0.00     0.001 A 
ATOM     79  C   UNL A   1      36.029  29.915  28.757  1.00  0.00     0.000 A 
ENDBRANCH  55  74
BRANCH  67  80
ATOM     80  C   UNL A   1      44.382  32.407  31.425  1.00  0.00    -0.014 A 
ATOM     81  C   UNL A   1      44.315  32.557  32.820  1.00  0.00     0.009 A 
ATOM     82  C   UNL A   1      44.674  33.528  30.633  1.00  0.00     0.009 A 
ATOM     83  C   UNL A   1      44.504  33.811  33.403  1.00  0.00     0.001 A 
ATOM     84  C   UNL A   1      44.893  34.774  31.221  1.00  0.00     0.001 A 
ATOM     85  C   UNL A   1      44.798  34.916  32.605  1.00  0.00     0.000 A 
ENDBRANCH  67  80
ENDBRANCH  41  42
ENDBRANCH  34  36
ENDBRANCH  33  34
ENDBRANCH  32  33
ENDBRANCH  31  32
ENDBRANCH  30  31
ENDBRANCH   1  30
TORSDOF 19
ENDMDL
