MODEL 1
REMARK VINA RESULT:     -11.5      0.000      0.000
REMARK SMILES Nn1c(S[C@@H](C(=O)OCCOCCOC(=O)c2ccc(-c3c4nc(c(-c5ccccc5)c5ccc([nH]5)c(-c5ccccc5)c5nc(c(-c6ccccc6)c6ccc3[nH]6)C=C5)C=C4)cc2)c2ccccc2)nc2ccc(Br)cc2c1=O
REMARK SMILES IDX 10 1 9 2 8 3 6 4 7 5 5 6 4 7 3 8 2 9 79 10 71 11 78 12 80 13
REMARK SMILES IDX 72 14 77 15 73 16 75 17 74 18 76 19 1 20 65 23 66 24 70 25
REMARK SMILES IDX 67 26 69 27 68 28 11 29 12 30 13 31 14 32 15 33 16 34 17 35
REMARK SMILES IDX 18 36 64 37 19 38 63 39 20 40 21 41 22 42 57 43 23 44 62 45
REMARK SMILES IDX 56 46 58 47 24 48 61 49 55 50 54 51 25 53 47 54 32 55 46 56
REMARK SMILES IDX 33 57 36 58 45 59 59 60 34 61 35 62 44 64 60 65 37 66 26 67
REMARK SMILES IDX 27 68 31 69 28 70 30 71 29 72 48 73 49 74 53 75 50 76 52 77
REMARK SMILES IDX 51 78 38 79 39 80 43 81 40 82 42 83 41 84
REMARK H PARENT 1 21 1 22 58 52 36 63
REMARK Flexibility Score: inf
ROOT
ATOM      1  C   UNL A   1      31.902  30.379  25.941  1.00  0.00     0.202 C 
ENDROOT
BRANCH   1   2
ATOM      2  C   UNL A   1      32.096  28.873  26.183  1.00  0.00     0.261 C 
BRANCH   2   3
ATOM      3  O   UNL A   1      32.380  28.099  24.992  1.00  0.00    -0.462 OA
BRANCH   3   4
ATOM      4  C   UNL A   1      31.792  28.570  23.851  1.00  0.00     0.324 C 
ATOM      5  O   UNL A   1      32.452  29.051  22.929  1.00  0.00    -0.251 OA
BRANCH   4   6
ATOM      6  C   UNL A   1      30.253  28.494  23.787  1.00  0.00     0.194 C 
BRANCH   6   7
ATOM      7  S   UNL A   1      29.546  26.846  23.581  1.00  0.00    -0.066 SA
BRANCH   7   8
ATOM      8  C   UNL A   1      30.371  25.479  24.299  1.00  0.00     0.191 A 
ATOM      9  N   UNL A   1      30.537  25.212  25.660  1.00  0.00    -0.202 N 
ATOM     10  C   UNL A   1      30.975  23.964  26.127  1.00  0.00     0.280 A 
ATOM     11  N   UNL A   1      30.783  24.633  23.398  1.00  0.00    -0.222 NA
ATOM     12  C   UNL A   1      31.400  23.000  25.112  1.00  0.00     0.069 A 
ATOM     13  O   UNL A   1      30.976  23.655  27.318  1.00  0.00    -0.267 OA
ATOM     14  C   UNL A   1      31.357  23.413  23.785  1.00  0.00     0.079 A 
ATOM     15  C   UNL A   1      31.834  21.722  25.480  1.00  0.00     0.031 A 
ATOM     16  C   UNL A   1      31.835  22.537  22.807  1.00  0.00     0.030 A 
ATOM     17  C   UNL A   1      32.281  20.855  24.490  1.00  0.00     0.018 A 
ATOM     18  C   UNL A   1      32.304  21.264  23.157  1.00  0.00     0.018 A 
ATOM     19  Br  UNL A   1      32.859  19.119  24.959  1.00  0.00    -0.051 Br
BRANCH   9  20
ATOM     20  N   UNL A   1      30.299  26.139  26.674  1.00  0.00    -0.334 N 
ATOM     21  H   UNL A   1      30.537  27.085  26.539  1.00  0.00     0.178 HD
ATOM     22  H   UNL A   1      29.894  25.848  27.522  1.00  0.00     0.178 HD
ENDBRANCH   9  20
ENDBRANCH   7   8
ENDBRANCH   6   7
BRANCH   6  23
ATOM     23  C   UNL A   1      29.540  29.667  23.119  1.00  0.00    -0.023 A 
ATOM     24  C   UNL A   1      29.175  29.657  21.756  1.00  0.00     0.005 A 
ATOM     25  C   UNL A   1      29.156  30.783  23.888  1.00  0.00     0.005 A 
ATOM     26  C   UNL A   1      28.353  30.654  21.223  1.00  0.00     0.000 A 
ATOM     27  C   UNL A   1      28.329  31.774  23.354  1.00  0.00     0.000 A 
ATOM     28  C   UNL A   1      27.908  31.696  22.031  1.00  0.00     0.000 A 
ENDBRANCH   6  23
ENDBRANCH   4   6
ENDBRANCH   3   4
ENDBRANCH   2   3
ENDBRANCH   1   2
BRANCH   1  29
ATOM     29  O   UNL A   1      32.330  31.291  26.948  1.00  0.00    -0.374 OA
BRANCH  29  30
ATOM     30  C   UNL A   1      31.796  32.605  26.902  1.00  0.00     0.202 C 
BRANCH  30  31
ATOM     31  C   UNL A   1      32.702  33.778  27.287  1.00  0.00     0.261 C 
BRANCH  31  32
ATOM     32  O   UNL A   1      32.293  34.489  28.448  1.00  0.00    -0.460 OA
BRANCH  32  33
ATOM     33  C   UNL A   1      33.229  35.337  28.929  1.00  0.00     0.338 C 
ATOM     34  O   UNL A   1      33.125  36.533  29.149  1.00  0.00    -0.246 OA
BRANCH  33  35
ATOM     35  C   UNL A   1      34.382  34.532  29.326  1.00  0.00     0.060 A 
ATOM     36  C   UNL A   1      35.601  34.651  28.656  1.00  0.00     0.016 A 
ATOM     37  C   UNL A   1      34.213  33.644  30.393  1.00  0.00     0.016 A 
ATOM     38  C   UNL A   1      36.679  33.884  29.087  1.00  0.00     0.010 A 
ATOM     39  C   UNL A   1      35.290  32.881  30.820  1.00  0.00     0.010 A 
ATOM     40  C   UNL A   1      36.532  33.018  30.185  1.00  0.00    -0.014 A 
BRANCH  40  41
ATOM     41  C   UNL A   1      37.712  32.360  30.780  1.00  0.00     0.031 A 
ATOM     42  C   UNL A   1      38.354  32.899  32.017  1.00  0.00     0.074 A 
ATOM     43  C   UNL A   1      38.221  31.294  30.136  1.00  0.00     0.049 A 
ATOM     44  N   UNL A   1      39.399  32.443  32.658  1.00  0.00    -0.248 NA
ATOM     45  C   UNL A   1      37.760  34.107  32.613  1.00  0.00     0.031 C 
ATOM     46  C   UNL A   1      37.668  30.718  28.905  1.00  0.00     0.029 A 
ATOM     47  N   UNL A   1      39.303  30.503  30.416  1.00  0.00    -0.354 N 
ATOM     48  C   UNL A   1      39.580  33.294  33.738  1.00  0.00     0.074 A 
ATOM     49  C   UNL A   1      38.568  34.324  33.644  1.00  0.00     0.031 C 
ATOM     50  C   UNL A   1      38.393  29.645  28.559  1.00  0.00     0.029 A 
ATOM     51  C   UNL A   1      39.487  29.486  29.510  1.00  0.00     0.049 A 
ATOM     52  H   UNL A   1      39.892  30.649  31.191  1.00  0.00     0.167 HD
ATOM     53  C   UNL A   1      40.501  33.202  34.724  1.00  0.00     0.031 A 
ATOM     54  C   UNL A   1      40.434  28.531  29.453  1.00  0.00     0.031 A 
ATOM     55  C   UNL A   1      41.509  32.175  34.784  1.00  0.00     0.049 A 
ATOM     56  C   UNL A   1      41.476  28.491  30.535  1.00  0.00     0.074 A 
ATOM     57  C   UNL A   1      42.475  31.979  35.754  1.00  0.00     0.029 A 
ATOM     58  N   UNL A   1      41.684  31.177  33.835  1.00  0.00    -0.354 N 
ATOM     59  N   UNL A   1      41.596  29.261  31.589  1.00  0.00    -0.248 NA
ATOM     60  C   UNL A   1      42.502  27.446  30.433  1.00  0.00     0.031 C 
ATOM     61  C   UNL A   1      43.280  30.912  35.357  1.00  0.00     0.029 A 
ATOM     62  C   UNL A   1      42.762  30.382  34.185  1.00  0.00     0.049 A 
ATOM     63  H   UNL A   1      41.126  31.053  33.034  1.00  0.00     0.167 HD
ATOM     64  C   UNL A   1      42.690  28.775  32.293  1.00  0.00     0.074 A 
ATOM     65  C   UNL A   1      43.185  27.632  31.555  1.00  0.00     0.031 C 
ATOM     66  C   UNL A   1      43.234  29.238  33.445  1.00  0.00     0.031 A 
BRANCH  53  67
ATOM     67  C   UNL A   1      40.470  34.213  35.836  1.00  0.00    -0.014 A 
ATOM     68  C   UNL A   1      39.655  33.997  36.960  1.00  0.00     0.009 A 
ATOM     69  C   UNL A   1      41.130  35.446  35.707  1.00  0.00     0.009 A 
ATOM     70  C   UNL A   1      39.475  35.003  37.912  1.00  0.00     0.001 A 
ATOM     71  C   UNL A   1      40.972  36.439  36.676  1.00  0.00     0.001 A 
ATOM     72  C   UNL A   1      40.133  36.223  37.768  1.00  0.00     0.000 A 
ENDBRANCH  53  67
BRANCH  54  73
ATOM     73  C   UNL A   1      40.402  27.524  28.358  1.00  0.00    -0.014 A 
ATOM     74  C   UNL A   1      39.720  26.305  28.519  1.00  0.00     0.009 A 
ATOM     75  C   UNL A   1      41.096  27.753  27.161  1.00  0.00     0.009 A 
ATOM     76  C   UNL A   1      39.755  25.332  27.519  1.00  0.00     0.001 A 
ATOM     77  C   UNL A   1      41.096  26.794  26.145  1.00  0.00     0.001 A 
ATOM     78  C   UNL A   1      40.435  25.580  26.329  1.00  0.00     0.000 A 
ENDBRANCH  54  73
BRANCH  66  79
ATOM     79  C   UNL A   1      44.417  28.501  34.013  1.00  0.00    -0.014 A 
ATOM     80  C   UNL A   1      44.208  27.438  34.907  1.00  0.00     0.009 A 
ATOM     81  C   UNL A   1      45.728  28.935  33.768  1.00  0.00     0.009 A 
ATOM     82  C   UNL A   1      45.282  26.846  35.569  1.00  0.00     0.001 A 
ATOM     83  C   UNL A   1      46.805  28.313  34.402  1.00  0.00     0.001 A 
ATOM     84  C   UNL A   1      46.581  27.281  35.313  1.00  0.00     0.000 A 
ENDBRANCH  66  79
ENDBRANCH  40  41
ENDBRANCH  33  35
ENDBRANCH  32  33
ENDBRANCH  31  32
ENDBRANCH  30  31
ENDBRANCH  29  30
ENDBRANCH   1  29
TORSDOF 18
ENDMDL
MODEL 2
REMARK VINA RESULT:     -11.5      0.943      5.932
REMARK SMILES Nn1c(S[C@@H](C(=O)OCCOCCOC(=O)c2ccc(-c3c4nc(c(-c5ccccc5)c5ccc([nH]5)c(-c5ccccc5)c5nc(c(-c6ccccc6)c6ccc3[nH]6)C=C5)C=C4)cc2)c2ccccc2)nc2ccc(Br)cc2c1=O
REMARK SMILES IDX 10 1 9 2 8 3 6 4 7 5 5 6 4 7 3 8 2 9 79 10 71 11 78 12 80 13
REMARK SMILES IDX 72 14 77 15 73 16 75 17 74 18 76 19 1 20 65 23 66 24 70 25
REMARK SMILES IDX 67 26 69 27 68 28 11 29 12 30 13 31 14 32 15 33 16 34 17 35
REMARK SMILES IDX 18 36 64 37 19 38 63 39 20 40 21 41 22 42 57 43 23 44 62 45
REMARK SMILES IDX 56 46 58 47 24 48 61 49 55 50 54 51 25 53 47 54 32 55 46 56
REMARK SMILES IDX 33 57 36 58 45 59 59 60 34 61 35 62 44 64 60 65 37 66 26 67
REMARK SMILES IDX 27 68 31 69 28 70 30 71 29 72 48 73 49 74 53 75 50 76 52 77
REMARK SMILES IDX 51 78 38 79 39 80 43 81 40 82 42 83 41 84
REMARK H PARENT 1 21 1 22 58 52 36 63
REMARK Flexibility Score: inf
ROOT
ATOM      1  C   UNL A   1      33.031  30.208  26.429  1.00  0.00     0.202 C 
ENDROOT
BRANCH   1   2
ATOM      2  C   UNL A   1      32.098  29.054  26.029  1.00  0.00     0.261 C 
BRANCH   2   3
ATOM      3  O   UNL A   1      32.493  28.344  24.830  1.00  0.00    -0.462 OA
BRANCH   3   4
ATOM      4  C   UNL A   1      31.803  28.696  23.704  1.00  0.00     0.324 C 
ATOM      5  O   UNL A   1      32.375  29.081  22.683  1.00  0.00    -0.251 OA
BRANCH   4   6
ATOM      6  C   UNL A   1      30.265  28.615  23.785  1.00  0.00     0.194 C 
BRANCH   6   7
ATOM      7  S   UNL A   1      29.541  26.978  23.553  1.00  0.00    -0.066 SA
BRANCH   7   8
ATOM      8  C   UNL A   1      30.608  25.611  23.312  1.00  0.00     0.191 A 
ATOM      9  N   UNL A   1      31.575  25.460  22.317  1.00  0.00    -0.202 N 
ATOM     10  C   UNL A   1      32.551  24.454  22.371  1.00  0.00     0.280 A 
ATOM     11  N   UNL A   1      30.467  24.715  24.247  1.00  0.00    -0.222 NA
ATOM     12  C   UNL A   1      32.414  23.471  23.446  1.00  0.00     0.069 A 
ATOM     13  O   UNL A   1      33.505  24.400  21.595  1.00  0.00    -0.267 OA
ATOM     14  C   UNL A   1      31.322  23.604  24.295  1.00  0.00     0.079 A 
ATOM     15  C   UNL A   1      33.352  22.442  23.594  1.00  0.00     0.031 A 
ATOM     16  C   UNL A   1      31.128  22.629  25.276  1.00  0.00     0.030 A 
ATOM     17  C   UNL A   1      33.156  21.497  24.593  1.00  0.00     0.018 A 
ATOM     18  C   UNL A   1      32.037  21.572  25.422  1.00  0.00     0.018 A 
ATOM     19  Br  UNL A   1      34.413  20.106  24.824  1.00  0.00    -0.051 Br
BRANCH   9  20
ATOM     20  N   UNL A   1      31.665  26.268  21.183  1.00  0.00    -0.334 N 
ATOM     21  H   UNL A   1      30.970  26.944  21.006  1.00  0.00     0.178 HD
ATOM     22  H   UNL A   1      32.422  26.164  20.562  1.00  0.00     0.178 HD
ENDBRANCH   9  20
ENDBRANCH   7   8
ENDBRANCH   6   7
BRANCH   6  23
ATOM     23  C   UNL A   1      29.490  29.822  23.258  1.00  0.00    -0.023 A 
ATOM     24  C   UNL A   1      29.397  31.035  23.971  1.00  0.00     0.005 A 
ATOM     25  C   UNL A   1      28.899  29.770  21.980  1.00  0.00     0.005 A 
ATOM     26  C   UNL A   1      28.854  32.178  23.380  1.00  0.00     0.000 A 
ATOM     27  C   UNL A   1      28.363  30.915  21.389  1.00  0.00     0.000 A 
ATOM     28  C   UNL A   1      28.363  32.124  22.079  1.00  0.00     0.000 A 
ENDBRANCH   6  23
ENDBRANCH   4   6
ENDBRANCH   3   4
ENDBRANCH   2   3
ENDBRANCH   1   2
BRANCH   1  29
ATOM     29  O   UNL A   1      32.574  31.147  27.399  1.00  0.00    -0.374 OA
BRANCH  29  30
ATOM     30  C   UNL A   1      31.815  32.250  26.926  1.00  0.00     0.202 C 
BRANCH  30  31
ATOM     31  C   UNL A   1      32.347  33.665  27.174  1.00  0.00     0.261 C 
BRANCH  31  32
ATOM     32  O   UNL A   1      32.332  34.075  28.536  1.00  0.00    -0.460 OA
BRANCH  32  33
ATOM     33  C   UNL A   1      33.294  34.969  28.849  1.00  0.00     0.338 C 
ATOM     34  O   UNL A   1      33.194  36.181  28.961  1.00  0.00    -0.246 OA
BRANCH  33  35
ATOM     35  C   UNL A   1      34.488  34.213  29.220  1.00  0.00     0.060 A 
ATOM     36  C   UNL A   1      35.684  34.380  28.521  1.00  0.00     0.016 A 
ATOM     37  C   UNL A   1      34.380  33.320  30.290  1.00  0.00     0.016 A 
ATOM     38  C   UNL A   1      36.803  33.657  28.926  1.00  0.00     0.010 A 
ATOM     39  C   UNL A   1      35.497  32.601  30.692  1.00  0.00     0.010 A 
ATOM     40  C   UNL A   1      36.717  32.787  30.028  1.00  0.00    -0.014 A 
BRANCH  40  41
ATOM     41  C   UNL A   1      37.937  32.179  30.595  1.00  0.00     0.031 A 
ATOM     42  C   UNL A   1      38.505  30.918  30.028  1.00  0.00     0.074 A 
ATOM     43  C   UNL A   1      38.482  32.769  31.674  1.00  0.00     0.049 A 
ATOM     44  N   UNL A   1      39.563  30.255  30.416  1.00  0.00    -0.248 NA
ATOM     45  C   UNL A   1      37.800  30.316  28.885  1.00  0.00     0.031 C 
ATOM     46  C   UNL A   1      37.974  33.991  32.307  1.00  0.00     0.029 A 
ATOM     47  N   UNL A   1      39.576  32.435  32.428  1.00  0.00    -0.354 N 
ATOM     48  C   UNL A   1      39.661  29.167  29.561  1.00  0.00     0.074 A 
ATOM     49  C   UNL A   1      38.530  29.230  28.661  1.00  0.00     0.031 C 
ATOM     50  C   UNL A   1      38.775  34.322  33.328  1.00  0.00     0.029 A 
ATOM     51  C   UNL A   1      39.822  33.315  33.455  1.00  0.00     0.049 A 
ATOM     52  H   UNL A   1      40.131  31.642  32.251  1.00  0.00     0.167 HD
ATOM     53  C   UNL A   1      40.624  28.219  29.529  1.00  0.00     0.031 A 
ATOM     54  C   UNL A   1      40.785  33.308  34.395  1.00  0.00     0.031 A 
ATOM     55  C   UNL A   1      41.731  28.172  30.450  1.00  0.00     0.049 A 
ATOM     56  C   UNL A   1      41.808  32.209  34.364  1.00  0.00     0.074 A 
ATOM     57  C   UNL A   1      42.774  27.264  30.487  1.00  0.00     0.029 A 
ATOM     58  N   UNL A   1      41.934  29.061  31.495  1.00  0.00    -0.354 N 
ATOM     59  N   UNL A   1      41.930  31.223  33.508  1.00  0.00    -0.248 NA
ATOM     60  C   UNL A   1      42.835  32.224  35.413  1.00  0.00     0.031 C 
ATOM     61  C   UNL A   1      43.567  27.559  31.597  1.00  0.00     0.029 A 
ATOM     62  C   UNL A   1      43.072  28.705  32.199  1.00  0.00     0.049 A 
ATOM     63  H   UNL A   1      41.357  29.831  31.703  1.00  0.00     0.167 HD
ATOM     64  C   UNL A   1      43.063  30.520  33.894  1.00  0.00     0.074 A 
ATOM     65  C   UNL A   1      43.604  31.205  35.050  1.00  0.00     0.031 C 
ATOM     66  C   UNL A   1      43.603  29.407  33.341  1.00  0.00     0.031 A 
BRANCH  53  67
ATOM     67  C   UNL A   1      40.557  27.159  28.465  1.00  0.00    -0.014 A 
ATOM     68  C   UNL A   1      41.179  27.370  27.223  1.00  0.00     0.009 A 
ATOM     69  C   UNL A   1      39.756  26.018  28.635  1.00  0.00     0.009 A 
ATOM     70  C   UNL A   1      40.975  26.480  26.165  1.00  0.00     0.001 A 
ATOM     71  C   UNL A   1      39.579  25.114  27.585  1.00  0.00     0.001 A 
ATOM     72  C   UNL A   1      40.174  25.354  26.347  1.00  0.00     0.000 A 
ENDBRANCH  53  67
BRANCH  54  73
ATOM     73  C   UNL A   1      40.840  34.401  35.403  1.00  0.00    -0.014 A 
ATOM     74  C   UNL A   1      41.649  35.532  35.199  1.00  0.00     0.009 A 
ATOM     75  C   UNL A   1      40.120  34.298  36.603  1.00  0.00     0.009 A 
ATOM     76  C   UNL A   1      41.755  36.519  36.181  1.00  0.00     0.001 A 
ATOM     77  C   UNL A   1      40.197  35.306  37.567  1.00  0.00     0.001 A 
ATOM     78  C   UNL A   1      41.022  36.410  37.360  1.00  0.00     0.000 A 
ENDBRANCH  54  73
BRANCH  66  79
ATOM     79  C   UNL A   1      44.865  28.857  33.950  1.00  0.00    -0.014 A 
ATOM     80  C   UNL A   1      44.780  27.940  35.011  1.00  0.00     0.009 A 
ATOM     81  C   UNL A   1      46.125  29.337  33.566  1.00  0.00     0.009 A 
ATOM     82  C   UNL A   1      45.927  27.540  35.697  1.00  0.00     0.001 A 
ATOM     83  C   UNL A   1      47.276  28.904  34.228  1.00  0.00     0.001 A 
ATOM     84  C   UNL A   1      47.174  28.018  35.301  1.00  0.00     0.000 A 
ENDBRANCH  66  79
ENDBRANCH  40  41
ENDBRANCH  33  35
ENDBRANCH  32  33
ENDBRANCH  31  32
ENDBRANCH  30  31
ENDBRANCH  29  30
ENDBRANCH   1  29
TORSDOF 18
ENDMDL
MODEL 3
REMARK VINA RESULT:     -11.2      3.345      8.675
REMARK SMILES Nn1c(S[C@@H](C(=O)OCCOCCOC(=O)c2ccc(-c3c4nc(c(-c5ccccc5)c5ccc([nH]5)c(-c5ccccc5)c5nc(c(-c6ccccc6)c6ccc3[nH]6)C=C5)C=C4)cc2)c2ccccc2)nc2ccc(Br)cc2c1=O
REMARK SMILES IDX 10 1 9 2 8 3 6 4 7 5 5 6 4 7 3 8 2 9 79 10 71 11 78 12 80 13
REMARK SMILES IDX 72 14 77 15 73 16 75 17 74 18 76 19 1 20 65 23 66 24 70 25
REMARK SMILES IDX 67 26 69 27 68 28 11 29 12 30 13 31 14 32 15 33 16 34 17 35
REMARK SMILES IDX 18 36 64 37 19 38 63 39 20 40 21 41 22 42 57 43 23 44 62 45
REMARK SMILES IDX 56 46 58 47 24 48 61 49 55 50 54 51 25 53 47 54 32 55 46 56
REMARK SMILES IDX 33 57 36 58 45 59 59 60 34 61 35 62 44 64 60 65 37 66 26 67
REMARK SMILES IDX 27 68 31 69 28 70 30 71 29 72 48 73 49 74 53 75 50 76 52 77
REMARK SMILES IDX 51 78 38 79 39 80 43 81 40 82 42 83 41 84
REMARK H PARENT 1 21 1 22 58 52 36 63
REMARK Flexibility Score: inf
ROOT
ATOM      1  C   UNL A   1      38.809  21.868  26.113  1.00  0.00     0.202 C 
ENDROOT
BRANCH   1   2
ATOM      2  C   UNL A   1      37.792  21.207  25.169  1.00  0.00     0.261 C 
BRANCH   2   3
ATOM      3  O   UNL A   1      36.415  21.284  25.612  1.00  0.00    -0.462 OA
BRANCH   3   4
ATOM      4  C   UNL A   1      35.517  21.609  24.634  1.00  0.00     0.324 C 
ATOM      5  O   UNL A   1      35.833  22.298  23.663  1.00  0.00    -0.251 OA
BRANCH   4   6
ATOM      6  C   UNL A   1      34.077  21.090  24.822  1.00  0.00     0.194 C 
BRANCH   6   7
ATOM      7  S   UNL A   1      33.176  21.741  26.244  1.00  0.00    -0.066 SA
BRANCH   7   8
ATOM      8  C   UNL A   1      32.463  23.336  26.133  1.00  0.00     0.191 A 
ATOM      9  N   UNL A   1      31.111  23.666  26.244  1.00  0.00    -0.202 N 
ATOM     10  C   UNL A   1      30.677  24.990  26.406  1.00  0.00     0.280 A 
ATOM     11  N   UNL A   1      33.368  24.265  26.002  1.00  0.00    -0.222 NA
ATOM     12  C   UNL A   1      31.700  26.029  26.298  1.00  0.00     0.069 A 
ATOM     13  O   UNL A   1      29.511  25.288  26.665  1.00  0.00    -0.267 OA
ATOM     14  C   UNL A   1      32.999  25.618  26.021  1.00  0.00     0.079 A 
ATOM     15  C   UNL A   1      31.367  27.378  26.466  1.00  0.00     0.031 A 
ATOM     16  C   UNL A   1      33.975  26.600  25.833  1.00  0.00     0.030 A 
ATOM     17  C   UNL A   1      32.358  28.339  26.302  1.00  0.00     0.018 A 
ATOM     18  C   UNL A   1      33.656  27.958  25.965  1.00  0.00     0.018 A 
ATOM     19  Br  UNL A   1      31.937  30.165  26.536  1.00  0.00    -0.051 Br
BRANCH   9  20
ATOM     20  N   UNL A   1      30.072  22.736  26.196  1.00  0.00    -0.334 N 
ATOM     21  H   UNL A   1      29.161  23.004  26.456  1.00  0.00     0.178 HD
ATOM     22  H   UNL A   1      30.250  21.814  25.903  1.00  0.00     0.178 HD
ENDBRANCH   9  20
ENDBRANCH   7   8
ENDBRANCH   6   7
BRANCH   6  23
ATOM     23  C   UNL A   1      33.814  19.643  24.410  1.00  0.00    -0.023 A 
ATOM     24  C   UNL A   1      32.644  19.248  23.727  1.00  0.00     0.005 A 
ATOM     25  C   UNL A   1      34.795  18.660  24.645  1.00  0.00     0.005 A 
ATOM     26  C   UNL A   1      32.522  17.964  23.191  1.00  0.00     0.000 A 
ATOM     27  C   UNL A   1      34.673  17.379  24.102  1.00  0.00     0.000 A 
ATOM     28  C   UNL A   1      33.549  17.040  23.355  1.00  0.00     0.000 A 
ENDBRANCH   6  23
ENDBRANCH   4   6
ENDBRANCH   3   4
ENDBRANCH   2   3
ENDBRANCH   1   2
BRANCH   1  29
ATOM     29  O   UNL A   1      40.107  21.292  26.226  1.00  0.00    -0.374 OA
BRANCH  29  30
ATOM     30  C   UNL A   1      41.086  22.034  26.938  1.00  0.00     0.202 C 
BRANCH  30  31
ATOM     31  C   UNL A   1      41.561  23.368  26.356  1.00  0.00     0.261 C 
BRANCH  31  32
ATOM     32  O   UNL A   1      40.629  24.434  26.477  1.00  0.00    -0.460 OA
BRANCH  32  33
ATOM     33  C   UNL A   1      41.127  25.639  26.123  1.00  0.00     0.338 C 
ATOM     34  O   UNL A   1      41.429  26.036  25.009  1.00  0.00    -0.246 OA
BRANCH  33  35
ATOM     35  C   UNL A   1      41.084  26.494  27.308  1.00  0.00     0.060 A 
ATOM     36  C   UNL A   1      41.948  27.582  27.435  1.00  0.00     0.016 A 
ATOM     37  C   UNL A   1      40.153  26.174  28.300  1.00  0.00     0.016 A 
ATOM     38  C   UNL A   1      41.853  28.383  28.569  1.00  0.00     0.010 A 
ATOM     39  C   UNL A   1      40.060  26.974  29.430  1.00  0.00     0.010 A 
ATOM     40  C   UNL A   1      40.891  28.096  29.555  1.00  0.00    -0.014 A 
BRANCH  40  41
ATOM     41  C   UNL A   1      40.640  29.050  30.653  1.00  0.00     0.031 A 
ATOM     42  C   UNL A   1      39.569  30.087  30.544  1.00  0.00     0.074 A 
ATOM     43  C   UNL A   1      41.447  28.988  31.727  1.00  0.00     0.049 A 
ATOM     44  N   UNL A   1      39.229  31.002  31.414  1.00  0.00    -0.248 NA
ATOM     45  C   UNL A   1      38.780  30.112  29.301  1.00  0.00     0.031 C 
ATOM     46  C   UNL A   1      42.535  28.021  31.903  1.00  0.00     0.029 A 
ATOM     47  N   UNL A   1      41.483  29.740  32.872  1.00  0.00    -0.354 N 
ATOM     48  C   UNL A   1      38.180  31.701  30.835  1.00  0.00     0.074 A 
ATOM     49  C   UNL A   1      37.968  31.139  29.519  1.00  0.00     0.031 C 
ATOM     50  C   UNL A   1      43.106  28.215  33.099  1.00  0.00     0.029 A 
ATOM     51  C   UNL A   1      42.462  29.347  33.754  1.00  0.00     0.049 A 
ATOM     52  H   UNL A   1      40.868  30.489  33.046  1.00  0.00     0.167 HD
ATOM     53  C   UNL A   1      37.456  32.709  31.373  1.00  0.00     0.031 A 
ATOM     54  C   UNL A   1      42.801  29.846  34.957  1.00  0.00     0.031 A 
ATOM     55  C   UNL A   1      37.701  33.260  32.681  1.00  0.00     0.049 A 
ATOM     56  C   UNL A   1      42.010  31.002  35.501  1.00  0.00     0.074 A 
ATOM     57  C   UNL A   1      37.008  34.267  33.328  1.00  0.00     0.029 A 
ATOM     58  N   UNL A   1      38.717  32.858  33.535  1.00  0.00    -0.354 N 
ATOM     59  N   UNL A   1      40.976  31.612  34.973  1.00  0.00    -0.248 NA
ATOM     60  C   UNL A   1      42.417  31.530  36.809  1.00  0.00     0.031 C 
ATOM     61  C   UNL A   1      37.648  34.526  34.540  1.00  0.00     0.029 A 
ATOM     62  C   UNL A   1      38.685  33.619  34.692  1.00  0.00     0.049 A 
ATOM     63  H   UNL A   1      39.363  32.139  33.349  1.00  0.00     0.167 HD
ATOM     64  C   UNL A   1      40.588  32.573  35.897  1.00  0.00     0.074 A 
ATOM     65  C   UNL A   1      41.487  32.451  37.026  1.00  0.00     0.031 C 
ATOM     66  C   UNL A   1      39.580  33.475  35.813  1.00  0.00     0.031 A 
BRANCH  53  67
ATOM     67  C   UNL A   1      36.315  33.281  30.577  1.00  0.00    -0.014 A 
ATOM     68  C   UNL A   1      36.555  33.855  29.318  1.00  0.00     0.009 A 
ATOM     69  C   UNL A   1      35.030  33.384  31.134  1.00  0.00     0.009 A 
ATOM     70  C   UNL A   1      35.545  34.549  28.649  1.00  0.00     0.001 A 
ATOM     71  C   UNL A   1      34.013  34.052  30.449  1.00  0.00     0.001 A 
ATOM     72  C   UNL A   1      34.275  34.648  29.216  1.00  0.00     0.000 A 
ENDBRANCH  53  67
BRANCH  54  73
ATOM     73  C   UNL A   1      43.908  29.221  35.729  1.00  0.00    -0.014 A 
ATOM     74  C   UNL A   1      43.656  28.177  36.635  1.00  0.00     0.009 A 
ATOM     75  C   UNL A   1      45.221  29.700  35.604  1.00  0.00     0.009 A 
ATOM     76  C   UNL A   1      44.687  27.644  37.413  1.00  0.00     0.001 A 
ATOM     77  C   UNL A   1      46.258  29.138  36.354  1.00  0.00     0.001 A 
ATOM     78  C   UNL A   1      45.987  28.119  37.265  1.00  0.00     0.000 A 
ENDBRANCH  54  73
BRANCH  66  79
ATOM     79  C   UNL A   1      39.360  34.397  36.982  1.00  0.00    -0.014 A 
ATOM     80  C   UNL A   1      39.921  35.685  36.964  1.00  0.00     0.009 A 
ATOM     81  C   UNL A   1      38.713  33.954  38.145  1.00  0.00     0.009 A 
ATOM     82  C   UNL A   1      39.868  36.499  38.096  1.00  0.00     0.001 A 
ATOM     83  C   UNL A   1      38.627  34.786  39.263  1.00  0.00     0.001 A 
ATOM     84  C   UNL A   1      39.217  36.050  39.243  1.00  0.00     0.000 A 
ENDBRANCH  66  79
ENDBRANCH  40  41
ENDBRANCH  33  35
ENDBRANCH  32  33
ENDBRANCH  31  32
ENDBRANCH  30  31
ENDBRANCH  29  30
ENDBRANCH   1  29
TORSDOF 18
ENDMDL
