MODEL 1
REMARK VINA RESULT:     -11.1      0.000      0.000
REMARK SMILES Cc1ccc(C(=O)Nc2ccc(C(=O)OCCOCCOC(=O)c3ccc(-c4c5nc(c(-c6ccccc6)c6ccc([nH]6)c(-c6ccccc6)c6nc(c(-c7ccccc7)c7ccc4[nH]7)C=C6)C=C5)cc3)c(Cl)c2)cc1C
REMARK SMILES IDX 18 1 17 2 16 3 15 4 13 5 14 6 12 7 9 8 10 9 74 10 11 11
REMARK SMILES IDX 72 12 73 13 8 14 6 15 7 16 5 18 1 19 2 20 3 21 76 22 4 23
REMARK SMILES IDX 75 24 77 25 19 26 20 27 21 28 22 29 23 30 24 31 25 32 71 33
REMARK SMILES IDX 26 34 70 35 27 36 28 37 29 38 64 39 30 40 69 41 63 42 65 43
REMARK SMILES IDX 31 44 68 45 62 46 61 47 32 49 54 50 39 51 53 52 40 53 43 54
REMARK SMILES IDX 52 55 66 56 41 57 42 58 51 60 67 61 44 62 33 63 34 64 38 65
REMARK SMILES IDX 35 66 37 67 36 68 55 69 56 70 60 71 57 72 59 73 58 74 45 75
REMARK SMILES IDX 46 76 50 77 47 78 49 79 48 80
REMARK H PARENT 8 17 65 48 43 59
REMARK Flexibility Score: inf
ROOT
ATOM      1  O   UNL A   1      31.838  30.729  26.883  1.00  0.00    -0.374 OA
ENDROOT
BRANCH   1   2
ATOM      2  C   UNL A   1      32.371  30.117  25.707  1.00  0.00     0.202 C 
BRANCH   2   3
ATOM      3  C   UNL A   1      31.324  29.647  24.695  1.00  0.00     0.261 C 
BRANCH   3   4
ATOM      4  O   UNL A   1      31.622  28.311  24.257  1.00  0.00    -0.460 OA
BRANCH   4   5
ATOM      5  C   UNL A   1      30.586  27.604  23.753  1.00  0.00     0.339 C 
ATOM      6  O   UNL A   1      29.784  27.977  22.909  1.00  0.00    -0.246 OA
BRANCH   5   7
ATOM      7  C   UNL A   1      30.666  26.201  24.206  1.00  0.00     0.078 A 
ATOM      8  C   UNL A   1      30.929  23.478  24.839  1.00  0.00     0.043 A 
ATOM      9  C   UNL A   1      30.685  23.865  23.522  1.00  0.00     0.027 A 
ATOM     10  C   UNL A   1      30.959  24.447  25.848  1.00  0.00     0.047 A 
ATOM     11  C   UNL A   1      30.555  25.220  23.206  1.00  0.00     0.019 A 
ATOM     12  C   UNL A   1      30.853  25.809  25.535  1.00  0.00     0.057 A 
ATOM     13  Cl  UNL A   1      30.954  26.929  26.846  1.00  0.00    -0.083 Cl
BRANCH   8  14
ATOM     14  N   UNL A   1      31.143  22.144  25.212  1.00  0.00    -0.322 N 
ATOM     15  C   UNL A   1      32.292  21.382  25.281  1.00  0.00     0.255 C 
ATOM     16  O   UNL A   1      32.173  20.156  25.306  1.00  0.00    -0.269 OA
ATOM     17  H   UNL A   1      30.325  21.663  25.474  1.00  0.00     0.170 HD
BRANCH  15  18
ATOM     18  C   UNL A   1      33.652  21.980  25.462  1.00  0.00     0.040 A 
ATOM     19  C   UNL A   1      37.605  23.713  25.842  1.00  0.00     0.044 C 
ATOM     20  C   UNL A   1      36.252  23.081  25.666  1.00  0.00    -0.048 A 
ATOM     21  C   UNL A   1      35.529  22.715  26.810  1.00  0.00     0.004 A 
ATOM     22  C   UNL A   1      35.708  22.800  24.401  1.00  0.00    -0.047 A 
ATOM     23  C   UNL A   1      34.266  22.131  26.706  1.00  0.00     0.014 A 
ATOM     24  C   UNL A   1      34.400  22.283  24.315  1.00  0.00     0.017 A 
ATOM     25  C   UNL A   1      36.487  22.952  23.122  1.00  0.00     0.044 C 
ENDBRANCH  15  18
ENDBRANCH   8  14
ENDBRANCH   5   7
ENDBRANCH   4   5
ENDBRANCH   3   4
ENDBRANCH   2   3
ENDBRANCH   1   2
BRANCH   1  26
ATOM     26  C   UNL A   1      31.527  32.122  26.794  1.00  0.00     0.202 C 
BRANCH  26  27
ATOM     27  C   UNL A   1      32.654  33.073  27.216  1.00  0.00     0.261 C 
BRANCH  27  28
ATOM     28  O   UNL A   1      32.158  34.166  28.012  1.00  0.00    -0.460 OA
BRANCH  28  29
ATOM     29  C   UNL A   1      33.110  34.867  28.674  1.00  0.00     0.338 C 
ATOM     30  O   UNL A   1      33.023  36.007  29.107  1.00  0.00    -0.246 OA
BRANCH  29  31
ATOM     31  C   UNL A   1      34.265  34.000  28.972  1.00  0.00     0.060 A 
ATOM     32  C   UNL A   1      34.055  32.923  29.842  1.00  0.00     0.016 A 
ATOM     33  C   UNL A   1      35.542  34.267  28.472  1.00  0.00     0.016 A 
ATOM     34  C   UNL A   1      35.130  32.139  30.255  1.00  0.00     0.010 A 
ATOM     35  C   UNL A   1      36.622  33.481  28.893  1.00  0.00     0.010 A 
ATOM     36  C   UNL A   1      36.426  32.436  29.814  1.00  0.00    -0.014 A 
BRANCH  36  37
ATOM     37  C   UNL A   1      37.581  31.728  30.417  1.00  0.00     0.031 A 
ATOM     38  C   UNL A   1      37.993  32.057  31.826  1.00  0.00     0.074 A 
ATOM     39  C   UNL A   1      38.231  30.768  29.735  1.00  0.00     0.049 A 
ATOM     40  N   UNL A   1      38.952  31.540  32.551  1.00  0.00    -0.248 NA
ATOM     41  C   UNL A   1      37.218  33.105  32.510  1.00  0.00     0.031 C 
ATOM     42  C   UNL A   1      37.911  30.331  28.377  1.00  0.00     0.029 A 
ATOM     43  N   UNL A   1      39.298  29.986  30.100  1.00  0.00    -0.354 N 
ATOM     44  C   UNL A   1      38.900  32.202  33.772  1.00  0.00     0.074 A 
ATOM     45  C   UNL A   1      37.836  33.178  33.679  1.00  0.00     0.031 C 
ATOM     46  C   UNL A   1      38.764  29.354  28.023  1.00  0.00     0.029 A 
ATOM     47  C   UNL A   1      39.705  29.118  29.117  1.00  0.00     0.049 A 
ATOM     48  H   UNL A   1      39.730  30.042  30.983  1.00  0.00     0.167 HD
ATOM     49  C   UNL A   1      39.663  32.010  34.875  1.00  0.00     0.031 A 
ATOM     50  C   UNL A   1      40.725  28.241  29.098  1.00  0.00     0.031 A 
ATOM     51  C   UNL A   1      40.732  31.052  34.969  1.00  0.00     0.049 A 
ATOM     52  C   UNL A   1      41.603  28.095  30.312  1.00  0.00     0.074 A 
ATOM     53  C   UNL A   1      41.548  30.772  36.051  1.00  0.00     0.029 A 
ATOM     54  N   UNL A   1      41.141  30.223  33.936  1.00  0.00    -0.354 N 
ATOM     55  N   UNL A   1      41.519  28.702  31.471  1.00  0.00    -0.248 NA
ATOM     56  C   UNL A   1      42.711  27.133  30.214  1.00  0.00     0.031 C 
ATOM     57  C   UNL A   1      42.486  29.813  35.656  1.00  0.00     0.029 A 
ATOM     58  C   UNL A   1      42.216  29.453  34.345  1.00  0.00     0.049 A 
ATOM     59  H   UNL A   1      40.727  30.188  33.043  1.00  0.00     0.167 HD
ATOM     60  C   UNL A   1      42.545  28.177  32.248  1.00  0.00     0.074 A 
ATOM     61  C   UNL A   1      43.227  27.192  31.434  1.00  0.00     0.031 C 
ATOM     62  C   UNL A   1      42.891  28.483  33.523  1.00  0.00     0.031 A 
BRANCH  49  63
ATOM     63  C   UNL A   1      39.384  32.885  36.066  1.00  0.00    -0.014 A 
ATOM     64  C   UNL A   1      38.562  32.447  37.116  1.00  0.00     0.009 A 
ATOM     65  C   UNL A   1      39.975  34.156  36.149  1.00  0.00     0.009 A 
ATOM     66  C   UNL A   1      38.310  33.279  38.210  1.00  0.00     0.001 A 
ATOM     67  C   UNL A   1      39.742  34.975  37.256  1.00  0.00     0.001 A 
ATOM     68  C   UNL A   1      38.903  34.539  38.280  1.00  0.00     0.000 A 
ENDBRANCH  49  63
BRANCH  50  69
ATOM     69  C   UNL A   1      40.987  27.433  27.878  1.00  0.00    -0.014 A 
ATOM     70  C   UNL A   1      40.431  26.152  27.734  1.00  0.00     0.009 A 
ATOM     71  C   UNL A   1      41.810  27.935  26.858  1.00  0.00     0.009 A 
ATOM     72  C   UNL A   1      40.716  25.382  26.604  1.00  0.00     0.001 A 
ATOM     73  C   UNL A   1      42.069  27.174  25.717  1.00  0.00     0.001 A 
ATOM     74  C   UNL A   1      41.530  25.895  25.595  1.00  0.00     0.000 A 
ENDBRANCH  50  69
BRANCH  62  75
ATOM     75  C   UNL A   1      44.041  27.722  34.124  1.00  0.00    -0.014 A 
ATOM     76  C   UNL A   1      45.354  28.211  34.055  1.00  0.00     0.009 A 
ATOM     77  C   UNL A   1      43.799  26.511  34.793  1.00  0.00     0.009 A 
ATOM     78  C   UNL A   1      46.409  27.483  34.612  1.00  0.00     0.001 A 
ATOM     79  C   UNL A   1      44.851  25.801  35.373  1.00  0.00     0.001 A 
ATOM     80  C   UNL A   1      46.156  26.281  35.273  1.00  0.00     0.000 A 
ENDBRANCH  62  75
ENDBRANCH  36  37
ENDBRANCH  29  31
ENDBRANCH  28  29
ENDBRANCH  27  28
ENDBRANCH  26  27
ENDBRANCH   1  26
TORSDOF 16
ENDMDL
MODEL 2
REMARK VINA RESULT:     -11.0      4.549      9.815
REMARK SMILES Cc1ccc(C(=O)Nc2ccc(C(=O)OCCOCCOC(=O)c3ccc(-c4c5nc(c(-c6ccccc6)c6ccc([nH]6)c(-c6ccccc6)c6nc(c(-c7ccccc7)c7ccc4[nH]7)C=C6)C=C5)cc3)c(Cl)c2)cc1C
REMARK SMILES IDX 18 1 17 2 16 3 15 4 13 5 14 6 12 7 9 8 10 9 74 10 11 11
REMARK SMILES IDX 72 12 73 13 8 14 6 15 7 16 5 18 1 19 2 20 3 21 76 22 4 23
REMARK SMILES IDX 75 24 77 25 19 26 20 27 21 28 22 29 23 30 24 31 25 32 71 33
REMARK SMILES IDX 26 34 70 35 27 36 28 37 29 38 64 39 30 40 69 41 63 42 65 43
REMARK SMILES IDX 31 44 68 45 62 46 61 47 32 49 54 50 39 51 53 52 40 53 43 54
REMARK SMILES IDX 52 55 66 56 41 57 42 58 51 60 67 61 44 62 33 63 34 64 38 65
REMARK SMILES IDX 35 66 37 67 36 68 55 69 56 70 60 71 57 72 59 73 58 74 45 75
REMARK SMILES IDX 46 76 50 77 47 78 49 79 48 80
REMARK H PARENT 8 17 65 48 43 59
REMARK Flexibility Score: inf
ROOT
ATOM      1  O   UNL A   1      37.359  22.690  25.750  1.00  0.00    -0.374 OA
ENDROOT
BRANCH   1   2
ATOM      2  C   UNL A   1      35.983  22.790  26.125  1.00  0.00     0.202 C 
BRANCH   2   3
ATOM      3  C   UNL A   1      35.264  21.451  26.297  1.00  0.00     0.261 C 
BRANCH   3   4
ATOM      4  O   UNL A   1      33.880  21.582  25.933  1.00  0.00    -0.460 OA
BRANCH   4   5
ATOM      5  C   UNL A   1      33.559  21.218  24.672  1.00  0.00     0.339 C 
ATOM      6  O   UNL A   1      33.530  20.083  24.219  1.00  0.00    -0.246 OA
BRANCH   5   7
ATOM      7  C   UNL A   1      33.023  22.380  23.933  1.00  0.00     0.078 A 
ATOM      8  C   UNL A   1      31.840  24.621  22.726  1.00  0.00     0.043 A 
ATOM      9  C   UNL A   1      31.064  23.758  23.499  1.00  0.00     0.027 A 
ATOM     10  C   UNL A   1      33.185  24.317  22.490  1.00  0.00     0.047 A 
ATOM     11  C   UNL A   1      31.653  22.643  24.101  1.00  0.00     0.019 A 
ATOM     12  C   UNL A   1      33.787  23.213  23.111  1.00  0.00     0.057 A 
ATOM     13  Cl  UNL A   1      35.466  22.953  22.798  1.00  0.00    -0.083 Cl
BRANCH   8  14
ATOM     14  N   UNL A   1      31.330  25.796  22.156  1.00  0.00    -0.322 N 
ATOM     15  C   UNL A   1      31.170  27.069  22.663  1.00  0.00     0.255 C 
ATOM     16  O   UNL A   1      30.392  27.830  22.085  1.00  0.00    -0.269 OA
ATOM     17  H   UNL A   1      31.032  25.694  21.223  1.00  0.00     0.170 HD
BRANCH  15  18
ATOM     18  C   UNL A   1      31.996  27.602  23.792  1.00  0.00     0.040 A 
ATOM     19  C   UNL A   1      34.279  29.116  27.150  1.00  0.00     0.044 C 
ATOM     20  C   UNL A   1      33.440  28.613  26.007  1.00  0.00    -0.048 A 
ATOM     21  C   UNL A   1      33.963  28.685  24.709  1.00  0.00     0.004 A 
ATOM     22  C   UNL A   1      32.135  28.120  26.187  1.00  0.00    -0.047 A 
ATOM     23  C   UNL A   1      33.231  28.227  23.613  1.00  0.00     0.014 A 
ATOM     24  C   UNL A   1      31.443  27.590  25.080  1.00  0.00     0.017 A 
ATOM     25  C   UNL A   1      31.403  28.201  27.500  1.00  0.00     0.044 C 
ENDBRANCH  15  18
ENDBRANCH   8  14
ENDBRANCH   5   7
ENDBRANCH   4   5
ENDBRANCH   3   4
ENDBRANCH   2   3
ENDBRANCH   1   2
BRANCH   1  26
ATOM     26  C   UNL A   1      37.871  21.372  25.542  1.00  0.00     0.202 C 
BRANCH  26  27
ATOM     27  C   UNL A   1      39.365  21.194  25.839  1.00  0.00     0.261 C 
BRANCH  27  28
ATOM     28  O   UNL A   1      39.733  19.804  25.908  1.00  0.00    -0.460 OA
BRANCH  28  29
ATOM     29  C   UNL A   1      41.062  19.570  26.030  1.00  0.00     0.338 C 
ATOM     30  O   UNL A   1      41.658  18.533  25.780  1.00  0.00    -0.246 OA
BRANCH  29  31
ATOM     31  C   UNL A   1      41.769  20.822  26.362  1.00  0.00     0.060 A 
ATOM     32  C   UNL A   1      41.858  21.171  27.715  1.00  0.00     0.016 A 
ATOM     33  C   UNL A   1      42.273  21.674  25.376  1.00  0.00     0.016 A 
ATOM     34  C   UNL A   1      42.408  22.397  28.086  1.00  0.00     0.010 A 
ATOM     35  C   UNL A   1      42.820  22.908  25.750  1.00  0.00     0.010 A 
ATOM     36  C   UNL A   1      42.857  23.290  27.103  1.00  0.00    -0.014 A 
BRANCH  36  37
ATOM     37  C   UNL A   1      43.248  24.666  27.495  1.00  0.00     0.031 A 
ATOM     38  C   UNL A   1      44.696  25.067  27.431  1.00  0.00     0.074 A 
ATOM     39  C   UNL A   1      42.318  25.566  27.862  1.00  0.00     0.049 A 
ATOM     40  N   UNL A   1      45.249  26.222  27.701  1.00  0.00    -0.248 NA
ATOM     41  C   UNL A   1      45.647  24.029  27.002  1.00  0.00     0.031 C 
ATOM     42  C   UNL A   1      40.879  25.316  27.933  1.00  0.00     0.029 A 
ATOM     43  N   UNL A   1      42.453  26.878  28.241  1.00  0.00    -0.354 N 
ATOM     44  C   UNL A   1      46.610  26.049  27.480  1.00  0.00     0.074 A 
ATOM     45  C   UNL A   1      46.803  24.671  27.083  1.00  0.00     0.031 C 
ATOM     46  C   UNL A   1      40.262  26.441  28.331  1.00  0.00     0.029 A 
ATOM     47  C   UNL A   1      41.262  27.480  28.567  1.00  0.00     0.049 A 
ATOM     48  H   UNL A   1      43.319  27.343  28.276  1.00  0.00     0.167 HD
ATOM     49  C   UNL A   1      47.610  26.957  27.589  1.00  0.00     0.031 A 
ATOM     50  C   UNL A   1      41.010  28.724  29.015  1.00  0.00     0.031 A 
ATOM     51  C   UNL A   1      47.427  28.325  27.998  1.00  0.00     0.049 A 
ATOM     52  C   UNL A   1      42.146  29.694  29.195  1.00  0.00     0.074 A 
ATOM     53  C   UNL A   1      48.377  29.324  28.119  1.00  0.00     0.029 A 
ATOM     54  N   UNL A   1      46.211  28.882  28.362  1.00  0.00    -0.354 N 
ATOM     55  N   UNL A   1      43.424  29.527  28.948  1.00  0.00    -0.248 NA
ATOM     56  C   UNL A   1      41.801  31.029  29.706  1.00  0.00     0.031 C 
ATOM     57  C   UNL A   1      47.745  30.472  28.609  1.00  0.00     0.029 A 
ATOM     58  C   UNL A   1      46.392  30.203  28.737  1.00  0.00     0.049 A 
ATOM     59  H   UNL A   1      45.348  28.409  28.355  1.00  0.00     0.167 HD
ATOM     60  C   UNL A   1      44.029  30.742  29.249  1.00  0.00     0.074 A 
ATOM     61  C   UNL A   1      42.978  31.640  29.681  1.00  0.00     0.031 C 
ATOM     62  C   UNL A   1      45.339  31.083  29.173  1.00  0.00     0.031 A 
BRANCH  49  63
ATOM     63  C   UNL A   1      49.005  26.483  27.290  1.00  0.00    -0.014 A 
ATOM     64  C   UNL A   1      49.848  26.008  28.308  1.00  0.00     0.009 A 
ATOM     65  C   UNL A   1      49.473  26.489  25.967  1.00  0.00     0.009 A 
ATOM     66  C   UNL A   1      51.144  25.579  28.009  1.00  0.00     0.001 A 
ATOM     67  C   UNL A   1      50.759  26.035  25.668  1.00  0.00     0.001 A 
ATOM     68  C   UNL A   1      51.596  25.589  26.690  1.00  0.00     0.000 A 
ENDBRANCH  49  63
BRANCH  50  69
ATOM     69  C   UNL A   1      39.618  29.127  29.341  1.00  0.00    -0.014 A 
ATOM     70  C   UNL A   1      39.087  28.900  30.621  1.00  0.00     0.009 A 
ATOM     71  C   UNL A   1      38.806  29.728  28.366  1.00  0.00     0.009 A 
ATOM     72  C   UNL A   1      37.763  29.244  30.907  1.00  0.00     0.001 A 
ATOM     73  C   UNL A   1      37.493  30.096  28.665  1.00  0.00     0.001 A 
ATOM     74  C   UNL A   1      36.970  29.846  29.932  1.00  0.00     0.000 A 
ENDBRANCH  50  69
BRANCH  62  75
ATOM     75  C   UNL A   1      45.702  32.496  29.538  1.00  0.00    -0.014 A 
ATOM     76  C   UNL A   1      46.051  32.843  30.852  1.00  0.00     0.009 A 
ATOM     77  C   UNL A   1      45.722  33.488  28.544  1.00  0.00     0.009 A 
ATOM     78  C   UNL A   1      46.377  34.164  31.171  1.00  0.00     0.001 A 
ATOM     79  C   UNL A   1      46.075  34.800  28.860  1.00  0.00     0.001 A 
ATOM     80  C   UNL A   1      46.391  35.140  30.175  1.00  0.00     0.000 A 
ENDBRANCH  62  75
ENDBRANCH  36  37
ENDBRANCH  29  31
ENDBRANCH  28  29
ENDBRANCH  27  28
ENDBRANCH  26  27
ENDBRANCH   1  26
TORSDOF 16
ENDMDL
MODEL 3
REMARK VINA RESULT:     -11.0      2.717      4.808
REMARK SMILES Cc1ccc(C(=O)Nc2ccc(C(=O)OCCOCCOC(=O)c3ccc(-c4c5nc(c(-c6ccccc6)c6ccc([nH]6)c(-c6ccccc6)c6nc(c(-c7ccccc7)c7ccc4[nH]7)C=C6)C=C5)cc3)c(Cl)c2)cc1C
REMARK SMILES IDX 18 1 17 2 16 3 15 4 13 5 14 6 12 7 9 8 10 9 74 10 11 11
REMARK SMILES IDX 72 12 73 13 8 14 6 15 7 16 5 18 1 19 2 20 3 21 76 22 4 23
REMARK SMILES IDX 75 24 77 25 19 26 20 27 21 28 22 29 23 30 24 31 25 32 71 33
REMARK SMILES IDX 26 34 70 35 27 36 28 37 29 38 64 39 30 40 69 41 63 42 65 43
REMARK SMILES IDX 31 44 68 45 62 46 61 47 32 49 54 50 39 51 53 52 40 53 43 54
REMARK SMILES IDX 52 55 66 56 41 57 42 58 51 60 67 61 44 62 33 63 34 64 38 65
REMARK SMILES IDX 35 66 37 67 36 68 55 69 56 70 60 71 57 72 59 73 58 74 45 75
REMARK SMILES IDX 46 76 50 77 47 78 49 79 48 80
REMARK H PARENT 8 17 65 48 43 59
REMARK Flexibility Score: inf
ROOT
ATOM      1  O   UNL A   1      34.930  34.676  29.313  1.00  0.00    -0.374 OA
ENDROOT
BRANCH   1   2
ATOM      2  C   UNL A   1      35.887  34.232  28.349  1.00  0.00     0.202 C 
BRANCH   2   3
ATOM      3  C   UNL A   1      36.031  32.713  28.238  1.00  0.00     0.261 C 
BRANCH   3   4
ATOM      4  O   UNL A   1      35.034  32.185  27.348  1.00  0.00    -0.460 OA
BRANCH   4   5
ATOM      5  C   UNL A   1      33.949  31.628  27.933  1.00  0.00     0.339 C 
ATOM      6  O   UNL A   1      33.224  32.141  28.772  1.00  0.00    -0.246 OA
BRANCH   5   7
ATOM      7  C   UNL A   1      33.608  30.360  27.258  1.00  0.00     0.078 A 
ATOM      8  C   UNL A   1      32.802  28.086  25.822  1.00  0.00     0.043 A 
ATOM      9  C   UNL A   1      31.899  29.127  26.038  1.00  0.00     0.027 A 
ATOM     10  C   UNL A   1      34.077  28.148  26.394  1.00  0.00     0.047 A 
ATOM     11  C   UNL A   1      32.301  30.259  26.752  1.00  0.00     0.019 A 
ATOM     12  C   UNL A   1      34.493  29.291  27.091  1.00  0.00     0.057 A 
ATOM     13  Cl  UNL A   1      36.104  29.291  27.714  1.00  0.00    -0.083 Cl
BRANCH   8  14
ATOM     14  N   UNL A   1      32.488  26.956  25.053  1.00  0.00    -0.322 N 
ATOM     15  C   UNL A   1      31.437  26.689  24.200  1.00  0.00     0.255 C 
ATOM     16  O   UNL A   1      31.207  25.513  23.915  1.00  0.00    -0.269 OA
ATOM     17  H   UNL A   1      33.136  26.220  25.136  1.00  0.00     0.170 HD
BRANCH  15  18
ATOM     18  C   UNL A   1      30.661  27.764  23.507  1.00  0.00     0.040 A 
ATOM     19  C   UNL A   1      28.291  30.825  21.559  1.00  0.00     0.044 C 
ATOM     20  C   UNL A   1      29.071  29.726  22.226  1.00  0.00    -0.048 A 
ATOM     21  C   UNL A   1      30.450  29.645  21.989  1.00  0.00     0.004 A 
ATOM     22  C   UNL A   1      28.462  28.751  23.036  1.00  0.00    -0.047 A 
ATOM     23  C   UNL A   1      31.224  28.649  22.587  1.00  0.00     0.014 A 
ATOM     24  C   UNL A   1      29.271  27.802  23.693  1.00  0.00     0.017 A 
ATOM     25  C   UNL A   1      26.970  28.619  23.178  1.00  0.00     0.044 C 
ENDBRANCH  15  18
ENDBRANCH   8  14
ENDBRANCH   5   7
ENDBRANCH   4   5
ENDBRANCH   3   4
ENDBRANCH   2   3
ENDBRANCH   1   2
BRANCH   1  26
ATOM     26  C   UNL A   1      33.917  35.570  28.845  1.00  0.00     0.202 C 
BRANCH  26  27
ATOM     27  C   UNL A   1      32.716  35.748  29.781  1.00  0.00     0.261 C 
BRANCH  27  28
ATOM     28  O   UNL A   1      33.101  36.332  31.039  1.00  0.00    -0.460 OA
BRANCH  28  29
ATOM     29  C   UNL A   1      32.768  35.604  32.132  1.00  0.00     0.338 C 
ATOM     30  O   UNL A   1      31.647  35.408  32.577  1.00  0.00    -0.246 OA
BRANCH  29  31
ATOM     31  C   UNL A   1      33.956  34.908  32.661  1.00  0.00     0.060 A 
ATOM     32  C   UNL A   1      35.193  35.548  32.521  1.00  0.00     0.016 A 
ATOM     33  C   UNL A   1      33.880  33.629  33.218  1.00  0.00     0.016 A 
ATOM     34  C   UNL A   1      36.366  34.893  32.891  1.00  0.00     0.010 A 
ATOM     35  C   UNL A   1      35.060  32.969  33.584  1.00  0.00     0.010 A 
ATOM     36  C   UNL A   1      36.310  33.584  33.389  1.00  0.00    -0.014 A 
BRANCH  36  37
ATOM     37  C   UNL A   1      37.569  32.826  33.586  1.00  0.00     0.031 A 
ATOM     38  C   UNL A   1      38.370  33.040  34.842  1.00  0.00     0.074 A 
ATOM     39  C   UNL A   1      37.976  31.922  32.677  1.00  0.00     0.049 A 
ATOM     40  N   UNL A   1      39.482  32.464  35.224  1.00  0.00    -0.248 NA
ATOM     41  C   UNL A   1      37.847  34.033  35.793  1.00  0.00     0.031 C 
ATOM     42  C   UNL A   1      37.275  31.595  31.436  1.00  0.00     0.029 A 
ATOM     43  N   UNL A   1      39.082  31.109  32.665  1.00  0.00    -0.354 N 
ATOM     44  C   UNL A   1      39.793  33.027  36.456  1.00  0.00     0.074 A 
ATOM     45  C   UNL A   1      38.770  34.011  36.742  1.00  0.00     0.031 C 
ATOM     46  C   UNL A   1      37.968  30.647  30.782  1.00  0.00     0.029 A 
ATOM     47  C   UNL A   1      39.173  30.321  31.545  1.00  0.00     0.049 A 
ATOM     48  H   UNL A   1      39.747  31.093  33.391  1.00  0.00     0.167 HD
ATOM     49  C   UNL A   1      40.830  32.745  37.281  1.00  0.00     0.031 A 
ATOM     50  C   UNL A   1      40.124  29.445  31.171  1.00  0.00     0.031 A 
ATOM     51  C   UNL A   1      41.857  31.779  36.995  1.00  0.00     0.049 A 
ATOM     52  C   UNL A   1      41.304  29.200  32.072  1.00  0.00     0.074 A 
ATOM     53  C   UNL A   1      42.938  31.411  37.778  1.00  0.00     0.029 A 
ATOM     54  N   UNL A   1      41.937  31.034  35.829  1.00  0.00    -0.354 N 
ATOM     55  N   UNL A   1      41.566  29.713  33.251  1.00  0.00    -0.248 NA
ATOM     56  C   UNL A   1      42.314  28.245  31.593  1.00  0.00     0.031 C 
ATOM     57  C   UNL A   1      43.701  30.483  37.062  1.00  0.00     0.029 A 
ATOM     58  C   UNL A   1      43.064  30.230  35.858  1.00  0.00     0.049 A 
ATOM     59  H   UNL A   1      41.287  31.072  35.090  1.00  0.00     0.167 HD
ATOM     60  C   UNL A   1      42.755  29.124  33.663  1.00  0.00     0.074 A 
ATOM     61  C   UNL A   1      43.154  28.205  32.618  1.00  0.00     0.031 C 
ATOM     62  C   UNL A   1      43.455  29.327  34.808  1.00  0.00     0.031 A 
BRANCH  49  63
ATOM     63  C   UNL A   1      40.921  33.524  38.564  1.00  0.00    -0.014 A 
ATOM     64  C   UNL A   1      40.314  33.060  39.742  1.00  0.00     0.009 A 
ATOM     65  C   UNL A   1      41.646  34.724  38.599  1.00  0.00     0.009 A 
ATOM     66  C   UNL A   1      40.404  33.802  40.923  1.00  0.00     0.001 A 
ATOM     67  C   UNL A   1      41.757  35.451  39.787  1.00  0.00     0.001 A 
ATOM     68  C   UNL A   1      41.128  34.994  40.944  1.00  0.00     0.000 A 
ENDBRANCH  49  63
BRANCH  50  69
ATOM     69  C   UNL A   1      40.010  28.736  29.870  1.00  0.00    -0.014 A 
ATOM     70  C   UNL A   1      39.426  27.462  29.797  1.00  0.00     0.009 A 
ATOM     71  C   UNL A   1      40.503  29.326  28.696  1.00  0.00     0.009 A 
ATOM     72  C   UNL A   1      39.361  26.784  28.577  1.00  0.00     0.001 A 
ATOM     73  C   UNL A   1      40.410  28.657  27.474  1.00  0.00     0.001 A 
ATOM     74  C   UNL A   1      39.848  27.384  27.417  1.00  0.00     0.000 A 
ENDBRANCH  50  69
BRANCH  62  75
ATOM     75  C   UNL A   1      44.707  28.516  34.999  1.00  0.00    -0.014 A 
ATOM     76  C   UNL A   1      45.955  28.988  34.565  1.00  0.00     0.009 A 
ATOM     77  C   UNL A   1      44.638  27.274  35.650  1.00  0.00     0.009 A 
ATOM     78  C   UNL A   1      47.104  28.215  34.745  1.00  0.00     0.001 A 
ATOM     79  C   UNL A   1      45.792  26.516  35.854  1.00  0.00     0.001 A 
ATOM     80  C   UNL A   1      47.023  26.982  35.391  1.00  0.00     0.000 A 
ENDBRANCH  62  75
ENDBRANCH  36  37
ENDBRANCH  29  31
ENDBRANCH  28  29
ENDBRANCH  27  28
ENDBRANCH  26  27
ENDBRANCH   1  26
TORSDOF 16
ENDMDL
