MODEL 1
REMARK VINA RESULT:      -9.5      0.000      0.000
REMARK SMILES COc1cc2c[nH]nc2cc1C(=O)OCCOCCOC(=O)c1ccc(-c2c3nc(c(-c4ccccc4)c4ccc([nH]4)c(-c4ccccc4)c4nc(c(-c5ccccc5)c5ccc2[nH]5)C=C4)C=C3)cc1
REMARK SMILES IDX 18 1 17 2 16 3 15 4 14 5 12 6 13 7 11 8 3 9 4 10 5 11 10 12
REMARK SMILES IDX 6 13 9 14 7 15 8 16 2 18 1 19 19 20 20 21 21 22 22 23 23 24
REMARK SMILES IDX 24 25 70 26 25 27 69 28 26 29 27 30 28 31 63 32 29 33 68 34
REMARK SMILES IDX 62 35 64 36 30 37 67 38 61 39 60 40 31 42 53 43 38 44 52 45
REMARK SMILES IDX 39 46 42 47 51 48 65 49 40 50 41 51 50 53 66 54 43 55 32 56
REMARK SMILES IDX 33 57 37 58 34 59 36 60 35 61 54 62 55 63 59 64 56 65 58 66
REMARK SMILES IDX 57 67 44 68 45 69 49 70 46 71 48 72 47 73
REMARK H PARENT 7 17 64 41 42 52
REMARK Flexibility Score: inf
ROOT
ATOM      1  C   UNL A   1      31.581  27.748  27.375  1.00  0.00     0.202 C 
ENDROOT
BRANCH   1   2
ATOM      2  O   UNL A   1      31.939  26.601  26.603  1.00  0.00    -0.374 OA
BRANCH   2   3
ATOM      3  C   UNL A   1      30.909  25.944  25.867  1.00  0.00     0.202 C 
BRANCH   3   4
ATOM      4  C   UNL A   1      30.810  24.427  26.033  1.00  0.00     0.261 C 
BRANCH   4   5
ATOM      5  O   UNL A   1      32.035  23.774  25.666  1.00  0.00    -0.460 OA
BRANCH   5   6
ATOM      6  C   UNL A   1      32.660  23.123  26.674  1.00  0.00     0.342 C 
ATOM      7  O   UNL A   1      32.209  22.903  27.790  1.00  0.00    -0.246 OA
BRANCH   6   8
ATOM      8  C   UNL A   1      33.953  22.562  26.233  1.00  0.00     0.104 A 
ATOM      9  C   UNL A   1      34.075  21.250  25.655  1.00  0.00     0.134 A 
ATOM     10  C   UNL A   1      35.298  20.710  25.189  1.00  0.00     0.059 A 
ATOM     11  C   UNL A   1      36.342  21.614  25.351  1.00  0.00     0.023 A 
ATOM     12  C   UNL A   1      35.055  23.446  26.394  1.00  0.00     0.050 A 
ATOM     13  C   UNL A   1      37.640  21.415  24.972  1.00  0.00     0.114 A 
ATOM     14  C   UNL A   1      36.272  22.930  25.930  1.00  0.00     0.093 A 
ATOM     15  N   UNL A   1      38.287  22.561  25.339  1.00  0.00    -0.285 N 
ATOM     16  N   UNL A   1      37.495  23.481  25.923  1.00  0.00    -0.176 NA
ATOM     17  H   UNL A   1      39.249  22.703  25.190  1.00  0.00     0.189 HD
BRANCH   9  18
ATOM     18  O   UNL A   1      33.006  20.383  25.583  1.00  0.00    -0.496 OA
ATOM     19  C   UNL A   1      32.527  20.243  24.247  1.00  0.00     0.278 C 
ENDBRANCH   9  18
ENDBRANCH   6   8
ENDBRANCH   5   6
ENDBRANCH   4   5
ENDBRANCH   3   4
ENDBRANCH   2   3
ENDBRANCH   1   2
BRANCH   1  20
ATOM     20  C   UNL A   1      32.357  29.043  27.106  1.00  0.00     0.261 C 
BRANCH  20  21
ATOM     21  O   UNL A   1      33.716  29.007  27.582  1.00  0.00    -0.460 OA
BRANCH  21  22
ATOM     22  C   UNL A   1      34.320  30.213  27.674  1.00  0.00     0.338 C 
ATOM     23  O   UNL A   1      33.812  31.317  27.496  1.00  0.00    -0.246 OA
BRANCH  22  24
ATOM     24  C   UNL A   1      35.698  30.070  28.170  1.00  0.00     0.060 A 
ATOM     25  C   UNL A   1      36.746  30.258  27.260  1.00  0.00     0.016 A 
ATOM     26  C   UNL A   1      35.954  29.622  29.467  1.00  0.00     0.016 A 
ATOM     27  C   UNL A   1      38.055  29.955  27.631  1.00  0.00     0.010 A 
ATOM     28  C   UNL A   1      37.268  29.307  29.834  1.00  0.00     0.010 A 
ATOM     29  C   UNL A   1      38.318  29.437  28.907  1.00  0.00    -0.014 A 
BRANCH  29  30
ATOM     30  C   UNL A   1      39.667  28.908  29.222  1.00  0.00     0.031 A 
ATOM     31  C   UNL A   1      40.636  29.771  29.983  1.00  0.00     0.074 A 
ATOM     32  C   UNL A   1      40.020  27.664  28.854  1.00  0.00     0.049 A 
ATOM     33  N   UNL A   1      41.870  29.516  30.338  1.00  0.00    -0.248 NA
ATOM     34  C   UNL A   1      40.149  31.095  30.401  1.00  0.00     0.031 C 
ATOM     35  C   UNL A   1      39.161  26.712  28.152  1.00  0.00     0.029 A 
ATOM     36  N   UNL A   1      41.205  26.992  29.021  1.00  0.00    -0.354 N 
ATOM     37  C   UNL A   1      42.308  30.649  31.015  1.00  0.00     0.074 A 
ATOM     38  C   UNL A   1      41.218  31.600  31.000  1.00  0.00     0.031 C 
ATOM     39  C   UNL A   1      39.851  25.578  27.942  1.00  0.00     0.029 A 
ATOM     40  C   UNL A   1      41.206  25.736  28.467  1.00  0.00     0.049 A 
ATOM     41  H   UNL A   1      41.979  27.374  29.494  1.00  0.00     0.167 HD
ATOM     42  C   UNL A   1      43.508  30.874  31.600  1.00  0.00     0.031 A 
ATOM     43  C   UNL A   1      42.194  24.826  28.375  1.00  0.00     0.031 A 
ATOM     44  C   UNL A   1      44.601  29.938  31.607  1.00  0.00     0.049 A 
ATOM     45  C   UNL A   1      43.544  25.132  28.965  1.00  0.00     0.074 A 
ATOM     46  C   UNL A   1      45.850  30.074  32.186  1.00  0.00     0.029 A 
ATOM     47  N   UNL A   1      44.574  28.694  30.999  1.00  0.00    -0.354 N 
ATOM     48  N   UNL A   1      43.938  26.196  29.620  1.00  0.00    -0.248 NA
ATOM     49  C   UNL A   1      44.584  24.104  28.806  1.00  0.00     0.031 C 
ATOM     50  C   UNL A   1      46.597  28.930  31.886  1.00  0.00     0.029 A 
ATOM     51  C   UNL A   1      45.794  28.062  31.166  1.00  0.00     0.049 A 
ATOM     52  H   UNL A   1      43.802  28.315  30.519  1.00  0.00     0.167 HD
ATOM     53  C   UNL A   1      45.260  25.957  29.974  1.00  0.00     0.074 A 
ATOM     54  C   UNL A   1      45.597  24.641  29.471  1.00  0.00     0.031 C 
ATOM     55  C   UNL A   1      46.116  26.753  30.658  1.00  0.00     0.031 A 
BRANCH  42  56
ATOM     56  C   UNL A   1      43.714  32.209  32.258  1.00  0.00    -0.014 A 
ATOM     57  C   UNL A   1      43.326  32.433  33.588  1.00  0.00     0.009 A 
ATOM     58  C   UNL A   1      44.336  33.248  31.546  1.00  0.00     0.009 A 
ATOM     59  C   UNL A   1      43.529  33.680  34.182  1.00  0.00     0.001 A 
ATOM     60  C   UNL A   1      44.560  34.486  32.151  1.00  0.00     0.001 A 
ATOM     61  C   UNL A   1      44.148  34.703  33.465  1.00  0.00     0.000 A 
ENDBRANCH  42  56
BRANCH  43  62
ATOM     62  C   UNL A   1      41.953  23.538  27.676  1.00  0.00    -0.014 A 
ATOM     63  C   UNL A   1      41.361  22.458  28.349  1.00  0.00     0.009 A 
ATOM     64  C   UNL A   1      42.336  23.376  26.335  1.00  0.00     0.009 A 
ATOM     65  C   UNL A   1      41.177  21.236  27.698  1.00  0.00     0.001 A 
ATOM     66  C   UNL A   1      42.127  22.160  25.680  1.00  0.00     0.001 A 
ATOM     67  C   UNL A   1      41.556  21.089  26.365  1.00  0.00     0.000 A 
ENDBRANCH  43  62
BRANCH  55  68
ATOM     68  C   UNL A   1      47.491  26.211  30.933  1.00  0.00    -0.014 A 
ATOM     69  C   UNL A   1      47.814  25.641  32.174  1.00  0.00     0.009 A 
ATOM     70  C   UNL A   1      48.461  26.234  29.919  1.00  0.00     0.009 A 
ATOM     71  C   UNL A   1      49.095  25.132  32.403  1.00  0.00     0.001 A 
ATOM     72  C   UNL A   1      49.731  25.701  30.143  1.00  0.00     0.001 A 
ATOM     73  C   UNL A   1      50.049  25.158  31.386  1.00  0.00     0.000 A 
ENDBRANCH  55  68
ENDBRANCH  29  30
ENDBRANCH  22  24
ENDBRANCH  21  22
ENDBRANCH  20  21
ENDBRANCH   1  20
TORSDOF 15
ENDMDL
MODEL 2
REMARK VINA RESULT:      -9.4      4.418      9.813
REMARK SMILES COc1cc2c[nH]nc2cc1C(=O)OCCOCCOC(=O)c1ccc(-c2c3nc(c(-c4ccccc4)c4ccc([nH]4)c(-c4ccccc4)c4nc(c(-c5ccccc5)c5ccc2[nH]5)C=C4)C=C3)cc1
REMARK SMILES IDX 18 1 17 2 16 3 15 4 14 5 12 6 13 7 11 8 3 9 4 10 5 11 10 12
REMARK SMILES IDX 6 13 9 14 7 15 8 16 2 18 1 19 19 20 20 21 21 22 22 23 23 24
REMARK SMILES IDX 24 25 70 26 25 27 69 28 26 29 27 30 28 31 63 32 29 33 68 34
REMARK SMILES IDX 62 35 64 36 30 37 67 38 61 39 60 40 31 42 53 43 38 44 52 45
REMARK SMILES IDX 39 46 42 47 51 48 65 49 40 50 41 51 50 53 66 54 43 55 32 56
REMARK SMILES IDX 33 57 37 58 34 59 36 60 35 61 54 62 55 63 59 64 56 65 58 66
REMARK SMILES IDX 57 67 44 68 45 69 49 70 46 71 48 72 47 73
REMARK H PARENT 7 17 64 41 42 52
REMARK Flexibility Score: inf
ROOT
ATOM      1  C   UNL A   1      42.232  19.292  25.912  1.00  0.00     0.202 C 
ENDROOT
BRANCH   1   2
ATOM      2  O   UNL A   1      43.070  20.327  26.427  1.00  0.00    -0.374 OA
BRANCH   2   3
ATOM      3  C   UNL A   1      43.611  21.269  25.504  1.00  0.00     0.202 C 
BRANCH   3   4
ATOM      4  C   UNL A   1      45.075  21.073  25.104  1.00  0.00     0.261 C 
BRANCH   4   5
ATOM      5  O   UNL A   1      45.965  21.730  26.018  1.00  0.00    -0.460 OA
BRANCH   5   6
ATOM      6  C   UNL A   1      46.045  23.072  25.874  1.00  0.00     0.342 C 
ATOM      7  O   UNL A   1      45.964  23.699  24.825  1.00  0.00    -0.246 OA
BRANCH   6   8
ATOM      8  C   UNL A   1      46.113  23.753  27.183  1.00  0.00     0.104 A 
ATOM      9  C   UNL A   1      47.228  24.572  27.576  1.00  0.00     0.134 A 
ATOM     10  C   UNL A   1      47.295  25.265  28.810  1.00  0.00     0.059 A 
ATOM     11  C   UNL A   1      46.147  25.058  29.566  1.00  0.00     0.023 A 
ATOM     12  C   UNL A   1      44.967  23.556  28.000  1.00  0.00     0.050 A 
ATOM     13  C   UNL A   1      45.881  25.611  30.788  1.00  0.00     0.114 A 
ATOM     14  C   UNL A   1      45.013  24.242  29.221  1.00  0.00     0.093 A 
ATOM     15  N   UNL A   1      44.657  25.114  31.133  1.00  0.00    -0.285 N 
ATOM     16  N   UNL A   1      44.117  24.284  30.220  1.00  0.00    -0.176 NA
ATOM     17  H   UNL A   1      44.207  25.341  31.978  1.00  0.00     0.189 HD
BRANCH   9  18
ATOM     18  O   UNL A   1      48.361  24.683  26.800  1.00  0.00    -0.496 OA
ATOM     19  C   UNL A   1      49.534  24.848  27.594  1.00  0.00     0.278 C 
ENDBRANCH   9  18
ENDBRANCH   6   8
ENDBRANCH   5   6
ENDBRANCH   4   5
ENDBRANCH   3   4
ENDBRANCH   2   3
ENDBRANCH   1   2
BRANCH   1  20
ATOM     20  C   UNL A   1      40.716  19.495  26.030  1.00  0.00     0.261 C 
BRANCH  20  21
ATOM     21  O   UNL A   1      40.348  20.569  26.917  1.00  0.00    -0.460 OA
BRANCH  21  22
ATOM     22  C   UNL A   1      39.594  21.540  26.353  1.00  0.00     0.338 C 
ATOM     23  O   UNL A   1      38.675  21.400  25.552  1.00  0.00    -0.246 OA
BRANCH  22  24
ATOM     24  C   UNL A   1      39.917  22.853  26.933  1.00  0.00     0.060 A 
ATOM     25  C   UNL A   1      39.285  23.982  26.396  1.00  0.00     0.016 A 
ATOM     26  C   UNL A   1      40.925  22.990  27.889  1.00  0.00     0.016 A 
ATOM     27  C   UNL A   1      39.691  25.258  26.781  1.00  0.00     0.010 A 
ATOM     28  C   UNL A   1      41.339  24.274  28.266  1.00  0.00     0.010 A 
ATOM     29  C   UNL A   1      40.749  25.412  27.688  1.00  0.00    -0.014 A 
BRANCH  29  30
ATOM     30  C   UNL A   1      41.325  26.758  27.924  1.00  0.00     0.031 A 
ATOM     31  C   UNL A   1      42.656  27.106  27.314  1.00  0.00     0.074 A 
ATOM     32  C   UNL A   1      40.663  27.671  28.656  1.00  0.00     0.049 A 
ATOM     33  N   UNL A   1      43.350  28.211  27.415  1.00  0.00    -0.248 NA
ATOM     34  C   UNL A   1      43.285  26.072  26.476  1.00  0.00     0.031 C 
ATOM     35  C   UNL A   1      39.348  27.475  29.265  1.00  0.00     0.029 A 
ATOM     36  N   UNL A   1      41.014  28.948  29.013  1.00  0.00    -0.354 N 
ATOM     37  C   UNL A   1      44.499  28.004  26.662  1.00  0.00     0.074 A 
ATOM     38  C   UNL A   1      44.421  26.661  26.129  1.00  0.00     0.031 C 
ATOM     39  C   UNL A   1      39.006  28.593  29.927  1.00  0.00     0.029 A 
ATOM     40  C   UNL A   1      40.088  29.568  29.814  1.00  0.00     0.049 A 
ATOM     41  H   UNL A   1      41.850  29.378  28.720  1.00  0.00     0.167 HD
ATOM     42  C   UNL A   1      45.525  28.857  26.429  1.00  0.00     0.031 A 
ATOM     43  C   UNL A   1      40.120  30.778  30.406  1.00  0.00     0.031 A 
ATOM     44  C   UNL A   1      45.616  30.188  26.967  1.00  0.00     0.049 A 
ATOM     45  C   UNL A   1      41.309  31.677  30.196  1.00  0.00     0.074 A 
ATOM     46  C   UNL A   1      46.612  31.130  26.777  1.00  0.00     0.029 A 
ATOM     47  N   UNL A   1      44.676  30.763  27.807  1.00  0.00    -0.354 N 
ATOM     48  N   UNL A   1      42.377  31.478  29.464  1.00  0.00    -0.248 NA
ATOM     49  C   UNL A   1      41.289  32.972  30.893  1.00  0.00     0.031 C 
ATOM     50  C   UNL A   1      46.299  32.258  27.542  1.00  0.00     0.029 A 
ATOM     51  C   UNL A   1      45.082  32.037  28.166  1.00  0.00     0.049 A 
ATOM     52  H   UNL A   1      43.844  30.330  28.106  1.00  0.00     0.167 HD
ATOM     53  C   UNL A   1      43.144  32.629  29.590  1.00  0.00     0.074 A 
ATOM     54  C   UNL A   1      42.412  33.528  30.459  1.00  0.00     0.031 C 
ATOM     55  C   UNL A   1      44.344  32.919  29.032  1.00  0.00     0.031 A 
BRANCH  42  56
ATOM     56  C   UNL A   1      46.657  28.357  25.577  1.00  0.00    -0.014 A 
ATOM     57  C   UNL A   1      46.503  28.183  24.193  1.00  0.00     0.009 A 
ATOM     58  C   UNL A   1      47.904  28.090  26.162  1.00  0.00     0.009 A 
ATOM     59  C   UNL A   1      47.568  27.721  23.417  1.00  0.00     0.001 A 
ATOM     60  C   UNL A   1      48.975  27.652  25.380  1.00  0.00     0.001 A 
ATOM     61  C   UNL A   1      48.802  27.459  24.010  1.00  0.00     0.000 A 
ENDBRANCH  42  56
BRANCH  43  62
ATOM     62  C   UNL A   1      38.995  31.208  31.276  1.00  0.00    -0.014 A 
ATOM     63  C   UNL A   1      38.078  32.173  30.834  1.00  0.00     0.009 A 
ATOM     64  C   UNL A   1      38.849  30.668  32.563  1.00  0.00     0.009 A 
ATOM     65  C   UNL A   1      37.049  32.604  31.674  1.00  0.00     0.001 A 
ATOM     66  C   UNL A   1      37.803  31.083  33.390  1.00  0.00     0.001 A 
ATOM     67  C   UNL A   1      36.910  32.057  32.948  1.00  0.00     0.000 A 
ENDBRANCH  43  62
BRANCH  55  68
ATOM     68  C   UNL A   1      44.927  34.275  29.317  1.00  0.00    -0.014 A 
ATOM     69  C   UNL A   1      45.794  34.482  30.400  1.00  0.00     0.009 A 
ATOM     70  C   UNL A   1      44.637  35.349  28.461  1.00  0.00     0.009 A 
ATOM     71  C   UNL A   1      46.334  35.749  30.638  1.00  0.00     0.001 A 
ATOM     72  C   UNL A   1      45.198  36.606  28.686  1.00  0.00     0.001 A 
ATOM     73  C   UNL A   1      46.040  36.807  29.778  1.00  0.00     0.000 A 
ENDBRANCH  55  68
ENDBRANCH  29  30
ENDBRANCH  22  24
ENDBRANCH  21  22
ENDBRANCH  20  21
ENDBRANCH   1  20
TORSDOF 15
ENDMDL
MODEL 3
REMARK VINA RESULT:      -9.4      3.436      7.788
REMARK SMILES COc1cc2c[nH]nc2cc1C(=O)OCCOCCOC(=O)c1ccc(-c2c3nc(c(-c4ccccc4)c4ccc([nH]4)c(-c4ccccc4)c4nc(c(-c5ccccc5)c5ccc2[nH]5)C=C4)C=C3)cc1
REMARK SMILES IDX 18 1 17 2 16 3 15 4 14 5 12 6 13 7 11 8 3 9 4 10 5 11 10 12
REMARK SMILES IDX 6 13 9 14 7 15 8 16 2 18 1 19 19 20 20 21 21 22 22 23 23 24
REMARK SMILES IDX 24 25 70 26 25 27 69 28 26 29 27 30 28 31 63 32 29 33 68 34
REMARK SMILES IDX 62 35 64 36 30 37 67 38 61 39 60 40 31 42 53 43 38 44 52 45
REMARK SMILES IDX 39 46 42 47 51 48 65 49 40 50 41 51 50 53 66 54 43 55 32 56
REMARK SMILES IDX 33 57 37 58 34 59 36 60 35 61 54 62 55 63 59 64 56 65 58 66
REMARK SMILES IDX 57 67 44 68 45 69 49 70 46 71 48 72 47 73
REMARK H PARENT 7 17 64 41 42 52
REMARK Flexibility Score: inf
ROOT
ATOM      1  C   UNL A   1      36.433  19.772  24.889  1.00  0.00     0.202 C 
ENDROOT
BRANCH   1   2
ATOM      2  O   UNL A   1      35.760  20.926  25.393  1.00  0.00    -0.374 OA
BRANCH   2   3
ATOM      3  C   UNL A   1      34.360  21.040  25.152  1.00  0.00     0.202 C 
BRANCH   3   4
ATOM      4  C   UNL A   1      33.567  21.917  26.122  1.00  0.00     0.261 C 
BRANCH   4   5
ATOM      5  O   UNL A   1      33.266  23.199  25.550  1.00  0.00    -0.460 OA
BRANCH   5   6
ATOM      6  C   UNL A   1      34.279  24.095  25.591  1.00  0.00     0.342 C 
ATOM      7  O   UNL A   1      35.353  23.956  26.161  1.00  0.00    -0.246 OA
BRANCH   6   8
ATOM      8  C   UNL A   1      34.002  25.262  24.728  1.00  0.00     0.104 A 
ATOM      9  C   UNL A   1      33.971  25.177  23.292  1.00  0.00     0.134 A 
ATOM     10  C   UNL A   1      33.668  26.273  22.449  1.00  0.00     0.059 A 
ATOM     11  C   UNL A   1      33.394  27.417  23.190  1.00  0.00     0.023 A 
ATOM     12  C   UNL A   1      33.732  26.461  25.442  1.00  0.00     0.050 A 
ATOM     13  C   UNL A   1      33.033  28.634  22.682  1.00  0.00     0.114 A 
ATOM     14  C   UNL A   1      33.421  27.554  24.622  1.00  0.00     0.093 A 
ATOM     15  N   UNL A   1      32.882  29.435  23.777  1.00  0.00    -0.285 N 
ATOM     16  N   UNL A   1      33.117  28.819  24.952  1.00  0.00    -0.176 NA
ATOM     17  H   UNL A   1      32.624  30.383  23.715  1.00  0.00     0.189 HD
BRANCH   9  18
ATOM     18  O   UNL A   1      34.313  24.022  22.623  1.00  0.00    -0.496 OA
ATOM     19  C   UNL A   1      33.169  23.358  22.092  1.00  0.00     0.278 C 
ENDBRANCH   9  18
ENDBRANCH   6   8
ENDBRANCH   5   6
ENDBRANCH   4   5
ENDBRANCH   3   4
ENDBRANCH   2   3
ENDBRANCH   1   2
BRANCH   1  20
ATOM     20  C   UNL A   1      37.964  19.755  24.988  1.00  0.00     0.261 C 
BRANCH  20  21
ATOM     21  O   UNL A   1      38.525  21.011  25.415  1.00  0.00    -0.460 OA
BRANCH  21  22
ATOM     22  C   UNL A   1      39.609  20.907  26.217  1.00  0.00     0.338 C 
ATOM     23  O   UNL A   1      40.330  19.926  26.373  1.00  0.00    -0.246 OA
BRANCH  22  24
ATOM     24  C   UNL A   1      39.937  22.208  26.821  1.00  0.00     0.060 A 
ATOM     25  C   UNL A   1      39.247  23.338  26.363  1.00  0.00     0.016 A 
ATOM     26  C   UNL A   1      40.999  22.339  27.717  1.00  0.00     0.016 A 
ATOM     27  C   UNL A   1      39.647  24.611  26.766  1.00  0.00     0.010 A 
ATOM     28  C   UNL A   1      41.407  23.619  28.112  1.00  0.00     0.010 A 
ATOM     29  C   UNL A   1      40.756  24.761  27.610  1.00  0.00    -0.014 A 
BRANCH  29  30
ATOM     30  C   UNL A   1      41.314  26.112  27.857  1.00  0.00     0.031 A 
ATOM     31  C   UNL A   1      42.645  26.478  27.258  1.00  0.00     0.074 A 
ATOM     32  C   UNL A   1      40.636  27.014  28.588  1.00  0.00     0.049 A 
ATOM     33  N   UNL A   1      43.326  27.591  27.369  1.00  0.00    -0.248 NA
ATOM     34  C   UNL A   1      43.292  25.456  26.421  1.00  0.00     0.031 C 
ATOM     35  C   UNL A   1      39.319  26.800  29.187  1.00  0.00     0.029 A 
ATOM     36  N   UNL A   1      40.970  28.293  28.953  1.00  0.00    -0.354 N 
ATOM     37  C   UNL A   1      44.483  27.400  26.623  1.00  0.00     0.074 A 
ATOM     38  C   UNL A   1      44.424  26.059  26.084  1.00  0.00     0.031 C 
ATOM     39  C   UNL A   1      38.960  27.911  29.851  1.00  0.00     0.029 A 
ATOM     40  C   UNL A   1      40.031  28.900  29.750  1.00  0.00     0.049 A 
ATOM     41  H   UNL A   1      41.803  28.734  28.669  1.00  0.00     0.167 HD
ATOM     42  C   UNL A   1      45.501  28.266  26.403  1.00  0.00     0.031 A 
ATOM     43  C   UNL A   1      40.045  30.107  30.347  1.00  0.00     0.031 A 
ATOM     44  C   UNL A   1      45.572  29.596  26.947  1.00  0.00     0.049 A 
ATOM     45  C   UNL A   1      41.225  31.020  30.151  1.00  0.00     0.074 A 
ATOM     46  C   UNL A   1      46.558  30.550  26.768  1.00  0.00     0.029 A 
ATOM     47  N   UNL A   1      44.620  30.156  27.783  1.00  0.00    -0.354 N 
ATOM     48  N   UNL A   1      42.301  30.837  29.426  1.00  0.00    -0.248 NA
ATOM     49  C   UNL A   1      41.185  32.312  30.853  1.00  0.00     0.031 C 
ATOM     50  C   UNL A   1      46.226  31.671  27.536  1.00  0.00     0.029 A 
ATOM     51  C   UNL A   1      45.008  31.433  28.150  1.00  0.00     0.049 A 
ATOM     52  H   UNL A   1      43.790  29.712  28.073  1.00  0.00     0.167 HD
ATOM     53  C   UNL A   1      43.053  31.997  29.562  1.00  0.00     0.074 A 
ATOM     54  C   UNL A   1      42.305  32.883  30.430  1.00  0.00     0.031 C 
ATOM     55  C   UNL A   1      44.254  32.303  29.015  1.00  0.00     0.031 A 
BRANCH  42  56
ATOM     56  C   UNL A   1      46.644  27.784  25.556  1.00  0.00    -0.014 A 
ATOM     57  C   UNL A   1      47.728  27.095  26.122  1.00  0.00     0.009 A 
ATOM     58  C   UNL A   1      46.619  27.992  24.168  1.00  0.00     0.009 A 
ATOM     59  C   UNL A   1      48.780  26.651  25.317  1.00  0.00     0.001 A 
ATOM     60  C   UNL A   1      47.660  27.525  23.363  1.00  0.00     0.001 A 
ATOM     61  C   UNL A   1      48.743  26.864  23.940  1.00  0.00     0.000 A 
ENDBRANCH  42  56
BRANCH  43  62
ATOM     62  C   UNL A   1      38.909  30.519  31.211  1.00  0.00    -0.014 A 
ATOM     63  C   UNL A   1      38.905  30.218  32.581  1.00  0.00     0.009 A 
ATOM     64  C   UNL A   1      37.811  31.199  30.661  1.00  0.00     0.009 A 
ATOM     65  C   UNL A   1      37.814  30.570  33.378  1.00  0.00     0.001 A 
ATOM     66  C   UNL A   1      36.733  31.573  31.466  1.00  0.00     0.001 A 
ATOM     67  C   UNL A   1      36.732  31.250  32.822  1.00  0.00     0.000 A 
ENDBRANCH  43  62
BRANCH  55  68
ATOM     68  C   UNL A   1      44.819  33.664  29.309  1.00  0.00    -0.014 A 
ATOM     69  C   UNL A   1      44.484  34.777  28.524  1.00  0.00     0.009 A 
ATOM     70  C   UNL A   1      45.664  33.840  30.416  1.00  0.00     0.009 A 
ATOM     71  C   UNL A   1      45.011  36.035  28.824  1.00  0.00     0.001 A 
ATOM     72  C   UNL A   1      46.168  35.103  30.727  1.00  0.00     0.001 A 
ATOM     73  C   UNL A   1      45.847  36.198  29.927  1.00  0.00     0.000 A 
ENDBRANCH  55  68
ENDBRANCH  29  30
ENDBRANCH  22  24
ENDBRANCH  21  22
ENDBRANCH  20  21
ENDBRANCH   1  20
TORSDOF 15
ENDMDL
