MODEL 1
REMARK VINA RESULT:     -10.3      0.000      0.000
REMARK SMILES NS(=O)(=O)c1ccc(/N=C/c2ccc(O)c(C(=O)OCCOCCOC(=O)c3ccc(-c4c5nc(c(-c6ccccc6)c6ccc([nH]6)c(-c6ccccc6)c6nc(c(-c7ccccc7)c7ccc4[nH]7)C=C6)C=C5)cc3)c2)cc1
REMARK SMILES IDX 21 1 20 2 19 3 17 4 18 5 16 6 11 7 12 8 76 9 13 10 14 11
REMARK SMILES IDX 10 12 9 13 8 14 5 15 6 16 78 17 7 18 77 19 2 20 3 21 4 22
REMARK SMILES IDX 1 23 15 26 22 28 23 29 24 30 25 31 26 32 27 33 28 34 29 35
REMARK SMILES IDX 75 36 30 37 74 38 31 39 32 40 33 41 68 42 34 43 73 44 67 45
REMARK SMILES IDX 69 46 35 47 72 48 66 49 65 50 36 52 58 53 43 54 57 55 44 56
REMARK SMILES IDX 47 57 56 58 70 59 45 60 46 61 55 63 71 64 48 65 37 66 38 67
REMARK SMILES IDX 42 68 39 69 41 70 40 71 59 72 60 73 64 74 61 75 63 76 62 77
REMARK SMILES IDX 49 78 50 79 54 80 51 81 53 82 52 83
REMARK H PARENT 1 24 1 25 15 27 69 51 47 62
REMARK Flexibility Score: inf
ROOT
ATOM      1  C   UNL A   1      44.867  21.124  25.331  1.00  0.00     0.202 C 
ENDROOT
BRANCH   1   2
ATOM      2  C   UNL A   1      44.325  19.708  25.101  1.00  0.00     0.261 C 
BRANCH   2   3
ATOM      3  O   UNL A   1      42.888  19.677  25.071  1.00  0.00    -0.460 OA
BRANCH   3   4
ATOM      4  C   UNL A   1      42.309  19.485  26.280  1.00  0.00     0.342 C 
ATOM      5  O   UNL A   1      42.595  18.626  27.103  1.00  0.00    -0.246 OA
BRANCH   4   6
ATOM      6  C   UNL A   1      41.424  20.615  26.634  1.00  0.00     0.102 A 
ATOM      7  C   UNL A   1      39.447  21.972  26.341  1.00  0.00    -0.006 A 
ATOM      8  C   UNL A   1      39.867  22.818  27.375  1.00  0.00     0.013 A 
ATOM      9  C   UNL A   1      40.228  20.876  25.952  1.00  0.00     0.029 A 
ATOM     10  C   UNL A   1      41.069  22.570  28.033  1.00  0.00     0.048 A 
ATOM     11  C   UNL A   1      41.838  21.470  27.670  1.00  0.00     0.130 A 
BRANCH   7  12
ATOM     12  C   UNL A   1      38.147  22.270  25.702  1.00  0.00     0.119 C 
ATOM     13  N   UNL A   1      37.714  23.478  25.536  1.00  0.00    -0.256 NA
BRANCH  13  14
ATOM     14  C   UNL A   1      36.473  23.689  24.903  1.00  0.00     0.063 A 
ATOM     15  C   UNL A   1      34.088  24.104  23.470  1.00  0.00     0.082 A 
ATOM     16  C   UNL A   1      35.117  23.353  22.901  1.00  0.00     0.024 A 
ATOM     17  C   UNL A   1      34.236  24.649  24.746  1.00  0.00     0.024 A 
ATOM     18  C   UNL A   1      36.300  23.152  23.621  1.00  0.00     0.030 A 
ATOM     19  C   UNL A   1      35.428  24.449  25.450  1.00  0.00     0.030 A 
BRANCH  15  20
ATOM     20  S   UNL A   1      32.605  24.409  22.557  1.00  0.00     0.238 S 
ATOM     21  O   UNL A   1      32.942  24.602  21.162  1.00  0.00    -0.207 OA
ATOM     22  O   UNL A   1      31.790  25.337  23.297  1.00  0.00    -0.207 OA
BRANCH  20  23
ATOM     23  N   UNL A   1      31.813  22.928  22.611  1.00  0.00    -0.225 NA
ATOM     24  H   UNL A   1      32.431  22.228  23.020  1.00  0.00     0.137 HD
ATOM     25  H   UNL A   1      31.556  22.645  21.666  1.00  0.00     0.137 HD
ENDBRANCH  20  23
ENDBRANCH  15  20
ENDBRANCH  13  14
ENDBRANCH   7  12
BRANCH  11  26
ATOM     26  O   UNL A   1      43.013  21.309  28.356  1.00  0.00    -0.507 OA
ATOM     27  H   UNL A   1      42.999  21.166  29.282  1.00  0.00     0.293 HD
ENDBRANCH  11  26
ENDBRANCH   4   6
ENDBRANCH   3   4
ENDBRANCH   2   3
ENDBRANCH   1   2
BRANCH   1  28
ATOM     28  O   UNL A   1      44.530  22.121  24.370  1.00  0.00    -0.374 OA
BRANCH  28  29
ATOM     29  C   UNL A   1      43.386  22.936  24.626  1.00  0.00     0.202 C 
BRANCH  29  30
ATOM     30  C   UNL A   1      43.593  24.241  25.405  1.00  0.00     0.261 C 
BRANCH  30  31
ATOM     31  O   UNL A   1      42.352  24.882  25.745  1.00  0.00    -0.460 OA
BRANCH  31  32
ATOM     32  C   UNL A   1      42.368  26.235  25.655  1.00  0.00     0.338 C 
ATOM     33  O   UNL A   1      42.315  26.911  24.643  1.00  0.00    -0.246 OA
BRANCH  32  34
ATOM     34  C   UNL A   1      42.270  26.818  27.005  1.00  0.00     0.060 A 
ATOM     35  C   UNL A   1      41.330  26.270  27.889  1.00  0.00     0.016 A 
ATOM     36  C   UNL A   1      43.034  27.926  27.372  1.00  0.00     0.016 A 
ATOM     37  C   UNL A   1      41.116  26.860  29.132  1.00  0.00     0.010 A 
ATOM     38  C   UNL A   1      42.811  28.522  28.614  1.00  0.00     0.010 A 
ATOM     39  C   UNL A   1      41.826  28.014  29.484  1.00  0.00    -0.014 A 
BRANCH  39  40
ATOM     40  C   UNL A   1      41.443  28.791  30.686  1.00  0.00     0.031 A 
ATOM     41  C   UNL A   1      40.265  29.723  30.598  1.00  0.00     0.074 A 
ATOM     42  C   UNL A   1      42.135  28.681  31.832  1.00  0.00     0.049 A 
ATOM     43  N   UNL A   1      39.821  30.583  31.477  1.00  0.00    -0.248 NA
ATOM     44  C   UNL A   1      39.492  29.684  29.346  1.00  0.00     0.031 C 
ATOM     45  C   UNL A   1      43.259  27.773  32.059  1.00  0.00     0.029 A 
ATOM     46  N   UNL A   1      42.000  29.357  33.018  1.00  0.00    -0.354 N 
ATOM     47  C   UNL A   1      38.731  31.203  30.878  1.00  0.00     0.074 A 
ATOM     48  C   UNL A   1      38.597  30.638  29.552  1.00  0.00     0.031 C 
ATOM     49  C   UNL A   1      43.722  27.961  33.308  1.00  0.00     0.029 A 
ATOM     50  C   UNL A   1      42.959  29.031  33.946  1.00  0.00     0.049 A 
ATOM     51  H   UNL A   1      41.286  30.012  33.188  1.00  0.00     0.167 HD
ATOM     52  C   UNL A   1      37.916  32.157  31.386  1.00  0.00     0.031 A 
ATOM     53  C   UNL A   1      43.212  29.561  35.158  1.00  0.00     0.031 A 
ATOM     54  C   UNL A   1      38.061  32.723  32.700  1.00  0.00     0.049 A 
ATOM     55  C   UNL A   1      42.346  30.684  35.668  1.00  0.00     0.074 A 
ATOM     56  C   UNL A   1      37.279  33.684  33.315  1.00  0.00     0.029 A 
ATOM     57  N   UNL A   1      39.062  32.386  33.597  1.00  0.00    -0.354 N 
ATOM     58  N   UNL A   1      41.310  31.254  35.101  1.00  0.00    -0.248 NA
ATOM     59  C   UNL A   1      42.683  31.233  36.990  1.00  0.00     0.031 C 
ATOM     60  C   UNL A   1      37.843  33.975  34.559  1.00  0.00     0.029 A 
ATOM     61  C   UNL A   1      38.934  33.140  34.750  1.00  0.00     0.049 A 
ATOM     62  H   UNL A   1      39.759  31.710  33.439  1.00  0.00     0.167 HD
ATOM     63  C   UNL A   1      40.849  32.197  36.011  1.00  0.00     0.074 A 
ATOM     64  C   UNL A   1      41.715  32.121  37.169  1.00  0.00     0.031 C 
ATOM     65  C   UNL A   1      39.797  33.045  35.900  1.00  0.00     0.031 A 
BRANCH  52  66
ATOM     66  C   UNL A   1      36.820  32.678  30.498  1.00  0.00    -0.014 A 
ATOM     67  C   UNL A   1      37.040  33.734  29.600  1.00  0.00     0.009 A 
ATOM     68  C   UNL A   1      35.552  32.077  30.539  1.00  0.00     0.009 A 
ATOM     69  C   UNL A   1      36.004  34.203  28.790  1.00  0.00     0.001 A 
ATOM     70  C   UNL A   1      34.526  32.525  29.705  1.00  0.00     0.001 A 
ATOM     71  C   UNL A   1      34.749  33.594  28.839  1.00  0.00     0.000 A 
ENDBRANCH  52  66
BRANCH  53  72
ATOM     72  C   UNL A   1      44.352  29.056  35.968  1.00  0.00    -0.014 A 
ATOM     73  C   UNL A   1      45.634  29.606  35.820  1.00  0.00     0.009 A 
ATOM     74  C   UNL A   1      44.166  28.008  36.884  1.00  0.00     0.009 A 
ATOM     75  C   UNL A   1      46.711  29.098  36.553  1.00  0.00     0.001 A 
ATOM     76  C   UNL A   1      45.238  27.524  37.638  1.00  0.00     0.001 A 
ATOM     77  C   UNL A   1      46.510  28.063  37.464  1.00  0.00     0.000 A 
ENDBRANCH  53  72
BRANCH  65  78
ATOM     78  C   UNL A   1      39.477  33.921  37.082  1.00  0.00    -0.014 A 
ATOM     79  C   UNL A   1      38.789  33.428  38.200  1.00  0.00     0.009 A 
ATOM     80  C   UNL A   1      39.942  35.247  37.099  1.00  0.00     0.009 A 
ATOM     81  C   UNL A   1      38.549  34.255  39.300  1.00  0.00     0.001 A 
ATOM     82  C   UNL A   1      39.729  36.059  38.212  1.00  0.00     0.001 A 
ATOM     83  C   UNL A   1      39.026  35.565  39.309  1.00  0.00     0.000 A 
ENDBRANCH  65  78
ENDBRANCH  39  40
ENDBRANCH  32  34
ENDBRANCH  31  32
ENDBRANCH  30  31
ENDBRANCH  29  30
ENDBRANCH  28  29
ENDBRANCH   1  28
TORSDOF 19
ENDMDL
MODEL 2
REMARK VINA RESULT:     -10.3      4.462      8.809
REMARK SMILES NS(=O)(=O)c1ccc(/N=C/c2ccc(O)c(C(=O)OCCOCCOC(=O)c3ccc(-c4c5nc(c(-c6ccccc6)c6ccc([nH]6)c(-c6ccccc6)c6nc(c(-c7ccccc7)c7ccc4[nH]7)C=C6)C=C5)cc3)c2)cc1
REMARK SMILES IDX 21 1 20 2 19 3 17 4 18 5 16 6 11 7 12 8 76 9 13 10 14 11
REMARK SMILES IDX 10 12 9 13 8 14 5 15 6 16 78 17 7 18 77 19 2 20 3 21 4 22
REMARK SMILES IDX 1 23 15 26 22 28 23 29 24 30 25 31 26 32 27 33 28 34 29 35
REMARK SMILES IDX 75 36 30 37 74 38 31 39 32 40 33 41 68 42 34 43 73 44 67 45
REMARK SMILES IDX 69 46 35 47 72 48 66 49 65 50 36 52 58 53 43 54 57 55 44 56
REMARK SMILES IDX 47 57 56 58 70 59 45 60 46 61 55 63 71 64 48 65 37 66 38 67
REMARK SMILES IDX 42 68 39 69 41 70 40 71 59 72 60 73 64 74 61 75 63 76 62 77
REMARK SMILES IDX 49 78 50 79 54 80 51 81 53 82 52 83
REMARK H PARENT 1 24 1 25 15 27 69 51 47 62
REMARK Flexibility Score: inf
ROOT
ATOM      1  C   UNL A   1      35.245  22.571  23.726  1.00  0.00     0.202 C 
ENDROOT
BRANCH   1   2
ATOM      2  C   UNL A   1      33.974  23.319  23.307  1.00  0.00     0.261 C 
BRANCH   2   3
ATOM      3  O   UNL A   1      34.266  24.621  22.769  1.00  0.00    -0.460 OA
BRANCH   3   4
ATOM      4  C   UNL A   1      33.229  25.202  22.120  1.00  0.00     0.342 C 
ATOM      5  O   UNL A   1      32.933  25.062  20.941  1.00  0.00    -0.246 OA
BRANCH   4   6
ATOM      6  C   UNL A   1      32.304  25.857  23.067  1.00  0.00     0.102 A 
ATOM      7  C   UNL A   1      31.696  27.606  24.619  1.00  0.00    -0.006 A 
ATOM      8  C   UNL A   1      30.477  26.965  24.873  1.00  0.00     0.013 A 
ATOM      9  C   UNL A   1      32.624  27.050  23.728  1.00  0.00     0.029 A 
ATOM     10  C   UNL A   1      30.174  25.765  24.234  1.00  0.00     0.048 A 
ATOM     11  C   UNL A   1      31.078  25.220  23.330  1.00  0.00     0.130 A 
BRANCH   7  12
ATOM     12  C   UNL A   1      31.947  28.891  25.305  1.00  0.00     0.119 C 
ATOM     13  N   UNL A   1      32.940  29.065  26.115  1.00  0.00    -0.256 NA
BRANCH  13  14
ATOM     14  C   UNL A   1      33.129  30.323  26.722  1.00  0.00     0.063 A 
ATOM     15  C   UNL A   1      33.623  32.747  28.061  1.00  0.00     0.082 A 
ATOM     16  C   UNL A   1      34.609  31.760  28.029  1.00  0.00     0.024 A 
ATOM     17  C   UNL A   1      32.396  32.538  27.431  1.00  0.00     0.024 A 
ATOM     18  C   UNL A   1      34.354  30.556  27.361  1.00  0.00     0.030 A 
ATOM     19  C   UNL A   1      32.150  31.327  26.777  1.00  0.00     0.030 A 
BRANCH  15  20
ATOM     20  S   UNL A   1      33.909  34.254  28.940  1.00  0.00     0.238 S 
ATOM     21  O   UNL A   1      35.097  34.891  28.409  1.00  0.00    -0.207 OA
ATOM     22  O   UNL A   1      33.717  34.013  30.345  1.00  0.00    -0.207 OA
BRANCH  20  23
ATOM     23  N   UNL A   1      32.635  35.232  28.444  1.00  0.00    -0.225 NA
ATOM     24  H   UNL A   1      32.414  35.032  27.469  1.00  0.00     0.137 HD
ATOM     25  H   UNL A   1      32.901  36.212  28.538  1.00  0.00     0.137 HD
ENDBRANCH  20  23
ENDBRANCH  15  20
ENDBRANCH  13  14
ENDBRANCH   7  12
BRANCH  11  26
ATOM     26  O   UNL A   1      30.709  24.031  22.758  1.00  0.00    -0.507 OA
ATOM     27  H   UNL A   1      30.863  23.225  23.210  1.00  0.00     0.293 HD
ENDBRANCH  11  26
ENDBRANCH   4   6
ENDBRANCH   3   4
ENDBRANCH   2   3
ENDBRANCH   1   2
BRANCH   1  28
ATOM     28  O   UNL A   1      35.212  21.858  24.960  1.00  0.00    -0.374 OA
BRANCH  28  29
ATOM     29  C   UNL A   1      35.730  20.529  24.978  1.00  0.00     0.202 C 
BRANCH  29  30
ATOM     30  C   UNL A   1      37.253  20.349  24.920  1.00  0.00     0.261 C 
BRANCH  30  31
ATOM     31  O   UNL A   1      37.962  21.509  25.390  1.00  0.00    -0.460 OA
BRANCH  31  32
ATOM     32  C   UNL A   1      39.114  21.241  26.052  1.00  0.00     0.338 C 
ATOM     33  O   UNL A   1      39.741  20.197  26.057  1.00  0.00    -0.246 OA
BRANCH  32  34
ATOM     34  C   UNL A   1      39.636  22.482  26.651  1.00  0.00     0.060 A 
ATOM     35  C   UNL A   1      39.083  23.698  26.225  1.00  0.00     0.016 A 
ATOM     36  C   UNL A   1      40.695  22.460  27.558  1.00  0.00     0.016 A 
ATOM     37  C   UNL A   1      39.620  24.903  26.670  1.00  0.00     0.010 A 
ATOM     38  C   UNL A   1      41.240  23.668  27.995  1.00  0.00     0.010 A 
ATOM     39  C   UNL A   1      40.729  24.893  27.525  1.00  0.00    -0.014 A 
BRANCH  39  40
ATOM     40  C   UNL A   1      41.462  26.149  27.813  1.00  0.00     0.031 A 
ATOM     41  C   UNL A   1      40.795  27.196  28.662  1.00  0.00     0.074 A 
ATOM     42  C   UNL A   1      42.694  26.360  27.320  1.00  0.00     0.049 A 
ATOM     43  N   UNL A   1      41.192  28.409  28.945  1.00  0.00    -0.248 NA
ATOM     44  C   UNL A   1      39.502  26.826  29.262  1.00  0.00     0.031 C 
ATOM     45  C   UNL A   1      43.468  25.402  26.532  1.00  0.00     0.029 A 
ATOM     46  N   UNL A   1      43.502  27.466  27.397  1.00  0.00    -0.354 N 
ATOM     47  C   UNL A   1      40.189  28.956  29.738  1.00  0.00     0.074 A 
ATOM     48  C   UNL A   1      39.156  27.951  29.869  1.00  0.00     0.031 C 
ATOM     49  C   UNL A   1      44.636  25.969  26.186  1.00  0.00     0.029 A 
ATOM     50  C   UNL A   1      44.670  27.341  26.686  1.00  0.00     0.049 A 
ATOM     51  H   UNL A   1      43.268  28.270  27.914  1.00  0.00     0.167 HD
ATOM     52  C   UNL A   1      40.135  30.184  30.306  1.00  0.00     0.031 A 
ATOM     53  C   UNL A   1      45.639  28.244  26.438  1.00  0.00     0.031 A 
ATOM     54  C   UNL A   1      41.159  31.182  30.163  1.00  0.00     0.049 A 
ATOM     55  C   UNL A   1      45.514  29.635  27.007  1.00  0.00     0.074 A 
ATOM     56  C   UNL A   1      41.206  32.452  30.709  1.00  0.00     0.029 A 
ATOM     57  N   UNL A   1      42.313  31.026  29.411  1.00  0.00    -0.354 N 
ATOM     58  N   UNL A   1      44.571  30.137  27.766  1.00  0.00    -0.248 NA
ATOM     59  C   UNL A   1      46.594  30.580  26.687  1.00  0.00     0.031 C 
ATOM     60  C   UNL A   1      42.357  33.088  30.236  1.00  0.00     0.029 A 
ATOM     61  C   UNL A   1      43.064  32.187  29.455  1.00  0.00     0.049 A 
ATOM     62  H   UNL A   1      42.561  30.211  28.918  1.00  0.00     0.167 HD
ATOM     63  C   UNL A   1      44.963  31.440  28.046  1.00  0.00     0.074 A 
ATOM     64  C   UNL A   1      46.230  31.650  27.379  1.00  0.00     0.031 C 
ATOM     65  C   UNL A   1      44.332  32.377  28.796  1.00  0.00     0.031 A 
BRANCH  52  66
ATOM     66  C   UNL A   1      38.904  30.528  31.098  1.00  0.00    -0.014 A 
ATOM     67  C   UNL A   1      38.827  30.289  32.479  1.00  0.00     0.009 A 
ATOM     68  C   UNL A   1      37.814  31.134  30.454  1.00  0.00     0.009 A 
ATOM     69  C   UNL A   1      37.669  30.614  33.190  1.00  0.00     0.001 A 
ATOM     70  C   UNL A   1      36.671  31.489  31.173  1.00  0.00     0.001 A 
ATOM     71  C   UNL A   1      36.595  31.218  32.538  1.00  0.00     0.000 A 
ENDBRANCH  52  66
BRANCH  53  72
ATOM     72  C   UNL A   1      46.803  27.874  25.591  1.00  0.00    -0.014 A 
ATOM     73  C   UNL A   1      47.993  27.411  26.172  1.00  0.00     0.009 A 
ATOM     74  C   UNL A   1      46.736  27.998  24.194  1.00  0.00     0.009 A 
ATOM     75  C   UNL A   1      49.099  27.106  25.374  1.00  0.00     0.001 A 
ATOM     76  C   UNL A   1      47.832  27.661  23.396  1.00  0.00     0.001 A 
ATOM     77  C   UNL A   1      49.015  27.226  23.988  1.00  0.00     0.000 A 
ENDBRANCH  53  72
BRANCH  65  78
ATOM     78  C   UNL A   1      45.025  33.698  28.992  1.00  0.00    -0.014 A 
ATOM     79  C   UNL A   1      44.776  34.794  28.153  1.00  0.00     0.009 A 
ATOM     80  C   UNL A   1      45.890  33.863  30.087  1.00  0.00     0.009 A 
ATOM     81  C   UNL A   1      45.400  36.021  28.391  1.00  0.00     0.001 A 
ATOM     82  C   UNL A   1      46.487  35.098  30.341  1.00  0.00     0.001 A 
ATOM     83  C   UNL A   1      46.248  36.174  29.488  1.00  0.00     0.000 A 
ENDBRANCH  65  78
ENDBRANCH  39  40
ENDBRANCH  32  34
ENDBRANCH  31  32
ENDBRANCH  30  31
ENDBRANCH  29  30
ENDBRANCH  28  29
ENDBRANCH   1  28
TORSDOF 19
ENDMDL
MODEL 3
REMARK VINA RESULT:     -10.2      2.811      8.820
REMARK SMILES NS(=O)(=O)c1ccc(/N=C/c2ccc(O)c(C(=O)OCCOCCOC(=O)c3ccc(-c4c5nc(c(-c6ccccc6)c6ccc([nH]6)c(-c6ccccc6)c6nc(c(-c7ccccc7)c7ccc4[nH]7)C=C6)C=C5)cc3)c2)cc1
REMARK SMILES IDX 21 1 20 2 19 3 17 4 18 5 16 6 11 7 12 8 76 9 13 10 14 11
REMARK SMILES IDX 10 12 9 13 8 14 5 15 6 16 78 17 7 18 77 19 2 20 3 21 4 22
REMARK SMILES IDX 1 23 15 26 22 28 23 29 24 30 25 31 26 32 27 33 28 34 29 35
REMARK SMILES IDX 75 36 30 37 74 38 31 39 32 40 33 41 68 42 34 43 73 44 67 45
REMARK SMILES IDX 69 46 35 47 72 48 66 49 65 50 36 52 58 53 43 54 57 55 44 56
REMARK SMILES IDX 47 57 56 58 70 59 45 60 46 61 55 63 71 64 48 65 37 66 38 67
REMARK SMILES IDX 42 68 39 69 41 70 40 71 59 72 60 73 64 74 61 75 63 76 62 77
REMARK SMILES IDX 49 78 50 79 54 80 51 81 53 82 52 83
REMARK H PARENT 1 24 1 25 15 27 69 51 47 62
REMARK Flexibility Score: inf
ROOT
ATOM      1  C   UNL A   1      31.971  27.567  25.114  1.00  0.00     0.202 C 
ENDROOT
BRANCH   1   2
ATOM      2  C   UNL A   1      31.633  26.647  26.294  1.00  0.00     0.261 C 
BRANCH   2   3
ATOM      3  O   UNL A   1      30.975  25.441  25.868  1.00  0.00    -0.460 OA
BRANCH   3   4
ATOM      4  C   UNL A   1      31.525  24.304  26.355  1.00  0.00     0.342 C 
ATOM      5  O   UNL A   1      31.276  23.771  27.429  1.00  0.00    -0.246 OA
BRANCH   4   6
ATOM      6  C   UNL A   1      32.308  23.601  25.318  1.00  0.00     0.102 A 
ATOM      7  C   UNL A   1      34.325  22.576  24.471  1.00  0.00    -0.006 A 
ATOM      8  C   UNL A   1      33.689  22.318  23.251  1.00  0.00     0.013 A 
ATOM      9  C   UNL A   1      33.647  23.233  25.507  1.00  0.00     0.029 A 
ATOM     10  C   UNL A   1      32.366  22.710  23.058  1.00  0.00     0.048 A 
ATOM     11  C   UNL A   1      31.678  23.340  24.088  1.00  0.00     0.130 A 
BRANCH   7  12
ATOM     12  C   UNL A   1      35.719  22.110  24.625  1.00  0.00     0.119 C 
ATOM     13  N   UNL A   1      36.428  22.369  25.676  1.00  0.00    -0.256 NA
BRANCH  13  14
ATOM     14  C   UNL A   1      37.746  21.877  25.763  1.00  0.00     0.063 A 
ATOM     15  C   UNL A   1      40.301  20.719  25.961  1.00  0.00     0.082 A 
ATOM     16  C   UNL A   1      39.245  19.979  25.428  1.00  0.00     0.024 A 
ATOM     17  C   UNL A   1      40.097  22.029  26.395  1.00  0.00     0.024 A 
ATOM     18  C   UNL A   1      37.976  20.564  25.334  1.00  0.00     0.030 A 
ATOM     19  C   UNL A   1      38.822  22.596  26.305  1.00  0.00     0.030 A 
BRANCH  15  20
ATOM     20  S   UNL A   1      41.899  19.982  26.132  1.00  0.00     0.238 S 
ATOM     21  O   UNL A   1      42.887  20.851  25.525  1.00  0.00    -0.207 OA
ATOM     22  O   UNL A   1      41.798  18.581  25.818  1.00  0.00    -0.207 OA
BRANCH  20  23
ATOM     23  N   UNL A   1      42.190  20.081  27.784  1.00  0.00    -0.225 NA
ATOM     24  H   UNL A   1      42.767  19.292  28.075  1.00  0.00     0.137 HD
ATOM     25  H   UNL A   1      41.304  20.059  28.287  1.00  0.00     0.137 HD
ENDBRANCH  20  23
ENDBRANCH  15  20
ENDBRANCH  13  14
ENDBRANCH   7  12
BRANCH  11  26
ATOM     26  O   UNL A   1      30.387  23.705  23.810  1.00  0.00    -0.507 OA
ATOM     27  H   UNL A   1      29.772  23.065  23.512  1.00  0.00     0.293 HD
ENDBRANCH  11  26
ENDBRANCH   4   6
ENDBRANCH   3   4
ENDBRANCH   2   3
ENDBRANCH   1   2
BRANCH   1  28
ATOM     28  O   UNL A   1      30.994  28.533  24.733  1.00  0.00    -0.374 OA
BRANCH  28  29
ATOM     29  C   UNL A   1      31.300  29.911  24.946  1.00  0.00     0.202 C 
BRANCH  29  30
ATOM     30  C   UNL A   1      31.798  30.331  26.334  1.00  0.00     0.261 C 
BRANCH  30  31
ATOM     31  O   UNL A   1      33.226  30.492  26.382  1.00  0.00    -0.460 OA
BRANCH  31  32
ATOM     32  C   UNL A   1      33.663  31.448  27.237  1.00  0.00     0.338 C 
ATOM     33  O   UNL A   1      33.033  32.394  27.676  1.00  0.00    -0.246 OA
BRANCH  32  34
ATOM     34  C   UNL A   1      35.002  31.087  27.736  1.00  0.00     0.060 A 
ATOM     35  C   UNL A   1      35.262  29.733  27.992  1.00  0.00     0.016 A 
ATOM     36  C   UNL A   1      35.958  32.063  28.015  1.00  0.00     0.016 A 
ATOM     37  C   UNL A   1      36.469  29.354  28.575  1.00  0.00     0.010 A 
ATOM     38  C   UNL A   1      37.163  31.682  28.610  1.00  0.00     0.010 A 
ATOM     39  C   UNL A   1      37.408  30.331  28.925  1.00  0.00    -0.014 A 
BRANCH  39  40
ATOM     40  C   UNL A   1      38.580  29.978  29.761  1.00  0.00     0.031 A 
ATOM     41  C   UNL A   1      39.642  29.088  29.175  1.00  0.00     0.074 A 
ATOM     42  C   UNL A   1      38.693  30.428  31.021  1.00  0.00     0.049 A 
ATOM     43  N   UNL A   1      40.687  28.556  29.751  1.00  0.00    -0.248 NA
ATOM     44  C   UNL A   1      39.497  28.748  27.749  1.00  0.00     0.031 C 
ATOM     45  C   UNL A   1      37.760  31.339  31.683  1.00  0.00     0.029 A 
ATOM     46  N   UNL A   1      39.640  30.160  31.977  1.00  0.00    -0.354 N 
ATOM     47  C   UNL A   1      41.314  27.800  28.767  1.00  0.00     0.074 A 
ATOM     48  C   UNL A   1      40.518  27.924  27.565  1.00  0.00     0.031 C 
ATOM     49  C   UNL A   1      38.175  31.543  32.945  1.00  0.00     0.029 A 
ATOM     50  C   UNL A   1      39.371  30.742  33.191  1.00  0.00     0.049 A 
ATOM     51  H   UNL A   1      40.435  29.605  31.808  1.00  0.00     0.167 HD
ATOM     52  C   UNL A   1      42.450  27.069  28.857  1.00  0.00     0.031 A 
ATOM     53  C   UNL A   1      40.001  30.613  34.376  1.00  0.00     0.031 A 
ATOM     54  C   UNL A   1      43.231  26.940  30.057  1.00  0.00     0.049 A 
ATOM     55  C   UNL A   1      41.213  29.723  34.474  1.00  0.00     0.074 A 
ATOM     56  C   UNL A   1      44.406  26.235  30.249  1.00  0.00     0.029 A 
ATOM     57  N   UNL A   1      42.910  27.522  31.273  1.00  0.00    -0.354 N 
ATOM     58  N   UNL A   1      41.806  29.025  33.536  1.00  0.00    -0.248 NA
ATOM     59  C   UNL A   1      41.846  29.609  35.797  1.00  0.00     0.031 C 
ATOM     60  C   UNL A   1      44.761  26.338  31.596  1.00  0.00     0.029 A 
ATOM     61  C   UNL A   1      43.848  27.169  32.227  1.00  0.00     0.049 A 
ATOM     62  H   UNL A   1      42.130  28.101  31.435  1.00  0.00     0.167 HD
ATOM     63  C   UNL A   1      42.901  28.423  34.144  1.00  0.00     0.074 A 
ATOM     64  C   UNL A   1      42.893  28.841  35.530  1.00  0.00     0.031 C 
ATOM     65  C   UNL A   1      43.834  27.603  33.601  1.00  0.00     0.031 A 
BRANCH  52  66
ATOM     66  C   UNL A   1      42.890  26.317  27.631  1.00  0.00    -0.014 A 
ATOM     67  C   UNL A   1      42.406  25.032  27.343  1.00  0.00     0.009 A 
ATOM     68  C   UNL A   1      43.782  26.922  26.731  1.00  0.00     0.009 A 
ATOM     69  C   UNL A   1      42.834  24.353  26.200  1.00  0.00     0.001 A 
ATOM     70  C   UNL A   1      44.184  26.255  25.573  1.00  0.00     0.001 A 
ATOM     71  C   UNL A   1      43.718  24.967  25.313  1.00  0.00     0.000 A 
ENDBRANCH  52  66
BRANCH  53  72
ATOM     72  C   UNL A   1      39.484  31.324  35.575  1.00  0.00    -0.014 A 
ATOM     73  C   UNL A   1      40.145  32.456  36.075  1.00  0.00     0.009 A 
ATOM     74  C   UNL A   1      38.335  30.864  36.237  1.00  0.00     0.009 A 
ATOM     75  C   UNL A   1      39.681  33.096  37.228  1.00  0.00     0.001 A 
ATOM     76  C   UNL A   1      37.855  31.524  37.370  1.00  0.00     0.001 A 
ATOM     77  C   UNL A   1      38.534  32.632  37.870  1.00  0.00     0.000 A 
ENDBRANCH  53  72
BRANCH  65  78
ATOM     78  C   UNL A   1      44.964  27.148  34.484  1.00  0.00    -0.014 A 
ATOM     79  C   UNL A   1      44.926  25.917  35.155  1.00  0.00     0.009 A 
ATOM     80  C   UNL A   1      46.119  27.942  34.585  1.00  0.00     0.009 A 
ATOM     81  C   UNL A   1      46.013  25.503  35.929  1.00  0.00     0.001 A 
ATOM     82  C   UNL A   1      47.214  27.511  35.333  1.00  0.00     0.001 A 
ATOM     83  C   UNL A   1      47.157  26.295  36.011  1.00  0.00     0.000 A 
ENDBRANCH  65  78
ENDBRANCH  39  40
ENDBRANCH  32  34
ENDBRANCH  31  32
ENDBRANCH  30  31
ENDBRANCH  29  30
ENDBRANCH  28  29
ENDBRANCH   1  28
TORSDOF 19
ENDMDL
