MODEL 1
REMARK VINA RESULT:      -9.9      0.000      0.000
REMARK SMILES C[NH2+][C@@H](C)c1ccc(SCc2ccc(C(=O)OCCOCCOC(=O)c3ccc(-c4c5nc(c(-c6ccccc6)c6ccc([nH]6)c(-c6ccccc6)c6nc(c(-c7ccccc7)c7ccc4[nH]7)C=C6)C=C5)cc3)cc2)cc1
REMARK SMILES IDX 18 1 17 2 15 3 16 4 14 5 11 6 12 7 75 8 13 9 74 10 10 11
REMARK SMILES IDX 9 12 8 13 5 14 6 15 77 16 7 17 76 18 3 19 4 20 2 21 1 22
REMARK SMILES IDX 19 25 20 26 21 27 22 28 23 29 24 30 25 31 26 32 27 33 73 34
REMARK SMILES IDX 28 35 72 36 29 37 30 38 31 39 66 40 32 41 71 42 65 43 67 44
REMARK SMILES IDX 33 45 70 46 64 47 63 48 34 50 56 51 41 52 55 53 42 54 45 55
REMARK SMILES IDX 54 56 68 57 43 58 44 59 53 61 69 62 46 63 35 64 36 65 40 66
REMARK SMILES IDX 37 67 39 68 38 69 57 70 58 71 62 72 59 73 61 74 60 75 47 76
REMARK SMILES IDX 48 77 52 78 49 79 51 80 50 81
REMARK H PARENT 2 23 2 24 67 49 45 60
REMARK Flexibility Score: inf
ROOT
ATOM      1  C   UNL A   1      30.616  26.549  25.369  1.00  0.00     0.261 C 
ENDROOT
BRANCH   1   2
ATOM      2  O   UNL A   1      31.203  25.252  25.569  1.00  0.00    -0.460 OA
BRANCH   2   3
ATOM      3  C   UNL A   1      31.556  24.619  24.427  1.00  0.00     0.338 C 
ATOM      4  O   UNL A   1      30.839  24.366  23.469  1.00  0.00    -0.246 OA
BRANCH   3   5
ATOM      5  C   UNL A   1      33.014  24.409  24.396  1.00  0.00     0.060 A 
ATOM      6  C   UNL A   1      35.706  23.633  24.329  1.00  0.00    -0.038 A 
ATOM      7  C   UNL A   1      34.889  23.458  23.205  1.00  0.00     0.005 A 
ATOM      8  C   UNL A   1      35.188  24.354  25.425  1.00  0.00     0.005 A 
ATOM      9  C   UNL A   1      33.541  23.797  23.256  1.00  0.00     0.016 A 
ATOM     10  C   UNL A   1      33.847  24.753  25.459  1.00  0.00     0.016 A 
BRANCH   6  11
ATOM     11  C   UNL A   1      37.088  23.022  24.467  1.00  0.00     0.110 C 
BRANCH  11  12
ATOM     12  S   UNL A   1      37.323  21.590  25.578  1.00  0.00    -0.121 SA
BRANCH  12  13
ATOM     13  C   UNL A   1      36.007  20.442  25.170  1.00  0.00     0.008 A 
ATOM     14  C   UNL A   1      34.088  18.529  24.315  1.00  0.00     0.009 A 
ATOM     15  C   UNL A   1      35.452  18.208  24.362  1.00  0.00     0.011 A 
ATOM     16  C   UNL A   1      33.699  19.810  24.734  1.00  0.00     0.011 A 
ATOM     17  C   UNL A   1      36.395  19.155  24.777  1.00  0.00     0.015 A 
ATOM     18  C   UNL A   1      34.644  20.747  25.174  1.00  0.00     0.015 A 
BRANCH  14  19
ATOM     19  C   UNL A   1      33.073  17.480  23.878  1.00  0.00     0.210 C 
ATOM     20  C   UNL A   1      32.293  17.930  22.634  1.00  0.00     0.081 C 
BRANCH  19  21
ATOM     21  N   UNL A   1      32.214  17.153  25.025  1.00  0.00    -0.343 N 
ATOM     22  C   UNL A   1      32.576  15.924  25.707  1.00  0.00     0.331 C 
ATOM     23  H   UNL A   1      32.269  17.920  25.694  1.00  0.00     0.346 HD
ATOM     24  H   UNL A   1      31.272  17.017  24.656  1.00  0.00     0.346 HD
ENDBRANCH  19  21
ENDBRANCH  14  19
ENDBRANCH  12  13
ENDBRANCH  11  12
ENDBRANCH   6  11
ENDBRANCH   3   5
ENDBRANCH   2   3
ENDBRANCH   1   2
BRANCH   1  25
ATOM     25  C   UNL A   1      31.067  27.530  26.455  1.00  0.00     0.202 C 
BRANCH  25  26
ATOM     26  O   UNL A   1      31.903  28.606  26.026  1.00  0.00    -0.374 OA
BRANCH  26  27
ATOM     27  C   UNL A   1      32.316  29.545  27.021  1.00  0.00     0.202 C 
BRANCH  27  28
ATOM     28  C   UNL A   1      33.828  29.685  27.238  1.00  0.00     0.261 C 
BRANCH  28  29
ATOM     29  O   UNL A   1      34.216  31.061  27.403  1.00  0.00    -0.460 OA
BRANCH  29  30
ATOM     30  C   UNL A   1      34.888  31.331  28.546  1.00  0.00     0.338 C 
ATOM     31  O   UNL A   1      34.504  31.999  29.495  1.00  0.00    -0.246 OA
BRANCH  30  32
ATOM     32  C   UNL A   1      36.132  30.542  28.591  1.00  0.00     0.060 A 
ATOM     33  C   UNL A   1      36.461  29.925  29.806  1.00  0.00     0.016 A 
ATOM     34  C   UNL A   1      36.993  30.455  27.495  1.00  0.00     0.016 A 
ATOM     35  C   UNL A   1      37.676  29.260  29.945  1.00  0.00     0.010 A 
ATOM     36  C   UNL A   1      38.218  29.796  27.639  1.00  0.00     0.010 A 
ATOM     37  C   UNL A   1      38.579  29.226  28.875  1.00  0.00    -0.014 A 
BRANCH  37  38
ATOM     38  C   UNL A   1      39.955  28.722  29.095  1.00  0.00     0.031 A 
ATOM     39  C   UNL A   1      40.968  29.624  29.745  1.00  0.00     0.074 A 
ATOM     40  C   UNL A   1      40.293  27.468  28.747  1.00  0.00     0.049 A 
ATOM     41  N   UNL A   1      42.228  29.397  30.012  1.00  0.00    -0.248 NA
ATOM     42  C   UNL A   1      40.495  30.959  30.146  1.00  0.00     0.031 C 
ATOM     43  C   UNL A   1      39.391  26.482  28.153  1.00  0.00     0.029 A 
ATOM     44  N   UNL A   1      41.493  26.812  28.846  1.00  0.00    -0.354 N 
ATOM     45  C   UNL A   1      42.702  30.560  30.606  1.00  0.00     0.074 A 
ATOM     46  C   UNL A   1      41.602  31.499  30.636  1.00  0.00     0.031 C 
ATOM     47  C   UNL A   1      40.075  25.346  27.933  1.00  0.00     0.029 A 
ATOM     48  C   UNL A   1      41.465  25.535  28.342  1.00  0.00     0.049 A 
ATOM     49  H   UNL A   1      42.299  27.218  29.241  1.00  0.00     0.167 HD
ATOM     50  C   UNL A   1      43.939  30.821  31.089  1.00  0.00     0.031 A 
ATOM     51  C   UNL A   1      42.454  24.631  28.207  1.00  0.00     0.031 A 
ATOM     52  C   UNL A   1      45.038  29.895  31.049  1.00  0.00     0.049 A 
ATOM     53  C   UNL A   1      43.841  24.975  28.678  1.00  0.00     0.074 A 
ATOM     54  C   UNL A   1      46.326  30.063  31.526  1.00  0.00     0.029 A 
ATOM     55  N   UNL A   1      44.979  28.628  30.490  1.00  0.00    -0.354 N 
ATOM     56  N   UNL A   1      44.269  26.069  29.261  1.00  0.00    -0.248 NA
ATOM     57  C   UNL A   1      44.879  23.955  28.478  1.00  0.00     0.031 C 
ATOM     58  C   UNL A   1      47.062  28.916  31.208  1.00  0.00     0.029 A 
ATOM     59  C   UNL A   1      46.217  28.014  30.584  1.00  0.00     0.049 A 
ATOM     60  H   UNL A   1      44.177  28.224  30.086  1.00  0.00     0.167 HD
ATOM     61  C   UNL A   1      45.619  25.858  29.519  1.00  0.00     0.074 A 
ATOM     62  C   UNL A   1      45.934  24.527  29.043  1.00  0.00     0.031 C 
ATOM     63  C   UNL A   1      46.515  26.690  30.101  1.00  0.00     0.031 A 
BRANCH  50  64
ATOM     64  C   UNL A   1      44.177  32.186  31.672  1.00  0.00    -0.014 A 
ATOM     65  C   UNL A   1      43.980  32.440  33.039  1.00  0.00     0.009 A 
ATOM     66  C   UNL A   1      44.633  33.225  30.847  1.00  0.00     0.009 A 
ATOM     67  C   UNL A   1      44.204  33.717  33.559  1.00  0.00     0.001 A 
ATOM     68  C   UNL A   1      44.880  34.493  31.374  1.00  0.00     0.001 A 
ATOM     69  C   UNL A   1      44.657  34.740  32.728  1.00  0.00     0.000 A 
ENDBRANCH  50  64
BRANCH  51  70
ATOM     70  C   UNL A   1      42.176  23.314  27.579  1.00  0.00    -0.014 A 
ATOM     71  C   UNL A   1      42.447  23.097  26.219  1.00  0.00     0.009 A 
ATOM     72  C   UNL A   1      41.621  22.270  28.336  1.00  0.00     0.009 A 
ATOM     73  C   UNL A   1      42.145  21.869  25.626  1.00  0.00     0.001 A 
ATOM     74  C   UNL A   1      41.346  21.035  27.747  1.00  0.00     0.001 A 
ATOM     75  C   UNL A   1      41.598  20.838  26.390  1.00  0.00     0.000 A 
ENDBRANCH  51  70
BRANCH  63  76
ATOM     76  C   UNL A   1      47.916  26.175  30.287  1.00  0.00    -0.014 A 
ATOM     77  C   UNL A   1      48.844  26.193  29.235  1.00  0.00     0.009 A 
ATOM     78  C   UNL A   1      48.321  25.702  31.545  1.00  0.00     0.009 A 
ATOM     79  C   UNL A   1      50.143  25.719  29.433  1.00  0.00     0.001 A 
ATOM     80  C   UNL A   1      49.627  25.254  31.747  1.00  0.00     0.001 A 
ATOM     81  C   UNL A   1      50.534  25.254  30.688  1.00  0.00     0.000 A 
ENDBRANCH  63  76
ENDBRANCH  37  38
ENDBRANCH  30  32
ENDBRANCH  29  30
ENDBRANCH  28  29
ENDBRANCH  27  28
ENDBRANCH  26  27
ENDBRANCH  25  26
ENDBRANCH   1  25
TORSDOF 19
ENDMDL
MODEL 2
REMARK VINA RESULT:      -9.9      5.287      7.570
REMARK SMILES C[NH2+][C@@H](C)c1ccc(SCc2ccc(C(=O)OCCOCCOC(=O)c3ccc(-c4c5nc(c(-c6ccccc6)c6ccc([nH]6)c(-c6ccccc6)c6nc(c(-c7ccccc7)c7ccc4[nH]7)C=C6)C=C5)cc3)cc2)cc1
REMARK SMILES IDX 18 1 17 2 15 3 16 4 14 5 11 6 12 7 75 8 13 9 74 10 10 11
REMARK SMILES IDX 9 12 8 13 5 14 6 15 77 16 7 17 76 18 3 19 4 20 2 21 1 22
REMARK SMILES IDX 19 25 20 26 21 27 22 28 23 29 24 30 25 31 26 32 27 33 73 34
REMARK SMILES IDX 28 35 72 36 29 37 30 38 31 39 66 40 32 41 71 42 65 43 67 44
REMARK SMILES IDX 33 45 70 46 64 47 63 48 34 50 56 51 41 52 55 53 42 54 45 55
REMARK SMILES IDX 54 56 68 57 43 58 44 59 53 61 69 62 46 63 35 64 36 65 40 66
REMARK SMILES IDX 37 67 39 68 38 69 57 70 58 71 62 72 59 73 61 74 60 75 47 76
REMARK SMILES IDX 48 77 52 78 49 79 51 80 50 81
REMARK H PARENT 2 23 2 24 67 49 45 60
REMARK Flexibility Score: inf
ROOT
ATOM      1  C   UNL A   1      37.067  33.911  31.269  1.00  0.00     0.261 C 
ENDROOT
BRANCH   1   2
ATOM      2  O   UNL A   1      37.052  32.474  31.277  1.00  0.00    -0.460 OA
BRANCH   2   3
ATOM      3  C   UNL A   1      36.411  31.917  30.225  1.00  0.00     0.338 C 
ATOM      4  O   UNL A   1      35.336  32.254  29.750  1.00  0.00    -0.246 OA
BRANCH   3   5
ATOM      5  C   UNL A   1      37.279  30.918  29.577  1.00  0.00     0.060 A 
ATOM      6  C   UNL A   1      39.116  29.317  28.192  1.00  0.00    -0.038 A 
ATOM      7  C   UNL A   1      39.530  30.088  29.286  1.00  0.00     0.005 A 
ATOM      8  C   UNL A   1      37.735  29.240  27.914  1.00  0.00     0.005 A 
ATOM      9  C   UNL A   1      38.628  30.920  29.941  1.00  0.00     0.016 A 
ATOM     10  C   UNL A   1      36.813  30.029  28.609  1.00  0.00     0.016 A 
BRANCH   6  11
ATOM     11  C   UNL A   1      40.075  28.626  27.241  1.00  0.00     0.110 C 
BRANCH  11  12
ATOM     12  S   UNL A   1      41.872  28.901  27.431  1.00  0.00    -0.121 SA
BRANCH  12  13
ATOM     13  C   UNL A   1      42.615  27.270  27.400  1.00  0.00     0.008 A 
ATOM     14  C   UNL A   1      43.822  24.708  27.633  1.00  0.00     0.009 A 
ATOM     15  C   UNL A   1      42.887  25.151  28.578  1.00  0.00     0.011 A 
ATOM     16  C   UNL A   1      44.118  25.555  26.554  1.00  0.00     0.011 A 
ATOM     17  C   UNL A   1      42.299  26.416  28.465  1.00  0.00     0.015 A 
ATOM     18  C   UNL A   1      43.507  26.810  26.429  1.00  0.00     0.015 A 
BRANCH  14  19
ATOM     19  C   UNL A   1      44.438  23.320  27.762  1.00  0.00     0.210 C 
ATOM     20  C   UNL A   1      45.665  23.158  26.851  1.00  0.00     0.081 C 
BRANCH  19  21
ATOM     21  N   UNL A   1      43.391  22.318  27.521  1.00  0.00    -0.343 N 
ATOM     22  C   UNL A   1      42.962  22.228  26.138  1.00  0.00     0.331 C 
ATOM     23  H   UNL A   1      43.751  21.406  27.806  1.00  0.00     0.346 HD
ATOM     24  H   UNL A   1      42.577  22.607  28.063  1.00  0.00     0.346 HD
ENDBRANCH  19  21
ENDBRANCH  14  19
ENDBRANCH  12  13
ENDBRANCH  11  12
ENDBRANCH   6  11
ENDBRANCH   3   5
ENDBRANCH   2   3
ENDBRANCH   1   2
BRANCH   1  25
ATOM     25  C   UNL A   1      37.482  34.465  32.635  1.00  0.00     0.202 C 
BRANCH  25  26
ATOM     26  O   UNL A   1      36.435  35.011  33.438  1.00  0.00    -0.374 OA
BRANCH  26  27
ATOM     27  C   UNL A   1      35.920  34.184  34.485  1.00  0.00     0.202 C 
BRANCH  27  28
ATOM     28  C   UNL A   1      36.936  33.688  35.521  1.00  0.00     0.261 C 
BRANCH  28  29
ATOM     29  O   UNL A   1      37.029  32.252  35.528  1.00  0.00    -0.460 OA
BRANCH  29  30
ATOM     30  C   UNL A   1      38.150  31.756  36.100  1.00  0.00     0.338 C 
ATOM     31  O   UNL A   1      38.294  31.389  37.257  1.00  0.00    -0.246 OA
BRANCH  30  32
ATOM     32  C   UNL A   1      39.179  31.532  35.070  1.00  0.00     0.060 A 
ATOM     33  C   UNL A   1      38.806  30.806  33.930  1.00  0.00     0.016 A 
ATOM     34  C   UNL A   1      40.497  31.963  35.236  1.00  0.00     0.016 A 
ATOM     35  C   UNL A   1      39.759  30.466  32.976  1.00  0.00     0.010 A 
ATOM     36  C   UNL A   1      41.457  31.611  34.280  1.00  0.00     0.010 A 
ATOM     37  C   UNL A   1      41.098  30.832  33.165  1.00  0.00    -0.014 A 
BRANCH  37  38
ATOM     38  C   UNL A   1      42.141  30.277  32.272  1.00  0.00     0.031 A 
ATOM     39  C   UNL A   1      42.596  31.087  31.089  1.00  0.00     0.074 A 
ATOM     40  C   UNL A   1      42.699  29.080  32.524  1.00  0.00     0.049 A 
ATOM     41  N   UNL A   1      43.477  30.788  30.169  1.00  0.00    -0.248 NA
ATOM     42  C   UNL A   1      41.975  32.411  30.923  1.00  0.00     0.031 C 
ATOM     43  C   UNL A   1      42.379  28.219  33.662  1.00  0.00     0.029 A 
ATOM     44  N   UNL A   1      43.655  28.382  31.830  1.00  0.00    -0.354 N 
ATOM     45  C   UNL A   1      43.511  31.881  29.311  1.00  0.00     0.074 A 
ATOM     46  C   UNL A   1      42.545  32.837  29.805  1.00  0.00     0.031 C 
ATOM     47  C   UNL A   1      43.123  27.102  33.585  1.00  0.00     0.029 A 
ATOM     48  C   UNL A   1      43.947  27.157  32.378  1.00  0.00     0.049 A 
ATOM     49  H   UNL A   1      44.091  28.727  31.018  1.00  0.00     0.167 HD
ATOM     50  C   UNL A   1      44.282  32.073  28.215  1.00  0.00     0.031 A 
ATOM     51  C   UNL A   1      44.768  26.183  31.944  1.00  0.00     0.031 A 
ATOM     52  C   UNL A   1      45.233  31.119  27.714  1.00  0.00     0.049 A 
ATOM     53  C   UNL A   1      45.554  26.388  30.677  1.00  0.00     0.074 A 
ATOM     54  C   UNL A   1      46.072  31.229  26.619  1.00  0.00     0.029 A 
ATOM     55  N   UNL A   1      45.466  29.872  28.273  1.00  0.00    -0.354 N 
ATOM     56  N   UNL A   1      45.596  27.436  29.889  1.00  0.00    -0.248 NA
ATOM     57  C   UNL A   1      46.412  25.276  30.244  1.00  0.00     0.031 C 
ATOM     58  C   UNL A   1      46.774  30.027  26.484  1.00  0.00     0.029 A 
ATOM     59  C   UNL A   1      46.414  29.191  27.527  1.00  0.00     0.049 A 
ATOM     60  H   UNL A   1      45.024  29.522  29.080  1.00  0.00     0.167 HD
ATOM     61  C   UNL A   1      46.502  27.119  28.884  1.00  0.00     0.074 A 
ATOM     62  C   UNL A   1      46.997  25.788  29.169  1.00  0.00     0.031 C 
ATOM     63  C   UNL A   1      46.892  27.865  27.822  1.00  0.00     0.031 A 
BRANCH  50  64
ATOM     64  C   UNL A   1      44.097  33.359  27.460  1.00  0.00    -0.014 A 
ATOM     65  C   UNL A   1      43.565  33.372  26.161  1.00  0.00     0.009 A 
ATOM     66  C   UNL A   1      44.433  34.578  28.069  1.00  0.00     0.009 A 
ATOM     67  C   UNL A   1      43.405  34.578  25.475  1.00  0.00     0.001 A 
ATOM     68  C   UNL A   1      44.247  35.784  27.392  1.00  0.00     0.001 A 
ATOM     69  C   UNL A   1      43.742  35.783  26.092  1.00  0.00     0.000 A 
ENDBRANCH  50  64
BRANCH  51  70
ATOM     70  C   UNL A   1      44.878  24.910  32.701  1.00  0.00    -0.014 A 
ATOM     71  C   UNL A   1      44.008  23.841  32.437  1.00  0.00     0.009 A 
ATOM     72  C   UNL A   1      45.847  24.765  33.707  1.00  0.00     0.009 A 
ATOM     73  C   UNL A   1      44.091  22.662  33.182  1.00  0.00     0.001 A 
ATOM     74  C   UNL A   1      45.945  23.575  34.431  1.00  0.00     0.001 A 
ATOM     75  C   UNL A   1      45.061  22.528  34.175  1.00  0.00     0.000 A 
ENDBRANCH  51  70
BRANCH  63  76
ATOM     76  C   UNL A   1      47.927  27.273  26.906  1.00  0.00    -0.014 A 
ATOM     77  C   UNL A   1      49.298  27.467  27.134  1.00  0.00     0.009 A 
ATOM     78  C   UNL A   1      47.522  26.475  25.824  1.00  0.00     0.009 A 
ATOM     79  C   UNL A   1      50.242  26.899  26.276  1.00  0.00     0.001 A 
ATOM     80  C   UNL A   1      48.469  25.887  24.984  1.00  0.00     0.001 A 
ATOM     81  C   UNL A   1      49.828  26.107  25.206  1.00  0.00     0.000 A 
ENDBRANCH  63  76
ENDBRANCH  37  38
ENDBRANCH  30  32
ENDBRANCH  29  30
ENDBRANCH  28  29
ENDBRANCH  27  28
ENDBRANCH  26  27
ENDBRANCH  25  26
ENDBRANCH   1  25
TORSDOF 19
ENDMDL
MODEL 3
REMARK VINA RESULT:      -9.7      5.004     10.244
REMARK SMILES C[NH2+][C@@H](C)c1ccc(SCc2ccc(C(=O)OCCOCCOC(=O)c3ccc(-c4c5nc(c(-c6ccccc6)c6ccc([nH]6)c(-c6ccccc6)c6nc(c(-c7ccccc7)c7ccc4[nH]7)C=C6)C=C5)cc3)cc2)cc1
REMARK SMILES IDX 18 1 17 2 15 3 16 4 14 5 11 6 12 7 75 8 13 9 74 10 10 11
REMARK SMILES IDX 9 12 8 13 5 14 6 15 77 16 7 17 76 18 3 19 4 20 2 21 1 22
REMARK SMILES IDX 19 25 20 26 21 27 22 28 23 29 24 30 25 31 26 32 27 33 73 34
REMARK SMILES IDX 28 35 72 36 29 37 30 38 31 39 66 40 32 41 71 42 65 43 67 44
REMARK SMILES IDX 33 45 70 46 64 47 63 48 34 50 56 51 41 52 55 53 42 54 45 55
REMARK SMILES IDX 54 56 68 57 43 58 44 59 53 61 69 62 46 63 35 64 36 65 40 66
REMARK SMILES IDX 37 67 39 68 38 69 57 70 58 71 62 72 59 73 61 74 60 75 47 76
REMARK SMILES IDX 48 77 52 78 49 79 51 80 50 81
REMARK H PARENT 2 23 2 24 67 49 45 60
REMARK Flexibility Score: inf
ROOT
ATOM      1  C   UNL A   1      35.508  34.106  32.668  1.00  0.00     0.261 C 
ENDROOT
BRANCH   1   2
ATOM      2  O   UNL A   1      36.534  34.955  33.210  1.00  0.00    -0.460 OA
BRANCH   2   3
ATOM      3  C   UNL A   1      37.439  34.312  33.981  1.00  0.00     0.338 C 
ATOM      4  O   UNL A   1      37.212  33.538  34.901  1.00  0.00    -0.246 OA
BRANCH   3   5
ATOM      5  C   UNL A   1      38.797  34.526  33.451  1.00  0.00     0.060 A 
ATOM      6  C   UNL A   1      41.363  34.570  32.324  1.00  0.00    -0.038 A 
ATOM      7  C   UNL A   1      40.229  34.505  31.504  1.00  0.00     0.005 A 
ATOM      8  C   UNL A   1      41.176  34.780  33.706  1.00  0.00     0.005 A 
ATOM      9  C   UNL A   1      38.958  34.433  32.066  1.00  0.00     0.016 A 
ATOM     10  C   UNL A   1      39.897  34.769  34.272  1.00  0.00     0.016 A 
BRANCH   6  11
ATOM     11  C   UNL A   1      42.776  34.348  31.820  1.00  0.00     0.110 C 
BRANCH  11  12
ATOM     12  S   UNL A   1      43.205  34.848  30.115  1.00  0.00    -0.121 SA
BRANCH  12  13
ATOM     13  C   UNL A   1      43.312  33.323  29.178  1.00  0.00     0.008 A 
ATOM     14  C   UNL A   1      43.501  30.772  27.942  1.00  0.00     0.009 A 
ATOM     15  C   UNL A   1      42.736  30.953  29.102  1.00  0.00     0.011 A 
ATOM     16  C   UNL A   1      44.142  31.893  27.394  1.00  0.00     0.011 A 
ATOM     17  C   UNL A   1      42.650  32.209  29.713  1.00  0.00     0.015 A 
ATOM     18  C   UNL A   1      44.032  33.156  27.993  1.00  0.00     0.015 A 
BRANCH  14  19
ATOM     19  C   UNL A   1      43.569  29.401  27.280  1.00  0.00     0.210 C 
ATOM     20  C   UNL A   1      42.256  29.052  26.563  1.00  0.00     0.081 C 
BRANCH  19  21
ATOM     21  N   UNL A   1      43.968  28.411  28.290  1.00  0.00    -0.343 N 
ATOM     22  C   UNL A   1      45.396  28.164  28.346  1.00  0.00     0.331 C 
ATOM     23  H   UNL A   1      43.664  28.747  29.204  1.00  0.00     0.346 HD
ATOM     24  H   UNL A   1      43.527  27.530  28.027  1.00  0.00     0.346 HD
ENDBRANCH  19  21
ENDBRANCH  14  19
ENDBRANCH  12  13
ENDBRANCH  11  12
ENDBRANCH   6  11
ENDBRANCH   3   5
ENDBRANCH   2   3
ENDBRANCH   1   2
BRANCH   1  25
ATOM     25  C   UNL A   1      34.344  34.934  32.116  1.00  0.00     0.202 C 
BRANCH  25  26
ATOM     26  O   UNL A   1      33.583  34.332  31.068  1.00  0.00    -0.374 OA
BRANCH  26  27
ATOM     27  C   UNL A   1      33.808  34.814  29.742  1.00  0.00     0.202 C 
BRANCH  27  28
ATOM     28  C   UNL A   1      34.273  33.778  28.711  1.00  0.00     0.261 C 
BRANCH  28  29
ATOM     29  O   UNL A   1      34.608  32.524  29.333  1.00  0.00    -0.460 OA
BRANCH  29  30
ATOM     30  C   UNL A   1      34.714  31.476  28.484  1.00  0.00     0.338 C 
ATOM     31  O   UNL A   1      33.995  31.217  27.530  1.00  0.00    -0.246 OA
BRANCH  30  32
ATOM     32  C   UNL A   1      35.964  30.743  28.750  1.00  0.00     0.060 A 
ATOM     33  C   UNL A   1      35.939  29.767  29.756  1.00  0.00     0.016 A 
ATOM     34  C   UNL A   1      37.153  31.041  28.080  1.00  0.00     0.016 A 
ATOM     35  C   UNL A   1      37.113  29.119  30.130  1.00  0.00     0.010 A 
ATOM     36  C   UNL A   1      38.334  30.397  28.464  1.00  0.00     0.010 A 
ATOM     37  C   UNL A   1      38.324  29.459  29.514  1.00  0.00    -0.014 A 
BRANCH  37  38
ATOM     38  C   UNL A   1      39.596  28.940  30.067  1.00  0.00     0.031 A 
ATOM     39  C   UNL A   1      40.231  27.735  29.429  1.00  0.00     0.074 A 
ATOM     40  C   UNL A   1      40.196  29.548  31.105  1.00  0.00     0.049 A 
ATOM     41  N   UNL A   1      41.327  27.102  29.761  1.00  0.00    -0.248 NA
ATOM     42  C   UNL A   1      39.537  27.169  28.261  1.00  0.00     0.031 C 
ATOM     43  C   UNL A   1      39.707  30.749  31.780  1.00  0.00     0.029 A 
ATOM     44  N   UNL A   1      41.352  29.231  31.772  1.00  0.00    -0.354 N 
ATOM     45  C   UNL A   1      41.451  26.060  28.850  1.00  0.00     0.074 A 
ATOM     46  C   UNL A   1      40.306  26.130  27.968  1.00  0.00     0.031 C 
ATOM     47  C   UNL A   1      40.556  31.065  32.774  1.00  0.00     0.029 A 
ATOM     48  C   UNL A   1      41.628  30.072  32.822  1.00  0.00     0.049 A 
ATOM     49  H   UNL A   1      41.929  28.473  31.523  1.00  0.00     0.167 HD
ATOM     50  C   UNL A   1      42.433  25.134  28.752  1.00  0.00     0.031 A 
ATOM     51  C   UNL A   1      42.621  30.032  33.731  1.00  0.00     0.031 A 
ATOM     52  C   UNL A   1      43.564  25.053  29.634  1.00  0.00     0.049 A 
ATOM     53  C   UNL A   1      43.656  28.944  33.649  1.00  0.00     0.074 A 
ATOM     54  C   UNL A   1      44.619  24.158  29.606  1.00  0.00     0.029 A 
ATOM     55  N   UNL A   1      43.784  25.898  30.712  1.00  0.00    -0.354 N 
ATOM     56  N   UNL A   1      43.776  27.980  32.768  1.00  0.00    -0.248 NA
ATOM     57  C   UNL A   1      44.697  28.941  34.687  1.00  0.00     0.031 C 
ATOM     58  C   UNL A   1      45.450  24.428  30.699  1.00  0.00     0.029 A 
ATOM     59  C   UNL A   1      44.942  25.525  31.374  1.00  0.00     0.049 A 
ATOM     60  H   UNL A   1      43.203  26.650  30.969  1.00  0.00     0.167 HD
ATOM     61  C   UNL A   1      44.918  27.274  33.129  1.00  0.00     0.074 A 
ATOM     62  C   UNL A   1      45.462  27.929  34.300  1.00  0.00     0.031 C 
ATOM     63  C   UNL A   1      45.468  26.185  32.541  1.00  0.00     0.031 A 
BRANCH  50  64
ATOM     64  C   UNL A   1      42.301  24.104  27.665  1.00  0.00    -0.014 A 
ATOM     65  C   UNL A   1      42.788  24.343  26.370  1.00  0.00     0.009 A 
ATOM     66  C   UNL A   1      41.707  22.865  27.949  1.00  0.00     0.009 A 
ATOM     67  C   UNL A   1      42.652  23.373  25.374  1.00  0.00     0.001 A 
ATOM     68  C   UNL A   1      41.595  21.888  26.959  1.00  0.00     0.001 A 
ATOM     69  C   UNL A   1      42.060  22.146  25.670  1.00  0.00     0.000 A 
ENDBRANCH  50  64
BRANCH  51  70
ATOM     70  C   UNL A   1      42.677  31.046  34.815  1.00  0.00    -0.014 A 
ATOM     71  C   UNL A   1      41.878  30.916  35.961  1.00  0.00     0.009 A 
ATOM     72  C   UNL A   1      43.523  32.161  34.700  1.00  0.00     0.009 A 
ATOM     73  C   UNL A   1      41.906  31.895  36.957  1.00  0.00     0.001 A 
ATOM     74  C   UNL A   1      43.569  33.124  35.710  1.00  0.00     0.001 A 
ATOM     75  C   UNL A   1      42.754  32.995  36.833  1.00  0.00     0.000 A 
ENDBRANCH  51  70
BRANCH  63  76
ATOM     76  C   UNL A   1      46.741  25.650  33.135  1.00  0.00    -0.014 A 
ATOM     77  C   UNL A   1      46.722  24.655  34.124  1.00  0.00     0.009 A 
ATOM     78  C   UNL A   1      47.978  26.122  32.666  1.00  0.00     0.009 A 
ATOM     79  C   UNL A   1      47.918  24.165  34.654  1.00  0.00     0.001 A 
ATOM     80  C   UNL A   1      49.171  25.611  33.179  1.00  0.00     0.001 A 
ATOM     81  C   UNL A   1      49.140  24.640  34.179  1.00  0.00     0.000 A 
ENDBRANCH  63  76
ENDBRANCH  37  38
ENDBRANCH  30  32
ENDBRANCH  29  30
ENDBRANCH  28  29
ENDBRANCH  27  28
ENDBRANCH  26  27
ENDBRANCH  25  26
ENDBRANCH   1  25
TORSDOF 19
ENDMDL
