MODEL 1
REMARK VINA RESULT:     -10.0      0.000      0.000
REMARK SMILES COc1cc(/C=C/C(=O)OCCOCCOC(=O)c2ccc(-c3c4nc(c(-c5ccccc5)c5ccc([nH]5)c(-c5ccccc5)c5nc(c(-c6ccccc6)c6ccc3[nH]6)C=C5)C=C4)cc2)cc(OC)c1O
REMARK SMILES IDX 13 1 12 2 11 3 10 4 8 5 9 6 7 7 6 8 5 9 3 10 4 11 71 12
REMARK SMILES IDX 68 13 67 14 2 15 1 16 72 17 69 19 70 20 14 21 15 22 16 23
REMARK SMILES IDX 17 24 18 25 19 26 20 27 66 28 21 29 65 30 22 31 23 32 24 33
REMARK SMILES IDX 59 34 25 35 64 36 58 37 60 38 26 39 63 40 57 41 56 42 27 44
REMARK SMILES IDX 49 45 34 46 48 47 35 48 38 49 47 50 61 51 36 52 37 53 46 55
REMARK SMILES IDX 62 56 39 57 28 58 29 59 33 60 30 61 32 62 31 63 50 64 51 65
REMARK SMILES IDX 55 66 52 67 54 68 53 69 40 70 41 71 45 72 42 73 44 74 43 75
REMARK H PARENT 72 18 60 43 38 54
REMARK Flexibility Score: inf
ROOT
ATOM      1  O   UNL A   1      31.508  28.839  23.813  1.00  0.00    -0.374 OA
ENDROOT
BRANCH   1   2
ATOM      2  C   UNL A   1      30.788  27.609  23.860  1.00  0.00     0.202 C 
BRANCH   2   3
ATOM      3  C   UNL A   1      30.942  26.695  22.643  1.00  0.00     0.261 C 
BRANCH   3   4
ATOM      4  O   UNL A   1      32.272  26.744  22.097  1.00  0.00    -0.460 OA
BRANCH   4   5
ATOM      5  C   UNL A   1      32.714  25.578  21.568  1.00  0.00     0.330 C 
ATOM      6  O   UNL A   1      33.128  25.410  20.430  1.00  0.00    -0.247 OA
BRANCH   5   7
ATOM      7  C   UNL A   1      32.718  24.467  22.542  1.00  0.00     0.094 C 
ATOM      8  C   UNL A   1      33.106  23.201  22.324  1.00  0.00     0.016 C 
BRANCH   8   9
ATOM      9  C   UNL A   1      33.076  22.179  23.388  1.00  0.00    -0.018 A 
ATOM     10  C   UNL A   1      32.438  19.998  24.250  1.00  0.00     0.165 A 
ATOM     11  C   UNL A   1      32.450  20.936  23.216  1.00  0.00     0.058 A 
ATOM     12  C   UNL A   1      33.102  20.262  25.456  1.00  0.00     0.200 A 
ATOM     13  C   UNL A   1      33.738  21.493  25.649  1.00  0.00     0.165 A 
ATOM     14  C   UNL A   1      33.725  22.433  24.604  1.00  0.00     0.058 A 
BRANCH  10  15
ATOM     15  O   UNL A   1      31.857  18.783  23.981  1.00  0.00    -0.493 OA
ATOM     16  C   UNL A   1      32.500  18.073  22.918  1.00  0.00     0.278 C 
ENDBRANCH  10  15
BRANCH  12  17
ATOM     17  O   UNL A   1      33.171  19.270  26.396  1.00  0.00    -0.502 OA
ATOM     18  H   UNL A   1      33.778  19.338  27.107  1.00  0.00     0.293 HD
ENDBRANCH  12  17
BRANCH  13  19
ATOM     19  O   UNL A   1      34.443  21.921  26.743  1.00  0.00    -0.493 OA
ATOM     20  C   UNL A   1      33.724  22.228  27.929  1.00  0.00     0.278 C 
ENDBRANCH  13  19
ENDBRANCH   8   9
ENDBRANCH   5   7
ENDBRANCH   4   5
ENDBRANCH   3   4
ENDBRANCH   2   3
ENDBRANCH   1   2
BRANCH   1  21
ATOM     21  C   UNL A   1      32.287  29.179  24.962  1.00  0.00     0.202 C 
BRANCH  21  22
ATOM     22  C   UNL A   1      31.846  30.435  25.724  1.00  0.00     0.261 C 
BRANCH  22  23
ATOM     23  O   UNL A   1      32.451  30.511  27.029  1.00  0.00    -0.460 OA
BRANCH  23  24
ATOM     24  C   UNL A   1      33.106  31.661  27.301  1.00  0.00     0.338 C 
ATOM     25  O   UNL A   1      32.648  32.798  27.309  1.00  0.00    -0.246 OA
BRANCH  24  26
ATOM     26  C   UNL A   1      34.465  31.352  27.778  1.00  0.00     0.060 A 
ATOM     27  C   UNL A   1      34.783  30.014  28.051  1.00  0.00     0.016 A 
ATOM     28  C   UNL A   1      35.397  32.365  28.010  1.00  0.00     0.016 A 
ATOM     29  C   UNL A   1      36.024  29.686  28.596  1.00  0.00     0.010 A 
ATOM     30  C   UNL A   1      36.634  32.037  28.567  1.00  0.00     0.010 A 
ATOM     31  C   UNL A   1      36.941  30.702  28.891  1.00  0.00    -0.014 A 
BRANCH  31  32
ATOM     32  C   UNL A   1      38.160  30.418  29.683  1.00  0.00     0.031 A 
ATOM     33  C   UNL A   1      39.223  29.547  29.074  1.00  0.00     0.074 A 
ATOM     34  C   UNL A   1      38.300  30.883  30.935  1.00  0.00     0.049 A 
ATOM     35  N   UNL A   1      40.282  29.019  29.630  1.00  0.00    -0.248 NA
ATOM     36  C   UNL A   1      39.063  29.224  27.647  1.00  0.00     0.031 C 
ATOM     37  C   UNL A   1      37.370  31.783  31.615  1.00  0.00     0.029 A 
ATOM     38  N   UNL A   1      39.276  30.635  31.868  1.00  0.00    -0.354 N 
ATOM     39  C   UNL A   1      40.900  28.279  28.629  1.00  0.00     0.074 A 
ATOM     40  C   UNL A   1      40.092  28.417  27.437  1.00  0.00     0.031 C 
ATOM     41  C   UNL A   1      37.809  31.992  32.869  1.00  0.00     0.029 A 
ATOM     42  C   UNL A   1      39.019  31.203  33.092  1.00  0.00     0.049 A 
ATOM     43  H   UNL A   1      40.082  30.102  31.679  1.00  0.00     0.167 HD
ATOM     44  C   UNL A   1      42.034  27.545  28.701  1.00  0.00     0.031 A 
ATOM     45  C   UNL A   1      39.665  31.068  34.266  1.00  0.00     0.031 A 
ATOM     46  C   UNL A   1      42.827  27.401  29.892  1.00  0.00     0.049 A 
ATOM     47  C   UNL A   1      40.878  30.179  34.344  1.00  0.00     0.074 A 
ATOM     48  C   UNL A   1      43.997  26.684  30.067  1.00  0.00     0.029 A 
ATOM     49  N   UNL A   1      42.526  27.983  31.112  1.00  0.00    -0.354 N 
ATOM     50  N   UNL A   1      41.456  29.482  33.395  1.00  0.00    -0.248 NA
ATOM     51  C   UNL A   1      41.528  30.056  35.658  1.00  0.00     0.031 C 
ATOM     52  C   UNL A   1      44.377  26.791  31.407  1.00  0.00     0.029 A 
ATOM     53  C   UNL A   1      43.476  27.626  32.051  1.00  0.00     0.049 A 
ATOM     54  H   UNL A   1      41.750  28.565  31.286  1.00  0.00     0.167 HD
ATOM     55  C   UNL A   1      42.557  28.874  33.986  1.00  0.00     0.074 A 
ATOM     56  C   UNL A   1      42.567  29.280  35.376  1.00  0.00     0.031 C 
ATOM     57  C   UNL A   1      43.481  28.058  33.425  1.00  0.00     0.031 A 
BRANCH  44  58
ATOM     58  C   UNL A   1      42.459  26.804  27.465  1.00  0.00    -0.014 A 
ATOM     59  C   UNL A   1      43.313  27.391  26.519  1.00  0.00     0.009 A 
ATOM     60  C   UNL A   1      42.020  25.487  27.260  1.00  0.00     0.009 A 
ATOM     61  C   UNL A   1      43.692  26.683  25.375  1.00  0.00     0.001 A 
ATOM     62  C   UNL A   1      42.423  24.772  26.131  1.00  0.00     0.001 A 
ATOM     63  C   UNL A   1      43.250  25.374  25.185  1.00  0.00     0.000 A 
ENDBRANCH  44  58
BRANCH  45  64
ATOM     64  C   UNL A   1      39.160  31.764  35.478  1.00  0.00    -0.014 A 
ATOM     65  C   UNL A   1      38.235  31.139  36.327  1.00  0.00     0.009 A 
ATOM     66  C   UNL A   1      39.591  33.064  35.785  1.00  0.00     0.009 A 
ATOM     67  C   UNL A   1      37.732  31.810  37.445  1.00  0.00     0.001 A 
ATOM     68  C   UNL A   1      39.110  33.722  36.919  1.00  0.00     0.001 A 
ATOM     69  C   UNL A   1      38.174  33.099  37.743  1.00  0.00     0.000 A 
ENDBRANCH  45  64
BRANCH  57  70
ATOM     70  C   UNL A   1      44.624  27.600  34.287  1.00  0.00    -0.014 A 
ATOM     71  C   UNL A   1      45.789  28.366  34.427  1.00  0.00     0.009 A 
ATOM     72  C   UNL A   1      44.489  26.417  35.033  1.00  0.00     0.009 A 
ATOM     73  C   UNL A   1      46.807  27.945  35.287  1.00  0.00     0.001 A 
ATOM     74  C   UNL A   1      45.496  26.014  35.910  1.00  0.00     0.001 A 
ATOM     75  C   UNL A   1      46.656  26.775  36.032  1.00  0.00     0.000 A 
ENDBRANCH  57  70
ENDBRANCH  31  32
ENDBRANCH  24  26
ENDBRANCH  23  24
ENDBRANCH  22  23
ENDBRANCH  21  22
ENDBRANCH   1  21
TORSDOF 18
ENDMDL
MODEL 2
REMARK VINA RESULT:      -9.7      2.640      7.888
REMARK SMILES COc1cc(/C=C/C(=O)OCCOCCOC(=O)c2ccc(-c3c4nc(c(-c5ccccc5)c5ccc([nH]5)c(-c5ccccc5)c5nc(c(-c6ccccc6)c6ccc3[nH]6)C=C5)C=C4)cc2)cc(OC)c1O
REMARK SMILES IDX 13 1 12 2 11 3 10 4 8 5 9 6 7 7 6 8 5 9 3 10 4 11 71 12
REMARK SMILES IDX 68 13 67 14 2 15 1 16 72 17 69 19 70 20 14 21 15 22 16 23
REMARK SMILES IDX 17 24 18 25 19 26 20 27 66 28 21 29 65 30 22 31 23 32 24 33
REMARK SMILES IDX 59 34 25 35 64 36 58 37 60 38 26 39 63 40 57 41 56 42 27 44
REMARK SMILES IDX 49 45 34 46 48 47 35 48 38 49 47 50 61 51 36 52 37 53 46 55
REMARK SMILES IDX 62 56 39 57 28 58 29 59 33 60 30 61 32 62 31 63 50 64 51 65
REMARK SMILES IDX 55 66 52 67 54 68 53 69 40 70 41 71 45 72 42 73 44 74 43 75
REMARK H PARENT 72 18 60 43 38 54
REMARK Flexibility Score: inf
ROOT
ATOM      1  O   UNL A   1      42.318  22.034  25.377  1.00  0.00    -0.374 OA
ENDROOT
BRANCH   1   2
ATOM      2  C   UNL A   1      41.780  21.956  26.695  1.00  0.00     0.202 C 
BRANCH   2   3
ATOM      3  C   UNL A   1      40.483  21.157  26.844  1.00  0.00     0.261 C 
BRANCH   3   4
ATOM      4  O   UNL A   1      39.573  21.400  25.757  1.00  0.00    -0.460 OA
BRANCH   4   5
ATOM      5  C   UNL A   1      38.689  22.404  25.968  1.00  0.00     0.330 C 
ATOM      6  O   UNL A   1      38.860  23.383  26.681  1.00  0.00    -0.247 OA
BRANCH   5   7
ATOM      7  C   UNL A   1      37.449  22.256  25.179  1.00  0.00     0.094 C 
ATOM      8  C   UNL A   1      36.198  22.542  25.574  1.00  0.00     0.016 C 
BRANCH   8   9
ATOM      9  C   UNL A   1      35.036  22.363  24.684  1.00  0.00    -0.018 A 
ATOM     10  C   UNL A   1      33.047  21.163  23.967  1.00  0.00     0.165 A 
ATOM     11  C   UNL A   1      34.133  21.301  24.835  1.00  0.00     0.058 A 
ATOM     12  C   UNL A   1      32.812  22.117  22.967  1.00  0.00     0.200 A 
ATOM     13  C   UNL A   1      33.697  23.187  22.800  1.00  0.00     0.165 A 
ATOM     14  C   UNL A   1      34.794  23.302  23.671  1.00  0.00     0.058 A 
BRANCH  10  15
ATOM     15  O   UNL A   1      32.176  20.132  24.220  1.00  0.00    -0.493 OA
ATOM     16  C   UNL A   1      32.760  18.840  24.029  1.00  0.00     0.278 C 
ENDBRANCH  10  15
BRANCH  12  17
ATOM     17  O   UNL A   1      31.672  22.012  22.218  1.00  0.00    -0.502 OA
ATOM     18  H   UNL A   1      31.192  21.208  22.205  1.00  0.00     0.293 HD
ENDBRANCH  12  17
BRANCH  13  19
ATOM     19  O   UNL A   1      33.624  24.214  21.897  1.00  0.00    -0.493 OA
ATOM     20  C   UNL A   1      33.430  25.533  22.391  1.00  0.00     0.278 C 
ENDBRANCH  13  19
ENDBRANCH   8   9
ENDBRANCH   5   7
ENDBRANCH   4   5
ENDBRANCH   3   4
ENDBRANCH   2   3
ENDBRANCH   1   2
BRANCH   1  21
ATOM     21  C   UNL A   1      43.728  21.846  25.240  1.00  0.00     0.202 C 
BRANCH  21  22
ATOM     22  C   UNL A   1      44.513  23.042  24.684  1.00  0.00     0.261 C 
BRANCH  22  23
ATOM     23  O   UNL A   1      43.754  24.264  24.763  1.00  0.00    -0.460 OA
BRANCH  23  24
ATOM     24  C   UNL A   1      44.438  25.346  25.196  1.00  0.00     0.338 C 
ATOM     25  O   UNL A   1      45.478  25.805  24.738  1.00  0.00    -0.246 OA
BRANCH  24  26
ATOM     26  C   UNL A   1      43.652  26.044  26.228  1.00  0.00     0.060 A 
ATOM     27  C   UNL A   1      44.021  27.353  26.571  1.00  0.00     0.016 A 
ATOM     28  C   UNL A   1      42.603  25.405  26.892  1.00  0.00     0.016 A 
ATOM     29  C   UNL A   1      43.368  28.016  27.609  1.00  0.00     0.010 A 
ATOM     30  C   UNL A   1      41.958  26.065  27.940  1.00  0.00     0.010 A 
ATOM     31  C   UNL A   1      42.358  27.359  28.323  1.00  0.00    -0.014 A 
BRANCH  31  32
ATOM     32  C   UNL A   1      41.813  27.939  29.572  1.00  0.00     0.031 A 
ATOM     33  C   UNL A   1      40.571  28.782  29.488  1.00  0.00     0.074 A 
ATOM     34  C   UNL A   1      42.433  27.760  30.750  1.00  0.00     0.049 A 
ATOM     35  N   UNL A   1      40.014  29.532  30.404  1.00  0.00    -0.248 NA
ATOM     36  C   UNL A   1      39.870  28.785  28.195  1.00  0.00     0.031 C 
ATOM     37  C   UNL A   1      43.607  26.918  30.972  1.00  0.00     0.029 A 
ATOM     38  N   UNL A   1      42.169  28.305  31.981  1.00  0.00    -0.354 N 
ATOM     39  C   UNL A   1      38.914  30.116  29.789  1.00  0.00     0.074 A 
ATOM     40  C   UNL A   1      38.888  29.644  28.422  1.00  0.00     0.031 C 
ATOM     41  C   UNL A   1      43.978  27.023  32.259  1.00  0.00     0.029 A 
ATOM     42  C   UNL A   1      43.099  27.975  32.936  1.00  0.00     0.049 A 
ATOM     43  H   UNL A   1      41.388  28.877  32.163  1.00  0.00     0.167 HD
ATOM     44  C   UNL A   1      38.011  30.975  30.317  1.00  0.00     0.031 A 
ATOM     45  C   UNL A   1      43.247  28.422  34.198  1.00  0.00     0.031 A 
ATOM     46  C   UNL A   1      38.047  31.451  31.673  1.00  0.00     0.049 A 
ATOM     47  C   UNL A   1      42.279  29.442  34.739  1.00  0.00     0.074 A 
ATOM     48  C   UNL A   1      37.175  32.318  32.306  1.00  0.00     0.029 A 
ATOM     49  N   UNL A   1      39.013  31.101  32.603  1.00  0.00    -0.354 N 
ATOM     50  N   UNL A   1      41.242  29.990  34.153  1.00  0.00    -0.248 NA
ATOM     51  C   UNL A   1      42.503  29.906  36.116  1.00  0.00     0.031 C 
ATOM     52  C   UNL A   1      37.642  32.533  33.606  1.00  0.00     0.029 A 
ATOM     53  C   UNL A   1      38.769  31.751  33.799  1.00  0.00     0.049 A 
ATOM     54  H   UNL A   1      39.761  30.482  32.437  1.00  0.00     0.167 HD
ATOM     55  C   UNL A   1      40.668  30.829  35.101  1.00  0.00     0.074 A 
ATOM     56  C   UNL A   1      41.473  30.721  36.300  1.00  0.00     0.031 C 
ATOM     57  C   UNL A   1      39.570  31.614  34.990  1.00  0.00     0.031 A 
BRANCH  44  58
ATOM     58  C   UNL A   1      36.932  31.489  29.407  1.00  0.00    -0.014 A 
ATOM     59  C   UNL A   1      37.000  32.774  28.846  1.00  0.00     0.009 A 
ATOM     60  C   UNL A   1      35.844  30.663  29.084  1.00  0.00     0.009 A 
ATOM     61  C   UNL A   1      35.982  33.232  28.005  1.00  0.00     0.001 A 
ATOM     62  C   UNL A   1      34.843  31.112  28.222  1.00  0.00     0.001 A 
ATOM     63  C   UNL A   1      34.908  32.399  27.691  1.00  0.00     0.000 A 
ENDBRANCH  44  58
BRANCH  45  64
ATOM     64  C   UNL A   1      44.375  27.936  35.034  1.00  0.00    -0.014 A 
ATOM     65  C   UNL A   1      45.620  28.583  34.997  1.00  0.00     0.009 A 
ATOM     66  C   UNL A   1      44.219  26.814  35.862  1.00  0.00     0.009 A 
ATOM     67  C   UNL A   1      46.691  28.101  35.754  1.00  0.00     0.001 A 
ATOM     68  C   UNL A   1      45.282  26.352  36.640  1.00  0.00     0.001 A 
ATOM     69  C   UNL A   1      46.520  26.989  36.578  1.00  0.00     0.000 A 
ENDBRANCH  45  64
BRANCH  57  70
ATOM     70  C   UNL A   1      39.123  32.367  36.210  1.00  0.00    -0.014 A 
ATOM     71  C   UNL A   1      39.531  33.687  36.449  1.00  0.00     0.009 A 
ATOM     72  C   UNL A   1      38.209  31.764  37.092  1.00  0.00     0.009 A 
ATOM     73  C   UNL A   1      39.046  34.382  37.559  1.00  0.00     0.001 A 
ATOM     74  C   UNL A   1      37.708  32.471  38.185  1.00  0.00     0.001 A 
ATOM     75  C   UNL A   1      38.130  33.777  38.420  1.00  0.00     0.000 A 
ENDBRANCH  57  70
ENDBRANCH  31  32
ENDBRANCH  24  26
ENDBRANCH  23  24
ENDBRANCH  22  23
ENDBRANCH  21  22
ENDBRANCH   1  21
TORSDOF 18
ENDMDL
MODEL 3
REMARK VINA RESULT:      -9.7      5.159      9.502
REMARK SMILES COc1cc(/C=C/C(=O)OCCOCCOC(=O)c2ccc(-c3c4nc(c(-c5ccccc5)c5ccc([nH]5)c(-c5ccccc5)c5nc(c(-c6ccccc6)c6ccc3[nH]6)C=C5)C=C4)cc2)cc(OC)c1O
REMARK SMILES IDX 13 1 12 2 11 3 10 4 8 5 9 6 7 7 6 8 5 9 3 10 4 11 71 12
REMARK SMILES IDX 68 13 67 14 2 15 1 16 72 17 69 19 70 20 14 21 15 22 16 23
REMARK SMILES IDX 17 24 18 25 19 26 20 27 66 28 21 29 65 30 22 31 23 32 24 33
REMARK SMILES IDX 59 34 25 35 64 36 58 37 60 38 26 39 63 40 57 41 56 42 27 44
REMARK SMILES IDX 49 45 34 46 48 47 35 48 38 49 47 50 61 51 36 52 37 53 46 55
REMARK SMILES IDX 62 56 39 57 28 58 29 59 33 60 30 61 32 62 31 63 50 64 51 65
REMARK SMILES IDX 55 66 52 67 54 68 53 69 40 70 41 71 45 72 42 73 44 74 43 75
REMARK H PARENT 72 18 60 43 38 54
REMARK Flexibility Score: inf
ROOT
ATOM      1  O   UNL A   1      42.444  19.915  27.602  1.00  0.00    -0.374 OA
ENDROOT
BRANCH   1   2
ATOM      2  C   UNL A   1      41.041  20.143  27.484  1.00  0.00     0.202 C 
BRANCH   2   3
ATOM      3  C   UNL A   1      40.625  21.328  26.608  1.00  0.00     0.261 C 
BRANCH   3   4
ATOM      4  O   UNL A   1      39.312  21.149  26.050  1.00  0.00    -0.460 OA
BRANCH   4   5
ATOM      5  C   UNL A   1      38.586  22.285  25.926  1.00  0.00     0.330 C 
ATOM      6  O   UNL A   1      38.902  23.395  26.328  1.00  0.00    -0.247 OA
BRANCH   5   7
ATOM      7  C   UNL A   1      37.333  22.089  25.168  1.00  0.00     0.094 C 
ATOM      8  C   UNL A   1      36.182  22.764  25.317  1.00  0.00     0.016 C 
BRANCH   8   9
ATOM      9  C   UNL A   1      34.997  22.483  24.485  1.00  0.00    -0.018 A 
ATOM     10  C   UNL A   1      32.994  21.207  23.965  1.00  0.00     0.165 A 
ATOM     11  C   UNL A   1      34.102  21.445  24.781  1.00  0.00     0.058 A 
ATOM     12  C   UNL A   1      32.729  22.040  22.868  1.00  0.00     0.200 A 
ATOM     13  C   UNL A   1      33.604  23.085  22.556  1.00  0.00     0.165 A 
ATOM     14  C   UNL A   1      34.724  23.300  23.378  1.00  0.00     0.058 A 
BRANCH  10  15
ATOM     15  O   UNL A   1      32.134  20.212  24.357  1.00  0.00    -0.493 OA
ATOM     16  C   UNL A   1      32.775  19.175  25.107  1.00  0.00     0.278 C 
ENDBRANCH  10  15
BRANCH  12  17
ATOM     17  O   UNL A   1      31.569  21.850  22.168  1.00  0.00    -0.502 OA
ATOM     18  H   UNL A   1      31.272  20.981  21.979  1.00  0.00     0.293 HD
ENDBRANCH  12  17
BRANCH  13  19
ATOM     19  O   UNL A   1      33.502  24.002  21.544  1.00  0.00    -0.493 OA
ATOM     20  C   UNL A   1      33.008  25.298  21.856  1.00  0.00     0.278 C 
ENDBRANCH  13  19
ENDBRANCH   8   9
ENDBRANCH   5   7
ENDBRANCH   4   5
ENDBRANCH   3   4
ENDBRANCH   2   3
ENDBRANCH   1   2
BRANCH   1  21
ATOM     21  C   UNL A   1      42.934  18.646  27.164  1.00  0.00     0.202 C 
BRANCH  21  22
ATOM     22  C   UNL A   1      42.737  18.328  25.677  1.00  0.00     0.261 C 
BRANCH  22  23
ATOM     23  O   UNL A   1      43.087  19.445  24.838  1.00  0.00    -0.460 OA
BRANCH  23  24
ATOM     24  C   UNL A   1      44.408  19.601  24.598  1.00  0.00     0.338 C 
ATOM     25  O   UNL A   1      45.182  18.779  24.119  1.00  0.00    -0.246 OA
BRANCH  24  26
ATOM     26  C   UNL A   1      44.789  21.003  24.833  1.00  0.00     0.060 A 
ATOM     27  C   UNL A   1      45.322  21.344  26.085  1.00  0.00     0.016 A 
ATOM     28  C   UNL A   1      44.575  21.983  23.862  1.00  0.00     0.016 A 
ATOM     29  C   UNL A   1      45.606  22.676  26.386  1.00  0.00     0.010 A 
ATOM     30  C   UNL A   1      44.848  23.317  24.168  1.00  0.00     0.010 A 
ATOM     31  C   UNL A   1      45.334  23.673  25.440  1.00  0.00    -0.014 A 
BRANCH  31  32
ATOM     32  C   UNL A   1      45.399  25.106  25.809  1.00  0.00     0.031 A 
ATOM     33  C   UNL A   1      46.731  25.799  25.760  1.00  0.00     0.074 A 
ATOM     34  C   UNL A   1      44.305  25.766  26.225  1.00  0.00     0.049 A 
ATOM     35  N   UNL A   1      47.067  26.984  26.201  1.00  0.00    -0.248 NA
ATOM     36  C   UNL A   1      47.834  25.050  25.138  1.00  0.00     0.031 C 
ATOM     37  C   UNL A   1      42.948  25.225  26.260  1.00  0.00     0.029 A 
ATOM     38  N   UNL A   1      44.176  27.038  26.723  1.00  0.00    -0.354 N 
ATOM     39  C   UNL A   1      48.424  27.111  25.934  1.00  0.00     0.074 A 
ATOM     40  C   UNL A   1      48.852  25.881  25.304  1.00  0.00     0.031 C 
ATOM     41  C   UNL A   1      42.125  26.152  26.779  1.00  0.00     0.029 A 
ATOM     42  C   UNL A   1      42.905  27.329  27.156  1.00  0.00     0.049 A 
ATOM     43  H   UNL A   1      44.921  27.681  26.767  1.00  0.00     0.167 HD
ATOM     44  C   UNL A   1      49.241  28.157  26.197  1.00  0.00     0.031 A 
ATOM     45  C   UNL A   1      42.436  28.405  27.818  1.00  0.00     0.031 A 
ATOM     46  C   UNL A   1      48.814  29.374  26.834  1.00  0.00     0.049 A 
ATOM     47  C   UNL A   1      43.380  29.522  28.175  1.00  0.00     0.074 A 
ATOM     48  C   UNL A   1      49.563  30.495  27.140  1.00  0.00     0.029 A 
ATOM     49  N   UNL A   1      47.521  29.622  27.267  1.00  0.00    -0.354 N 
ATOM     50  N   UNL A   1      44.662  29.635  27.920  1.00  0.00    -0.248 NA
ATOM     51  C   UNL A   1      42.814  30.660  28.914  1.00  0.00     0.031 C 
ATOM     52  C   UNL A   1      48.734  31.404  27.804  1.00  0.00     0.029 A 
ATOM     53  C   UNL A   1      47.456  30.872  27.856  1.00  0.00     0.049 A 
ATOM     54  H   UNL A   1      46.763  29.001  27.170  1.00  0.00     0.167 HD
ATOM     55  C   UNL A   1      45.043  30.872  28.429  1.00  0.00     0.074 A 
ATOM     56  C   UNL A   1      43.860  31.470  29.010  1.00  0.00     0.031 C 
ATOM     57  C   UNL A   1      46.263  31.460  28.410  1.00  0.00     0.031 A 
BRANCH  44  58
ATOM     58  C   UNL A   1      50.692  28.011  25.835  1.00  0.00    -0.014 A 
ATOM     59  C   UNL A   1      51.626  27.507  26.751  1.00  0.00     0.009 A 
ATOM     60  C   UNL A   1      51.123  28.357  24.545  1.00  0.00     0.009 A 
ATOM     61  C   UNL A   1      52.971  27.383  26.393  1.00  0.00     0.001 A 
ATOM     62  C   UNL A   1      52.461  28.207  24.179  1.00  0.00     0.001 A 
ATOM     63  C   UNL A   1      53.385  27.728  25.106  1.00  0.00     0.000 A 
ENDBRANCH  44  58
BRANCH  45  64
ATOM     64  C   UNL A   1      41.007  28.468  28.219  1.00  0.00    -0.014 A 
ATOM     65  C   UNL A   1      40.046  29.011  27.352  1.00  0.00     0.009 A 
ATOM     66  C   UNL A   1      40.597  27.998  29.476  1.00  0.00     0.009 A 
ATOM     67  C   UNL A   1      38.708  29.105  27.748  1.00  0.00     0.001 A 
ATOM     68  C   UNL A   1      39.255  28.066  29.857  1.00  0.00     0.001 A 
ATOM     69  C   UNL A   1      38.313  28.628  28.997  1.00  0.00     0.000 A 
ENDBRANCH  45  64
BRANCH  57  70
ATOM     70  C   UNL A   1      46.377  32.850  28.969  1.00  0.00    -0.014 A 
ATOM     71  C   UNL A   1      46.740  33.076  30.304  1.00  0.00     0.009 A 
ATOM     72  C   UNL A   1      46.195  33.950  28.115  1.00  0.00     0.009 A 
ATOM     73  C   UNL A   1      46.901  34.381  30.777  1.00  0.00     0.001 A 
ATOM     74  C   UNL A   1      46.382  35.251  28.584  1.00  0.00     0.001 A 
ATOM     75  C   UNL A   1      46.730  35.464  29.916  1.00  0.00     0.000 A 
ENDBRANCH  57  70
ENDBRANCH  31  32
ENDBRANCH  24  26
ENDBRANCH  23  24
ENDBRANCH  22  23
ENDBRANCH  21  22
ENDBRANCH   1  21
TORSDOF 18
ENDMDL
