MODEL 1
REMARK VINA RESULT:      -9.7      0.000      0.000
REMARK SMILES C[C@@H]1CC([NH2+][C@@](C)(C(=O)OCCOCCOC(=O)c2ccc(-c3c4nc(c(-c5ccccc5)c5ccc([nH]5)c(-c5ccccc5)c5nc(c(-c6ccccc6)c6ccc3[nH]6)C=C5)C=C4)cc2)C(F)(F)F)C[C@@H](C)C1
REMARK SMILES IDX 13 1 12 2 11 3 10 4 8 5 9 6 6 7 7 8 5 9 4 12 1 13 2 14 3 15
REMARK SMILES IDX 74 16 72 17 71 18 73 19 67 20 68 21 69 22 70 23 14 24 15 25
REMARK SMILES IDX 16 26 17 27 18 28 19 29 20 30 66 31 21 32 65 33 22 34 23 35
REMARK SMILES IDX 24 36 59 37 25 38 64 39 58 40 60 41 26 42 63 43 57 44 56 45
REMARK SMILES IDX 27 47 49 48 34 49 48 50 35 51 38 52 47 53 61 54 36 55 37 56
REMARK SMILES IDX 46 58 62 59 39 60 28 61 29 62 33 63 30 64 32 65 31 66 50 67
REMARK SMILES IDX 51 68 55 69 52 70 54 71 53 72 40 73 41 74 45 75 42 76 44 77
REMARK SMILES IDX 43 78
REMARK H PARENT 5 10 5 11 60 46 38 57
REMARK Flexibility Score: inf
ROOT
ATOM      1  O   UNL A   1      38.170  21.663  25.601  1.00  0.00    -0.374 OA
ENDROOT
BRANCH   1   2
ATOM      2  C   UNL A   1      36.947  22.333  25.898  1.00  0.00     0.202 C 
BRANCH   2   3
ATOM      3  C   UNL A   1      36.733  23.704  25.252  1.00  0.00     0.261 C 
BRANCH   3   4
ATOM      4  O   UNL A   1      35.366  23.926  24.870  1.00  0.00    -0.458 OA
BRANCH   4   5
ATOM      5  C   UNL A   1      35.023  23.424  23.640  1.00  0.00     0.377 C 
ATOM      6  O   UNL A   1      35.835  23.239  22.741  1.00  0.00    -0.244 OA
BRANCH   5   7
ATOM      7  C   UNL A   1      33.499  23.243  23.502  1.00  0.00     0.287 C 
ATOM      8  C   UNL A   1      33.250  23.304  21.985  1.00  0.00     0.103 C 
BRANCH   7   9
ATOM      9  N   UNL A   1      32.790  24.361  24.255  1.00  0.00    -0.322 N 
ATOM     10  H   UNL A   1      31.854  24.025  24.482  1.00  0.00     0.347 HD
ATOM     11  H   UNL A   1      33.399  24.554  25.050  1.00  0.00     0.347 HD
BRANCH   9  12
ATOM     12  C   UNL A   1      32.637  25.662  23.589  1.00  0.00     0.184 C 
ATOM     13  C   UNL A   1      30.030  25.695  25.819  1.00  0.00     0.008 C 
ATOM     14  C   UNL A   1      30.589  26.744  24.859  1.00  0.00    -0.008 C 
ATOM     15  C   UNL A   1      31.155  26.115  23.567  1.00  0.00     0.068 C 
ATOM     16  C   UNL A   1      31.582  27.691  25.563  1.00  0.00     0.007 C 
ATOM     17  C   UNL A   1      33.001  27.123  25.630  1.00  0.00    -0.008 C 
ATOM     18  C   UNL A   1      33.465  26.796  24.206  1.00  0.00     0.068 C 
ATOM     19  C   UNL A   1      33.977  28.086  26.301  1.00  0.00     0.008 C 
ENDBRANCH   9  12
ENDBRANCH   7   9
BRANCH   7  20
ATOM     20  C   UNL A   1      33.246  21.805  24.023  1.00  0.00     0.455 C 
ATOM     21  F   UNL A   1      32.517  21.801  25.165  1.00  0.00    -0.164 F 
ATOM     22  F   UNL A   1      32.547  21.078  23.110  1.00  0.00    -0.164 F 
ATOM     23  F   UNL A   1      34.381  21.107  24.242  1.00  0.00    -0.164 F 
ENDBRANCH   7  20
ENDBRANCH   5   7
ENDBRANCH   4   5
ENDBRANCH   3   4
ENDBRANCH   2   3
ENDBRANCH   1   2
BRANCH   1  24
ATOM     24  C   UNL A   1      38.083  20.377  24.987  1.00  0.00     0.202 C 
BRANCH  24  25
ATOM     25  C   UNL A   1      39.155  19.352  25.374  1.00  0.00     0.261 C 
BRANCH  25  26
ATOM     26  O   UNL A   1      40.030  19.841  26.407  1.00  0.00    -0.460 OA
BRANCH  26  27
ATOM     27  C   UNL A   1      41.330  19.924  26.049  1.00  0.00     0.338 C 
ATOM     28  O   UNL A   1      41.943  19.175  25.294  1.00  0.00    -0.246 OA
BRANCH  27  29
ATOM     29  C   UNL A   1      41.930  21.169  26.559  1.00  0.00     0.060 A 
ATOM     30  C   UNL A   1      41.950  21.347  27.947  1.00  0.00     0.016 A 
ATOM     31  C   UNL A   1      42.389  22.179  25.709  1.00  0.00     0.016 A 
ATOM     32  C   UNL A   1      42.362  22.559  28.490  1.00  0.00     0.010 A 
ATOM     33  C   UNL A   1      42.802  23.400  26.256  1.00  0.00     0.010 A 
ATOM     34  C   UNL A   1      42.748  23.610  27.646  1.00  0.00    -0.014 A 
BRANCH  34  35
ATOM     35  C   UNL A   1      42.950  24.956  28.233  1.00  0.00     0.031 A 
ATOM     36  C   UNL A   1      44.342  25.397  28.598  1.00  0.00     0.074 A 
ATOM     37  C   UNL A   1      41.918  25.807  28.367  1.00  0.00     0.049 A 
ATOM     38  N   UNL A   1      44.754  26.563  29.028  1.00  0.00    -0.248 NA
ATOM     39  C   UNL A   1      45.410  24.395  28.456  1.00  0.00     0.031 C 
ATOM     40  C   UNL A   1      40.528  25.510  28.023  1.00  0.00     0.029 A 
ATOM     41  N   UNL A   1      41.887  27.103  28.814  1.00  0.00    -0.354 N 
ATOM     42  C   UNL A   1      46.126  26.435  29.206  1.00  0.00     0.074 A 
ATOM     43  C   UNL A   1      46.471  25.070  28.872  1.00  0.00     0.031 C 
ATOM     44  C   UNL A   1      39.779  26.600  28.264  1.00  0.00     0.029 A 
ATOM     45  C   UNL A   1      40.634  27.662  28.793  1.00  0.00     0.049 A 
ATOM     46  H   UNL A   1      42.688  27.587  29.122  1.00  0.00     0.167 HD
ATOM     47  C   UNL A   1      47.022  27.370  29.602  1.00  0.00     0.031 A 
ATOM     48  C   UNL A   1      40.222  28.891  29.155  1.00  0.00     0.031 A 
ATOM     49  C   UNL A   1      46.684  28.725  29.948  1.00  0.00     0.049 A 
ATOM     50  C   UNL A   1      41.228  29.900  29.635  1.00  0.00     0.074 A 
ATOM     51  C   UNL A   1      47.524  29.751  30.342  1.00  0.00     0.029 A 
ATOM     52  N   UNL A   1      45.397  29.239  29.950  1.00  0.00    -0.354 N 
ATOM     53  N   UNL A   1      42.528  29.777  29.756  1.00  0.00    -0.248 NA
ATOM     54  C   UNL A   1      40.711  31.224  30.010  1.00  0.00     0.031 C 
ATOM     55  C   UNL A   1      46.739  30.874  30.630  1.00  0.00     0.029 A 
ATOM     56  C   UNL A   1      45.416  30.561  30.362  1.00  0.00     0.049 A 
ATOM     57  H   UNL A   1      44.588  28.739  29.696  1.00  0.00     0.167 HD
ATOM     58  C   UNL A   1      42.986  31.015  30.192  1.00  0.00     0.074 A 
ATOM     59  C   UNL A   1      41.827  31.877  30.301  1.00  0.00     0.031 C 
ATOM     60  C   UNL A   1      44.255  31.405  30.473  1.00  0.00     0.031 A 
BRANCH  47  61
ATOM     61  C   UNL A   1      48.459  26.945  29.709  1.00  0.00    -0.014 A 
ATOM     62  C   UNL A   1      49.339  27.062  28.621  1.00  0.00     0.009 A 
ATOM     63  C   UNL A   1      48.947  26.442  30.926  1.00  0.00     0.009 A 
ATOM     64  C   UNL A   1      50.668  26.653  28.740  1.00  0.00     0.001 A 
ATOM     65  C   UNL A   1      50.284  26.058  31.049  1.00  0.00     0.001 A 
ATOM     66  C   UNL A   1      51.141  26.155  29.954  1.00  0.00     0.000 A 
ENDBRANCH  47  61
BRANCH  48  67
ATOM     67  C   UNL A   1      38.780  29.241  29.071  1.00  0.00    -0.014 A 
ATOM     68  C   UNL A   1      37.937  29.082  30.181  1.00  0.00     0.009 A 
ATOM     69  C   UNL A   1      38.240  29.732  27.872  1.00  0.00     0.009 A 
ATOM     70  C   UNL A   1      36.577  29.390  30.084  1.00  0.00     0.001 A 
ATOM     71  C   UNL A   1      36.888  30.063  27.787  1.00  0.00     0.001 A 
ATOM     72  C   UNL A   1      36.056  29.884  28.890  1.00  0.00     0.000 A 
ENDBRANCH  48  67
BRANCH  60  73
ATOM     73  C   UNL A   1      44.457  32.833  30.893  1.00  0.00    -0.014 A 
ATOM     74  C   UNL A   1      44.690  33.847  29.951  1.00  0.00     0.009 A 
ATOM     75  C   UNL A   1      44.385  33.172  32.253  1.00  0.00     0.009 A 
ATOM     76  C   UNL A   1      44.886  35.166  30.366  1.00  0.00     0.001 A 
ATOM     77  C   UNL A   1      44.553  34.496  32.664  1.00  0.00     0.001 A 
ATOM     78  C   UNL A   1      44.814  35.489  31.722  1.00  0.00     0.000 A 
ENDBRANCH  60  73
ENDBRANCH  34  35
ENDBRANCH  27  29
ENDBRANCH  26  27
ENDBRANCH  25  26
ENDBRANCH  24  25
ENDBRANCH   1  24
TORSDOF 17
ENDMDL
MODEL 2
REMARK VINA RESULT:      -9.6      1.066      1.749
REMARK SMILES C[C@@H]1CC([NH2+][C@@](C)(C(=O)OCCOCCOC(=O)c2ccc(-c3c4nc(c(-c5ccccc5)c5ccc([nH]5)c(-c5ccccc5)c5nc(c(-c6ccccc6)c6ccc3[nH]6)C=C5)C=C4)cc2)C(F)(F)F)C[C@@H](C)C1
REMARK SMILES IDX 13 1 12 2 11 3 10 4 8 5 9 6 6 7 7 8 5 9 4 12 1 13 2 14 3 15
REMARK SMILES IDX 74 16 72 17 71 18 73 19 67 20 68 21 69 22 70 23 14 24 15 25
REMARK SMILES IDX 16 26 17 27 18 28 19 29 20 30 66 31 21 32 65 33 22 34 23 35
REMARK SMILES IDX 24 36 59 37 25 38 64 39 58 40 60 41 26 42 63 43 57 44 56 45
REMARK SMILES IDX 27 47 49 48 34 49 48 50 35 51 38 52 47 53 61 54 36 55 37 56
REMARK SMILES IDX 46 58 62 59 39 60 28 61 29 62 33 63 30 64 32 65 31 66 50 67
REMARK SMILES IDX 51 68 55 69 52 70 54 71 53 72 40 73 41 74 45 75 42 76 44 77
REMARK SMILES IDX 43 78
REMARK H PARENT 5 10 5 11 60 46 38 57
REMARK Flexibility Score: inf
ROOT
ATOM      1  O   UNL A   1      38.409  22.273  25.942  1.00  0.00    -0.374 OA
ENDROOT
BRANCH   1   2
ATOM      2  C   UNL A   1      37.646  23.476  25.917  1.00  0.00     0.202 C 
BRANCH   2   3
ATOM      3  C   UNL A   1      36.639  23.636  24.776  1.00  0.00     0.261 C 
BRANCH   3   4
ATOM      4  O   UNL A   1      35.328  23.995  25.242  1.00  0.00    -0.458 OA
BRANCH   4   5
ATOM      5  C   UNL A   1      34.375  23.020  25.086  1.00  0.00     0.377 C 
ATOM      6  O   UNL A   1      34.414  22.181  24.195  1.00  0.00    -0.244 OA
BRANCH   5   7
ATOM      7  C   UNL A   1      33.213  23.195  26.082  1.00  0.00     0.287 C 
ATOM      8  C   UNL A   1      32.044  22.435  25.431  1.00  0.00     0.103 C 
BRANCH   7   9
ATOM      9  N   UNL A   1      32.919  24.679  26.257  1.00  0.00    -0.322 N 
ATOM     10  H   UNL A   1      32.768  24.841  27.253  1.00  0.00     0.347 HD
ATOM     11  H   UNL A   1      33.727  25.145  25.847  1.00  0.00     0.347 HD
BRANCH   9  12
ATOM     12  C   UNL A   1      31.768  25.250  25.544  1.00  0.00     0.184 C 
ATOM     13  C   UNL A   1      33.166  28.035  26.981  1.00  0.00     0.008 C 
ATOM     14  C   UNL A   1      32.012  27.841  25.998  1.00  0.00    -0.008 C 
ATOM     15  C   UNL A   1      31.242  26.526  26.250  1.00  0.00     0.068 C 
ATOM     16  C   UNL A   1      32.470  28.010  24.536  1.00  0.00     0.007 C 
ATOM     17  C   UNL A   1      33.069  26.730  23.948  1.00  0.00    -0.008 C 
ATOM     18  C   UNL A   1      32.038  25.604  24.076  1.00  0.00     0.068 C 
ATOM     19  C   UNL A   1      33.489  26.907  22.492  1.00  0.00     0.008 C 
ENDBRANCH   9  12
ENDBRANCH   7   9
BRANCH   7  20
ATOM     20  C   UNL A   1      33.692  22.443  27.350  1.00  0.00     0.455 C 
ATOM     21  F   UNL A   1      32.706  22.322  28.271  1.00  0.00    -0.164 F 
ATOM     22  F   UNL A   1      34.094  21.181  27.039  1.00  0.00    -0.164 F 
ATOM     23  F   UNL A   1      34.759  23.021  27.945  1.00  0.00    -0.164 F 
ENDBRANCH   7  20
ENDBRANCH   5   7
ENDBRANCH   4   5
ENDBRANCH   3   4
ENDBRANCH   2   3
ENDBRANCH   1   2
BRANCH   1  24
ATOM     24  C   UNL A   1      37.952  21.186  25.135  1.00  0.00     0.202 C 
BRANCH  24  25
ATOM     25  C   UNL A   1      38.793  19.905  25.160  1.00  0.00     0.261 C 
BRANCH  25  26
ATOM     26  O   UNL A   1      39.603  19.807  26.346  1.00  0.00    -0.460 OA
BRANCH  26  27
ATOM     27  C   UNL A   1      40.934  19.787  26.118  1.00  0.00     0.338 C 
ATOM     28  O   UNL A   1      41.565  18.955  25.473  1.00  0.00    -0.246 OA
BRANCH  27  29
ATOM     29  C   UNL A   1      41.564  21.023  26.614  1.00  0.00     0.060 A 
ATOM     30  C   UNL A   1      41.589  21.215  28.000  1.00  0.00     0.016 A 
ATOM     31  C   UNL A   1      42.047  22.012  25.753  1.00  0.00     0.016 A 
ATOM     32  C   UNL A   1      42.031  22.423  28.530  1.00  0.00     0.010 A 
ATOM     33  C   UNL A   1      42.489  23.229  26.287  1.00  0.00     0.010 A 
ATOM     34  C   UNL A   1      42.441  23.454  27.674  1.00  0.00    -0.014 A 
BRANCH  34  35
ATOM     35  C   UNL A   1      42.676  24.802  28.246  1.00  0.00     0.031 A 
ATOM     36  C   UNL A   1      44.077  25.211  28.613  1.00  0.00     0.074 A 
ATOM     37  C   UNL A   1      41.666  25.681  28.365  1.00  0.00     0.049 A 
ATOM     38  N   UNL A   1      44.518  26.370  29.032  1.00  0.00    -0.248 NA
ATOM     39  C   UNL A   1      45.119  24.179  28.488  1.00  0.00     0.031 C 
ATOM     40  C   UNL A   1      40.271  25.417  28.019  1.00  0.00     0.029 A 
ATOM     41  N   UNL A   1      41.667  26.982  28.798  1.00  0.00    -0.354 N 
ATOM     42  C   UNL A   1      45.886  26.208  29.218  1.00  0.00     0.074 A 
ATOM     43  C   UNL A   1      46.195  24.831  28.901  1.00  0.00     0.031 C 
ATOM     44  C   UNL A   1      39.550  26.529  28.243  1.00  0.00     0.029 A 
ATOM     45  C   UNL A   1      40.429  27.574  28.763  1.00  0.00     0.049 A 
ATOM     46  H   UNL A   1      42.479  27.449  29.103  1.00  0.00     0.167 HD
ATOM     47  C   UNL A   1      46.804  27.124  29.607  1.00  0.00     0.031 A 
ATOM     48  C   UNL A   1      40.048  28.818  29.110  1.00  0.00     0.031 A 
ATOM     49  C   UNL A   1      46.500  28.492  29.936  1.00  0.00     0.049 A 
ATOM     50  C   UNL A   1      41.079  29.806  29.582  1.00  0.00     0.074 A 
ATOM     51  C   UNL A   1      47.365  29.500  30.322  1.00  0.00     0.029 A 
ATOM     52  N   UNL A   1      45.227  29.039  29.925  1.00  0.00    -0.354 N 
ATOM     53  N   UNL A   1      42.374  29.650  29.711  1.00  0.00    -0.248 NA
ATOM     54  C   UNL A   1      40.594  31.147  29.939  1.00  0.00     0.031 C 
ATOM     55  C   UNL A   1      46.608  30.646  30.593  1.00  0.00     0.029 A 
ATOM     56  C   UNL A   1      45.279  30.365  30.322  1.00  0.00     0.049 A 
ATOM     57  H   UNL A   1      44.406  28.557  29.674  1.00  0.00     0.167 HD
ATOM     58  C   UNL A   1      42.863  30.881  30.135  1.00  0.00     0.074 A 
ATOM     59  C   UNL A   1      41.726  31.773  30.229  1.00  0.00     0.031 C 
ATOM     60  C   UNL A   1      44.140  31.240  30.417  1.00  0.00     0.031 A 
BRANCH  47  61
ATOM     61  C   UNL A   1      48.229  26.662  29.726  1.00  0.00    -0.014 A 
ATOM     62  C   UNL A   1      48.706  26.066  30.905  1.00  0.00     0.009 A 
ATOM     63  C   UNL A   1      49.100  26.803  28.634  1.00  0.00     0.009 A 
ATOM     64  C   UNL A   1      50.036  25.651  30.997  1.00  0.00     0.001 A 
ATOM     65  C   UNL A   1      50.422  26.363  28.722  1.00  0.00     0.001 A 
ATOM     66  C   UNL A   1      50.892  25.796  29.905  1.00  0.00     0.000 A 
ENDBRANCH  47  61
BRANCH  48  67
ATOM     67  C   UNL A   1      38.617  29.204  29.014  1.00  0.00    -0.014 A 
ATOM     68  C   UNL A   1      38.075  29.653  27.800  1.00  0.00     0.009 A 
ATOM     69  C   UNL A   1      37.787  29.131  30.143  1.00  0.00     0.009 A 
ATOM     70  C   UNL A   1      36.733  30.039  27.726  1.00  0.00     0.001 A 
ATOM     71  C   UNL A   1      36.442  29.492  30.060  1.00  0.00     0.001 A 
ATOM     72  C   UNL A   1      35.918  29.954  28.853  1.00  0.00     0.000 A 
ENDBRANCH  48  67
BRANCH  60  73
ATOM     73  C   UNL A   1      44.377  32.667  30.822  1.00  0.00    -0.014 A 
ATOM     74  C   UNL A   1      44.360  33.058  32.170  1.00  0.00     0.009 A 
ATOM     75  C   UNL A   1      44.649  33.631  29.838  1.00  0.00     0.009 A 
ATOM     76  C   UNL A   1      44.572  34.393  32.520  1.00  0.00     0.001 A 
ATOM     77  C   UNL A   1      44.889  34.959  30.193  1.00  0.00     0.001 A 
ATOM     78  C   UNL A   1      44.839  35.341  31.532  1.00  0.00     0.000 A 
ENDBRANCH  60  73
ENDBRANCH  34  35
ENDBRANCH  27  29
ENDBRANCH  26  27
ENDBRANCH  25  26
ENDBRANCH  24  25
ENDBRANCH   1  24
TORSDOF 17
ENDMDL
MODEL 3
REMARK VINA RESULT:      -9.6      2.319      3.008
REMARK SMILES C[C@@H]1CC([NH2+][C@@](C)(C(=O)OCCOCCOC(=O)c2ccc(-c3c4nc(c(-c5ccccc5)c5ccc([nH]5)c(-c5ccccc5)c5nc(c(-c6ccccc6)c6ccc3[nH]6)C=C5)C=C4)cc2)C(F)(F)F)C[C@@H](C)C1
REMARK SMILES IDX 13 1 12 2 11 3 10 4 8 5 9 6 6 7 7 8 5 9 4 12 1 13 2 14 3 15
REMARK SMILES IDX 74 16 72 17 71 18 73 19 67 20 68 21 69 22 70 23 14 24 15 25
REMARK SMILES IDX 16 26 17 27 18 28 19 29 20 30 66 31 21 32 65 33 22 34 23 35
REMARK SMILES IDX 24 36 59 37 25 38 64 39 58 40 60 41 26 42 63 43 57 44 56 45
REMARK SMILES IDX 27 47 49 48 34 49 48 50 35 51 38 52 47 53 61 54 36 55 37 56
REMARK SMILES IDX 46 58 62 59 39 60 28 61 29 62 33 63 30 64 32 65 31 66 50 67
REMARK SMILES IDX 51 68 55 69 52 70 54 71 53 72 40 73 41 74 45 75 42 76 44 77
REMARK SMILES IDX 43 78
REMARK H PARENT 5 10 5 11 60 46 38 57
REMARK Flexibility Score: inf
ROOT
ATOM      1  O   UNL A   1      35.658  20.949  25.298  1.00  0.00    -0.374 OA
ENDROOT
BRANCH   1   2
ATOM      2  C   UNL A   1      34.294  20.799  25.684  1.00  0.00     0.202 C 
BRANCH   2   3
ATOM      3  C   UNL A   1      33.737  21.822  26.677  1.00  0.00     0.261 C 
BRANCH   3   4
ATOM      4  O   UNL A   1      33.951  23.178  26.250  1.00  0.00    -0.458 OA
BRANCH   4   5
ATOM      5  C   UNL A   1      32.850  23.789  25.703  1.00  0.00     0.377 C 
ATOM      6  O   UNL A   1      31.751  23.799  26.243  1.00  0.00    -0.244 OA
BRANCH   5   7
ATOM      7  C   UNL A   1      33.145  24.338  24.294  1.00  0.00     0.287 C 
ATOM      8  C   UNL A   1      34.667  24.174  24.138  1.00  0.00     0.103 C 
BRANCH   7   9
ATOM      9  N   UNL A   1      32.705  25.794  24.220  1.00  0.00    -0.322 N 
ATOM     10  H   UNL A   1      32.524  26.005  23.238  1.00  0.00     0.347 HD
ATOM     11  H   UNL A   1      31.899  25.845  24.842  1.00  0.00     0.347 HD
BRANCH   9  12
ATOM     12  C   UNL A   1      33.621  26.826  24.726  1.00  0.00     0.184 C 
ATOM     13  C   UNL A   1      31.296  28.705  23.041  1.00  0.00     0.008 C 
ATOM     14  C   UNL A   1      32.489  29.074  23.924  1.00  0.00    -0.008 C 
ATOM     15  C   UNL A   1      33.650  28.063  23.793  1.00  0.00     0.068 C 
ATOM     16  C   UNL A   1      32.063  29.329  25.383  1.00  0.00     0.007 C 
ATOM     17  C   UNL A   1      31.962  28.043  26.208  1.00  0.00    -0.008 C 
ATOM     18  C   UNL A   1      33.310  27.316  26.145  1.00  0.00     0.068 C 
ATOM     19  C   UNL A   1      31.569  28.318  27.657  1.00  0.00     0.008 C 
ENDBRANCH   9  12
ENDBRANCH   7   9
BRANCH   7  20
ATOM     20  C   UNL A   1      32.407  23.356  23.349  1.00  0.00     0.455 C 
ATOM     21  F   UNL A   1      31.374  23.951  22.706  1.00  0.00    -0.164 F 
ATOM     22  F   UNL A   1      33.248  22.887  22.388  1.00  0.00    -0.164 F 
ATOM     23  F   UNL A   1      31.937  22.257  23.979  1.00  0.00    -0.164 F 
ENDBRANCH   7  20
ENDBRANCH   5   7
ENDBRANCH   4   5
ENDBRANCH   3   4
ENDBRANCH   2   3
ENDBRANCH   1   2
BRANCH   1  24
ATOM     24  C   UNL A   1      36.396  19.760  25.012  1.00  0.00     0.202 C 
BRANCH  24  25
ATOM     25  C   UNL A   1      37.908  19.915  24.817  1.00  0.00     0.261 C 
BRANCH  25  26
ATOM     26  O   UNL A   1      38.417  21.116  25.425  1.00  0.00    -0.460 OA
BRANCH  26  27
ATOM     27  C   UNL A   1      39.527  20.941  26.175  1.00  0.00     0.338 C 
ATOM     28  O   UNL A   1      40.233  19.939  26.233  1.00  0.00    -0.246 OA
BRANCH  27  29
ATOM     29  C   UNL A   1      39.916  22.202  26.829  1.00  0.00     0.060 A 
ATOM     30  C   UNL A   1      39.279  23.370  26.395  1.00  0.00     0.016 A 
ATOM     31  C   UNL A   1      40.934  22.264  27.785  1.00  0.00     0.016 A 
ATOM     32  C   UNL A   1      39.702  24.610  26.860  1.00  0.00     0.010 A 
ATOM     33  C   UNL A   1      41.361  23.513  28.250  1.00  0.00     0.010 A 
ATOM     34  C   UNL A   1      40.777  24.693  27.756  1.00  0.00    -0.014 A 
BRANCH  34  35
ATOM     35  C   UNL A   1      41.359  26.024  28.048  1.00  0.00     0.031 A 
ATOM     36  C   UNL A   1      42.683  26.398  27.438  1.00  0.00     0.074 A 
ATOM     37  C   UNL A   1      40.680  26.922  28.784  1.00  0.00     0.049 A 
ATOM     38  N   UNL A   1      43.321  27.540  27.481  1.00  0.00    -0.248 NA
ATOM     39  C   UNL A   1      43.378  25.348  26.678  1.00  0.00     0.031 C 
ATOM     40  C   UNL A   1      39.377  26.693  29.405  1.00  0.00     0.029 A 
ATOM     41  N   UNL A   1      40.992  28.215  29.117  1.00  0.00    -0.354 N 
ATOM     42  C   UNL A   1      44.489  27.347  26.753  1.00  0.00     0.074 A 
ATOM     43  C   UNL A   1      44.488  25.970  26.311  1.00  0.00     0.031 C 
ATOM     44  C   UNL A   1      38.995  27.815  30.039  1.00  0.00     0.029 A 
ATOM     45  C   UNL A   1      40.032  28.833  29.880  1.00  0.00     0.049 A 
ATOM     46  H   UNL A   1      41.825  28.659  28.836  1.00  0.00     0.167 HD
ATOM     47  C   UNL A   1      45.469  28.237  26.469  1.00  0.00     0.031 A 
ATOM     48  C   UNL A   1      39.993  30.078  30.391  1.00  0.00     0.031 A 
ATOM     49  C   UNL A   1      45.482  29.604  26.917  1.00  0.00     0.049 A 
ATOM     50  C   UNL A   1      41.115  31.036  30.099  1.00  0.00     0.074 A 
ATOM     51  C   UNL A   1      46.421  30.587  26.664  1.00  0.00     0.029 A 
ATOM     52  N   UNL A   1      44.508  30.178  27.720  1.00  0.00    -0.354 N 
ATOM     53  N   UNL A   1      42.191  30.851  29.373  1.00  0.00    -0.248 NA
ATOM     54  C   UNL A   1      41.006  32.380  30.683  1.00  0.00     0.031 C 
ATOM     55  C   UNL A   1      46.042  31.744  27.356  1.00  0.00     0.029 A 
ATOM     56  C   UNL A   1      44.838  31.495  27.993  1.00  0.00     0.049 A 
ATOM     57  H   UNL A   1      43.703  29.718  28.049  1.00  0.00     0.167 HD
ATOM     58  C   UNL A   1      42.871  32.064  29.389  1.00  0.00     0.074 A 
ATOM     59  C   UNL A   1      42.079  32.978  30.186  1.00  0.00     0.031 C 
ATOM     60  C   UNL A   1      44.044  32.392  28.793  1.00  0.00     0.031 A 
BRANCH  47  61
ATOM     61  C   UNL A   1      46.631  27.744  25.653  1.00  0.00    -0.014 A 
ATOM     62  C   UNL A   1      46.666  27.908  24.259  1.00  0.00     0.009 A 
ATOM     63  C   UNL A   1      47.719  27.127  26.292  1.00  0.00     0.009 A 
ATOM     64  C   UNL A   1      47.751  27.435  23.519  1.00  0.00     0.001 A 
ATOM     65  C   UNL A   1      48.814  26.679  25.552  1.00  0.00     0.001 A 
ATOM     66  C   UNL A   1      48.825  26.825  24.165  1.00  0.00     0.000 A 
ENDBRANCH  47  61
BRANCH  48  67
ATOM     67  C   UNL A   1      38.840  30.495  31.229  1.00  0.00    -0.014 A 
ATOM     68  C   UNL A   1      38.873  30.340  32.623  1.00  0.00     0.009 A 
ATOM     69  C   UNL A   1      37.696  31.049  30.633  1.00  0.00     0.009 A 
ATOM     70  C   UNL A   1      37.773  30.712  33.401  1.00  0.00     0.001 A 
ATOM     71  C   UNL A   1      36.610  31.443  31.415  1.00  0.00     0.001 A 
ATOM     72  C   UNL A   1      36.646  31.267  32.798  1.00  0.00     0.000 A 
ENDBRANCH  48  67
BRANCH  60  73
ATOM     73  C   UNL A   1      44.524  33.806  28.955  1.00  0.00    -0.014 A 
ATOM     74  C   UNL A   1      44.163  34.810  28.042  1.00  0.00     0.009 A 
ATOM     75  C   UNL A   1      45.328  34.145  30.054  1.00  0.00     0.009 A 
ATOM     76  C   UNL A   1      44.630  36.115  28.207  1.00  0.00     0.001 A 
ATOM     77  C   UNL A   1      45.771  35.457  30.232  1.00  0.00     0.001 A 
ATOM     78  C   UNL A   1      45.431  36.438  29.303  1.00  0.00     0.000 A 
ENDBRANCH  60  73
ENDBRANCH  34  35
ENDBRANCH  27  29
ENDBRANCH  26  27
ENDBRANCH  25  26
ENDBRANCH  24  25
ENDBRANCH   1  24
TORSDOF 17
ENDMDL
