MODEL 1
REMARK VINA RESULT:      -9.7      0.000      0.000
REMARK SMILES CC[C@H]1CC[C@](Cc2cccc(OC)n2)(C(=O)OCCOCCOC(=O)c2ccc(-c3c4nc(c(-c5ccccc5)c5ccc([nH]5)c(-c5ccccc5)c5nc(c(-c6ccccc6)c6ccc3[nH]6)C=C5)C=C4)cc2)C1
REMARK SMILES IDX 20 1 19 2 18 3 16 4 17 5 6 6 3 7 4 8 75 9 5 10 2 11 1 12
REMARK SMILES IDX 7 13 8 14 9 15 15 16 10 17 12 18 11 19 13 20 14 21 21 22
REMARK SMILES IDX 22 23 23 24 24 25 25 26 26 27 27 28 28 29 74 30 29 31 73 32
REMARK SMILES IDX 30 33 31 34 32 35 67 36 33 37 72 38 66 39 68 40 34 41 71 42
REMARK SMILES IDX 65 43 64 44 35 46 57 47 42 48 56 49 43 50 46 51 55 52 69 53
REMARK SMILES IDX 44 54 45 55 54 57 70 58 47 59 36 60 37 61 41 62 38 63 40 64
REMARK SMILES IDX 39 65 58 66 59 67 63 68 60 69 62 70 61 71 48 72 49 73 53 74
REMARK SMILES IDX 50 75 52 76 51 77
REMARK H PARENT 68 45 46 56
REMARK Flexibility Score: inf
ROOT
ATOM      1  C   UNL A   1      32.238  29.589  27.198  1.00  0.00     0.202 C 
ENDROOT
BRANCH   1   2
ATOM      2  C   UNL A   1      32.638  28.151  26.846  1.00  0.00     0.261 C 
BRANCH   2   3
ATOM      3  O   UNL A   1      31.577  27.373  26.250  1.00  0.00    -0.463 OA
BRANCH   3   4
ATOM      4  C   UNL A   1      31.768  27.076  24.932  1.00  0.00     0.312 C 
ATOM      5  O   UNL A   1      31.707  27.921  24.046  1.00  0.00    -0.252 OA
BRANCH   4   6
ATOM      6  C   UNL A   1      32.055  25.580  24.670  1.00  0.00     0.074 C 
ATOM      7  C   UNL A   1      33.667  24.834  22.913  1.00  0.00    -0.010 C 
ATOM      8  C   UNL A   1      32.297  25.062  22.278  1.00  0.00     0.005 C 
ATOM      9  C   UNL A   1      33.561  25.461  24.302  1.00  0.00     0.022 C 
ATOM     10  C   UNL A   1      31.285  25.134  23.414  1.00  0.00     0.019 C 
BRANCH   7  11
ATOM     11  C   UNL A   1      34.109  23.366  22.927  1.00  0.00     0.000 C 
ATOM     12  C   UNL A   1      35.507  23.175  23.509  1.00  0.00     0.004 C 
ENDBRANCH   7  11
BRANCH   6  13
ATOM     13  C   UNL A   1      31.690  24.723  25.919  1.00  0.00     0.075 C 
BRANCH  13  14
ATOM     14  C   UNL A   1      32.419  23.405  26.109  1.00  0.00     0.046 A 
ATOM     15  C   UNL A   1      33.580  23.345  26.875  1.00  0.00     0.024 A 
ATOM     16  N   UNL A   1      31.908  22.310  25.500  1.00  0.00    -0.219 NA
ATOM     17  C   UNL A   1      34.276  22.144  26.947  1.00  0.00     0.007 A 
ATOM     18  C   UNL A   1      32.581  21.138  25.596  1.00  0.00     0.213 A 
ATOM     19  C   UNL A   1      33.778  21.026  26.288  1.00  0.00     0.068 A 
BRANCH  18  20
ATOM     20  O   UNL A   1      31.952  20.115  24.944  1.00  0.00    -0.481 OA
ATOM     21  C   UNL A   1      32.774  19.146  24.312  1.00  0.00     0.280 C 
ENDBRANCH  18  20
ENDBRANCH  13  14
ENDBRANCH   6  13
ENDBRANCH   4   6
ENDBRANCH   3   4
ENDBRANCH   2   3
ENDBRANCH   1   2
BRANCH   1  22
ATOM     22  O   UNL A   1      32.154  30.551  26.149  1.00  0.00    -0.374 OA
BRANCH  22  23
ATOM     23  C   UNL A   1      31.249  31.635  26.331  1.00  0.00     0.202 C 
BRANCH  23  24
ATOM     24  C   UNL A   1      31.823  32.983  26.787  1.00  0.00     0.261 C 
BRANCH  24  25
ATOM     25  O   UNL A   1      32.667  32.859  27.944  1.00  0.00    -0.460 OA
BRANCH  25  26
ATOM     26  C   UNL A   1      33.732  33.694  27.954  1.00  0.00     0.338 C 
ATOM     27  O   UNL A   1      33.717  34.917  27.902  1.00  0.00    -0.246 OA
BRANCH  26  28
ATOM     28  C   UNL A   1      34.967  32.942  28.240  1.00  0.00     0.060 A 
ATOM     29  C   UNL A   1      34.832  31.576  28.526  1.00  0.00     0.016 A 
ATOM     30  C   UNL A   1      36.216  33.561  28.299  1.00  0.00     0.016 A 
ATOM     31  C   UNL A   1      35.937  30.836  28.934  1.00  0.00     0.010 A 
ATOM     32  C   UNL A   1      37.324  32.818  28.723  1.00  0.00     0.010 A 
ATOM     33  C   UNL A   1      37.179  31.465  29.082  1.00  0.00    -0.014 A 
BRANCH  33  34
ATOM     34  C   UNL A   1      38.273  30.748  29.779  1.00  0.00     0.031 A 
ATOM     35  C   UNL A   1      38.472  30.989  31.250  1.00  0.00     0.074 A 
ATOM     36  C   UNL A   1      39.047  29.864  29.126  1.00  0.00     0.049 A 
ATOM     37  N   UNL A   1      39.366  30.482  32.060  1.00  0.00    -0.248 NA
ATOM     38  C   UNL A   1      37.537  31.927  31.895  1.00  0.00     0.031 C 
ATOM     39  C   UNL A   1      38.922  29.508  27.714  1.00  0.00     0.029 A 
ATOM     40  N   UNL A   1      40.099  29.106  29.575  1.00  0.00    -0.354 N 
ATOM     41  C   UNL A   1      39.108  31.046  33.303  1.00  0.00     0.074 A 
ATOM     42  C   UNL A   1      37.992  31.950  33.139  1.00  0.00     0.031 C 
ATOM     43  C   UNL A   1      39.871  28.606  27.409  1.00  0.00     0.029 A 
ATOM     44  C   UNL A   1      40.685  28.346  28.594  1.00  0.00     0.049 A 
ATOM     45  H   UNL A   1      40.404  29.107  30.511  1.00  0.00     0.167 HD
ATOM     46  C   UNL A   1      39.745  30.829  34.478  1.00  0.00     0.031 A 
ATOM     47  C   UNL A   1      41.770  27.549  28.644  1.00  0.00     0.031 A 
ATOM     48  C   UNL A   1      40.859  29.937  34.642  1.00  0.00     0.049 A 
ATOM     49  C   UNL A   1      42.503  27.378  29.947  1.00  0.00     0.074 A 
ATOM     50  C   UNL A   1      41.557  29.633  35.798  1.00  0.00     0.029 A 
ATOM     51  N   UNL A   1      41.445  29.212  33.616  1.00  0.00    -0.354 N 
ATOM     52  N   UNL A   1      42.232  27.891  31.123  1.00  0.00    -0.248 NA
ATOM     53  C   UNL A   1      43.691  26.510  29.932  1.00  0.00     0.031 C 
ATOM     54  C   UNL A   1      42.600  28.764  35.461  1.00  0.00     0.029 A 
ATOM     55  C   UNL A   1      42.517  28.484  34.106  1.00  0.00     0.049 A 
ATOM     56  H   UNL A   1      41.145  29.215  32.679  1.00  0.00     0.167 HD
ATOM     57  C   UNL A   1      43.194  27.389  31.989  1.00  0.00     0.074 A 
ATOM     58  C   UNL A   1      44.050  26.520  31.208  1.00  0.00     0.031 C 
ATOM     59  C   UNL A   1      43.355  27.623  33.315  1.00  0.00     0.031 A 
BRANCH  46  60
ATOM     60  C   UNL A   1      39.271  31.604  35.675  1.00  0.00    -0.014 A 
ATOM     61  C   UNL A   1      38.192  31.159  36.455  1.00  0.00     0.009 A 
ATOM     62  C   UNL A   1      39.939  32.781  36.046  1.00  0.00     0.009 A 
ATOM     63  C   UNL A   1      37.775  31.894  37.567  1.00  0.00     0.001 A 
ATOM     64  C   UNL A   1      39.536  33.500  37.173  1.00  0.00     0.001 A 
ATOM     65  C   UNL A   1      38.450  33.060  37.928  1.00  0.00     0.000 A 
ENDBRANCH  46  60
BRANCH  47  66
ATOM     66  C   UNL A   1      42.251  26.870  27.413  1.00  0.00    -0.014 A 
ATOM     67  C   UNL A   1      41.796  25.587  27.073  1.00  0.00     0.009 A 
ATOM     68  C   UNL A   1      43.188  27.500  26.578  1.00  0.00     0.009 A 
ATOM     69  C   UNL A   1      42.290  24.939  25.938  1.00  0.00     0.001 A 
ATOM     70  C   UNL A   1      43.658  26.861  25.430  1.00  0.00     0.001 A 
ATOM     71  C   UNL A   1      43.216  25.578  25.115  1.00  0.00     0.000 A 
ENDBRANCH  47  66
BRANCH  59  72
ATOM     72  C   UNL A   1      44.473  26.901  34.013  1.00  0.00    -0.014 A 
ATOM     73  C   UNL A   1      45.735  27.492  34.171  1.00  0.00     0.009 A 
ATOM     74  C   UNL A   1      44.239  25.633  34.568  1.00  0.00     0.009 A 
ATOM     75  C   UNL A   1      46.752  26.812  34.844  1.00  0.00     0.001 A 
ATOM     76  C   UNL A   1      45.249  24.967  35.264  1.00  0.00     0.001 A 
ATOM     77  C   UNL A   1      46.506  25.553  35.395  1.00  0.00     0.000 A 
ENDBRANCH  59  72
ENDBRANCH  33  34
ENDBRANCH  26  28
ENDBRANCH  25  26
ENDBRANCH  24  25
ENDBRANCH  23  24
ENDBRANCH  22  23
ENDBRANCH   1  22
TORSDOF 18
ENDMDL
MODEL 2
REMARK VINA RESULT:      -9.6      1.169      6.250
REMARK SMILES CC[C@H]1CC[C@](Cc2cccc(OC)n2)(C(=O)OCCOCCOC(=O)c2ccc(-c3c4nc(c(-c5ccccc5)c5ccc([nH]5)c(-c5ccccc5)c5nc(c(-c6ccccc6)c6ccc3[nH]6)C=C5)C=C4)cc2)C1
REMARK SMILES IDX 20 1 19 2 18 3 16 4 17 5 6 6 3 7 4 8 75 9 5 10 2 11 1 12
REMARK SMILES IDX 7 13 8 14 9 15 15 16 10 17 12 18 11 19 13 20 14 21 21 22
REMARK SMILES IDX 22 23 23 24 24 25 25 26 26 27 27 28 28 29 74 30 29 31 73 32
REMARK SMILES IDX 30 33 31 34 32 35 67 36 33 37 72 38 66 39 68 40 34 41 71 42
REMARK SMILES IDX 65 43 64 44 35 46 57 47 42 48 56 49 43 50 46 51 55 52 69 53
REMARK SMILES IDX 44 54 45 55 54 57 70 58 47 59 36 60 37 61 41 62 38 63 40 64
REMARK SMILES IDX 39 65 58 66 59 67 63 68 60 69 62 70 61 71 48 72 49 73 53 74
REMARK SMILES IDX 50 75 52 76 51 77
REMARK H PARENT 68 45 46 56
REMARK Flexibility Score: inf
ROOT
ATOM      1  C   UNL A   1      30.480  28.088  23.769  1.00  0.00     0.202 C 
ENDROOT
BRANCH   1   2
ATOM      2  C   UNL A   1      30.736  27.506  22.373  1.00  0.00     0.261 C 
BRANCH   2   3
ATOM      3  O   UNL A   1      30.980  26.083  22.364  1.00  0.00    -0.463 OA
BRANCH   3   4
ATOM      4  C   UNL A   1      32.290  25.735  22.521  1.00  0.00     0.312 C 
ATOM      5  O   UNL A   1      33.201  26.287  21.914  1.00  0.00    -0.252 OA
BRANCH   4   6
ATOM      6  C   UNL A   1      32.506  24.578  23.523  1.00  0.00     0.074 C 
ATOM      7  C   UNL A   1      31.155  24.373  25.614  1.00  0.00    -0.010 C 
ATOM      8  C   UNL A   1      32.339  25.305  25.867  1.00  0.00     0.005 C 
ATOM      9  C   UNL A   1      31.111  24.202  24.096  1.00  0.00     0.022 C 
ATOM     10  C   UNL A   1      33.321  25.099  24.721  1.00  0.00     0.019 C 
BRANCH   7  11
ATOM     11  C   UNL A   1      31.231  23.051  26.386  1.00  0.00     0.000 C 
ATOM     12  C   UNL A   1      32.489  22.939  27.244  1.00  0.00     0.004 C 
ENDBRANCH   7  11
BRANCH   6  13
ATOM     13  C   UNL A   1      33.196  23.367  22.825  1.00  0.00     0.075 C 
BRANCH  13  14
ATOM     14  C   UNL A   1      33.631  22.204  23.696  1.00  0.00     0.046 A 
ATOM     15  C   UNL A   1      34.904  22.181  24.259  1.00  0.00     0.024 A 
ATOM     16  N   UNL A   1      32.748  21.196  23.888  1.00  0.00    -0.219 NA
ATOM     17  C   UNL A   1      35.305  21.055  24.969  1.00  0.00     0.007 A 
ATOM     18  C   UNL A   1      33.140  20.114  24.603  1.00  0.00     0.213 A 
ATOM     19  C   UNL A   1      34.416  19.999  25.134  1.00  0.00     0.068 A 
BRANCH  18  20
ATOM     20  O   UNL A   1      32.151  19.179  24.727  1.00  0.00    -0.481 OA
ATOM     21  C   UNL A   1      32.549  17.851  25.031  1.00  0.00     0.280 C 
ENDBRANCH  18  20
ENDBRANCH  13  14
ENDBRANCH   6  13
ENDBRANCH   4   6
ENDBRANCH   3   4
ENDBRANCH   2   3
ENDBRANCH   1   2
BRANCH   1  22
ATOM     22  O   UNL A   1      30.895  29.425  24.039  1.00  0.00    -0.374 OA
BRANCH  22  23
ATOM     23  C   UNL A   1      31.906  29.606  25.026  1.00  0.00     0.202 C 
BRANCH  23  24
ATOM     24  C   UNL A   1      31.654  30.638  26.133  1.00  0.00     0.261 C 
BRANCH  24  25
ATOM     25  O   UNL A   1      32.618  30.552  27.196  1.00  0.00    -0.460 OA
BRANCH  25  26
ATOM     26  C   UNL A   1      33.404  31.646  27.332  1.00  0.00     0.338 C 
ATOM     27  O   UNL A   1      33.065  32.819  27.235  1.00  0.00    -0.246 OA
BRANCH  26  28
ATOM     28  C   UNL A   1      34.738  31.259  27.823  1.00  0.00     0.060 A 
ATOM     29  C   UNL A   1      34.926  29.914  28.170  1.00  0.00     0.016 A 
ATOM     30  C   UNL A   1      35.760  32.191  28.009  1.00  0.00     0.016 A 
ATOM     31  C   UNL A   1      36.116  29.506  28.764  1.00  0.00     0.010 A 
ATOM     32  C   UNL A   1      36.950  31.783  28.619  1.00  0.00     0.010 A 
ATOM     33  C   UNL A   1      37.116  30.449  29.036  1.00  0.00    -0.014 A 
BRANCH  33  34
ATOM     34  C   UNL A   1      38.247  30.067  29.913  1.00  0.00     0.031 A 
ATOM     35  C   UNL A   1      39.296  29.133  29.374  1.00  0.00     0.074 A 
ATOM     36  C   UNL A   1      38.365  30.575  31.153  1.00  0.00     0.049 A 
ATOM     37  N   UNL A   1      40.364  28.657  29.961  1.00  0.00    -0.248 NA
ATOM     38  C   UNL A   1      39.117  28.676  27.985  1.00  0.00     0.031 C 
ATOM     39  C   UNL A   1      37.443  31.524  31.771  1.00  0.00     0.029 A 
ATOM     40  N   UNL A   1      39.320  30.354  32.114  1.00  0.00    -0.354 N 
ATOM     41  C   UNL A   1      40.976  27.838  29.020  1.00  0.00     0.074 A 
ATOM     42  C   UNL A   1      40.152  27.863  27.833  1.00  0.00     0.031 C 
ATOM     43  C   UNL A   1      37.871  31.797  33.015  1.00  0.00     0.029 A 
ATOM     44  C   UNL A   1      39.078  31.020  33.289  1.00  0.00     0.049 A 
ATOM     45  H   UNL A   1      40.102  29.773  31.973  1.00  0.00     0.167 HD
ATOM     46  C   UNL A   1      42.124  27.130  29.135  1.00  0.00     0.031 A 
ATOM     47  C   UNL A   1      39.744  30.987  34.459  1.00  0.00     0.031 A 
ATOM     48  C   UNL A   1      42.941  27.099  30.316  1.00  0.00     0.049 A 
ATOM     49  C   UNL A   1      40.980  30.137  34.584  1.00  0.00     0.074 A 
ATOM     50  C   UNL A   1      44.134  26.429  30.521  1.00  0.00     0.029 A 
ATOM     51  N   UNL A   1      42.643  27.760  31.497  1.00  0.00    -0.354 N 
ATOM     52  N   UNL A   1      41.567  29.392  33.678  1.00  0.00    -0.248 NA
ATOM     53  C   UNL A   1      41.650  30.129  35.893  1.00  0.00     0.031 C 
ATOM     54  C   UNL A   1      44.531  26.641  31.845  1.00  0.00     0.029 A 
ATOM     55  C   UNL A   1      43.614  27.489  32.446  1.00  0.00     0.049 A 
ATOM     56  H   UNL A   1      41.858  28.335  31.640  1.00  0.00     0.167 HD
ATOM     57  C   UNL A   1      42.686  28.851  34.296  1.00  0.00     0.074 A 
ATOM     58  C   UNL A   1      42.705  29.362  35.652  1.00  0.00     0.031 C 
ATOM     59  C   UNL A   1      43.619  28.008  33.788  1.00  0.00     0.031 A 
BRANCH  46  60
ATOM     60  C   UNL A   1      42.544  26.297  27.956  1.00  0.00    -0.014 A 
ATOM     61  C   UNL A   1      43.380  26.814  26.954  1.00  0.00     0.009 A 
ATOM     62  C   UNL A   1      42.121  24.961  27.868  1.00  0.00     0.009 A 
ATOM     63  C   UNL A   1      43.761  26.018  25.872  1.00  0.00     0.001 A 
ATOM     64  C   UNL A   1      42.525  24.160  26.799  1.00  0.00     0.001 A 
ATOM     65  C   UNL A   1      43.337  24.690  25.798  1.00  0.00     0.000 A 
ENDBRANCH  46  60
BRANCH  47  66
ATOM     66  C   UNL A   1      39.241  31.763  35.623  1.00  0.00    -0.014 A 
ATOM     67  C   UNL A   1      39.769  33.027  35.928  1.00  0.00     0.009 A 
ATOM     68  C   UNL A   1      38.239  31.229  36.449  1.00  0.00     0.009 A 
ATOM     69  C   UNL A   1      39.321  33.727  37.052  1.00  0.00     0.001 A 
ATOM     70  C   UNL A   1      37.775  31.944  37.554  1.00  0.00     0.001 A 
ATOM     71  C   UNL A   1      38.321  33.188  37.860  1.00  0.00     0.000 A 
ENDBRANCH  47  66
BRANCH  59  72
ATOM     72  C   UNL A   1      44.757  27.615  34.687  1.00  0.00    -0.014 A 
ATOM     73  C   UNL A   1      44.671  26.493  35.524  1.00  0.00     0.009 A 
ATOM     74  C   UNL A   1      45.952  28.350  34.652  1.00  0.00     0.009 A 
ATOM     75  C   UNL A   1      45.751  26.133  36.333  1.00  0.00     0.001 A 
ATOM     76  C   UNL A   1      47.040  27.972  35.441  1.00  0.00     0.001 A 
ATOM     77  C   UNL A   1      46.935  26.869  36.286  1.00  0.00     0.000 A 
ENDBRANCH  59  72
ENDBRANCH  33  34
ENDBRANCH  26  28
ENDBRANCH  25  26
ENDBRANCH  24  25
ENDBRANCH  23  24
ENDBRANCH  22  23
ENDBRANCH   1  22
TORSDOF 18
ENDMDL
MODEL 3
REMARK VINA RESULT:      -9.6      3.095      4.245
REMARK SMILES CC[C@H]1CC[C@](Cc2cccc(OC)n2)(C(=O)OCCOCCOC(=O)c2ccc(-c3c4nc(c(-c5ccccc5)c5ccc([nH]5)c(-c5ccccc5)c5nc(c(-c6ccccc6)c6ccc3[nH]6)C=C5)C=C4)cc2)C1
REMARK SMILES IDX 20 1 19 2 18 3 16 4 17 5 6 6 3 7 4 8 75 9 5 10 2 11 1 12
REMARK SMILES IDX 7 13 8 14 9 15 15 16 10 17 12 18 11 19 13 20 14 21 21 22
REMARK SMILES IDX 22 23 23 24 24 25 25 26 26 27 27 28 28 29 74 30 29 31 73 32
REMARK SMILES IDX 30 33 31 34 32 35 67 36 33 37 72 38 66 39 68 40 34 41 71 42
REMARK SMILES IDX 65 43 64 44 35 46 57 47 42 48 56 49 43 50 46 51 55 52 69 53
REMARK SMILES IDX 44 54 45 55 54 57 70 58 47 59 36 60 37 61 41 62 38 63 40 64
REMARK SMILES IDX 39 65 58 66 59 67 63 68 60 69 62 70 61 71 48 72 49 73 53 74
REMARK SMILES IDX 50 75 52 76 51 77
REMARK H PARENT 68 45 46 56
REMARK Flexibility Score: inf
ROOT
ATOM      1  C   UNL A   1      32.348  29.236  24.783  1.00  0.00     0.202 C 
ENDROOT
BRANCH   1   2
ATOM      2  C   UNL A   1      32.170  28.546  23.425  1.00  0.00     0.261 C 
BRANCH   2   3
ATOM      3  O   UNL A   1      33.104  27.472  23.183  1.00  0.00    -0.463 OA
BRANCH   3   4
ATOM      4  C   UNL A   1      32.538  26.333  22.689  1.00  0.00     0.312 C 
ATOM      5  O   UNL A   1      31.889  26.311  21.649  1.00  0.00    -0.252 OA
BRANCH   4   6
ATOM      6  C   UNL A   1      32.786  25.086  23.570  1.00  0.00     0.074 C 
ATOM      7  C   UNL A   1      31.834  24.887  25.871  1.00  0.00    -0.010 C 
ATOM      8  C   UNL A   1      33.156  25.650  25.935  1.00  0.00     0.005 C 
ATOM      9  C   UNL A   1      31.486  24.837  24.384  1.00  0.00     0.022 C 
ATOM     10  C   UNL A   1      33.871  25.416  24.610  1.00  0.00     0.019 C 
BRANCH   7  11
ATOM     11  C   UNL A   1      31.879  23.511  26.545  1.00  0.00     0.000 C 
ATOM     12  C   UNL A   1      30.703  22.621  26.150  1.00  0.00     0.004 C 
ENDBRANCH   7  11
BRANCH   6  13
ATOM     13  C   UNL A   1      33.168  23.858  22.690  1.00  0.00     0.075 C 
BRANCH  13  14
ATOM     14  C   UNL A   1      33.285  22.509  23.374  1.00  0.00     0.046 A 
ATOM     15  C   UNL A   1      32.366  21.499  23.104  1.00  0.00     0.024 A 
ATOM     16  N   UNL A   1      34.298  22.335  24.255  1.00  0.00    -0.219 NA
ATOM     17  C   UNL A   1      32.444  20.310  23.821  1.00  0.00     0.007 A 
ATOM     18  C   UNL A   1      34.381  21.164  24.930  1.00  0.00     0.213 A 
ATOM     19  C   UNL A   1      33.458  20.143  24.758  1.00  0.00     0.068 A 
BRANCH  18  20
ATOM     20  O   UNL A   1      35.451  21.120  25.778  1.00  0.00    -0.481 OA
ATOM     21  C   UNL A   1      36.522  22.014  25.519  1.00  0.00     0.280 C 
ENDBRANCH  18  20
ENDBRANCH  13  14
ENDBRANCH   6  13
ENDBRANCH   4   6
ENDBRANCH   3   4
ENDBRANCH   2   3
ENDBRANCH   1   2
BRANCH   1  22
ATOM     22  O   UNL A   1      33.558  29.022  25.506  1.00  0.00    -0.374 OA
BRANCH  22  23
ATOM     23  C   UNL A   1      33.539  29.294  26.903  1.00  0.00     0.202 C 
BRANCH  23  24
ATOM     24  C   UNL A   1      33.249  30.732  27.353  1.00  0.00     0.261 C 
BRANCH  24  25
ATOM     25  O   UNL A   1      34.442  31.526  27.464  1.00  0.00    -0.460 OA
BRANCH  25  26
ATOM     26  C   UNL A   1      34.996  31.537  28.699  1.00  0.00     0.338 C 
ATOM     27  O   UNL A   1      34.530  32.032  29.717  1.00  0.00    -0.246 OA
BRANCH  26  28
ATOM     28  C   UNL A   1      36.193  30.678  28.728  1.00  0.00     0.060 A 
ATOM     29  C   UNL A   1      36.550  30.121  29.964  1.00  0.00     0.016 A 
ATOM     30  C   UNL A   1      36.990  30.476  27.600  1.00  0.00     0.016 A 
ATOM     31  C   UNL A   1      37.740  29.411  30.092  1.00  0.00     0.010 A 
ATOM     32  C   UNL A   1      38.192  29.773  27.733  1.00  0.00     0.010 A 
ATOM     33  C   UNL A   1      38.590  29.275  28.988  1.00  0.00    -0.014 A 
BRANCH  33  34
ATOM     34  C   UNL A   1      39.968  28.770  29.197  1.00  0.00     0.031 A 
ATOM     35  C   UNL A   1      40.970  29.665  29.873  1.00  0.00     0.074 A 
ATOM     36  C   UNL A   1      40.311  27.522  28.831  1.00  0.00     0.049 A 
ATOM     37  N   UNL A   1      42.229  29.438  30.151  1.00  0.00    -0.248 NA
ATOM     38  C   UNL A   1      40.489  30.991  30.294  1.00  0.00     0.031 C 
ATOM     39  C   UNL A   1      39.418  26.545  28.213  1.00  0.00     0.029 A 
ATOM     40  N   UNL A   1      41.513  26.869  28.931  1.00  0.00    -0.354 N 
ATOM     41  C   UNL A   1      42.690  30.595  30.767  1.00  0.00     0.074 A 
ATOM     42  C   UNL A   1      41.587  31.529  30.803  1.00  0.00     0.031 C 
ATOM     43  C   UNL A   1      40.109  25.416  27.976  1.00  0.00     0.029 A 
ATOM     44  C   UNL A   1      41.494  25.603  28.400  1.00  0.00     0.049 A 
ATOM     45  H   UNL A   1      42.312  27.269  29.344  1.00  0.00     0.167 HD
ATOM     46  C   UNL A   1      43.924  30.855  31.261  1.00  0.00     0.031 A 
ATOM     47  C   UNL A   1      42.490  24.708  28.252  1.00  0.00     0.031 A 
ATOM     48  C   UNL A   1      45.024  29.932  31.220  1.00  0.00     0.049 A 
ATOM     49  C   UNL A   1      43.870  25.048  28.747  1.00  0.00     0.074 A 
ATOM     50  C   UNL A   1      46.306  30.096  31.714  1.00  0.00     0.029 A 
ATOM     51  N   UNL A   1      44.973  28.673  30.641  1.00  0.00    -0.354 N 
ATOM     52  N   UNL A   1      44.287  26.132  29.356  1.00  0.00    -0.248 NA
ATOM     53  C   UNL A   1      44.918  24.037  28.539  1.00  0.00     0.031 C 
ATOM     54  C   UNL A   1      47.047  28.956  31.387  1.00  0.00     0.029 A 
ATOM     55  C   UNL A   1      46.211  28.061  30.739  1.00  0.00     0.049 A 
ATOM     56  H   UNL A   1      44.177  28.274  30.223  1.00  0.00     0.167 HD
ATOM     57  C   UNL A   1      45.633  25.922  29.628  1.00  0.00     0.074 A 
ATOM     58  C   UNL A   1      45.961  24.603  29.129  1.00  0.00     0.031 C 
ATOM     59  C   UNL A   1      46.519  26.746  30.240  1.00  0.00     0.031 A 
BRANCH  46  60
ATOM     60  C   UNL A   1      44.158  32.216  31.856  1.00  0.00    -0.014 A 
ATOM     61  C   UNL A   1      44.442  33.328  31.049  1.00  0.00     0.009 A 
ATOM     62  C   UNL A   1      44.059  32.389  33.245  1.00  0.00     0.009 A 
ATOM     63  C   UNL A   1      44.650  34.583  31.626  1.00  0.00     0.001 A 
ATOM     64  C   UNL A   1      44.241  33.650  33.816  1.00  0.00     0.001 A 
ATOM     65  C   UNL A   1      44.544  34.744  33.007  1.00  0.00     0.000 A 
ENDBRANCH  46  60
BRANCH  47  66
ATOM     66  C   UNL A   1      42.228  23.409  27.580  1.00  0.00    -0.014 A 
ATOM     67  C   UNL A   1      41.693  22.324  28.292  1.00  0.00     0.009 A 
ATOM     68  C   UNL A   1      42.533  23.243  26.220  1.00  0.00     0.009 A 
ATOM     69  C   UNL A   1      41.494  21.094  27.661  1.00  0.00     0.001 A 
ATOM     70  C   UNL A   1      42.307  22.020  25.586  1.00  0.00     0.001 A 
ATOM     71  C   UNL A   1      41.796  20.944  26.308  1.00  0.00     0.000 A 
ENDBRANCH  47  66
BRANCH  59  72
ATOM     72  C   UNL A   1      47.917  26.233  30.438  1.00  0.00    -0.014 A 
ATOM     73  C   UNL A   1      48.884  26.343  29.428  1.00  0.00     0.009 A 
ATOM     74  C   UNL A   1      48.283  25.679  31.675  1.00  0.00     0.009 A 
ATOM     75  C   UNL A   1      50.184  25.880  29.643  1.00  0.00     0.001 A 
ATOM     76  C   UNL A   1      49.590  25.243  31.897  1.00  0.00     0.001 A 
ATOM     77  C   UNL A   1      50.536  25.336  30.879  1.00  0.00     0.000 A 
ENDBRANCH  59  72
ENDBRANCH  33  34
ENDBRANCH  26  28
ENDBRANCH  25  26
ENDBRANCH  24  25
ENDBRANCH  23  24
ENDBRANCH  22  23
ENDBRANCH   1  22
TORSDOF 18
ENDMDL
