MODEL 1
REMARK VINA RESULT:      -9.9      0.000      0.000
REMARK SMILES Cc1cc(C)n([C@H](C)[C@H](C)C(=O)OCCOCCOC(=O)c2ccc(-c3c4nc(c(-c5ccccc5)c5ccc([nH]5)c(-c5ccccc5)c5nc(c(-c6ccccc6)c6ccc3[nH]6)C=C5)C=C4)cc2)n1
REMARK SMILES IDX 16 1 15 2 14 3 13 4 11 5 12 6 9 7 10 8 7 9 8 10 6 11 1 12
REMARK SMILES IDX 2 13 3 14 70 15 4 16 5 17 17 18 18 19 19 20 20 21 21 22
REMARK SMILES IDX 22 23 23 24 69 25 24 26 68 27 25 28 26 29 27 30 62 31 28 32
REMARK SMILES IDX 67 33 61 34 63 35 29 36 66 37 60 38 59 39 30 41 52 42 37 43
REMARK SMILES IDX 51 44 38 45 41 46 50 47 64 48 39 49 40 50 49 52 65 53 42 54
REMARK SMILES IDX 31 55 32 56 36 57 33 58 35 59 34 60 53 61 54 62 58 63 55 64
REMARK SMILES IDX 57 65 56 66 43 67 44 68 48 69 45 70 47 71 46 72
REMARK H PARENT 63 40 41 51
REMARK Flexibility Score: inf
ROOT
ATOM      1  O   UNL A   1      33.487  32.773  28.181  1.00  0.00    -0.374 OA
ENDROOT
BRANCH   1   2
ATOM      2  C   UNL A   1      33.830  31.489  27.651  1.00  0.00     0.202 C 
BRANCH   2   3
ATOM      3  C   UNL A   1      32.746  30.696  26.917  1.00  0.00     0.261 C 
BRANCH   3   4
ATOM      4  O   UNL A   1      33.242  29.792  25.909  1.00  0.00    -0.463 OA
BRANCH   4   5
ATOM      5  C   UNL A   1      32.856  28.509  26.081  1.00  0.00     0.310 C 
ATOM      6  O   UNL A   1      31.970  28.151  26.846  1.00  0.00    -0.252 OA
BRANCH   5   7
ATOM      7  C   UNL A   1      33.560  27.521  25.207  1.00  0.00     0.120 C 
ATOM      8  C   UNL A   1      33.577  26.146  25.892  1.00  0.00     0.022 C 
BRANCH   7   9
ATOM      9  C   UNL A   1      33.035  27.522  23.763  1.00  0.00     0.118 C 
ATOM     10  C   UNL A   1      33.481  26.290  22.944  1.00  0.00     0.034 C 
BRANCH   9  11
ATOM     11  N   UNL A   1      31.616  27.830  23.496  1.00  0.00    -0.266 N 
ATOM     12  C   UNL A   1      29.517  30.187  21.840  1.00  0.00     0.069 C 
ATOM     13  C   UNL A   1      30.116  29.046  22.560  1.00  0.00     0.060 A 
ATOM     14  C   UNL A   1      29.445  27.956  23.112  1.00  0.00     0.048 A 
ATOM     15  N   UNL A   1      31.426  28.984  22.796  1.00  0.00    -0.178 NA
ATOM     16  C   UNL A   1      30.401  27.237  23.797  1.00  0.00     0.036 A 
ATOM     17  C   UNL A   1      30.066  26.095  24.675  1.00  0.00     0.066 C 
ENDBRANCH   9  11
ENDBRANCH   7   9
ENDBRANCH   5   7
ENDBRANCH   4   5
ENDBRANCH   3   4
ENDBRANCH   2   3
ENDBRANCH   1   2
BRANCH   1  18
ATOM     18  C   UNL A   1      34.490  33.792  28.216  1.00  0.00     0.202 C 
BRANCH  18  19
ATOM     19  C   UNL A   1      34.249  34.929  29.195  1.00  0.00     0.261 C 
BRANCH  19  20
ATOM     20  O   UNL A   1      33.519  34.390  30.287  1.00  0.00    -0.460 OA
BRANCH  20  21
ATOM     21  C   UNL A   1      33.423  35.216  31.347  1.00  0.00     0.338 C 
ATOM     22  O   UNL A   1      32.822  36.276  31.427  1.00  0.00    -0.246 OA
BRANCH  21  23
ATOM     23  C   UNL A   1      34.259  34.636  32.404  1.00  0.00     0.060 A 
ATOM     24  C   UNL A   1      35.425  35.353  32.612  1.00  0.00     0.016 A 
ATOM     25  C   UNL A   1      34.128  33.268  32.715  1.00  0.00     0.016 A 
ATOM     26  C   UNL A   1      36.570  34.614  32.675  1.00  0.00     0.010 A 
ATOM     27  C   UNL A   1      35.278  32.529  32.801  1.00  0.00     0.010 A 
ATOM     28  C   UNL A   1      36.471  33.214  32.624  1.00  0.00    -0.014 A 
BRANCH  28  29
ATOM     29  C   UNL A   1      37.693  32.515  32.328  1.00  0.00     0.031 A 
ATOM     30  C   UNL A   1      38.596  32.454  33.482  1.00  0.00     0.074 A 
ATOM     31  C   UNL A   1      37.986  32.020  31.115  1.00  0.00     0.049 A 
ATOM     32  N   UNL A   1      39.673  33.137  33.667  1.00  0.00    -0.248 NA
ATOM     33  C   UNL A   1      38.129  31.690  34.643  1.00  0.00     0.031 C 
ATOM     34  C   UNL A   1      37.105  31.770  29.972  1.00  0.00     0.029 A 
ATOM     35  N   UNL A   1      39.180  31.531  30.702  1.00  0.00    -0.354 N 
ATOM     36  C   UNL A   1      40.119  32.771  34.926  1.00  0.00     0.074 A 
ATOM     37  C   UNL A   1      39.051  32.023  35.544  1.00  0.00     0.031 C 
ATOM     38  C   UNL A   1      37.742  30.944  29.107  1.00  0.00     0.029 A 
ATOM     39  C   UNL A   1      39.106  30.741  29.571  1.00  0.00     0.049 A 
ATOM     40  H   UNL A   1      40.025  31.722  31.167  1.00  0.00     0.167 HD
ATOM     41  C   UNL A   1      41.420  32.901  35.285  1.00  0.00     0.031 A 
ATOM     42  C   UNL A   1      40.082  29.904  29.141  1.00  0.00     0.031 A 
ATOM     43  C   UNL A   1      42.150  33.768  34.401  1.00  0.00     0.049 A 
ATOM     44  C   UNL A   1      41.357  30.330  29.776  1.00  0.00     0.074 A 
ATOM     45  C   UNL A   1      42.070  35.106  34.066  1.00  0.00     0.029 A 
ATOM     46  N   UNL A   1      42.900  33.174  33.414  1.00  0.00    -0.354 N 
ATOM     47  N   UNL A   1      41.962  31.448  29.492  1.00  0.00    -0.248 NA
ATOM     48  C   UNL A   1      41.724  29.738  31.056  1.00  0.00     0.031 C 
ATOM     49  C   UNL A   1      42.377  35.159  32.675  1.00  0.00     0.029 A 
ATOM     50  C   UNL A   1      42.664  33.860  32.250  1.00  0.00     0.049 A 
ATOM     51  H   UNL A   1      43.498  32.399  33.522  1.00  0.00     0.167 HD
ATOM     52  C   UNL A   1      42.452  31.913  30.706  1.00  0.00     0.074 A 
ATOM     53  C   UNL A   1      42.361  30.772  31.613  1.00  0.00     0.031 C 
ATOM     54  C   UNL A   1      42.618  33.249  30.939  1.00  0.00     0.031 A 
BRANCH  41  55
ATOM     55  C   UNL A   1      42.097  31.918  36.195  1.00  0.00    -0.014 A 
ATOM     56  C   UNL A   1      42.710  32.387  37.364  1.00  0.00     0.009 A 
ATOM     57  C   UNL A   1      42.383  30.594  35.805  1.00  0.00     0.009 A 
ATOM     58  C   UNL A   1      43.604  31.582  38.078  1.00  0.00     0.001 A 
ATOM     59  C   UNL A   1      43.237  29.773  36.540  1.00  0.00     0.001 A 
ATOM     60  C   UNL A   1      43.869  30.280  37.664  1.00  0.00     0.000 A 
ENDBRANCH  41  55
BRANCH  42  61
ATOM     61  C   UNL A   1      39.899  28.570  28.535  1.00  0.00    -0.014 A 
ATOM     62  C   UNL A   1      40.476  28.255  27.297  1.00  0.00     0.009 A 
ATOM     63  C   UNL A   1      39.370  27.512  29.300  1.00  0.00     0.009 A 
ATOM     64  C   UNL A   1      40.545  26.927  26.855  1.00  0.00     0.001 A 
ATOM     65  C   UNL A   1      39.435  26.188  28.858  1.00  0.00     0.001 A 
ATOM     66  C   UNL A   1      40.036  25.894  27.640  1.00  0.00     0.000 A 
ENDBRANCH  42  61
BRANCH  54  67
ATOM     67  C   UNL A   1      42.456  34.193  29.772  1.00  0.00    -0.014 A 
ATOM     68  C   UNL A   1      41.212  34.738  29.405  1.00  0.00     0.009 A 
ATOM     69  C   UNL A   1      43.608  34.679  29.140  1.00  0.00     0.009 A 
ATOM     70  C   UNL A   1      41.125  35.724  28.417  1.00  0.00     0.001 A 
ATOM     71  C   UNL A   1      43.523  35.679  28.167  1.00  0.00     0.001 A 
ATOM     72  C   UNL A   1      42.282  36.198  27.803  1.00  0.00     0.000 A 
ENDBRANCH  54  67
ENDBRANCH  28  29
ENDBRANCH  21  23
ENDBRANCH  20  21
ENDBRANCH  19  20
ENDBRANCH  18  19
ENDBRANCH   1  18
TORSDOF 16
ENDMDL
MODEL 2
REMARK VINA RESULT:      -9.9      5.832     10.523
REMARK SMILES Cc1cc(C)n([C@H](C)[C@H](C)C(=O)OCCOCCOC(=O)c2ccc(-c3c4nc(c(-c5ccccc5)c5ccc([nH]5)c(-c5ccccc5)c5nc(c(-c6ccccc6)c6ccc3[nH]6)C=C5)C=C4)cc2)n1
REMARK SMILES IDX 16 1 15 2 14 3 13 4 11 5 12 6 9 7 10 8 7 9 8 10 6 11 1 12
REMARK SMILES IDX 2 13 3 14 70 15 4 16 5 17 17 18 18 19 19 20 20 21 21 22
REMARK SMILES IDX 22 23 23 24 69 25 24 26 68 27 25 28 26 29 27 30 62 31 28 32
REMARK SMILES IDX 67 33 61 34 63 35 29 36 66 37 60 38 59 39 30 41 52 42 37 43
REMARK SMILES IDX 51 44 38 45 41 46 50 47 64 48 39 49 40 50 49 52 65 53 42 54
REMARK SMILES IDX 31 55 32 56 36 57 33 58 35 59 34 60 53 61 54 62 58 63 55 64
REMARK SMILES IDX 57 65 56 66 43 67 44 68 48 69 45 70 47 71 46 72
REMARK H PARENT 63 40 41 51
REMARK Flexibility Score: inf
ROOT
ATOM      1  O   UNL A   1      39.969  20.536  26.223  1.00  0.00    -0.374 OA
ENDROOT
BRANCH   1   2
ATOM      2  C   UNL A   1      39.091  21.620  25.902  1.00  0.00     0.202 C 
BRANCH   2   3
ATOM      3  C   UNL A   1      37.778  21.298  25.183  1.00  0.00     0.261 C 
BRANCH   3   4
ATOM      4  O   UNL A   1      36.596  21.458  25.992  1.00  0.00    -0.463 OA
BRANCH   4   5
ATOM      5  C   UNL A   1      35.439  21.404  25.295  1.00  0.00     0.310 C 
ATOM      6  O   UNL A   1      35.019  20.403  24.731  1.00  0.00    -0.252 OA
BRANCH   5   7
ATOM      7  C   UNL A   1      34.645  22.671  25.303  1.00  0.00     0.120 C 
ATOM      8  C   UNL A   1      34.497  23.178  26.746  1.00  0.00     0.022 C 
BRANCH   7   9
ATOM      9  C   UNL A   1      35.171  23.710  24.300  1.00  0.00     0.118 C 
ATOM     10  C   UNL A   1      35.979  23.090  23.137  1.00  0.00     0.034 C 
BRANCH   9  11
ATOM     11  N   UNL A   1      34.270  24.766  23.795  1.00  0.00    -0.266 N 
ATOM     12  C   UNL A   1      32.500  25.786  20.874  1.00  0.00     0.069 C 
ATOM     13  C   UNL A   1      33.064  25.593  22.225  1.00  0.00     0.060 A 
ATOM     14  C   UNL A   1      32.813  26.365  23.358  1.00  0.00     0.048 A 
ATOM     15  N   UNL A   1      33.952  24.631  22.477  1.00  0.00    -0.178 NA
ATOM     16  C   UNL A   1      33.666  25.891  24.330  1.00  0.00     0.036 A 
ATOM     17  C   UNL A   1      33.839  26.560  25.638  1.00  0.00     0.066 C 
ENDBRANCH   9  11
ENDBRANCH   7   9
ENDBRANCH   5   7
ENDBRANCH   4   5
ENDBRANCH   3   4
ENDBRANCH   2   3
ENDBRANCH   1   2
BRANCH   1  18
ATOM     18  C   UNL A   1      41.128  20.804  27.016  1.00  0.00     0.202 C 
BRANCH  18  19
ATOM     19  C   UNL A   1      42.347  19.944  26.726  1.00  0.00     0.261 C 
BRANCH  19  20
ATOM     20  O   UNL A   1      42.757  20.239  25.399  1.00  0.00    -0.460 OA
BRANCH  20  21
ATOM     21  C   UNL A   1      44.071  20.042  25.172  1.00  0.00     0.338 C 
ATOM     22  O   UNL A   1      44.706  19.003  25.267  1.00  0.00    -0.246 OA
BRANCH  21  23
ATOM     23  C   UNL A   1      44.640  21.357  24.854  1.00  0.00     0.060 A 
ATOM     24  C   UNL A   1      45.649  21.724  25.729  1.00  0.00     0.016 A 
ATOM     25  C   UNL A   1      43.866  22.287  24.132  1.00  0.00     0.016 A 
ATOM     26  C   UNL A   1      45.562  22.989  26.232  1.00  0.00     0.010 A 
ATOM     27  C   UNL A   1      43.796  23.564  24.624  1.00  0.00     0.010 A 
ATOM     28  C   UNL A   1      44.541  23.831  25.764  1.00  0.00    -0.014 A 
BRANCH  28  29
ATOM     29  C   UNL A   1      44.272  24.991  26.571  1.00  0.00     0.031 A 
ATOM     30  C   UNL A   1      45.355  25.979  26.511  1.00  0.00     0.074 A 
ATOM     31  C   UNL A   1      43.173  25.124  27.331  1.00  0.00     0.049 A 
ATOM     32  N   UNL A   1      46.236  26.227  27.417  1.00  0.00    -0.248 NA
ATOM     33  C   UNL A   1      45.595  26.612  25.210  1.00  0.00     0.031 C 
ATOM     34  C   UNL A   1      41.916  24.375  27.292  1.00  0.00     0.029 A 
ATOM     35  N   UNL A   1      42.939  26.079  28.263  1.00  0.00    -0.354 N 
ATOM     36  C   UNL A   1      47.070  27.180  26.856  1.00  0.00     0.074 A 
ATOM     37  C   UNL A   1      46.739  27.248  25.453  1.00  0.00     0.031 C 
ATOM     38  C   UNL A   1      40.975  25.072  27.973  1.00  0.00     0.029 A 
ATOM     39  C   UNL A   1      41.607  26.220  28.605  1.00  0.00     0.049 A 
ATOM     40  H   UNL A   1      43.654  26.624  28.661  1.00  0.00     0.167 HD
ATOM     41  C   UNL A   1      47.811  28.018  27.624  1.00  0.00     0.031 A 
ATOM     42  C   UNL A   1      41.082  27.279  29.267  1.00  0.00     0.031 A 
ATOM     43  C   UNL A   1      47.916  27.566  28.985  1.00  0.00     0.049 A 
ATOM     44  C   UNL A   1      42.196  27.982  29.956  1.00  0.00     0.074 A 
ATOM     45  C   UNL A   1      48.462  26.457  29.601  1.00  0.00     0.029 A 
ATOM     46  N   UNL A   1      47.062  28.130  29.903  1.00  0.00    -0.354 N 
ATOM     47  N   UNL A   1      42.855  27.473  30.957  1.00  0.00    -0.248 NA
ATOM     48  C   UNL A   1      42.883  29.053  29.245  1.00  0.00     0.031 C 
ATOM     49  C   UNL A   1      47.572  26.152  30.672  1.00  0.00     0.029 A 
ATOM     50  C   UNL A   1      46.557  27.112  30.672  1.00  0.00     0.049 A 
ATOM     51  H   UNL A   1      46.851  29.087  29.993  1.00  0.00     0.167 HD
ATOM     52  C   UNL A   1      44.176  27.850  30.750  1.00  0.00     0.074 A 
ATOM     53  C   UNL A   1      44.116  28.901  29.738  1.00  0.00     0.031 C 
ATOM     54  C   UNL A   1      45.212  27.083  31.204  1.00  0.00     0.031 A 
BRANCH  41  55
ATOM     55  C   UNL A   1      48.083  29.436  27.218  1.00  0.00    -0.014 A 
ATOM     56  C   UNL A   1      49.402  29.910  27.250  1.00  0.00     0.009 A 
ATOM     57  C   UNL A   1      47.060  30.394  27.068  1.00  0.00     0.009 A 
ATOM     58  C   UNL A   1      49.675  31.279  27.184  1.00  0.00     0.001 A 
ATOM     59  C   UNL A   1      47.331  31.756  26.955  1.00  0.00     0.001 A 
ATOM     60  C   UNL A   1      48.641  32.201  27.040  1.00  0.00     0.000 A 
ENDBRANCH  41  55
BRANCH  42  61
ATOM     61  C   UNL A   1      39.768  27.911  29.024  1.00  0.00    -0.014 A 
ATOM     62  C   UNL A   1      38.824  28.029  30.052  1.00  0.00     0.009 A 
ATOM     63  C   UNL A   1      39.542  28.637  27.838  1.00  0.00     0.009 A 
ATOM     64  C   UNL A   1      37.709  28.865  29.909  1.00  0.00     0.001 A 
ATOM     65  C   UNL A   1      38.428  29.468  27.693  1.00  0.00     0.001 A 
ATOM     66  C   UNL A   1      37.517  29.592  28.735  1.00  0.00     0.000 A 
ENDBRANCH  42  61
BRANCH  54  67
ATOM     67  C   UNL A   1      44.885  25.928  32.120  1.00  0.00    -0.014 A 
ATOM     68  C   UNL A   1      44.535  24.654  31.637  1.00  0.00     0.009 A 
ATOM     69  C   UNL A   1      45.104  26.082  33.495  1.00  0.00     0.009 A 
ATOM     70  C   UNL A   1      44.389  23.573  32.510  1.00  0.00     0.001 A 
ATOM     71  C   UNL A   1      44.977  24.996  34.366  1.00  0.00     0.001 A 
ATOM     72  C   UNL A   1      44.616  23.743  33.875  1.00  0.00     0.000 A 
ENDBRANCH  54  67
ENDBRANCH  28  29
ENDBRANCH  21  23
ENDBRANCH  20  21
ENDBRANCH  19  20
ENDBRANCH  18  19
ENDBRANCH   1  18
TORSDOF 16
ENDMDL
MODEL 3
REMARK VINA RESULT:      -9.7      5.943     10.708
REMARK SMILES Cc1cc(C)n([C@H](C)[C@H](C)C(=O)OCCOCCOC(=O)c2ccc(-c3c4nc(c(-c5ccccc5)c5ccc([nH]5)c(-c5ccccc5)c5nc(c(-c6ccccc6)c6ccc3[nH]6)C=C5)C=C4)cc2)n1
REMARK SMILES IDX 16 1 15 2 14 3 13 4 11 5 12 6 9 7 10 8 7 9 8 10 6 11 1 12
REMARK SMILES IDX 2 13 3 14 70 15 4 16 5 17 17 18 18 19 19 20 20 21 21 22
REMARK SMILES IDX 22 23 23 24 69 25 24 26 68 27 25 28 26 29 27 30 62 31 28 32
REMARK SMILES IDX 67 33 61 34 63 35 29 36 66 37 60 38 59 39 30 41 52 42 37 43
REMARK SMILES IDX 51 44 38 45 41 46 50 47 64 48 39 49 40 50 49 52 65 53 42 54
REMARK SMILES IDX 31 55 32 56 36 57 33 58 35 59 34 60 53 61 54 62 58 63 55 64
REMARK SMILES IDX 57 65 56 66 43 67 44 68 48 69 45 70 47 71 46 72
REMARK H PARENT 63 40 41 51
REMARK Flexibility Score: inf
ROOT
ATOM      1  O   UNL A   1      40.061  21.159  26.647  1.00  0.00    -0.374 OA
ENDROOT
BRANCH   1   2
ATOM      2  C   UNL A   1      39.253  20.570  25.622  1.00  0.00     0.202 C 
BRANCH   2   3
ATOM      3  C   UNL A   1      37.826  21.093  25.437  1.00  0.00     0.261 C 
BRANCH   3   4
ATOM      4  O   UNL A   1      37.733  22.336  24.713  1.00  0.00    -0.463 OA
BRANCH   4   5
ATOM      5  C   UNL A   1      36.995  23.283  25.334  1.00  0.00     0.310 C 
ATOM      6  O   UNL A   1      37.401  23.979  26.255  1.00  0.00    -0.252 OA
BRANCH   5   7
ATOM      7  C   UNL A   1      35.623  23.475  24.772  1.00  0.00     0.120 C 
ATOM      8  C   UNL A   1      35.651  23.245  23.253  1.00  0.00     0.022 C 
BRANCH   7   9
ATOM      9  C   UNL A   1      34.551  22.678  25.531  1.00  0.00     0.118 C 
ATOM     10  C   UNL A   1      33.559  23.568  26.315  1.00  0.00     0.034 C 
BRANCH   9  11
ATOM     11  N   UNL A   1      33.831  21.581  24.852  1.00  0.00    -0.266 N 
ATOM     12  C   UNL A   1      33.806  18.035  24.498  1.00  0.00     0.069 C 
ATOM     13  C   UNL A   1      33.539  19.487  24.490  1.00  0.00     0.060 A 
ATOM     14  C   UNL A   1      32.483  20.143  23.859  1.00  0.00     0.048 A 
ATOM     15  N   UNL A   1      34.365  20.349  25.083  1.00  0.00    -0.178 NA
ATOM     16  C   UNL A   1      32.735  21.489  24.011  1.00  0.00     0.036 A 
ATOM     17  C   UNL A   1      31.939  22.533  23.330  1.00  0.00     0.066 C 
ENDBRANCH   9  11
ENDBRANCH   7   9
ENDBRANCH   5   7
ENDBRANCH   4   5
ENDBRANCH   3   4
ENDBRANCH   2   3
ENDBRANCH   1   2
BRANCH   1  18
ATOM     18  C   UNL A   1      41.126  20.387  27.209  1.00  0.00     0.202 C 
BRANCH  18  19
ATOM     19  C   UNL A   1      42.533  20.820  26.831  1.00  0.00     0.261 C 
BRANCH  19  20
ATOM     20  O   UNL A   1      42.752  20.397  25.493  1.00  0.00    -0.460 OA
BRANCH  20  21
ATOM     21  C   UNL A   1      44.045  20.162  25.195  1.00  0.00     0.338 C 
ATOM     22  O   UNL A   1      44.644  19.097  25.214  1.00  0.00    -0.246 OA
BRANCH  21  23
ATOM     23  C   UNL A   1      44.649  21.468  24.907  1.00  0.00     0.060 A 
ATOM     24  C   UNL A   1      45.620  21.818  25.831  1.00  0.00     0.016 A 
ATOM     25  C   UNL A   1      43.927  22.411  24.150  1.00  0.00     0.016 A 
ATOM     26  C   UNL A   1      45.530  23.084  26.331  1.00  0.00     0.010 A 
ATOM     27  C   UNL A   1      43.853  23.688  24.640  1.00  0.00     0.010 A 
ATOM     28  C   UNL A   1      44.545  23.943  25.815  1.00  0.00    -0.014 A 
BRANCH  28  29
ATOM     29  C   UNL A   1      44.256  25.107  26.610  1.00  0.00     0.031 A 
ATOM     30  C   UNL A   1      45.318  26.115  26.534  1.00  0.00     0.074 A 
ATOM     31  C   UNL A   1      43.157  25.226  27.372  1.00  0.00     0.049 A 
ATOM     32  N   UNL A   1      46.198  26.391  27.435  1.00  0.00    -0.248 NA
ATOM     33  C   UNL A   1      45.541  26.738  25.226  1.00  0.00     0.031 C 
ATOM     34  C   UNL A   1      41.915  24.451  27.346  1.00  0.00     0.029 A 
ATOM     35  N   UNL A   1      42.906  26.186  28.294  1.00  0.00    -0.354 N 
ATOM     36  C   UNL A   1      47.010  27.354  26.859  1.00  0.00     0.074 A 
ATOM     37  C   UNL A   1      46.672  27.400  25.457  1.00  0.00     0.031 C 
ATOM     38  C   UNL A   1      40.962  25.137  28.023  1.00  0.00     0.029 A 
ATOM     39  C   UNL A   1      41.574  26.305  28.639  1.00  0.00     0.049 A 
ATOM     40  H   UNL A   1      43.612  26.750  28.683  1.00  0.00     0.167 HD
ATOM     41  C   UNL A   1      47.736  28.216  27.615  1.00  0.00     0.031 A 
ATOM     42  C   UNL A   1      41.029  27.360  29.291  1.00  0.00     0.031 A 
ATOM     43  C   UNL A   1      47.855  27.782  28.981  1.00  0.00     0.049 A 
ATOM     44  C   UNL A   1      42.131  28.093  29.968  1.00  0.00     0.074 A 
ATOM     45  C   UNL A   1      48.426  26.692  29.608  1.00  0.00     0.029 A 
ATOM     46  N   UNL A   1      46.993  28.339  29.895  1.00  0.00    -0.354 N 
ATOM     47  N   UNL A   1      42.804  27.609  30.972  1.00  0.00    -0.248 NA
ATOM     48  C   UNL A   1      42.794  29.170  29.242  1.00  0.00     0.031 C 
ATOM     49  C   UNL A   1      47.546  26.381  30.685  1.00  0.00     0.029 A 
ATOM     50  C   UNL A   1      46.511  27.319  30.677  1.00  0.00     0.049 A 
ATOM     51  H   UNL A   1      46.763  29.293  29.975  1.00  0.00     0.167 HD
ATOM     52  C   UNL A   1      44.116  28.010  30.756  1.00  0.00     0.074 A 
ATOM     53  C   UNL A   1      44.031  29.049  29.732  1.00  0.00     0.031 C 
ATOM     54  C   UNL A   1      45.169  27.270  31.215  1.00  0.00     0.031 A 
BRANCH  41  55
ATOM     55  C   UNL A   1      47.978  29.635  27.192  1.00  0.00    -0.014 A 
ATOM     56  C   UNL A   1      49.278  30.152  27.265  1.00  0.00     0.009 A 
ATOM     57  C   UNL A   1      46.931  30.556  26.984  1.00  0.00     0.009 A 
ATOM     58  C   UNL A   1      49.510  31.528  27.182  1.00  0.00     0.001 A 
ATOM     59  C   UNL A   1      47.163  31.924  26.855  1.00  0.00     0.001 A 
ATOM     60  C   UNL A   1      48.453  32.412  26.981  1.00  0.00     0.000 A 
ENDBRANCH  41  55
BRANCH  42  61
ATOM     61  C   UNL A   1      39.702  27.963  29.046  1.00  0.00    -0.014 A 
ATOM     62  C   UNL A   1      38.747  28.043  30.068  1.00  0.00     0.009 A 
ATOM     63  C   UNL A   1      39.467  28.699  27.868  1.00  0.00     0.009 A 
ATOM     64  C   UNL A   1      37.612  28.853  29.926  1.00  0.00     0.001 A 
ATOM     65  C   UNL A   1      38.334  29.503  27.724  1.00  0.00     0.001 A 
ATOM     66  C   UNL A   1      37.412  29.591  28.760  1.00  0.00     0.000 A 
ENDBRANCH  42  61
BRANCH  54  67
ATOM     67  C   UNL A   1      44.868  26.119  32.145  1.00  0.00    -0.014 A 
ATOM     68  C   UNL A   1      44.584  24.823  31.679  1.00  0.00     0.009 A 
ATOM     69  C   UNL A   1      45.048  26.307  33.522  1.00  0.00     0.009 A 
ATOM     70  C   UNL A   1      44.462  23.752  32.570  1.00  0.00     0.001 A 
ATOM     71  C   UNL A   1      44.945  25.233  34.410  1.00  0.00     0.001 A 
ATOM     72  C   UNL A   1      44.649  23.957  33.935  1.00  0.00     0.000 A 
ENDBRANCH  54  67
ENDBRANCH  28  29
ENDBRANCH  21  23
ENDBRANCH  20  21
ENDBRANCH  19  20
ENDBRANCH  18  19
ENDBRANCH   1  18
TORSDOF 16
ENDMDL
