MODEL 1
REMARK VINA RESULT:     -11.0      0.000      0.000
REMARK SMILES Cc1cc(NC(=O)c2ccc(Br)cc2N)ccc1C(=O)OCCOCCOC(=O)c1ccc(-c2c3nc(c(-c4ccccc4)c4ccc([nH]4)c(-c4ccccc4)c4nc(c(-c5ccccc5)c5ccc2[nH]5)C=C4)C=C3)cc1
REMARK SMILES IDX 23 1 22 2 21 3 19 4 20 5 18 6 1 7 2 8 3 9 4 10 17 11 16 12
REMARK SMILES IDX 5 13 6 14 7 16 8 17 9 18 14 19 10 20 13 21 11 22 12 23 15 24
REMARK SMILES IDX 24 27 25 28 26 29 27 30 28 31 29 32 30 33 31 34 77 35 32 36
REMARK SMILES IDX 76 37 33 38 34 39 35 40 70 41 36 42 75 43 69 44 71 45 37 46
REMARK SMILES IDX 74 47 68 48 67 49 38 51 60 52 45 53 59 54 46 55 49 56 58 57
REMARK SMILES IDX 72 58 47 59 48 60 57 62 73 63 50 64 39 65 40 66 44 67 41 68
REMARK SMILES IDX 43 69 42 70 61 71 62 72 66 73 63 74 65 75 64 76 51 77 52 78
REMARK SMILES IDX 56 79 53 80 55 81 54 82
REMARK H PARENT 5 15 15 25 15 26 71 50 49 61
REMARK Flexibility Score: inf
ROOT
ATOM      1  C   UNL A   1      40.271  20.086  26.353  1.00  0.00     0.202 C 
ENDROOT
BRANCH   1   2
ATOM      2  C   UNL A   1      39.690  21.325  25.749  1.00  0.00     0.261 C 
BRANCH   2   3
ATOM      3  O   UNL A   1      38.294  21.477  26.022  1.00  0.00    -0.460 OA
BRANCH   3   4
ATOM      4  C   UNL A   1      37.786  22.722  25.918  1.00  0.00     0.338 C 
ATOM      5  O   UNL A   1      38.261  23.742  26.367  1.00  0.00    -0.246 OA
BRANCH   4   6
ATOM      6  C   UNL A   1      36.552  22.627  25.093  1.00  0.00     0.063 A 
ATOM      7  C   UNL A   1      34.931  21.846  27.001  1.00  0.00     0.045 C 
ATOM      8  C   UNL A   1      35.298  22.186  25.577  1.00  0.00    -0.035 A 
ATOM      9  C   UNL A   1      34.223  22.216  24.696  1.00  0.00     0.030 A 
ATOM     10  C   UNL A   1      34.345  22.777  23.431  1.00  0.00     0.041 A 
ATOM     11  C   UNL A   1      36.704  22.995  23.740  1.00  0.00     0.018 A 
ATOM     12  C   UNL A   1      35.597  23.057  22.898  1.00  0.00     0.027 A 
BRANCH  10  13
ATOM     13  N   UNL A   1      33.203  23.232  22.767  1.00  0.00    -0.322 N 
ATOM     14  C   UNL A   1      32.363  24.266  23.157  1.00  0.00     0.257 C 
ATOM     15  H   UNL A   1      32.968  22.767  21.931  1.00  0.00     0.170 HD
ATOM     16  O   UNL A   1      31.246  24.350  22.645  1.00  0.00    -0.269 OA
BRANCH  14  17
ATOM     17  C   UNL A   1      32.779  25.314  24.155  1.00  0.00     0.063 A 
ATOM     18  C   UNL A   1      33.543  26.375  23.631  1.00  0.00     0.017 A 
ATOM     19  C   UNL A   1      32.488  25.290  25.542  1.00  0.00     0.045 A 
ATOM     20  C   UNL A   1      34.029  27.392  24.458  1.00  0.00     0.016 A 
ATOM     21  C   UNL A   1      32.992  26.322  26.356  1.00  0.00     0.042 A 
ATOM     22  C   UNL A   1      33.754  27.357  25.819  1.00  0.00     0.020 A 
ATOM     23  Br  UNL A   1      34.449  28.696  26.958  1.00  0.00    -0.051 Br
BRANCH  19  24
ATOM     24  N   UNL A   1      31.860  24.230  26.195  1.00  0.00    -0.398 N 
ATOM     25  H   UNL A   1      31.562  24.332  27.128  1.00  0.00     0.156 HD
ATOM     26  H   UNL A   1      31.713  23.378  25.722  1.00  0.00     0.156 HD
ENDBRANCH  19  24
ENDBRANCH  14  17
ENDBRANCH  10  13
ENDBRANCH   4   6
ENDBRANCH   3   4
ENDBRANCH   2   3
ENDBRANCH   1   2
BRANCH   1  27
ATOM     27  O   UNL A   1      41.460  19.826  25.626  1.00  0.00    -0.374 OA
BRANCH  27  28
ATOM     28  C   UNL A   1      42.292  18.822  26.173  1.00  0.00     0.202 C 
BRANCH  28  29
ATOM     29  C   UNL A   1      43.697  18.804  25.551  1.00  0.00     0.261 C 
BRANCH  29  30
ATOM     30  O   UNL A   1      43.866  19.973  24.717  1.00  0.00    -0.460 OA
BRANCH  30  31
ATOM     31  C   UNL A   1      44.708  20.942  25.176  1.00  0.00     0.338 C 
ATOM     32  O   UNL A   1      45.805  20.751  25.676  1.00  0.00    -0.246 OA
BRANCH  31  33
ATOM     33  C   UNL A   1      43.973  22.242  25.266  1.00  0.00     0.060 A 
ATOM     34  C   UNL A   1      44.333  23.315  24.426  1.00  0.00     0.016 A 
ATOM     35  C   UNL A   1      43.208  22.485  26.405  1.00  0.00     0.016 A 
ATOM     36  C   UNL A   1      44.073  24.641  24.815  1.00  0.00     0.010 A 
ATOM     37  C   UNL A   1      43.043  23.788  26.828  1.00  0.00     0.010 A 
ATOM     38  C   UNL A   1      43.507  24.878  26.067  1.00  0.00    -0.014 A 
BRANCH  38  39
ATOM     39  C   UNL A   1      43.496  26.157  26.795  1.00  0.00     0.031 A 
ATOM     40  C   UNL A   1      42.199  26.846  26.974  1.00  0.00     0.074 A 
ATOM     41  C   UNL A   1      44.551  26.538  27.561  1.00  0.00     0.049 A 
ATOM     42  N   UNL A   1      42.085  28.008  27.509  1.00  0.00    -0.248 NA
ATOM     43  C   UNL A   1      40.911  26.309  26.534  1.00  0.00     0.031 C 
ATOM     44  C   UNL A   1      44.559  27.390  28.755  1.00  0.00     0.029 A 
ATOM     45  N   UNL A   1      45.899  26.220  27.413  1.00  0.00    -0.354 N 
ATOM     46  C   UNL A   1      40.764  28.199  27.816  1.00  0.00     0.074 A 
ATOM     47  C   UNL A   1      40.058  27.185  27.076  1.00  0.00     0.031 C 
ATOM     48  C   UNL A   1      45.822  27.739  29.061  1.00  0.00     0.029 A 
ATOM     49  C   UNL A   1      46.683  27.212  28.017  1.00  0.00     0.049 A 
ATOM     50  H   UNL A   1      46.247  25.420  26.955  1.00  0.00     0.167 HD
ATOM     51  C   UNL A   1      40.457  29.120  28.769  1.00  0.00     0.031 A 
ATOM     52  C   UNL A   1      47.633  27.864  27.299  1.00  0.00     0.031 A 
ATOM     53  C   UNL A   1      41.652  29.885  29.165  1.00  0.00     0.049 A 
ATOM     54  C   UNL A   1      47.154  29.278  27.149  1.00  0.00     0.074 A 
ATOM     55  C   UNL A   1      42.427  29.922  30.311  1.00  0.00     0.029 A 
ATOM     56  N   UNL A   1      42.398  30.524  28.172  1.00  0.00    -0.354 N 
ATOM     57  N   UNL A   1      45.888  29.591  27.251  1.00  0.00    -0.248 NA
ATOM     58  C   UNL A   1      48.018  30.449  27.045  1.00  0.00     0.031 C 
ATOM     59  C   UNL A   1      43.692  30.491  29.961  1.00  0.00     0.029 A 
ATOM     60  C   UNL A   1      43.668  30.842  28.617  1.00  0.00     0.049 A 
ATOM     61  H   UNL A   1      42.064  30.723  27.267  1.00  0.00     0.167 HD
ATOM     62  C   UNL A   1      45.774  30.934  27.400  1.00  0.00     0.074 A 
ATOM     63  C   UNL A   1      47.119  31.442  27.179  1.00  0.00     0.031 C 
ATOM     64  C   UNL A   1      44.609  31.547  27.745  1.00  0.00     0.031 A 
BRANCH  51  65
ATOM     65  C   UNL A   1      39.117  29.221  29.464  1.00  0.00    -0.014 A 
ATOM     66  C   UNL A   1      38.114  30.042  28.917  1.00  0.00     0.009 A 
ATOM     67  C   UNL A   1      38.790  28.596  30.683  1.00  0.00     0.009 A 
ATOM     68  C   UNL A   1      36.866  30.211  29.539  1.00  0.00     0.001 A 
ATOM     69  C   UNL A   1      37.537  28.736  31.297  1.00  0.00     0.001 A 
ATOM     70  C   UNL A   1      36.573  29.548  30.725  1.00  0.00     0.000 A 
ENDBRANCH  51  65
BRANCH  52  71
ATOM     71  C   UNL A   1      48.310  26.943  26.330  1.00  0.00    -0.014 A 
ATOM     72  C   UNL A   1      48.136  27.246  24.957  1.00  0.00     0.009 A 
ATOM     73  C   UNL A   1      49.452  26.210  26.693  1.00  0.00     0.009 A 
ATOM     74  C   UNL A   1      49.132  26.962  24.012  1.00  0.00     0.001 A 
ATOM     75  C   UNL A   1      50.450  25.931  25.741  1.00  0.00     0.001 A 
ATOM     76  C   UNL A   1      50.309  26.339  24.414  1.00  0.00     0.000 A 
ENDBRANCH  52  71
BRANCH  64  77
ATOM     77  C   UNL A   1      44.286  32.928  27.268  1.00  0.00    -0.014 A 
ATOM     78  C   UNL A   1      44.176  33.248  25.906  1.00  0.00     0.009 A 
ATOM     79  C   UNL A   1      43.865  33.900  28.196  1.00  0.00     0.009 A 
ATOM     80  C   UNL A   1      43.720  34.499  25.490  1.00  0.00     0.001 A 
ATOM     81  C   UNL A   1      43.350  35.126  27.782  1.00  0.00     0.001 A 
ATOM     82  C   UNL A   1      43.295  35.431  26.428  1.00  0.00     0.000 A 
ENDBRANCH  64  77
ENDBRANCH  38  39
ENDBRANCH  31  33
ENDBRANCH  30  31
ENDBRANCH  29  30
ENDBRANCH  28  29
ENDBRANCH  27  28
ENDBRANCH   1  27
TORSDOF 17
ENDMDL
MODEL 2
REMARK VINA RESULT:     -10.5      1.776      2.311
REMARK SMILES Cc1cc(NC(=O)c2ccc(Br)cc2N)ccc1C(=O)OCCOCCOC(=O)c1ccc(-c2c3nc(c(-c4ccccc4)c4ccc([nH]4)c(-c4ccccc4)c4nc(c(-c5ccccc5)c5ccc2[nH]5)C=C4)C=C3)cc1
REMARK SMILES IDX 23 1 22 2 21 3 19 4 20 5 18 6 1 7 2 8 3 9 4 10 17 11 16 12
REMARK SMILES IDX 5 13 6 14 7 16 8 17 9 18 14 19 10 20 13 21 11 22 12 23 15 24
REMARK SMILES IDX 24 27 25 28 26 29 27 30 28 31 29 32 30 33 31 34 77 35 32 36
REMARK SMILES IDX 76 37 33 38 34 39 35 40 70 41 36 42 75 43 69 44 71 45 37 46
REMARK SMILES IDX 74 47 68 48 67 49 38 51 60 52 45 53 59 54 46 55 49 56 58 57
REMARK SMILES IDX 72 58 47 59 48 60 57 62 73 63 50 64 39 65 40 66 44 67 41 68
REMARK SMILES IDX 43 69 42 70 61 71 62 72 66 73 63 74 65 75 64 76 51 77 52 78
REMARK SMILES IDX 56 79 53 80 55 81 54 82
REMARK H PARENT 5 15 15 25 15 26 71 50 49 61
REMARK Flexibility Score: inf
ROOT
ATOM      1  C   UNL A   1      39.959  22.433  26.714  1.00  0.00     0.202 C 
ENDROOT
BRANCH   1   2
ATOM      2  C   UNL A   1      38.707  21.901  26.092  1.00  0.00     0.261 C 
BRANCH   2   3
ATOM      3  O   UNL A   1      37.799  22.934  25.697  1.00  0.00    -0.460 OA
BRANCH   3   4
ATOM      4  C   UNL A   1      36.769  22.568  24.907  1.00  0.00     0.338 C 
ATOM      5  O   UNL A   1      36.832  22.185  23.759  1.00  0.00    -0.246 OA
BRANCH   4   6
ATOM      6  C   UNL A   1      35.531  22.665  25.725  1.00  0.00     0.063 A 
ATOM      7  C   UNL A   1      34.990  25.182  25.221  1.00  0.00     0.045 C 
ATOM      8  C   UNL A   1      34.775  23.849  25.897  1.00  0.00    -0.035 A 
ATOM      9  C   UNL A   1      33.604  23.763  26.641  1.00  0.00     0.030 A 
ATOM     10  C   UNL A   1      33.125  22.537  27.087  1.00  0.00     0.041 A 
ATOM     11  C   UNL A   1      35.138  21.472  26.365  1.00  0.00     0.018 A 
ATOM     12  C   UNL A   1      33.935  21.409  27.064  1.00  0.00     0.027 A 
BRANCH  10  13
ATOM     13  N   UNL A   1      31.768  22.398  27.389  1.00  0.00    -0.322 N 
ATOM     14  C   UNL A   1      30.718  23.162  26.899  1.00  0.00     0.257 C 
ATOM     15  H   UNL A   1      31.531  21.678  28.018  1.00  0.00     0.170 HD
ATOM     16  O   UNL A   1      29.633  23.122  27.480  1.00  0.00    -0.269 OA
BRANCH  14  17
ATOM     17  C   UNL A   1      30.843  24.012  25.662  1.00  0.00     0.063 A 
ATOM     18  C   UNL A   1      31.030  23.301  24.460  1.00  0.00     0.017 A 
ATOM     19  C   UNL A   1      30.816  25.429  25.631  1.00  0.00     0.045 A 
ATOM     20  C   UNL A   1      31.203  23.970  23.245  1.00  0.00     0.016 A 
ATOM     21  C   UNL A   1      30.997  26.081  24.397  1.00  0.00     0.042 A 
ATOM     22  C   UNL A   1      31.190  25.359  23.221  1.00  0.00     0.020 A 
ATOM     23  Br  UNL A   1      31.475  26.278  21.594  1.00  0.00    -0.051 Br
BRANCH  19  24
ATOM     24  N   UNL A   1      30.772  26.239  26.765  1.00  0.00    -0.398 N 
ATOM     25  H   UNL A   1      30.114  26.059  27.474  1.00  0.00     0.156 HD
ATOM     26  H   UNL A   1      31.401  26.992  26.857  1.00  0.00     0.156 HD
ENDBRANCH  19  24
ENDBRANCH  14  17
ENDBRANCH  10  13
ENDBRANCH   4   6
ENDBRANCH   3   4
ENDBRANCH   2   3
ENDBRANCH   1   2
BRANCH   1  27
ATOM     27  O   UNL A   1      40.412  21.417  27.594  1.00  0.00    -0.374 OA
BRANCH  27  28
ATOM     28  C   UNL A   1      41.764  21.040  27.430  1.00  0.00     0.202 C 
BRANCH  28  29
ATOM     29  C   UNL A   1      42.182  20.928  25.955  1.00  0.00     0.261 C 
BRANCH  29  30
ATOM     30  O   UNL A   1      43.601  20.667  25.879  1.00  0.00    -0.460 OA
BRANCH  30  31
ATOM     31  C   UNL A   1      44.296  21.312  24.899  1.00  0.00     0.338 C 
ATOM     32  O   UNL A   1      44.542  20.864  23.791  1.00  0.00    -0.246 OA
BRANCH  31  33
ATOM     33  C   UNL A   1      44.978  22.512  25.475  1.00  0.00     0.060 A 
ATOM     34  C   UNL A   1      45.267  22.565  26.854  1.00  0.00     0.016 A 
ATOM     35  C   UNL A   1      44.986  23.685  24.724  1.00  0.00     0.016 A 
ATOM     36  C   UNL A   1      45.395  23.804  27.507  1.00  0.00     0.010 A 
ATOM     37  C   UNL A   1      45.014  24.897  25.384  1.00  0.00     0.010 A 
ATOM     38  C   UNL A   1      45.175  24.974  26.781  1.00  0.00    -0.014 A 
BRANCH  38  39
ATOM     39  C   UNL A   1      44.903  26.310  27.336  1.00  0.00     0.031 A 
ATOM     40  C   UNL A   1      43.497  26.766  27.397  1.00  0.00     0.074 A 
ATOM     41  C   UNL A   1      45.837  26.970  28.069  1.00  0.00     0.049 A 
ATOM     42  N   UNL A   1      43.153  27.945  27.774  1.00  0.00    -0.248 NA
ATOM     43  C   UNL A   1      42.347  25.952  27.004  1.00  0.00     0.031 C 
ATOM     44  C   UNL A   1      45.640  27.951  29.142  1.00  0.00     0.029 A 
ATOM     45  N   UNL A   1      47.226  26.888  27.992  1.00  0.00    -0.354 N 
ATOM     46  C   UNL A   1      41.807  27.927  28.025  1.00  0.00     0.074 A 
ATOM     47  C   UNL A   1      41.328  26.717  27.409  1.00  0.00     0.031 C 
ATOM     48  C   UNL A   1      46.806  28.561  29.426  1.00  0.00     0.029 A 
ATOM     49  C   UNL A   1      47.792  28.075  28.478  1.00  0.00     0.049 A 
ATOM     50  H   UNL A   1      47.732  26.116  27.649  1.00  0.00     0.167 HD
ATOM     51  C   UNL A   1      41.298  28.887  28.844  1.00  0.00     0.031 A 
ATOM     52  C   UNL A   1      48.641  28.795  27.701  1.00  0.00     0.031 A 
ATOM     53  C   UNL A   1      42.317  29.901  29.163  1.00  0.00     0.049 A 
ATOM     54  C   UNL A   1      47.924  30.068  27.359  1.00  0.00     0.074 A 
ATOM     55  C   UNL A   1      43.022  30.221  30.310  1.00  0.00     0.029 A 
ATOM     56  N   UNL A   1      42.981  30.539  28.110  1.00  0.00    -0.354 N 
ATOM     57  N   UNL A   1      46.619  30.154  27.393  1.00  0.00    -0.248 NA
ATOM     58  C   UNL A   1      48.567  31.356  27.122  1.00  0.00     0.031 C 
ATOM     59  C   UNL A   1      44.178  30.965  29.915  1.00  0.00     0.029 A 
ATOM     60  C   UNL A   1      44.152  31.136  28.537  1.00  0.00     0.049 A 
ATOM     61  H   UNL A   1      42.656  30.559  27.181  1.00  0.00     0.167 HD
ATOM     62  C   UNL A   1      46.259  31.461  27.363  1.00  0.00     0.074 A 
ATOM     63  C   UNL A   1      47.500  32.176  27.107  1.00  0.00     0.031 C 
ATOM     64  C   UNL A   1      44.989  31.888  27.601  1.00  0.00     0.031 A 
BRANCH  51  65
ATOM     65  C   UNL A   1      39.932  28.826  29.491  1.00  0.00    -0.014 A 
ATOM     66  C   UNL A   1      38.871  29.568  28.940  1.00  0.00     0.009 A 
ATOM     67  C   UNL A   1      39.629  28.120  30.672  1.00  0.00     0.009 A 
ATOM     68  C   UNL A   1      37.593  29.586  29.521  1.00  0.00     0.001 A 
ATOM     69  C   UNL A   1      38.348  28.110  31.244  1.00  0.00     0.001 A 
ATOM     70  C   UNL A   1      37.328  28.848  30.668  1.00  0.00     0.000 A 
ENDBRANCH  51  65
BRANCH  52  71
ATOM     71  C   UNL A   1      49.514  27.902  26.875  1.00  0.00    -0.014 A 
ATOM     72  C   UNL A   1      49.301  27.943  25.474  1.00  0.00     0.009 A 
ATOM     73  C   UNL A   1      50.781  27.495  27.326  1.00  0.00     0.009 A 
ATOM     74  C   UNL A   1      50.349  27.736  24.567  1.00  0.00     0.001 A 
ATOM     75  C   UNL A   1      51.830  27.291  26.411  1.00  0.00     0.001 A 
ATOM     76  C   UNL A   1      51.626  27.449  25.040  1.00  0.00     0.000 A 
ENDBRANCH  52  71
BRANCH  64  77
ATOM     77  C   UNL A   1      44.446  33.117  26.941  1.00  0.00    -0.014 A 
ATOM     78  C   UNL A   1      44.139  33.165  25.573  1.00  0.00     0.009 A 
ATOM     79  C   UNL A   1      44.020  34.198  27.737  1.00  0.00     0.009 A 
ATOM     80  C   UNL A   1      43.487  34.263  25.014  1.00  0.00     0.001 A 
ATOM     81  C   UNL A   1      43.314  35.268  27.193  1.00  0.00     0.001 A 
ATOM     82  C   UNL A   1      43.063  35.307  25.827  1.00  0.00     0.000 A 
ENDBRANCH  64  77
ENDBRANCH  38  39
ENDBRANCH  31  33
ENDBRANCH  30  31
ENDBRANCH  29  30
ENDBRANCH  28  29
ENDBRANCH  27  28
ENDBRANCH   1  27
TORSDOF 17
ENDMDL
MODEL 3
REMARK VINA RESULT:     -10.5      2.576      4.398
REMARK SMILES Cc1cc(NC(=O)c2ccc(Br)cc2N)ccc1C(=O)OCCOCCOC(=O)c1ccc(-c2c3nc(c(-c4ccccc4)c4ccc([nH]4)c(-c4ccccc4)c4nc(c(-c5ccccc5)c5ccc2[nH]5)C=C4)C=C3)cc1
REMARK SMILES IDX 23 1 22 2 21 3 19 4 20 5 18 6 1 7 2 8 3 9 4 10 17 11 16 12
REMARK SMILES IDX 5 13 6 14 7 16 8 17 9 18 14 19 10 20 13 21 11 22 12 23 15 24
REMARK SMILES IDX 24 27 25 28 26 29 27 30 28 31 29 32 30 33 31 34 77 35 32 36
REMARK SMILES IDX 76 37 33 38 34 39 35 40 70 41 36 42 75 43 69 44 71 45 37 46
REMARK SMILES IDX 74 47 68 48 67 49 38 51 60 52 45 53 59 54 46 55 49 56 58 57
REMARK SMILES IDX 72 58 47 59 48 60 57 62 73 63 50 64 39 65 40 66 44 67 41 68
REMARK SMILES IDX 43 69 42 70 61 71 62 72 66 73 63 74 65 75 64 76 51 77 52 78
REMARK SMILES IDX 56 79 53 80 55 81 54 82
REMARK H PARENT 5 15 15 25 15 26 71 50 49 61
REMARK Flexibility Score: inf
ROOT
ATOM      1  C   UNL A   1      35.948  21.758  24.439  1.00  0.00     0.202 C 
ENDROOT
BRANCH   1   2
ATOM      2  C   UNL A   1      34.987  20.935  25.238  1.00  0.00     0.261 C 
BRANCH   2   3
ATOM      3  O   UNL A   1      34.065  20.207  24.422  1.00  0.00    -0.460 OA
BRANCH   3   4
ATOM      4  C   UNL A   1      32.778  20.189  24.826  1.00  0.00     0.338 C 
ATOM      5  O   UNL A   1      32.206  19.284  25.394  1.00  0.00    -0.246 OA
BRANCH   4   6
ATOM      6  C   UNL A   1      32.194  21.516  24.499  1.00  0.00     0.063 A 
ATOM      7  C   UNL A   1      32.525  21.399  21.900  1.00  0.00     0.045 C 
ATOM      8  C   UNL A   1      32.134  22.066  23.196  1.00  0.00    -0.035 A 
ATOM      9  C   UNL A   1      31.497  23.292  23.044  1.00  0.00     0.030 A 
ATOM     10  C   UNL A   1      30.833  23.894  24.106  1.00  0.00     0.041 A 
ATOM     11  C   UNL A   1      31.699  22.244  25.601  1.00  0.00     0.018 A 
ATOM     12  C   UNL A   1      31.027  23.448  25.407  1.00  0.00     0.027 A 
BRANCH  10  13
ATOM     13  N   UNL A   1      29.828  24.829  23.847  1.00  0.00    -0.322 N 
ATOM     14  C   UNL A   1      29.763  26.138  24.303  1.00  0.00     0.257 C 
ATOM     15  H   UNL A   1      29.084  24.525  23.278  1.00  0.00     0.170 HD
ATOM     16  O   UNL A   1      28.687  26.734  24.247  1.00  0.00    -0.269 OA
BRANCH  14  17
ATOM     17  C   UNL A   1      30.968  26.873  24.829  1.00  0.00     0.063 A 
ATOM     18  C   UNL A   1      31.026  27.008  26.230  1.00  0.00     0.017 A 
ATOM     19  C   UNL A   1      31.995  27.442  24.035  1.00  0.00     0.045 A 
ATOM     20  C   UNL A   1      32.069  27.706  26.845  1.00  0.00     0.016 A 
ATOM     21  C   UNL A   1      33.034  28.144  24.676  1.00  0.00     0.042 A 
ATOM     22  C   UNL A   1      33.067  28.274  26.063  1.00  0.00     0.020 A 
ATOM     23  Br  UNL A   1      34.456  29.264  26.877  1.00  0.00    -0.051 Br
BRANCH  19  24
ATOM     24  N   UNL A   1      31.977  27.489  22.642  1.00  0.00    -0.398 N 
ATOM     25  H   UNL A   1      32.559  28.123  22.162  1.00  0.00     0.156 HD
ATOM     26  H   UNL A   1      31.382  26.889  22.136  1.00  0.00     0.156 HD
ENDBRANCH  19  24
ENDBRANCH  14  17
ENDBRANCH  10  13
ENDBRANCH   4   6
ENDBRANCH   3   4
ENDBRANCH   2   3
ENDBRANCH   1   2
BRANCH   1  27
ATOM     27  O   UNL A   1      37.240  21.375  24.882  1.00  0.00    -0.374 OA
BRANCH  27  28
ATOM     28  C   UNL A   1      37.854  22.269  25.788  1.00  0.00     0.202 C 
BRANCH  28  29
ATOM     29  C   UNL A   1      39.280  21.846  26.175  1.00  0.00     0.261 C 
BRANCH  29  30
ATOM     30  O   UNL A   1      40.160  22.988  26.078  1.00  0.00    -0.460 OA
BRANCH  30  31
ATOM     31  C   UNL A   1      40.581  23.544  27.250  1.00  0.00     0.338 C 
ATOM     32  O   UNL A   1      41.071  22.937  28.188  1.00  0.00    -0.246 OA
BRANCH  31  33
ATOM     33  C   UNL A   1      40.074  24.949  27.349  1.00  0.00     0.060 A 
ATOM     34  C   UNL A   1      40.504  25.920  26.423  1.00  0.00     0.016 A 
ATOM     35  C   UNL A   1      39.485  25.350  28.546  1.00  0.00     0.016 A 
ATOM     36  C   UNL A   1      40.500  27.283  26.769  1.00  0.00     0.010 A 
ATOM     37  C   UNL A   1      39.574  26.676  28.918  1.00  0.00     0.010 A 
ATOM     38  C   UNL A   1      40.117  27.650  28.059  1.00  0.00    -0.014 A 
BRANCH  38  39
ATOM     39  C   UNL A   1      40.387  28.938  28.718  1.00  0.00     0.031 A 
ATOM     40  C   UNL A   1      39.264  29.887  28.879  1.00  0.00     0.074 A 
ATOM     41  C   UNL A   1      41.515  29.130  29.449  1.00  0.00     0.049 A 
ATOM     42  N   UNL A   1      39.404  31.073  29.353  1.00  0.00    -0.248 NA
ATOM     43  C   UNL A   1      37.883  29.607  28.486  1.00  0.00     0.031 C 
ATOM     44  C   UNL A   1      41.728  30.020  30.596  1.00  0.00     0.029 A 
ATOM     45  N   UNL A   1      42.766  28.534  29.300  1.00  0.00    -0.354 N 
ATOM     46  C   UNL A   1      38.157  31.547  29.667  1.00  0.00     0.074 A 
ATOM     47  C   UNL A   1      37.241  30.665  28.992  1.00  0.00     0.031 C 
ATOM     48  C   UNL A   1      43.043  30.115  30.866  1.00  0.00     0.029 A 
ATOM     49  C   UNL A   1      43.751  29.372  29.839  1.00  0.00     0.049 A 
ATOM     50  H   UNL A   1      42.931  27.658  28.880  1.00  0.00     0.167 HD
ATOM     51  C   UNL A   1      38.070  32.557  30.575  1.00  0.00     0.031 A 
ATOM     52  C   UNL A   1      44.798  29.777  29.075  1.00  0.00     0.031 A 
ATOM     53  C   UNL A   1      39.405  33.077  30.914  1.00  0.00     0.049 A 
ATOM     54  C   UNL A   1      44.615  31.251  28.857  1.00  0.00     0.074 A 
ATOM     55  C   UNL A   1      40.199  33.009  32.045  1.00  0.00     0.029 A 
ATOM     56  N   UNL A   1      40.243  33.500  29.878  1.00  0.00    -0.354 N 
ATOM     57  N   UNL A   1      43.444  31.823  28.961  1.00  0.00    -0.248 NA
ATOM     58  C   UNL A   1      45.698  32.213  28.680  1.00  0.00     0.031 C 
ATOM     59  C   UNL A   1      41.545  33.288  31.648  1.00  0.00     0.029 A 
ATOM     60  C   UNL A   1      41.561  33.570  30.289  1.00  0.00     0.049 A 
ATOM     61  H   UNL A   1      39.934  33.719  28.969  1.00  0.00     0.167 HD
ATOM     62  C   UNL A   1      43.611  33.166  29.039  1.00  0.00     0.074 A 
ATOM     63  C   UNL A   1      45.026  33.375  28.774  1.00  0.00     0.031 C 
ATOM     64  C   UNL A   1      42.605  34.022  29.368  1.00  0.00     0.031 A 
BRANCH  51  65
ATOM     65  C   UNL A   1      36.796  32.966  31.282  1.00  0.00    -0.014 A 
ATOM     66  C   UNL A   1      36.556  32.511  32.591  1.00  0.00     0.009 A 
ATOM     67  C   UNL A   1      35.765  33.735  30.708  1.00  0.00     0.009 A 
ATOM     68  C   UNL A   1      35.373  32.820  33.282  1.00  0.00     0.001 A 
ATOM     69  C   UNL A   1      34.592  34.071  31.401  1.00  0.00     0.001 A 
ATOM     70  C   UNL A   1      34.395  33.610  32.691  1.00  0.00     0.000 A 
ENDBRANCH  51  65
BRANCH  52  71
ATOM     71  C   UNL A   1      45.247  28.691  28.147  1.00  0.00    -0.014 A 
ATOM     72  C   UNL A   1      45.019  28.916  26.766  1.00  0.00     0.009 A 
ATOM     73  C   UNL A   1      46.285  27.812  28.498  1.00  0.00     0.009 A 
ATOM     74  C   UNL A   1      45.885  28.407  25.788  1.00  0.00     0.001 A 
ATOM     75  C   UNL A   1      47.153  27.306  27.512  1.00  0.00     0.001 A 
ATOM     76  C   UNL A   1      46.977  27.633  26.167  1.00  0.00     0.000 A 
ENDBRANCH  52  71
BRANCH  64  77
ATOM     77  C   UNL A   1      42.561  35.416  28.823  1.00  0.00    -0.014 A 
ATOM     78  C   UNL A   1      43.129  36.507  29.497  1.00  0.00     0.009 A 
ATOM     79  C   UNL A   1      42.133  35.626  27.498  1.00  0.00     0.009 A 
ATOM     80  C   UNL A   1      43.216  37.763  28.899  1.00  0.00     0.001 A 
ATOM     81  C   UNL A   1      42.276  36.865  26.876  1.00  0.00     0.001 A 
ATOM     82  C   UNL A   1      42.802  37.937  27.584  1.00  0.00     0.000 A 
ENDBRANCH  64  77
ENDBRANCH  38  39
ENDBRANCH  31  33
ENDBRANCH  30  31
ENDBRANCH  29  30
ENDBRANCH  28  29
ENDBRANCH  27  28
ENDBRANCH   1  27
TORSDOF 17
ENDMDL
