MODEL 1
REMARK VINA RESULT:     -10.4      0.000      0.000
REMARK SMILES [NH3+][C@H](Cn1nnc2ccccc21)C(=O)OCCOCCOC(=O)c1ccc(-c2c3nc(c(-c4ccccc4)c4ccc([nH]4)c(-c4ccccc4)c4nc(c(-c5ccccc5)c5ccc2[nH]5)C=C4)C=C3)cc1
REMARK SMILES IDX 18 1 17 2 16 3 15 4 13 5 14 6 2 7 1 8 3 12 4 13 5 14 12 15
REMARK SMILES IDX 6 16 7 17 11 18 8 19 10 20 9 21 19 22 20 23 21 24 22 25
REMARK SMILES IDX 23 26 24 27 25 28 71 29 26 30 70 31 27 32 28 33 29 34 64 35
REMARK SMILES IDX 30 36 69 37 63 38 65 39 31 40 68 41 62 42 61 43 32 45 54 46
REMARK SMILES IDX 39 47 53 48 40 49 43 50 52 51 66 52 41 53 42 54 51 56 67 57
REMARK SMILES IDX 44 58 33 59 34 60 38 61 35 62 37 63 36 64 55 65 56 66 60 67
REMARK SMILES IDX 57 68 59 69 58 70 45 71 46 72 50 73 47 74 49 75 48 76
REMARK H PARENT 1 9 1 10 1 11 65 44 43 55
REMARK Flexibility Score: inf
ROOT
ATOM      1  O   UNL A   1      46.377  21.336  25.135  1.00  0.00    -0.374 OA
ENDROOT
BRANCH   1   2
ATOM      2  C   UNL A   1      46.120  20.095  24.491  1.00  0.00     0.202 C 
BRANCH   2   3
ATOM      3  C   UNL A   1      45.047  19.155  25.057  1.00  0.00     0.261 C 
BRANCH   3   4
ATOM      4  O   UNL A   1      43.724  19.704  25.148  1.00  0.00    -0.459 OA
BRANCH   4   5
ATOM      5  C   UNL A   1      42.857  18.905  25.837  1.00  0.00     0.366 C 
ATOM      6  O   UNL A   1      42.842  17.681  25.776  1.00  0.00    -0.245 OA
BRANCH   5   7
ATOM      7  C   UNL A   1      41.864  19.704  26.677  1.00  0.00     0.313 C 
BRANCH   7   8
ATOM      8  N   UNL A   1      41.780  19.115  28.036  1.00  0.00    -0.344 N 
ATOM      9  H   UNL A   1      42.721  18.938  28.389  1.00  0.00     0.345 HD
ATOM     10  H   UNL A   1      41.263  18.237  27.995  1.00  0.00     0.345 HD
ATOM     11  H   UNL A   1      41.300  19.764  28.660  1.00  0.00     0.345 HD
ENDBRANCH   7   8
BRANCH   7  12
ATOM     12  C   UNL A   1      40.494  19.881  26.000  1.00  0.00     0.224 C 
BRANCH  12  13
ATOM     13  N   UNL A   1      39.852  21.109  26.441  1.00  0.00    -0.238 N 
ATOM     14  N   UNL A   1      40.434  21.838  27.414  1.00  0.00    -0.066 NA
ATOM     15  C   UNL A   1      38.787  21.769  25.883  1.00  0.00     0.089 A 
ATOM     16  N   UNL A   1      39.875  23.039  27.401  1.00  0.00    -0.130 NA
ATOM     17  C   UNL A   1      38.870  23.028  26.475  1.00  0.00     0.113 A 
ATOM     18  C   UNL A   1      37.810  21.443  24.936  1.00  0.00     0.030 A 
ATOM     19  C   UNL A   1      37.988  24.042  26.081  1.00  0.00     0.032 A 
ATOM     20  C   UNL A   1      36.911  22.460  24.583  1.00  0.00     0.002 A 
ATOM     21  C   UNL A   1      37.007  23.742  25.130  1.00  0.00     0.002 A 
ENDBRANCH  12  13
ENDBRANCH   7  12
ENDBRANCH   5   7
ENDBRANCH   4   5
ENDBRANCH   3   4
ENDBRANCH   2   3
ENDBRANCH   1   2
BRANCH   1  22
ATOM     22  C   UNL A   1      46.250  22.534  24.369  1.00  0.00     0.202 C 
BRANCH  22  23
ATOM     23  C   UNL A   1      45.678  23.790  25.054  1.00  0.00     0.261 C 
BRANCH  23  24
ATOM     24  O   UNL A   1      44.612  23.446  25.951  1.00  0.00    -0.460 OA
BRANCH  24  25
ATOM     25  C   UNL A   1      43.363  23.530  25.415  1.00  0.00     0.338 C 
ATOM     26  O   UNL A   1      42.821  22.732  24.669  1.00  0.00    -0.246 OA
BRANCH  25  27
ATOM     27  C   UNL A   1      42.657  24.542  26.223  1.00  0.00     0.060 A 
ATOM     28  C   UNL A   1      41.831  25.485  25.610  1.00  0.00     0.016 A 
ATOM     29  C   UNL A   1      43.110  24.721  27.541  1.00  0.00     0.016 A 
ATOM     30  C   UNL A   1      41.539  26.658  26.293  1.00  0.00     0.010 A 
ATOM     31  C   UNL A   1      42.843  25.913  28.208  1.00  0.00     0.010 A 
ATOM     32  C   UNL A   1      42.088  26.897  27.568  1.00  0.00    -0.014 A 
BRANCH  32  33
ATOM     33  C   UNL A   1      41.668  28.121  28.253  1.00  0.00     0.031 A 
ATOM     34  C   UNL A   1      42.645  29.232  28.101  1.00  0.00     0.074 A 
ATOM     35  C   UNL A   1      40.496  28.355  28.878  1.00  0.00     0.049 A 
ATOM     36  N   UNL A   1      43.307  29.847  29.025  1.00  0.00    -0.248 NA
ATOM     37  C   UNL A   1      43.004  29.624  26.729  1.00  0.00     0.031 C 
ATOM     38  C   UNL A   1      39.278  27.544  28.885  1.00  0.00     0.029 A 
ATOM     39  N   UNL A   1      40.130  29.466  29.587  1.00  0.00    -0.354 N 
ATOM     40  C   UNL A   1      44.081  30.798  28.367  1.00  0.00     0.074 A 
ATOM     41  C   UNL A   1      43.944  30.538  26.956  1.00  0.00     0.031 C 
ATOM     42  C   UNL A   1      38.253  28.287  29.368  1.00  0.00     0.029 A 
ATOM     43  C   UNL A   1      38.768  29.566  29.832  1.00  0.00     0.049 A 
ATOM     44  H   UNL A   1      40.779  30.138  29.898  1.00  0.00     0.167 HD
ATOM     45  C   UNL A   1      44.661  31.844  29.012  1.00  0.00     0.031 A 
ATOM     46  C   UNL A   1      38.113  30.650  30.317  1.00  0.00     0.031 A 
ATOM     47  C   UNL A   1      44.746  31.634  30.430  1.00  0.00     0.049 A 
ATOM     48  C   UNL A   1      39.097  31.521  30.995  1.00  0.00     0.074 A 
ATOM     49  C   UNL A   1      45.392  30.721  31.238  1.00  0.00     0.029 A 
ATOM     50  N   UNL A   1      43.814  32.250  31.226  1.00  0.00    -0.354 N 
ATOM     51  N   UNL A   1      39.692  31.220  32.111  1.00  0.00    -0.248 NA
ATOM     52  C   UNL A   1      39.693  32.610  30.239  1.00  0.00     0.031 C 
ATOM     53  C   UNL A   1      44.508  30.506  32.335  1.00  0.00     0.029 A 
ATOM     54  C   UNL A   1      43.394  31.328  32.150  1.00  0.00     0.049 A 
ATOM     55  H   UNL A   1      43.503  33.182  31.147  1.00  0.00     0.167 HD
ATOM     56  C   UNL A   1      40.958  31.770  31.993  1.00  0.00     0.074 A 
ATOM     57  C   UNL A   1      40.859  32.711  30.880  1.00  0.00     0.031 C 
ATOM     58  C   UNL A   1      42.031  31.212  32.624  1.00  0.00     0.031 A 
BRANCH  45  59
ATOM     59  C   UNL A   1      44.865  33.194  28.377  1.00  0.00    -0.014 A 
ATOM     60  C   UNL A   1      46.120  33.649  27.926  1.00  0.00     0.009 A 
ATOM     61  C   UNL A   1      43.743  33.943  27.981  1.00  0.00     0.009 A 
ATOM     62  C   UNL A   1      46.255  34.789  27.131  1.00  0.00     0.001 A 
ATOM     63  C   UNL A   1      43.871  35.059  27.145  1.00  0.00     0.001 A 
ATOM     64  C   UNL A   1      45.127  35.481  26.721  1.00  0.00     0.000 A 
ENDBRANCH  45  59
BRANCH  46  65
ATOM     65  C   UNL A   1      36.772  31.166  29.959  1.00  0.00    -0.014 A 
ATOM     66  C   UNL A   1      36.479  31.486  28.621  1.00  0.00     0.009 A 
ATOM     67  C   UNL A   1      35.902  31.648  30.952  1.00  0.00     0.009 A 
ATOM     68  C   UNL A   1      35.392  32.302  28.292  1.00  0.00     0.001 A 
ATOM     69  C   UNL A   1      34.814  32.469  30.623  1.00  0.00     0.001 A 
ATOM     70  C   UNL A   1      34.571  32.809  29.294  1.00  0.00     0.000 A 
ENDBRANCH  46  65
BRANCH  58  71
ATOM     71  C   UNL A   1      41.780  30.165  33.686  1.00  0.00    -0.014 A 
ATOM     72  C   UNL A   1      41.893  30.546  35.033  1.00  0.00     0.009 A 
ATOM     73  C   UNL A   1      41.611  28.799  33.396  1.00  0.00     0.009 A 
ATOM     74  C   UNL A   1      41.853  29.596  36.056  1.00  0.00     0.001 A 
ATOM     75  C   UNL A   1      41.544  27.851  34.423  1.00  0.00     0.001 A 
ATOM     76  C   UNL A   1      41.677  28.249  35.750  1.00  0.00     0.000 A 
ENDBRANCH  58  71
ENDBRANCH  32  33
ENDBRANCH  25  27
ENDBRANCH  24  25
ENDBRANCH  23  24
ENDBRANCH  22  23
ENDBRANCH   1  22
TORSDOF 17
ENDMDL
MODEL 2
REMARK VINA RESULT:     -10.3      5.174     11.265
REMARK SMILES [NH3+][C@H](Cn1nnc2ccccc21)C(=O)OCCOCCOC(=O)c1ccc(-c2c3nc(c(-c4ccccc4)c4ccc([nH]4)c(-c4ccccc4)c4nc(c(-c5ccccc5)c5ccc2[nH]5)C=C4)C=C3)cc1
REMARK SMILES IDX 18 1 17 2 16 3 15 4 13 5 14 6 2 7 1 8 3 12 4 13 5 14 12 15
REMARK SMILES IDX 6 16 7 17 11 18 8 19 10 20 9 21 19 22 20 23 21 24 22 25
REMARK SMILES IDX 23 26 24 27 25 28 71 29 26 30 70 31 27 32 28 33 29 34 64 35
REMARK SMILES IDX 30 36 69 37 63 38 65 39 31 40 68 41 62 42 61 43 32 45 54 46
REMARK SMILES IDX 39 47 53 48 40 49 43 50 52 51 66 52 41 53 42 54 51 56 67 57
REMARK SMILES IDX 44 58 33 59 34 60 38 61 35 62 37 63 36 64 55 65 56 66 60 67
REMARK SMILES IDX 57 68 59 69 58 70 45 71 46 72 50 73 47 74 49 75 48 76
REMARK H PARENT 1 9 1 10 1 11 65 44 43 55
REMARK Flexibility Score: inf
ROOT
ATOM      1  O   UNL A   1      35.464  35.748  33.451  1.00  0.00    -0.374 OA
ENDROOT
BRANCH   1   2
ATOM      2  C   UNL A   1      34.129  35.745  32.965  1.00  0.00     0.202 C 
BRANCH   2   3
ATOM      3  C   UNL A   1      33.494  37.056  32.480  1.00  0.00     0.261 C 
BRANCH   3   4
ATOM      4  O   UNL A   1      33.310  37.170  31.061  1.00  0.00    -0.459 OA
BRANCH   4   5
ATOM      5  C   UNL A   1      32.889  36.008  30.479  1.00  0.00     0.366 C 
ATOM      6  O   UNL A   1      31.943  35.336  30.875  1.00  0.00    -0.245 OA
BRANCH   5   7
ATOM      7  C   UNL A   1      33.753  35.600  29.288  1.00  0.00     0.313 C 
BRANCH   7   8
ATOM      8  N   UNL A   1      33.886  36.749  28.358  1.00  0.00    -0.344 N 
ATOM      9  H   UNL A   1      33.543  37.596  28.812  1.00  0.00     0.345 HD
ATOM     10  H   UNL A   1      33.339  36.570  27.517  1.00  0.00     0.345 HD
ATOM     11  H   UNL A   1      34.867  36.872  28.107  1.00  0.00     0.345 HD
ENDBRANCH   7   8
BRANCH   7  12
ATOM     12  C   UNL A   1      33.278  34.308  28.603  1.00  0.00     0.224 C 
BRANCH  12  13
ATOM     13  N   UNL A   1      34.409  33.494  28.190  1.00  0.00    -0.238 N 
ATOM     14  N   UNL A   1      35.655  33.996  28.309  1.00  0.00    -0.066 NA
ATOM     15  C   UNL A   1      34.432  32.167  27.841  1.00  0.00     0.089 A 
ATOM     16  N   UNL A   1      36.505  32.986  28.206  1.00  0.00    -0.130 NA
ATOM     17  C   UNL A   1      35.787  31.857  27.923  1.00  0.00     0.113 A 
ATOM     18  C   UNL A   1      33.458  31.219  27.507  1.00  0.00     0.030 A 
ATOM     19  C   UNL A   1      36.213  30.537  27.725  1.00  0.00     0.032 A 
ATOM     20  C   UNL A   1      33.909  29.911  27.272  1.00  0.00     0.002 A 
ATOM     21  C   UNL A   1      35.257  29.570  27.397  1.00  0.00     0.002 A 
ENDBRANCH  12  13
ENDBRANCH   7  12
ENDBRANCH   5   7
ENDBRANCH   4   5
ENDBRANCH   3   4
ENDBRANCH   2   3
ENDBRANCH   1   2
BRANCH   1  22
ATOM     22  C   UNL A   1      35.926  34.601  34.164  1.00  0.00     0.202 C 
BRANCH  22  23
ATOM     23  C   UNL A   1      35.158  33.276  34.007  1.00  0.00     0.261 C 
BRANCH  23  24
ATOM     24  O   UNL A   1      35.925  32.322  33.257  1.00  0.00    -0.460 OA
BRANCH  24  25
ATOM     25  C   UNL A   1      35.439  32.047  32.016  1.00  0.00     0.338 C 
ATOM     26  O   UNL A   1      34.518  32.601  31.440  1.00  0.00    -0.246 OA
BRANCH  25  27
ATOM     27  C   UNL A   1      36.486  31.245  31.353  1.00  0.00     0.060 A 
ATOM     28  C   UNL A   1      36.305  29.877  31.150  1.00  0.00     0.016 A 
ATOM     29  C   UNL A   1      37.760  31.832  31.258  1.00  0.00     0.016 A 
ATOM     30  C   UNL A   1      37.424  29.081  30.944  1.00  0.00     0.010 A 
ATOM     31  C   UNL A   1      38.881  31.026  31.086  1.00  0.00     0.010 A 
ATOM     32  C   UNL A   1      38.715  29.646  30.967  1.00  0.00    -0.014 A 
BRANCH  32  33
ATOM     33  C   UNL A   1      39.835  28.753  30.663  1.00  0.00     0.031 A 
ATOM     34  C   UNL A   1      40.674  28.453  31.854  1.00  0.00     0.074 A 
ATOM     35  C   UNL A   1      40.097  28.127  29.498  1.00  0.00     0.049 A 
ATOM     36  N   UNL A   1      41.925  28.720  32.039  1.00  0.00    -0.248 NA
ATOM     37  C   UNL A   1      39.991  27.883  33.026  1.00  0.00     0.031 C 
ATOM     38  C   UNL A   1      39.259  28.015  28.303  1.00  0.00     0.029 A 
ATOM     39  N   UNL A   1      41.184  27.356  29.185  1.00  0.00    -0.354 N 
ATOM     40  C   UNL A   1      42.231  28.237  33.308  1.00  0.00     0.074 A 
ATOM     41  C   UNL A   1      40.984  27.842  33.912  1.00  0.00     0.031 C 
ATOM     42  C   UNL A   1      39.764  27.050  27.497  1.00  0.00     0.029 A 
ATOM     43  C   UNL A   1      41.026  26.580  28.045  1.00  0.00     0.049 A 
ATOM     44  H   UNL A   1      42.008  27.353  29.723  1.00  0.00     0.167 HD
ATOM     45  C   UNL A   1      43.508  28.041  33.729  1.00  0.00     0.031 A 
ATOM     46  C   UNL A   1      41.845  25.581  27.630  1.00  0.00     0.031 A 
ATOM     47  C   UNL A   1      44.464  28.753  32.927  1.00  0.00     0.049 A 
ATOM     48  C   UNL A   1      43.161  25.759  28.281  1.00  0.00     0.074 A 
ATOM     49  C   UNL A   1      44.709  30.085  32.665  1.00  0.00     0.029 A 
ATOM     50  N   UNL A   1      45.153  28.047  31.974  1.00  0.00    -0.354 N 
ATOM     51  N   UNL A   1      43.987  26.725  28.008  1.00  0.00    -0.248 NA
ATOM     52  C   UNL A   1      43.424  25.038  29.515  1.00  0.00     0.031 C 
ATOM     53  C   UNL A   1      45.139  30.123  31.307  1.00  0.00     0.029 A 
ATOM     54  C   UNL A   1      45.166  28.809  30.834  1.00  0.00     0.049 A 
ATOM     55  H   UNL A   1      45.561  27.158  32.087  1.00  0.00     0.167 HD
ATOM     56  C   UNL A   1      44.599  27.016  29.216  1.00  0.00     0.074 A 
ATOM     57  C   UNL A   1      44.304  25.871  30.074  1.00  0.00     0.031 C 
ATOM     58  C   UNL A   1      45.050  28.274  29.494  1.00  0.00     0.031 A 
BRANCH  45  59
ATOM     59  C   UNL A   1      43.903  26.945  34.682  1.00  0.00    -0.014 A 
ATOM     60  C   UNL A   1      44.210  27.179  36.037  1.00  0.00     0.009 A 
ATOM     61  C   UNL A   1      43.725  25.604  34.298  1.00  0.00     0.009 A 
ATOM     62  C   UNL A   1      44.339  26.139  36.960  1.00  0.00     0.001 A 
ATOM     63  C   UNL A   1      43.809  24.563  35.231  1.00  0.00     0.001 A 
ATOM     64  C   UNL A   1      44.116  24.831  36.561  1.00  0.00     0.000 A 
ENDBRANCH  45  59
BRANCH  46  65
ATOM     65  C   UNL A   1      41.494  24.297  26.981  1.00  0.00    -0.014 A 
ATOM     66  C   UNL A   1      40.443  23.518  27.496  1.00  0.00     0.009 A 
ATOM     67  C   UNL A   1      42.380  23.686  26.077  1.00  0.00     0.009 A 
ATOM     68  C   UNL A   1      40.315  22.165  27.165  1.00  0.00     0.001 A 
ATOM     69  C   UNL A   1      42.253  22.330  25.748  1.00  0.00     0.001 A 
ATOM     70  C   UNL A   1      41.231  21.566  26.306  1.00  0.00     0.000 A 
ENDBRANCH  46  65
BRANCH  58  71
ATOM     71  C   UNL A   1      45.141  29.274  28.363  1.00  0.00    -0.014 A 
ATOM     72  C   UNL A   1      46.408  29.553  27.825  1.00  0.00     0.009 A 
ATOM     73  C   UNL A   1      44.054  30.062  27.944  1.00  0.00     0.009 A 
ATOM     74  C   UNL A   1      46.588  30.593  26.910  1.00  0.00     0.001 A 
ATOM     75  C   UNL A   1      44.231  31.085  27.006  1.00  0.00     0.001 A 
ATOM     76  C   UNL A   1      45.499  31.357  26.499  1.00  0.00     0.000 A 
ENDBRANCH  58  71
ENDBRANCH  32  33
ENDBRANCH  25  27
ENDBRANCH  24  25
ENDBRANCH  23  24
ENDBRANCH  22  23
ENDBRANCH   1  22
TORSDOF 17
ENDMDL
MODEL 3
REMARK VINA RESULT:      -9.8      1.932      3.649
REMARK SMILES [NH3+][C@H](Cn1nnc2ccccc21)C(=O)OCCOCCOC(=O)c1ccc(-c2c3nc(c(-c4ccccc4)c4ccc([nH]4)c(-c4ccccc4)c4nc(c(-c5ccccc5)c5ccc2[nH]5)C=C4)C=C3)cc1
REMARK SMILES IDX 18 1 17 2 16 3 15 4 13 5 14 6 2 7 1 8 3 12 4 13 5 14 12 15
REMARK SMILES IDX 6 16 7 17 11 18 8 19 10 20 9 21 19 22 20 23 21 24 22 25
REMARK SMILES IDX 23 26 24 27 25 28 71 29 26 30 70 31 27 32 28 33 29 34 64 35
REMARK SMILES IDX 30 36 69 37 63 38 65 39 31 40 68 41 62 42 61 43 32 45 54 46
REMARK SMILES IDX 39 47 53 48 40 49 43 50 52 51 66 52 41 53 42 54 51 56 67 57
REMARK SMILES IDX 44 58 33 59 34 60 38 61 35 62 37 63 36 64 55 65 56 66 60 67
REMARK SMILES IDX 57 68 59 69 58 70 45 71 46 72 50 73 47 74 49 75 48 76
REMARK H PARENT 1 9 1 10 1 11 65 44 43 55
REMARK Flexibility Score: inf
ROOT
ATOM      1  O   UNL A   1      41.686  19.603  25.668  1.00  0.00    -0.374 OA
ENDROOT
BRANCH   1   2
ATOM      2  C   UNL A   1      43.053  19.408  26.006  1.00  0.00     0.202 C 
BRANCH   2   3
ATOM      3  C   UNL A   1      44.016  18.819  24.967  1.00  0.00     0.261 C 
BRANCH   3   4
ATOM      4  O   UNL A   1      44.553  19.751  24.018  1.00  0.00    -0.459 OA
BRANCH   4   5
ATOM      5  C   UNL A   1      45.450  20.622  24.569  1.00  0.00     0.366 C 
ATOM      6  O   UNL A   1      46.389  20.292  25.285  1.00  0.00    -0.245 OA
BRANCH   5   7
ATOM      7  C   UNL A   1      45.138  22.078  24.231  1.00  0.00     0.313 C 
BRANCH   7   8
ATOM      8  N   UNL A   1      44.528  22.153  22.881  1.00  0.00    -0.344 N 
ATOM      9  H   UNL A   1      43.724  21.527  22.836  1.00  0.00     0.345 HD
ATOM     10  H   UNL A   1      45.216  21.873  22.181  1.00  0.00     0.345 HD
ATOM     11  H   UNL A   1      44.225  23.109  22.697  1.00  0.00     0.345 HD
ENDBRANCH   7   8
BRANCH   7  12
ATOM     12  C   UNL A   1      46.341  23.019  24.415  1.00  0.00     0.224 C 
BRANCH  12  13
ATOM     13  N   UNL A   1      46.213  23.793  25.638  1.00  0.00    -0.238 N 
ATOM     14  N   UNL A   1      46.780  23.327  26.769  1.00  0.00    -0.066 NA
ATOM     15  C   UNL A   1      45.734  25.068  25.802  1.00  0.00     0.089 A 
ATOM     16  N   UNL A   1      46.831  24.330  27.633  1.00  0.00    -0.130 NA
ATOM     17  C   UNL A   1      46.204  25.405  27.069  1.00  0.00     0.113 A 
ATOM     18  C   UNL A   1      44.999  25.955  25.008  1.00  0.00     0.030 A 
ATOM     19  C   UNL A   1      45.995  26.698  27.568  1.00  0.00     0.032 A 
ATOM     20  C   UNL A   1      44.765  27.231  25.541  1.00  0.00     0.002 A 
ATOM     21  C   UNL A   1      45.269  27.605  26.789  1.00  0.00     0.002 A 
ENDBRANCH  12  13
ENDBRANCH   7  12
ENDBRANCH   5   7
ENDBRANCH   4   5
ENDBRANCH   3   4
ENDBRANCH   2   3
ENDBRANCH   1   2
BRANCH   1  22
ATOM     22  C   UNL A   1      40.810  20.126  26.667  1.00  0.00     0.202 C 
BRANCH  22  23
ATOM     23  C   UNL A   1      40.355  21.593  26.553  1.00  0.00     0.261 C 
BRANCH  23  24
ATOM     24  O   UNL A   1      41.330  22.480  27.119  1.00  0.00    -0.460 OA
BRANCH  24  25
ATOM     25  C   UNL A   1      42.097  23.143  26.211  1.00  0.00     0.338 C 
ATOM     26  O   UNL A   1      42.404  22.774  25.089  1.00  0.00    -0.246 OA
BRANCH  25  27
ATOM     27  C   UNL A   1      42.139  24.541  26.678  1.00  0.00     0.060 A 
ATOM     28  C   UNL A   1      42.697  24.855  27.918  1.00  0.00     0.016 A 
ATOM     29  C   UNL A   1      41.312  25.455  26.002  1.00  0.00     0.016 A 
ATOM     30  C   UNL A   1      42.346  26.055  28.522  1.00  0.00     0.010 A 
ATOM     31  C   UNL A   1      40.935  26.640  26.627  1.00  0.00     0.010 A 
ATOM     32  C   UNL A   1      41.423  26.921  27.904  1.00  0.00    -0.014 A 
BRANCH  32  33
ATOM     33  C   UNL A   1      41.166  28.200  28.567  1.00  0.00     0.031 A 
ATOM     34  C   UNL A   1      42.139  29.257  28.183  1.00  0.00     0.074 A 
ATOM     35  C   UNL A   1      40.124  28.522  29.361  1.00  0.00     0.049 A 
ATOM     36  N   UNL A   1      42.967  29.896  28.942  1.00  0.00    -0.248 NA
ATOM     37  C   UNL A   1      42.276  29.551  26.748  1.00  0.00     0.031 C 
ATOM     38  C   UNL A   1      38.898  27.767  29.623  1.00  0.00     0.029 A 
ATOM     39  N   UNL A   1      39.920  29.688  30.047  1.00  0.00    -0.354 N 
ATOM     40  C   UNL A   1      43.651  30.772  28.105  1.00  0.00     0.074 A 
ATOM     41  C   UNL A   1      43.270  30.435  26.756  1.00  0.00     0.031 C 
ATOM     42  C   UNL A   1      37.994  28.582  30.219  1.00  0.00     0.029 A 
ATOM     43  C   UNL A   1      38.621  29.862  30.507  1.00  0.00     0.049 A 
ATOM     44  H   UNL A   1      40.633  30.348  30.201  1.00  0.00     0.167 HD
ATOM     45  C   UNL A   1      44.366  31.827  28.574  1.00  0.00     0.031 A 
ATOM     46  C   UNL A   1      38.094  31.001  31.021  1.00  0.00     0.031 A 
ATOM     47  C   UNL A   1      44.681  31.698  29.969  1.00  0.00     0.049 A 
ATOM     48  C   UNL A   1      39.206  31.866  31.469  1.00  0.00     0.074 A 
ATOM     49  C   UNL A   1      45.423  30.807  30.718  1.00  0.00     0.029 A 
ATOM     50  N   UNL A   1      43.916  32.401  30.866  1.00  0.00    -0.354 N 
ATOM     51  N   UNL A   1      39.971  31.606  32.488  1.00  0.00    -0.248 NA
ATOM     52  C   UNL A   1      39.703  32.881  30.555  1.00  0.00     0.031 C 
ATOM     53  C   UNL A   1      44.729  30.696  31.957  1.00  0.00     0.029 A 
ATOM     54  C   UNL A   1      43.628  31.554  31.906  1.00  0.00     0.049 A 
ATOM     55  H   UNL A   1      43.629  33.338  30.780  1.00  0.00     0.167 HD
ATOM     56  C   UNL A   1      41.216  32.092  32.126  1.00  0.00     0.074 A 
ATOM     57  C   UNL A   1      40.963  32.969  30.986  1.00  0.00     0.031 C 
ATOM     58  C   UNL A   1      42.361  31.525  32.606  1.00  0.00     0.031 A 
BRANCH  45  59
ATOM     59  C   UNL A   1      44.505  33.127  27.827  1.00  0.00    -0.014 A 
ATOM     60  C   UNL A   1      43.455  34.059  27.706  1.00  0.00     0.009 A 
ATOM     61  C   UNL A   1      45.784  33.564  27.440  1.00  0.00     0.009 A 
ATOM     62  C   UNL A   1      43.662  35.353  27.223  1.00  0.00     0.001 A 
ATOM     63  C   UNL A   1      46.003  34.875  26.999  1.00  0.00     0.001 A 
ATOM     64  C   UNL A   1      44.942  35.768  26.890  1.00  0.00     0.000 A 
ENDBRANCH  45  59
BRANCH  46  65
ATOM     65  C   UNL A   1      36.730  31.553  30.858  1.00  0.00    -0.014 A 
ATOM     66  C   UNL A   1      36.339  32.097  29.622  1.00  0.00     0.009 A 
ATOM     67  C   UNL A   1      35.935  31.842  31.981  1.00  0.00     0.009 A 
ATOM     68  C   UNL A   1      35.230  32.943  29.520  1.00  0.00     0.001 A 
ATOM     69  C   UNL A   1      34.825  32.692  31.880  1.00  0.00     0.001 A 
ATOM     70  C   UNL A   1      34.485  33.256  30.653  1.00  0.00     0.000 A 
ENDBRANCH  46  65
BRANCH  58  71
ATOM     71  C   UNL A   1      42.257  30.555  33.761  1.00  0.00    -0.014 A 
ATOM     72  C   UNL A   1      41.757  29.268  33.503  1.00  0.00     0.009 A 
ATOM     73  C   UNL A   1      42.468  30.928  35.101  1.00  0.00     0.009 A 
ATOM     74  C   UNL A   1      41.465  28.387  34.547  1.00  0.00     0.001 A 
ATOM     75  C   UNL A   1      42.201  30.034  36.144  1.00  0.00     0.001 A 
ATOM     76  C   UNL A   1      41.688  28.770  35.867  1.00  0.00     0.000 A 
ENDBRANCH  58  71
ENDBRANCH  32  33
ENDBRANCH  25  27
ENDBRANCH  24  25
ENDBRANCH  23  24
ENDBRANCH  22  23
ENDBRANCH   1  22
TORSDOF 17
ENDMDL
