MODEL 1
REMARK VINA RESULT:     -10.9      0.000      0.000
REMARK SMILES O=C(OCCOCCOC(=O)[C@@H]1CCCC[C@@H]1C(=O)Nc1cccc(C(F)(F)F)c1)c1ccc(-c2c3nc(c(-c4ccccc4)c4ccc([nH]4)c(-c4ccccc4)c4nc(c(-c5ccccc5)c5ccc2[nH]5)C=C4)C=C3)cc1
REMARK SMILES IDX 7 1 6 2 5 3 4 4 3 5 2 6 1 7 31 8 32 9 78 10 33 11 77 12
REMARK SMILES IDX 34 13 35 14 36 15 71 16 37 17 76 18 70 19 72 20 38 21 75 22
REMARK SMILES IDX 69 23 68 24 39 26 61 27 46 28 60 29 47 30 50 31 59 32 73 33
REMARK SMILES IDX 48 34 49 35 58 37 74 38 51 39 40 40 41 41 45 42 42 43 44 44
REMARK SMILES IDX 43 45 62 46 63 47 67 48 64 49 66 50 65 51 52 52 53 53 57 54
REMARK SMILES IDX 54 55 56 56 55 57 8 58 9 59 10 60 11 61 12 62 13 63 17 64
REMARK SMILES IDX 14 65 16 66 15 67 18 68 19 69 20 70 21 72 22 73 30 74 23 75
REMARK SMILES IDX 25 76 24 77 26 78 27 79 28 80 29 81
REMARK H PARENT 72 25 50 36 20 71
REMARK Flexibility Score: inf
ROOT
ATOM      1  C   UNL A   1      33.949  29.385  27.054  1.00  0.00     0.202 C 
ENDROOT
BRANCH   1   2
ATOM      2  O   UNL A   1      32.768  30.099  27.418  1.00  0.00    -0.374 OA
BRANCH   2   3
ATOM      3  C   UNL A   1      32.254  31.058  26.499  1.00  0.00     0.202 C 
BRANCH   3   4
ATOM      4  C   UNL A   1      31.453  32.179  27.155  1.00  0.00     0.261 C 
BRANCH   4   5
ATOM      5  O   UNL A   1      32.153  33.423  27.033  1.00  0.00    -0.460 OA
BRANCH   5   6
ATOM      6  C   UNL A   1      32.883  34.030  27.998  1.00  0.00     0.338 C 
ATOM      7  O   UNL A   1      32.443  35.053  28.519  1.00  0.00    -0.246 OA
BRANCH   6   8
ATOM      8  C   UNL A   1      34.178  33.489  28.511  1.00  0.00     0.060 A 
ATOM      9  C   UNL A   1      35.438  33.793  27.994  1.00  0.00     0.016 A 
ATOM     10  C   UNL A   1      34.115  32.682  29.658  1.00  0.00     0.016 A 
ATOM     11  C   UNL A   1      36.596  33.302  28.556  1.00  0.00     0.010 A 
ATOM     12  C   UNL A   1      35.283  32.201  30.257  1.00  0.00     0.010 A 
ATOM     13  C   UNL A   1      36.525  32.515  29.696  1.00  0.00    -0.014 A 
BRANCH  13  14
ATOM     14  C   UNL A   1      37.794  31.950  30.165  1.00  0.00     0.031 A 
ATOM     15  C   UNL A   1      38.432  32.572  31.363  1.00  0.00     0.074 A 
ATOM     16  C   UNL A   1      38.214  30.780  29.650  1.00  0.00     0.049 A 
ATOM     17  N   UNL A   1      39.540  32.249  31.968  1.00  0.00    -0.248 NA
ATOM     18  C   UNL A   1      37.710  33.700  31.981  1.00  0.00     0.031 C 
ATOM     19  C   UNL A   1      37.526  30.026  28.594  1.00  0.00     0.029 A 
ATOM     20  N   UNL A   1      39.279  29.992  29.980  1.00  0.00    -0.354 N 
ATOM     21  C   UNL A   1      39.662  33.146  33.019  1.00  0.00     0.074 A 
ATOM     22  C   UNL A   1      38.525  34.034  32.969  1.00  0.00     0.031 C 
ATOM     23  C   UNL A   1      38.177  28.871  28.385  1.00  0.00     0.029 A 
ATOM     24  C   UNL A   1      39.364  28.846  29.228  1.00  0.00     0.049 A 
ATOM     25  H   UNL A   1      39.924  30.223  30.688  1.00  0.00     0.167 HD
ATOM     26  C   UNL A   1      40.649  33.214  33.939  1.00  0.00     0.031 A 
ATOM     27  C   UNL A   1      40.329  27.909  29.204  1.00  0.00     0.031 A 
ATOM     28  C   UNL A   1      41.772  32.320  33.940  1.00  0.00     0.049 A 
ATOM     29  C   UNL A   1      41.489  28.094  30.143  1.00  0.00     0.074 A 
ATOM     30  C   UNL A   1      42.900  32.340  34.736  1.00  0.00     0.029 A 
ATOM     31  N   UNL A   1      41.896  31.230  33.084  1.00  0.00    -0.354 N 
ATOM     32  N   UNL A   1      41.663  29.009  31.069  1.00  0.00    -0.248 NA
ATOM     33  C   UNL A   1      42.588  27.131  30.029  1.00  0.00     0.031 C 
ATOM     34  C   UNL A   1      43.729  31.288  34.330  1.00  0.00     0.029 A 
ATOM     35  C   UNL A   1      43.089  30.576  33.326  1.00  0.00     0.049 A 
ATOM     36  H   UNL A   1      41.232  30.965  32.408  1.00  0.00     0.167 HD
ATOM     37  C   UNL A   1      42.884  28.726  31.660  1.00  0.00     0.074 A 
ATOM     38  C   UNL A   1      43.388  27.532  31.007  1.00  0.00     0.031 C 
ATOM     39  C   UNL A   1      43.540  29.388  32.645  1.00  0.00     0.031 A 
BRANCH  26  40
ATOM     40  C   UNL A   1      40.575  34.337  34.932  1.00  0.00    -0.014 A 
ATOM     41  C   UNL A   1      41.227  35.562  34.709  1.00  0.00     0.009 A 
ATOM     42  C   UNL A   1      39.883  34.146  36.138  1.00  0.00     0.009 A 
ATOM     43  C   UNL A   1      41.220  36.554  35.692  1.00  0.00     0.001 A 
ATOM     44  C   UNL A   1      39.855  35.151  37.106  1.00  0.00     0.001 A 
ATOM     45  C   UNL A   1      40.532  36.349  36.888  1.00  0.00     0.000 A 
ENDBRANCH  26  40
BRANCH  27  46
ATOM     46  C   UNL A   1      40.292  26.799  28.213  1.00  0.00    -0.014 A 
ATOM     47  C   UNL A   1      40.869  26.933  26.941  1.00  0.00     0.009 A 
ATOM     48  C   UNL A   1      39.630  25.598  28.525  1.00  0.00     0.009 A 
ATOM     49  C   UNL A   1      40.749  25.909  25.995  1.00  0.00     0.001 A 
ATOM     50  C   UNL A   1      39.545  24.563  27.593  1.00  0.00     0.001 A 
ATOM     51  C   UNL A   1      40.090  24.725  26.323  1.00  0.00     0.000 A 
ENDBRANCH  27  46
BRANCH  39  52
ATOM     52  C   UNL A   1      44.847  28.798  33.089  1.00  0.00    -0.014 A 
ATOM     53  C   UNL A   1      44.905  27.841  34.112  1.00  0.00     0.009 A 
ATOM     54  C   UNL A   1      46.029  29.188  32.444  1.00  0.00     0.009 A 
ATOM     55  C   UNL A   1      46.134  27.315  34.510  1.00  0.00     0.001 A 
ATOM     56  C   UNL A   1      47.252  28.632  32.818  1.00  0.00     0.001 A 
ATOM     57  C   UNL A   1      47.304  27.706  33.858  1.00  0.00     0.000 A 
ENDBRANCH  39  52
ENDBRANCH  13  14
ENDBRANCH   6   8
ENDBRANCH   5   6
ENDBRANCH   4   5
ENDBRANCH   3   4
ENDBRANCH   2   3
ENDBRANCH   1   2
BRANCH   1  58
ATOM     58  C   UNL A   1      33.693  28.672  25.722  1.00  0.00     0.261 C 
BRANCH  58  59
ATOM     59  O   UNL A   1      32.807  27.577  25.977  1.00  0.00    -0.463 OA
BRANCH  59  60
ATOM     60  C   UNL A   1      33.220  26.379  25.460  1.00  0.00     0.309 C 
ATOM     61  O   UNL A   1      34.171  26.189  24.713  1.00  0.00    -0.252 OA
BRANCH  60  62
ATOM     62  C   UNL A   1      32.413  25.297  26.138  1.00  0.00     0.111 C 
ATOM     63  C   UNL A   1      33.183  23.979  26.313  1.00  0.00     0.016 C 
ATOM     64  C   UNL A   1      31.035  25.091  25.485  1.00  0.00     0.093 C 
ATOM     65  C   UNL A   1      32.411  23.031  27.229  1.00  0.00     0.001 C 
ATOM     66  C   UNL A   1      30.289  24.121  26.421  1.00  0.00     0.014 C 
ATOM     67  C   UNL A   1      31.008  22.799  26.690  1.00  0.00     0.001 C 
BRANCH  64  68
ATOM     68  C   UNL A   1      31.247  24.900  23.951  1.00  0.00     0.228 C 
ATOM     69  O   UNL A   1      31.889  23.930  23.534  1.00  0.00    -0.274 OA
ATOM     70  N   UNL A   1      30.629  25.675  23.021  1.00  0.00    -0.326 N 
ATOM     71  H   UNL A   1      30.222  25.211  22.255  1.00  0.00     0.169 HD
BRANCH  70  72
ATOM     72  C   UNL A   1      30.514  27.062  23.044  1.00  0.00     0.041 A 
ATOM     73  C   UNL A   1      31.620  27.841  22.724  1.00  0.00     0.026 A 
ATOM     74  C   UNL A   1      29.278  27.652  23.290  1.00  0.00     0.039 A 
ATOM     75  C   UNL A   1      31.431  29.195  22.451  1.00  0.00     0.003 A 
ATOM     76  C   UNL A   1      29.061  28.989  22.957  1.00  0.00     0.058 A 
ATOM     77  C   UNL A   1      30.151  29.758  22.529  1.00  0.00     0.013 A 
BRANCH  76  78
ATOM     78  C   UNL A   1      27.650  29.521  22.916  1.00  0.00     0.416 C 
ATOM     79  F   UNL A   1      27.414  30.485  23.842  1.00  0.00    -0.166 F 
ATOM     80  F   UNL A   1      27.348  30.068  21.705  1.00  0.00    -0.166 F 
ATOM     81  F   UNL A   1      26.706  28.558  23.121  1.00  0.00    -0.166 F 
ENDBRANCH  76  78
ENDBRANCH  70  72
ENDBRANCH  64  68
ENDBRANCH  60  62
ENDBRANCH  59  60
ENDBRANCH  58  59
ENDBRANCH   1  58
TORSDOF 17
ENDMDL
MODEL 2
REMARK VINA RESULT:     -10.8      1.251      1.753
REMARK SMILES O=C(OCCOCCOC(=O)[C@@H]1CCCC[C@@H]1C(=O)Nc1cccc(C(F)(F)F)c1)c1ccc(-c2c3nc(c(-c4ccccc4)c4ccc([nH]4)c(-c4ccccc4)c4nc(c(-c5ccccc5)c5ccc2[nH]5)C=C4)C=C3)cc1
REMARK SMILES IDX 7 1 6 2 5 3 4 4 3 5 2 6 1 7 31 8 32 9 78 10 33 11 77 12
REMARK SMILES IDX 34 13 35 14 36 15 71 16 37 17 76 18 70 19 72 20 38 21 75 22
REMARK SMILES IDX 69 23 68 24 39 26 61 27 46 28 60 29 47 30 50 31 59 32 73 33
REMARK SMILES IDX 48 34 49 35 58 37 74 38 51 39 40 40 41 41 45 42 42 43 44 44
REMARK SMILES IDX 43 45 62 46 63 47 67 48 64 49 66 50 65 51 52 52 53 53 57 54
REMARK SMILES IDX 54 55 56 56 55 57 8 58 9 59 10 60 11 61 12 62 13 63 17 64
REMARK SMILES IDX 14 65 16 66 15 67 18 68 19 69 20 70 21 72 22 73 30 74 23 75
REMARK SMILES IDX 25 76 24 77 26 78 27 79 28 80 29 81
REMARK H PARENT 72 25 50 36 20 71
REMARK Flexibility Score: inf
ROOT
ATOM      1  C   UNL A   1      31.945  28.709  26.305  1.00  0.00     0.202 C 
ENDROOT
BRANCH   1   2
ATOM      2  O   UNL A   1      32.066  29.783  27.237  1.00  0.00    -0.374 OA
BRANCH   2   3
ATOM      3  C   UNL A   1      32.457  31.060  26.743  1.00  0.00     0.202 C 
BRANCH   3   4
ATOM      4  C   UNL A   1      31.535  32.199  27.168  1.00  0.00     0.261 C 
BRANCH   4   5
ATOM      5  O   UNL A   1      32.237  33.447  27.120  1.00  0.00    -0.460 OA
BRANCH   5   6
ATOM      6  C   UNL A   1      32.961  33.999  28.121  1.00  0.00     0.338 C 
ATOM      7  O   UNL A   1      32.501  34.970  28.720  1.00  0.00    -0.246 OA
BRANCH   6   8
ATOM      8  C   UNL A   1      34.272  33.453  28.584  1.00  0.00     0.060 A 
ATOM      9  C   UNL A   1      35.502  33.676  27.961  1.00  0.00     0.016 A 
ATOM     10  C   UNL A   1      34.268  32.733  29.789  1.00  0.00     0.016 A 
ATOM     11  C   UNL A   1      36.681  33.188  28.478  1.00  0.00     0.010 A 
ATOM     12  C   UNL A   1      35.460  32.257  30.341  1.00  0.00     0.010 A 
ATOM     13  C   UNL A   1      36.668  32.488  29.676  1.00  0.00    -0.014 A 
BRANCH  13  14
ATOM     14  C   UNL A   1      37.951  31.915  30.098  1.00  0.00     0.031 A 
ATOM     15  C   UNL A   1      38.657  32.561  31.243  1.00  0.00     0.074 A 
ATOM     16  C   UNL A   1      38.326  30.724  29.597  1.00  0.00     0.049 A 
ATOM     17  N   UNL A   1      39.789  32.237  31.801  1.00  0.00    -0.248 NA
ATOM     18  C   UNL A   1      37.984  33.718  31.862  1.00  0.00     0.031 C 
ATOM     19  C   UNL A   1      37.574  29.951  28.600  1.00  0.00     0.029 A 
ATOM     20  N   UNL A   1      39.394  29.928  29.897  1.00  0.00    -0.354 N 
ATOM     21  C   UNL A   1      39.977  33.162  32.818  1.00  0.00     0.074 A 
ATOM     22  C   UNL A   1      38.852  34.067  32.798  1.00  0.00     0.031 C 
ATOM     23  C   UNL A   1      38.196  28.780  28.393  1.00  0.00     0.029 A 
ATOM     24  C   UNL A   1      39.424  28.759  29.176  1.00  0.00     0.049 A 
ATOM     25  H   UNL A   1      40.077  30.169  30.565  1.00  0.00     0.167 HD
ATOM     26  C   UNL A   1      41.010  33.240  33.686  1.00  0.00     0.031 A 
ATOM     27  C   UNL A   1      40.372  27.806  29.132  1.00  0.00     0.031 A 
ATOM     28  C   UNL A   1      42.118  32.328  33.657  1.00  0.00     0.049 A 
ATOM     29  C   UNL A   1      41.580  27.999  30.007  1.00  0.00     0.074 A 
ATOM     30  C   UNL A   1      43.284  32.352  34.396  1.00  0.00     0.029 A 
ATOM     31  N   UNL A   1      42.182  31.212  32.830  1.00  0.00    -0.354 N 
ATOM     32  N   UNL A   1      41.814  28.938  30.896  1.00  0.00    -0.248 NA
ATOM     33  C   UNL A   1      42.657  27.015  29.867  1.00  0.00     0.031 C 
ATOM     34  C   UNL A   1      44.076  31.275  33.981  1.00  0.00     0.029 A 
ATOM     35  C   UNL A   1      43.375  30.545  33.031  1.00  0.00     0.049 A 
ATOM     36  H   UNL A   1      41.481  30.938  32.195  1.00  0.00     0.167 HD
ATOM     37  C   UNL A   1      43.059  28.651  31.434  1.00  0.00     0.074 A 
ATOM     38  C   UNL A   1      43.511  27.430  30.792  1.00  0.00     0.031 C 
ATOM     39  C   UNL A   1      43.774  29.330  32.365  1.00  0.00     0.031 A 
BRANCH  26  40
ATOM     40  C   UNL A   1      41.002  34.393  34.647  1.00  0.00    -0.014 A 
ATOM     41  C   UNL A   1      41.640  35.608  34.346  1.00  0.00     0.009 A 
ATOM     42  C   UNL A   1      40.392  34.239  35.901  1.00  0.00     0.009 A 
ATOM     43  C   UNL A   1      41.699  36.630  35.296  1.00  0.00     0.001 A 
ATOM     44  C   UNL A   1      40.429  35.273  36.839  1.00  0.00     0.001 A 
ATOM     45  C   UNL A   1      41.091  36.462  36.541  1.00  0.00     0.000 A 
ENDBRANCH  26  40
BRANCH  27  46
ATOM     46  C   UNL A   1      40.268  26.669  28.178  1.00  0.00    -0.014 A 
ATOM     47  C   UNL A   1      40.866  26.721  26.910  1.00  0.00     0.009 A 
ATOM     48  C   UNL A   1      39.523  25.527  28.521  1.00  0.00     0.009 A 
ATOM     49  C   UNL A   1      40.685  25.676  25.996  1.00  0.00     0.001 A 
ATOM     50  C   UNL A   1      39.375  24.469  27.623  1.00  0.00     0.001 A 
ATOM     51  C   UNL A   1      39.943  24.552  26.354  1.00  0.00     0.000 A 
ENDBRANCH  27  46
BRANCH  39  52
ATOM     52  C   UNL A   1      45.092  28.732  32.760  1.00  0.00    -0.014 A 
ATOM     53  C   UNL A   1      46.274  29.057  32.078  1.00  0.00     0.009 A 
ATOM     54  C   UNL A   1      45.147  27.857  33.855  1.00  0.00     0.009 A 
ATOM     55  C   UNL A   1      47.484  28.481  32.462  1.00  0.00     0.001 A 
ATOM     56  C   UNL A   1      46.365  27.313  34.260  1.00  0.00     0.001 A 
ATOM     57  C   UNL A   1      47.529  27.616  33.556  1.00  0.00     0.000 A 
ENDBRANCH  39  52
ENDBRANCH  13  14
ENDBRANCH   6   8
ENDBRANCH   5   6
ENDBRANCH   4   5
ENDBRANCH   3   4
ENDBRANCH   2   3
ENDBRANCH   1   2
BRANCH   1  58
ATOM     58  C   UNL A   1      32.906  27.592  26.726  1.00  0.00     0.261 C 
BRANCH  58  59
ATOM     59  O   UNL A   1      32.609  26.440  25.931  1.00  0.00    -0.463 OA
BRANCH  59  60
ATOM     60  C   UNL A   1      33.591  26.092  25.044  1.00  0.00     0.309 C 
ATOM     61  O   UNL A   1      34.167  26.832  24.257  1.00  0.00    -0.252 OA
BRANCH  60  62
ATOM     62  C   UNL A   1      33.985  24.666  25.348  1.00  0.00     0.111 C 
ATOM     63  C   UNL A   1      35.504  24.432  25.322  1.00  0.00     0.016 C 
ATOM     64  C   UNL A   1      33.219  23.645  24.489  1.00  0.00     0.093 C 
ATOM     65  C   UNL A   1      35.838  23.055  25.891  1.00  0.00     0.001 C 
ATOM     66  C   UNL A   1      33.588  22.269  25.075  1.00  0.00     0.014 C 
ATOM     67  C   UNL A   1      35.087  21.972  25.133  1.00  0.00     0.001 C 
BRANCH  64  68
ATOM     68  C   UNL A   1      33.355  24.068  22.993  1.00  0.00     0.228 C 
ATOM     69  O   UNL A   1      34.436  23.931  22.410  1.00  0.00    -0.274 OA
ATOM     70  N   UNL A   1      32.292  24.451  22.237  1.00  0.00    -0.326 N 
ATOM     71  H   UNL A   1      32.227  24.065  21.334  1.00  0.00     0.169 HD
BRANCH  70  72
ATOM     72  C   UNL A   1      31.286  25.336  22.613  1.00  0.00     0.041 A 
ATOM     73  C   UNL A   1      30.266  24.890  23.445  1.00  0.00     0.026 A 
ATOM     74  C   UNL A   1      31.361  26.674  22.236  1.00  0.00     0.039 A 
ATOM     75  C   UNL A   1      29.442  25.832  24.060  1.00  0.00     0.003 A 
ATOM     76  C   UNL A   1      30.589  27.632  22.894  1.00  0.00     0.058 A 
ATOM     77  C   UNL A   1      29.628  27.198  23.817  1.00  0.00     0.013 A 
BRANCH  76  78
ATOM     78  C   UNL A   1      30.913  29.093  22.714  1.00  0.00     0.416 C 
ATOM     79  F   UNL A   1      32.242  29.359  22.785  1.00  0.00    -0.166 F 
ATOM     80  F   UNL A   1      30.490  29.562  21.506  1.00  0.00    -0.166 F 
ATOM     81  F   UNL A   1      30.315  29.896  23.641  1.00  0.00    -0.166 F 
ENDBRANCH  76  78
ENDBRANCH  70  72
ENDBRANCH  64  68
ENDBRANCH  60  62
ENDBRANCH  59  60
ENDBRANCH  58  59
ENDBRANCH   1  58
TORSDOF 17
ENDMDL
MODEL 3
REMARK VINA RESULT:     -10.6      4.233      9.045
REMARK SMILES O=C(OCCOCCOC(=O)[C@@H]1CCCC[C@@H]1C(=O)Nc1cccc(C(F)(F)F)c1)c1ccc(-c2c3nc(c(-c4ccccc4)c4ccc([nH]4)c(-c4ccccc4)c4nc(c(-c5ccccc5)c5ccc2[nH]5)C=C4)C=C3)cc1
REMARK SMILES IDX 7 1 6 2 5 3 4 4 3 5 2 6 1 7 31 8 32 9 78 10 33 11 77 12
REMARK SMILES IDX 34 13 35 14 36 15 71 16 37 17 76 18 70 19 72 20 38 21 75 22
REMARK SMILES IDX 69 23 68 24 39 26 61 27 46 28 60 29 47 30 50 31 59 32 73 33
REMARK SMILES IDX 48 34 49 35 58 37 74 38 51 39 40 40 41 41 45 42 42 43 44 44
REMARK SMILES IDX 43 45 62 46 63 47 67 48 64 49 66 50 65 51 52 52 53 53 57 54
REMARK SMILES IDX 54 55 56 56 55 57 8 58 9 59 10 60 11 61 12 62 13 63 17 64
REMARK SMILES IDX 14 65 16 66 15 67 18 68 19 69 20 70 21 72 22 73 30 74 23 75
REMARK SMILES IDX 25 76 24 77 26 78 27 79 28 80 29 81
REMARK H PARENT 72 25 50 36 20 71
REMARK Flexibility Score: inf
ROOT
ATOM      1  C   UNL A   1      36.398  22.601  24.224  1.00  0.00     0.202 C 
ENDROOT
BRANCH   1   2
ATOM      2  O   UNL A   1      37.685  22.073  24.541  1.00  0.00    -0.374 OA
BRANCH   2   3
ATOM      3  C   UNL A   1      37.755  20.967  25.435  1.00  0.00     0.202 C 
BRANCH   3   4
ATOM      4  C   UNL A   1      38.519  19.768  24.881  1.00  0.00     0.261 C 
BRANCH   4   5
ATOM      5  O   UNL A   1      39.407  19.246  25.876  1.00  0.00    -0.460 OA
BRANCH   5   6
ATOM      6  C   UNL A   1      40.697  19.608  26.070  1.00  0.00     0.338 C 
ATOM      7  O   UNL A   1      41.588  18.828  25.739  1.00  0.00    -0.246 OA
BRANCH   6   8
ATOM      8  C   UNL A   1      41.103  20.940  26.612  1.00  0.00     0.060 A 
ATOM      9  C   UNL A   1      41.109  21.291  27.963  1.00  0.00     0.016 A 
ATOM     10  C   UNL A   1      41.600  21.873  25.689  1.00  0.00     0.016 A 
ATOM     11  C   UNL A   1      41.553  22.520  28.396  1.00  0.00     0.010 A 
ATOM     12  C   UNL A   1      42.081  23.114  26.117  1.00  0.00     0.010 A 
ATOM     13  C   UNL A   1      42.052  23.432  27.478  1.00  0.00    -0.014 A 
BRANCH  13  14
ATOM     14  C   UNL A   1      42.404  24.752  28.011  1.00  0.00     0.031 A 
ATOM     15  C   UNL A   1      43.853  25.084  28.147  1.00  0.00     0.074 A 
ATOM     16  C   UNL A   1      41.436  25.677  28.145  1.00  0.00     0.049 A 
ATOM     17  N   UNL A   1      44.411  26.179  28.580  1.00  0.00    -0.248 NA
ATOM     18  C   UNL A   1      44.808  24.048  27.710  1.00  0.00     0.031 C 
ATOM     19  C   UNL A   1      40.014  25.462  27.849  1.00  0.00     0.029 A 
ATOM     20  N   UNL A   1      41.505  26.993  28.504  1.00  0.00    -0.354 N 
ATOM     21  C   UNL A   1      45.777  25.956  28.493  1.00  0.00     0.074 A 
ATOM     22  C   UNL A   1      45.970  24.622  27.977  1.00  0.00     0.031 C 
ATOM     23  C   UNL A   1      39.351  26.618  28.016  1.00  0.00     0.029 A 
ATOM     24  C   UNL A   1      40.284  27.623  28.506  1.00  0.00     0.049 A 
ATOM     25  H   UNL A   1      42.347  27.446  28.739  1.00  0.00     0.167 HD
ATOM     26  C   UNL A   1      46.777  26.803  28.825  1.00  0.00     0.031 A 
ATOM     27  C   UNL A   1      39.965  28.866  28.907  1.00  0.00     0.031 A 
ATOM     28  C   UNL A   1      46.538  28.116  29.353  1.00  0.00     0.049 A 
ATOM     29  C   UNL A   1      41.086  29.734  29.408  1.00  0.00     0.074 A 
ATOM     30  C   UNL A   1      47.445  29.038  29.837  1.00  0.00     0.029 A 
ATOM     31  N   UNL A   1      45.276  28.692  29.459  1.00  0.00    -0.354 N 
ATOM     32  N   UNL A   1      42.375  29.486  29.432  1.00  0.00    -0.248 NA
ATOM     33  C   UNL A   1      40.711  31.045  29.949  1.00  0.00     0.031 C 
ATOM     34  C   UNL A   1      46.726  30.153  30.281  1.00  0.00     0.029 A 
ATOM     35  C   UNL A   1      45.379  29.953  30.012  1.00  0.00     0.049 A 
ATOM     36  H   UNL A   1      44.435  28.263  29.180  1.00  0.00     0.167 HD
ATOM     37  C   UNL A   1      42.971  30.614  29.975  1.00  0.00     0.074 A 
ATOM     38  C   UNL A   1      41.900  31.558  30.234  1.00  0.00     0.031 C 
ATOM     39  C   UNL A   1      44.277  30.854  30.246  1.00  0.00     0.031 A 
BRANCH  26  40
ATOM     40  C   UNL A   1      48.178  26.279  28.703  1.00  0.00    -0.014 A 
ATOM     41  C   UNL A   1      48.832  25.665  29.783  1.00  0.00     0.009 A 
ATOM     42  C   UNL A   1      48.875  26.453  27.497  1.00  0.00     0.009 A 
ATOM     43  C   UNL A   1      50.168  25.273  29.670  1.00  0.00     0.001 A 
ATOM     44  C   UNL A   1      50.202  26.035  27.379  1.00  0.00     0.001 A 
ATOM     45  C   UNL A   1      50.850  25.456  28.467  1.00  0.00     0.000 A 
ENDBRANCH  26  40
BRANCH  27  46
ATOM     46  C   UNL A   1      38.546  29.316  28.947  1.00  0.00    -0.014 A 
ATOM     47  C   UNL A   1      37.751  29.128  30.088  1.00  0.00     0.009 A 
ATOM     48  C   UNL A   1      37.961  29.904  27.812  1.00  0.00     0.009 A 
ATOM     49  C   UNL A   1      36.397  29.481  30.075  1.00  0.00     0.001 A 
ATOM     50  C   UNL A   1      36.620  30.289  27.814  1.00  0.00     0.001 A 
ATOM     51  C   UNL A   1      35.834  30.063  28.940  1.00  0.00     0.000 A 
ENDBRANCH  27  46
BRANCH  39  52
ATOM     52  C   UNL A   1      44.604  32.204  30.812  1.00  0.00    -0.014 A 
ATOM     53  C   UNL A   1      44.877  33.298  29.977  1.00  0.00     0.009 A 
ATOM     54  C   UNL A   1      44.603  32.384  32.203  1.00  0.00     0.009 A 
ATOM     55  C   UNL A   1      45.185  34.541  30.529  1.00  0.00     0.001 A 
ATOM     56  C   UNL A   1      44.874  33.636  32.751  1.00  0.00     0.001 A 
ATOM     57  C   UNL A   1      45.177  34.710  31.915  1.00  0.00     0.000 A 
ENDBRANCH  39  52
ENDBRANCH  13  14
ENDBRANCH   6   8
ENDBRANCH   5   6
ENDBRANCH   4   5
ENDBRANCH   3   4
ENDBRANCH   2   3
ENDBRANCH   1   2
BRANCH   1  58
ATOM     58  C   UNL A   1      36.135  23.812  25.126  1.00  0.00     0.261 C 
BRANCH  58  59
ATOM     59  O   UNL A   1      34.964  24.473  24.637  1.00  0.00    -0.463 OA
BRANCH  59  60
ATOM     60  C   UNL A   1      34.072  24.843  25.607  1.00  0.00     0.309 C 
ATOM     61  O   UNL A   1      33.863  24.272  26.670  1.00  0.00    -0.252 OA
BRANCH  60  62
ATOM     62  C   UNL A   1      33.533  26.201  25.226  1.00  0.00     0.111 C 
ATOM     63  C   UNL A   1      33.652  27.244  26.348  1.00  0.00     0.016 C 
ATOM     64  C   UNL A   1      32.113  26.129  24.639  1.00  0.00     0.093 C 
ATOM     65  C   UNL A   1      33.337  28.639  25.812  1.00  0.00     0.001 C 
ATOM     66  C   UNL A   1      31.819  27.550  24.122  1.00  0.00     0.014 C 
ATOM     67  C   UNL A   1      31.962  28.659  25.164  1.00  0.00     0.001 C 
BRANCH  64  68
ATOM     68  C   UNL A   1      31.220  25.311  25.624  1.00  0.00     0.228 C 
ATOM     69  O   UNL A   1      30.919  25.789  26.723  1.00  0.00    -0.274 OA
ATOM     70  N   UNL A   1      30.622  24.141  25.276  1.00  0.00    -0.326 N 
ATOM     71  H   UNL A   1      29.676  24.034  25.526  1.00  0.00     0.169 HD
BRANCH  70  72
ATOM     72  C   UNL A   1      31.214  23.078  24.600  1.00  0.00     0.041 A 
ATOM     73  C   UNL A   1      31.275  23.106  23.211  1.00  0.00     0.026 A 
ATOM     74  C   UNL A   1      31.822  22.052  25.316  1.00  0.00     0.039 A 
ATOM     75  C   UNL A   1      32.122  22.212  22.559  1.00  0.00     0.003 A 
ATOM     76  C   UNL A   1      32.723  21.195  24.684  1.00  0.00     0.058 A 
ATOM     77  C   UNL A   1      32.872  21.287  23.295  1.00  0.00     0.013 A 
BRANCH  76  78
ATOM     78  C   UNL A   1      33.615  20.313  25.522  1.00  0.00     0.416 C 
ATOM     79  F   UNL A   1      34.520  19.616  24.789  1.00  0.00    -0.166 F 
ATOM     80  F   UNL A   1      34.330  21.032  26.433  1.00  0.00    -0.166 F 
ATOM     81  F   UNL A   1      32.926  19.390  26.253  1.00  0.00    -0.166 F 
ENDBRANCH  76  78
ENDBRANCH  70  72
ENDBRANCH  64  68
ENDBRANCH  60  62
ENDBRANCH  59  60
ENDBRANCH  58  59
ENDBRANCH   1  58
TORSDOF 17
ENDMDL
