MODEL 1
REMARK VINA RESULT:     -10.3      0.000      0.000
REMARK SMILES Cc1nn(C)c2nc(C3CC3)c(Cl)c(C(=O)OCCOCCOC(=O)c3ccc(-c4c5nc(c(-c6ccccc6)c6ccc([nH]6)c(-c6ccccc6)c6nc(c(-c7ccccc7)c7ccc4[nH]7)C=C6)C=C5)cc3)c12
REMARK SMILES IDX 21 1 20 2 19 3 18 4 17 5 15 6 16 7 14 8 1 9 2 10 3 11 74 12
REMARK SMILES IDX 4 13 6 14 5 15 7 16 12 17 8 18 13 19 9 20 10 21 11 22 22 23
REMARK SMILES IDX 23 24 24 25 25 26 26 27 27 28 73 29 28 30 72 31 29 32 30 33
REMARK SMILES IDX 31 34 66 35 32 36 71 37 65 38 67 39 33 40 70 41 64 42 63 43
REMARK SMILES IDX 34 45 56 46 41 47 55 48 42 49 45 50 54 51 68 52 43 53 44 54
REMARK SMILES IDX 53 56 69 57 46 58 35 59 36 60 40 61 37 62 39 63 38 64 57 65
REMARK SMILES IDX 58 66 62 67 59 68 61 69 60 70 47 71 48 72 52 73 49 74 51 75
REMARK SMILES IDX 50 76
REMARK H PARENT 67 44 45 55
REMARK Flexibility Score: inf
ROOT
ATOM      1  C   UNL A   1      38.125  21.969  25.914  1.00  0.00     0.202 C 
ENDROOT
BRANCH   1   2
ATOM      2  O   UNL A   1      37.003  21.740  25.067  1.00  0.00    -0.374 OA
BRANCH   2   3
ATOM      3  C   UNL A   1      35.736  21.444  25.658  1.00  0.00     0.202 C 
BRANCH   3   4
ATOM      4  C   UNL A   1      34.549  21.342  24.704  1.00  0.00     0.261 C 
BRANCH   4   5
ATOM      5  O   UNL A   1      34.225  22.655  24.237  1.00  0.00    -0.460 OA
BRANCH   5   6
ATOM      6  C   UNL A   1      32.947  23.046  24.365  1.00  0.00     0.340 C 
ATOM      7  O   UNL A   1      31.967  22.313  24.440  1.00  0.00    -0.246 OA
BRANCH   6   8
ATOM      8  C   UNL A   1      32.853  24.508  24.520  1.00  0.00     0.093 A 
ATOM      9  C   UNL A   1      32.767  24.070  21.092  1.00  0.00     0.069 C 
ATOM     10  C   UNL A   1      33.199  25.187  21.975  1.00  0.00     0.070 A 
ATOM     11  N   UNL A   1      33.559  26.343  21.397  1.00  0.00    -0.176 NA
ATOM     12  C   UNL A   1      33.142  25.306  23.398  1.00  0.00     0.058 A 
ATOM     13  N   UNL A   1      33.706  27.194  22.430  1.00  0.00    -0.250 N 
ATOM     14  C   UNL A   1      33.371  26.649  23.640  1.00  0.00     0.159 A 
ATOM     15  C   UNL A   1      34.109  28.555  22.178  1.00  0.00     0.176 C 
ATOM     16  N   UNL A   1      33.280  27.286  24.820  1.00  0.00    -0.231 NA
ATOM     17  C   UNL A   1      32.557  25.157  25.736  1.00  0.00     0.078 A 
ATOM     18  C   UNL A   1      32.805  26.541  25.864  1.00  0.00     0.065 A 
ATOM     19  Cl  UNL A   1      31.797  24.274  27.019  1.00  0.00    -0.081 Cl
BRANCH  18  20
ATOM     20  C   UNL A   1      32.558  27.383  27.121  1.00  0.00     0.040 C 
ATOM     21  C   UNL A   1      32.245  28.855  27.238  1.00  0.00     0.011 C 
ATOM     22  C   UNL A   1      31.143  27.858  27.393  1.00  0.00     0.011 C 
ENDBRANCH  18  20
ENDBRANCH   6   8
ENDBRANCH   5   6
ENDBRANCH   4   5
ENDBRANCH   3   4
ENDBRANCH   2   3
ENDBRANCH   1   2
BRANCH   1  23
ATOM     23  C   UNL A   1      39.399  21.120  25.763  1.00  0.00     0.261 C 
BRANCH  23  24
ATOM     24  O   UNL A   1      40.631  21.776  26.060  1.00  0.00    -0.460 OA
BRANCH  24  25
ATOM     25  C   UNL A   1      40.940  21.671  27.372  1.00  0.00     0.338 C 
ATOM     26  O   UNL A   1      40.850  20.682  28.081  1.00  0.00    -0.246 OA
BRANCH  25  27
ATOM     27  C   UNL A   1      41.430  22.938  27.908  1.00  0.00     0.060 A 
ATOM     28  C   UNL A   1      40.513  23.983  28.049  1.00  0.00     0.016 A 
ATOM     29  C   UNL A   1      42.804  23.161  27.957  1.00  0.00     0.016 A 
ATOM     30  C   UNL A   1      40.978  25.288  28.148  1.00  0.00     0.010 A 
ATOM     31  C   UNL A   1      43.263  24.471  28.032  1.00  0.00     0.010 A 
ATOM     32  C   UNL A   1      42.354  25.545  28.093  1.00  0.00    -0.014 A 
BRANCH  32  33
ATOM     33  C   UNL A   1      42.799  26.955  28.159  1.00  0.00     0.031 A 
ATOM     34  C   UNL A   1      41.695  27.939  27.942  1.00  0.00     0.074 A 
ATOM     35  C   UNL A   1      43.864  27.322  28.911  1.00  0.00     0.049 A 
ATOM     36  N   UNL A   1      40.836  28.226  28.877  1.00  0.00    -0.248 NA
ATOM     37  C   UNL A   1      41.293  28.396  26.614  1.00  0.00     0.031 C 
ATOM     38  C   UNL A   1      44.260  26.631  30.149  1.00  0.00     0.029 A 
ATOM     39  N   UNL A   1      44.650  28.455  28.898  1.00  0.00    -0.354 N 
ATOM     40  C   UNL A   1      39.756  28.844  28.274  1.00  0.00     0.074 A 
ATOM     41  C   UNL A   1      40.094  28.949  26.871  1.00  0.00     0.031 C 
ATOM     42  C   UNL A   1      45.063  27.446  30.863  1.00  0.00     0.029 A 
ATOM     43  C   UNL A   1      45.357  28.649  30.086  1.00  0.00     0.049 A 
ATOM     44  H   UNL A   1      44.707  29.066  28.128  1.00  0.00     0.167 HD
ATOM     45  C   UNL A   1      38.650  29.217  28.970  1.00  0.00     0.031 A 
ATOM     46  C   UNL A   1      45.623  29.868  30.638  1.00  0.00     0.031 A 
ATOM     47  C   UNL A   1      38.671  28.916  30.372  1.00  0.00     0.049 A 
ATOM     48  C   UNL A   1      44.255  30.257  31.145  1.00  0.00     0.074 A 
ATOM     49  C   UNL A   1      38.140  27.983  31.237  1.00  0.00     0.029 A 
ATOM     50  N   UNL A   1      39.434  29.724  31.177  1.00  0.00    -0.354 N 
ATOM     51  N   UNL A   1      43.664  29.810  32.220  1.00  0.00    -0.248 NA
ATOM     52  C   UNL A   1      43.367  30.914  30.184  1.00  0.00     0.031 C 
ATOM     53  C   UNL A   1      38.991  28.007  32.390  1.00  0.00     0.029 A 
ATOM     54  C   UNL A   1      40.004  28.929  32.135  1.00  0.00     0.049 A 
ATOM     55  H   UNL A   1      39.550  30.698  31.084  1.00  0.00     0.167 HD
ATOM     56  C   UNL A   1      42.298  29.848  31.933  1.00  0.00     0.074 A 
ATOM     57  C   UNL A   1      42.187  30.554  30.671  1.00  0.00     0.031 C 
ATOM     58  C   UNL A   1      41.349  29.147  32.624  1.00  0.00     0.031 A 
BRANCH  45  59
ATOM     59  C   UNL A   1      37.578  30.085  28.439  1.00  0.00    -0.014 A 
ATOM     60  C   UNL A   1      37.653  31.450  28.768  1.00  0.00     0.009 A 
ATOM     61  C   UNL A   1      36.420  29.594  27.832  1.00  0.00     0.009 A 
ATOM     62  C   UNL A   1      36.576  32.301  28.546  1.00  0.00     0.001 A 
ATOM     63  C   UNL A   1      35.343  30.457  27.592  1.00  0.00     0.001 A 
ATOM     64  C   UNL A   1      35.416  31.803  27.964  1.00  0.00     0.000 A 
ENDBRANCH  45  59
BRANCH  46  65
ATOM     65  C   UNL A   1      46.476  30.806  29.835  1.00  0.00    -0.014 A 
ATOM     66  C   UNL A   1      47.007  31.939  30.483  1.00  0.00     0.009 A 
ATOM     67  C   UNL A   1      46.773  30.656  28.470  1.00  0.00     0.009 A 
ATOM     68  C   UNL A   1      47.891  32.807  29.834  1.00  0.00     0.001 A 
ATOM     69  C   UNL A   1      47.684  31.505  27.827  1.00  0.00     0.001 A 
ATOM     70  C   UNL A   1      48.257  32.569  28.514  1.00  0.00     0.000 A 
ENDBRANCH  46  65
BRANCH  58  71
ATOM     71  C   UNL A   1      41.806  28.399  33.834  1.00  0.00    -0.014 A 
ATOM     72  C   UNL A   1      41.521  28.885  35.115  1.00  0.00     0.009 A 
ATOM     73  C   UNL A   1      42.450  27.156  33.709  1.00  0.00     0.009 A 
ATOM     74  C   UNL A   1      41.833  28.127  36.245  1.00  0.00     0.001 A 
ATOM     75  C   UNL A   1      42.744  26.389  34.838  1.00  0.00     0.001 A 
ATOM     76  C   UNL A   1      42.427  26.874  36.105  1.00  0.00     0.000 A 
ENDBRANCH  58  71
ENDBRANCH  32  33
ENDBRANCH  25  27
ENDBRANCH  24  25
ENDBRANCH  23  24
ENDBRANCH   1  23
TORSDOF 15
ENDMDL
MODEL 2
REMARK VINA RESULT:     -10.3      9.463     13.665
REMARK SMILES Cc1nn(C)c2nc(C3CC3)c(Cl)c(C(=O)OCCOCCOC(=O)c3ccc(-c4c5nc(c(-c6ccccc6)c6ccc([nH]6)c(-c6ccccc6)c6nc(c(-c7ccccc7)c7ccc4[nH]7)C=C6)C=C5)cc3)c12
REMARK SMILES IDX 21 1 20 2 19 3 18 4 17 5 15 6 16 7 14 8 1 9 2 10 3 11 74 12
REMARK SMILES IDX 4 13 6 14 5 15 7 16 12 17 8 18 13 19 9 20 10 21 11 22 22 23
REMARK SMILES IDX 23 24 24 25 25 26 26 27 27 28 73 29 28 30 72 31 29 32 30 33
REMARK SMILES IDX 31 34 66 35 32 36 71 37 65 38 67 39 33 40 70 41 64 42 63 43
REMARK SMILES IDX 34 45 56 46 41 47 55 48 42 49 45 50 54 51 68 52 43 53 44 54
REMARK SMILES IDX 53 56 69 57 46 58 35 59 36 60 40 61 37 62 39 63 38 64 57 65
REMARK SMILES IDX 58 66 62 67 59 68 61 69 60 70 47 71 48 72 52 73 49 74 51 75
REMARK SMILES IDX 50 76
REMARK H PARENT 67 44 45 55
REMARK Flexibility Score: inf
ROOT
ATOM      1  C   UNL A   1      41.616  40.162  27.098  1.00  0.00     0.202 C 
ENDROOT
BRANCH   1   2
ATOM      2  O   UNL A   1      40.999  41.014  26.137  1.00  0.00    -0.374 OA
BRANCH   2   3
ATOM      3  C   UNL A   1      41.704  41.327  24.935  1.00  0.00     0.202 C 
BRANCH   3   4
ATOM      4  C   UNL A   1      43.127  41.855  25.100  1.00  0.00     0.261 C 
BRANCH   4   5
ATOM      5  O   UNL A   1      43.685  42.075  23.801  1.00  0.00    -0.460 OA
BRANCH   5   6
ATOM      6  C   UNL A   1      43.827  43.352  23.410  1.00  0.00     0.340 C 
ATOM      7  O   UNL A   1      43.890  44.333  24.141  1.00  0.00    -0.246 OA
BRANCH   6   8
ATOM      8  C   UNL A   1      44.015  43.440  21.951  1.00  0.00     0.093 A 
ATOM      9  C   UNL A   1      47.193  42.736  23.113  1.00  0.00     0.069 C 
ATOM     10  C   UNL A   1      46.671  43.425  21.902  1.00  0.00     0.070 A 
ATOM     11  N   UNL A   1      47.551  43.803  20.964  1.00  0.00    -0.176 NA
ATOM     12  C   UNL A   1      45.323  43.620  21.467  1.00  0.00     0.058 A 
ATOM     13  N   UNL A   1      46.782  44.210  19.936  1.00  0.00    -0.250 N 
ATOM     14  C   UNL A   1      45.443  44.027  20.150  1.00  0.00     0.159 A 
ATOM     15  C   UNL A   1      47.405  44.707  18.735  1.00  0.00     0.176 C 
ATOM     16  N   UNL A   1      44.448  44.203  19.263  1.00  0.00    -0.231 NA
ATOM     17  C   UNL A   1      42.959  43.423  21.016  1.00  0.00     0.078 A 
ATOM     18  C   UNL A   1      43.200  43.833  19.687  1.00  0.00     0.065 A 
ATOM     19  Cl  UNL A   1      41.410  42.799  21.480  1.00  0.00    -0.081 Cl
BRANCH  18  20
ATOM     20  C   UNL A   1      42.159  43.890  18.564  1.00  0.00     0.040 C 
ATOM     21  C   UNL A   1      40.684  44.198  18.644  1.00  0.00     0.011 C 
ATOM     22  C   UNL A   1      41.625  45.250  18.155  1.00  0.00     0.011 C 
ENDBRANCH  18  20
ENDBRANCH   6   8
ENDBRANCH   5   6
ENDBRANCH   4   5
ENDBRANCH   3   4
ENDBRANCH   2   3
ENDBRANCH   1   2
BRANCH   1  23
ATOM     23  C   UNL A   1      41.744  38.653  26.830  1.00  0.00     0.261 C 
BRANCH  23  24
ATOM     24  O   UNL A   1      41.943  37.825  27.975  1.00  0.00    -0.460 OA
BRANCH  24  25
ATOM     25  C   UNL A   1      42.923  36.917  27.762  1.00  0.00     0.338 C 
ATOM     26  O   UNL A   1      43.937  37.060  27.099  1.00  0.00    -0.246 OA
BRANCH  25  27
ATOM     27  C   UNL A   1      42.643  35.658  28.446  1.00  0.00     0.060 A 
ATOM     28  C   UNL A   1      41.305  35.328  28.680  1.00  0.00     0.016 A 
ATOM     29  C   UNL A   1      43.681  35.006  29.106  1.00  0.00     0.016 A 
ATOM     30  C   UNL A   1      40.995  34.393  29.659  1.00  0.00     0.010 A 
ATOM     31  C   UNL A   1      43.364  34.089  30.101  1.00  0.00     0.010 A 
ATOM     32  C   UNL A   1      42.020  33.802  30.408  1.00  0.00    -0.014 A 
BRANCH  32  33
ATOM     33  C   UNL A   1      41.639  32.844  31.470  1.00  0.00     0.031 A 
ATOM     34  C   UNL A   1      40.216  32.974  31.906  1.00  0.00     0.074 A 
ATOM     35  C   UNL A   1      42.250  31.641  31.585  1.00  0.00     0.049 A 
ATOM     36  N   UNL A   1      39.232  32.495  31.200  1.00  0.00    -0.248 NA
ATOM     37  C   UNL A   1      39.790  33.905  32.950  1.00  0.00     0.031 C 
ATOM     38  C   UNL A   1      42.805  30.900  30.440  1.00  0.00     0.029 A 
ATOM     39  N   UNL A   1      42.311  30.739  32.625  1.00  0.00    -0.354 N 
ATOM     40  C   UNL A   1      38.069  33.091  31.649  1.00  0.00     0.074 A 
ATOM     41  C   UNL A   1      38.460  33.941  32.753  1.00  0.00     0.031 C 
ATOM     42  C   UNL A   1      42.964  29.608  30.796  1.00  0.00     0.029 A 
ATOM     43  C   UNL A   1      42.663  29.450  32.217  1.00  0.00     0.049 A 
ATOM     44  H   UNL A   1      42.125  30.978  33.562  1.00  0.00     0.167 HD
ATOM     45  C   UNL A   1      36.860  32.852  31.074  1.00  0.00     0.031 A 
ATOM     46  C   UNL A   1      42.175  28.303  32.772  1.00  0.00     0.031 A 
ATOM     47  C   UNL A   1      36.874  31.949  29.961  1.00  0.00     0.049 A 
ATOM     48  C   UNL A   1      40.761  28.308  32.242  1.00  0.00     0.074 A 
ATOM     49  C   UNL A   1      36.822  32.005  28.584  1.00  0.00     0.029 A 
ATOM     50  N   UNL A   1      36.992  30.610  30.238  1.00  0.00    -0.354 N 
ATOM     51  N   UNL A   1      40.376  27.985  31.037  1.00  0.00    -0.248 NA
ATOM     52  C   UNL A   1      39.779  29.069  33.017  1.00  0.00     0.031 C 
ATOM     53  C   UNL A   1      37.389  30.769  28.132  1.00  0.00     0.029 A 
ATOM     54  C   UNL A   1      37.780  30.057  29.264  1.00  0.00     0.049 A 
ATOM     55  H   UNL A   1      36.584  30.134  30.997  1.00  0.00     0.167 HD
ATOM     56  C   UNL A   1      39.243  28.762  30.791  1.00  0.00     0.074 A 
ATOM     57  C   UNL A   1      38.922  29.391  32.058  1.00  0.00     0.031 C 
ATOM     58  C   UNL A   1      38.737  29.007  29.545  1.00  0.00     0.031 A 
BRANCH  45  59
ATOM     59  C   UNL A   1      35.562  33.262  31.649  1.00  0.00    -0.014 A 
ATOM     60  C   UNL A   1      34.828  34.218  30.926  1.00  0.00     0.009 A 
ATOM     61  C   UNL A   1      35.149  32.918  32.938  1.00  0.00     0.009 A 
ATOM     62  C   UNL A   1      33.734  34.862  31.494  1.00  0.00     0.001 A 
ATOM     63  C   UNL A   1      34.035  33.554  33.502  1.00  0.00     0.001 A 
ATOM     64  C   UNL A   1      33.341  34.535  32.787  1.00  0.00     0.000 A 
ENDBRANCH  45  59
BRANCH  46  65
ATOM     65  C   UNL A   1      42.489  28.061  34.219  1.00  0.00    -0.014 A 
ATOM     66  C   UNL A   1      41.916  26.935  34.842  1.00  0.00     0.009 A 
ATOM     67  C   UNL A   1      43.296  28.888  35.017  1.00  0.00     0.009 A 
ATOM     68  C   UNL A   1      42.235  26.583  36.158  1.00  0.00     0.001 A 
ATOM     69  C   UNL A   1      43.645  28.520  36.324  1.00  0.00     0.001 A 
ATOM     70  C   UNL A   1      43.129  27.358  36.888  1.00  0.00     0.000 A 
ENDBRANCH  46  65
BRANCH  58  71
ATOM     71  C   UNL A   1      39.376  28.290  28.401  1.00  0.00    -0.014 A 
ATOM     72  C   UNL A   1      40.228  28.974  27.525  1.00  0.00     0.009 A 
ATOM     73  C   UNL A   1      39.207  26.904  28.237  1.00  0.00     0.009 A 
ATOM     74  C   UNL A   1      40.927  28.282  26.534  1.00  0.00     0.001 A 
ATOM     75  C   UNL A   1      39.921  26.210  27.258  1.00  0.00     0.001 A 
ATOM     76  C   UNL A   1      40.786  26.900  26.413  1.00  0.00     0.000 A 
ENDBRANCH  58  71
ENDBRANCH  32  33
ENDBRANCH  25  27
ENDBRANCH  24  25
ENDBRANCH  23  24
ENDBRANCH   1  23
TORSDOF 15
ENDMDL
MODEL 3
REMARK VINA RESULT:     -10.2      3.005      7.150
REMARK SMILES Cc1nn(C)c2nc(C3CC3)c(Cl)c(C(=O)OCCOCCOC(=O)c3ccc(-c4c5nc(c(-c6ccccc6)c6ccc([nH]6)c(-c6ccccc6)c6nc(c(-c7ccccc7)c7ccc4[nH]7)C=C6)C=C5)cc3)c12
REMARK SMILES IDX 21 1 20 2 19 3 18 4 17 5 15 6 16 7 14 8 1 9 2 10 3 11 74 12
REMARK SMILES IDX 4 13 6 14 5 15 7 16 12 17 8 18 13 19 9 20 10 21 11 22 22 23
REMARK SMILES IDX 23 24 24 25 25 26 26 27 27 28 73 29 28 30 72 31 29 32 30 33
REMARK SMILES IDX 31 34 66 35 32 36 71 37 65 38 67 39 33 40 70 41 64 42 63 43
REMARK SMILES IDX 34 45 56 46 41 47 55 48 42 49 45 50 54 51 68 52 43 53 44 54
REMARK SMILES IDX 53 56 69 57 46 58 35 59 36 60 40 61 37 62 39 63 38 64 57 65
REMARK SMILES IDX 58 66 62 67 59 68 61 69 60 70 47 71 48 72 52 73 49 74 51 75
REMARK SMILES IDX 50 76
REMARK H PARENT 67 44 45 55
REMARK Flexibility Score: inf
ROOT
ATOM      1  C   UNL A   1      32.664  30.773  27.125  1.00  0.00     0.202 C 
ENDROOT
BRANCH   1   2
ATOM      2  O   UNL A   1      32.351  29.695  26.247  1.00  0.00    -0.374 OA
BRANCH   2   3
ATOM      3  C   UNL A   1      33.203  28.548  26.226  1.00  0.00     0.202 C 
BRANCH   3   4
ATOM      4  C   UNL A   1      33.662  28.069  24.852  1.00  0.00     0.261 C 
BRANCH   4   5
ATOM      5  O   UNL A   1      33.907  26.661  24.918  1.00  0.00    -0.460 OA
BRANCH   5   6
ATOM      6  C   UNL A   1      33.486  25.922  23.878  1.00  0.00     0.340 C 
ATOM      7  O   UNL A   1      33.629  26.192  22.691  1.00  0.00    -0.246 OA
BRANCH   6   8
ATOM      8  C   UNL A   1      32.905  24.647  24.335  1.00  0.00     0.093 A 
ATOM      9  C   UNL A   1      30.262  26.861  24.601  1.00  0.00     0.069 C 
ATOM     10  C   UNL A   1      30.614  25.591  25.293  1.00  0.00     0.070 A 
ATOM     11  N   UNL A   1      29.723  25.076  26.153  1.00  0.00    -0.176 NA
ATOM     12  C   UNL A   1      31.709  24.700  25.073  1.00  0.00     0.058 A 
ATOM     13  N   UNL A   1      30.226  23.865  26.461  1.00  0.00    -0.250 N 
ATOM     14  C   UNL A   1      31.361  23.552  25.764  1.00  0.00     0.159 A 
ATOM     15  C   UNL A   1      29.522  23.018  27.391  1.00  0.00     0.176 C 
ATOM     16  N   UNL A   1      32.006  22.372  25.751  1.00  0.00    -0.231 NA
ATOM     17  C   UNL A   1      33.505  23.388  24.134  1.00  0.00     0.078 A 
ATOM     18  C   UNL A   1      33.052  22.275  24.874  1.00  0.00     0.065 A 
ATOM     19  Cl  UNL A   1      34.716  23.198  22.908  1.00  0.00    -0.081 Cl
BRANCH  18  20
ATOM     20  C   UNL A   1      33.612  20.851  24.786  1.00  0.00     0.040 C 
ATOM     21  C   UNL A   1      33.129  19.591  25.462  1.00  0.00     0.011 C 
ATOM     22  C   UNL A   1      32.810  19.816  24.020  1.00  0.00     0.011 C 
ENDBRANCH  18  20
ENDBRANCH   6   8
ENDBRANCH   5   6
ENDBRANCH   4   5
ENDBRANCH   3   4
ENDBRANCH   2   3
ENDBRANCH   1   2
BRANCH   1  23
ATOM     23  C   UNL A   1      34.074  30.902  27.725  1.00  0.00     0.261 C 
BRANCH  23  24
ATOM     24  O   UNL A   1      34.250  31.926  28.702  1.00  0.00    -0.460 OA
BRANCH  24  25
ATOM     25  C   UNL A   1      35.252  32.767  28.358  1.00  0.00     0.338 C 
ATOM     26  O   UNL A   1      35.200  33.707  27.580  1.00  0.00    -0.246 OA
BRANCH  25  27
ATOM     27  C   UNL A   1      36.494  32.431  29.049  1.00  0.00     0.060 A 
ATOM     28  C   UNL A   1      37.426  31.644  28.367  1.00  0.00     0.016 A 
ATOM     29  C   UNL A   1      36.570  32.625  30.426  1.00  0.00     0.016 A 
ATOM     30  C   UNL A   1      38.397  30.962  29.087  1.00  0.00     0.010 A 
ATOM     31  C   UNL A   1      37.530  31.921  31.144  1.00  0.00     0.010 A 
ATOM     32  C   UNL A   1      38.427  31.059  30.484  1.00  0.00    -0.014 A 
BRANCH  32  33
ATOM     33  C   UNL A   1      39.454  30.279  31.211  1.00  0.00     0.031 A 
ATOM     34  C   UNL A   1      39.566  28.863  30.748  1.00  0.00     0.074 A 
ATOM     35  C   UNL A   1      40.543  30.879  31.748  1.00  0.00     0.049 A 
ATOM     36  N   UNL A   1      40.187  28.546  29.647  1.00  0.00    -0.248 NA
ATOM     37  C   UNL A   1      38.738  27.786  31.286  1.00  0.00     0.031 C 
ATOM     38  C   UNL A   1      41.162  32.091  31.186  1.00  0.00     0.029 A 
ATOM     39  N   UNL A   1      41.443  30.461  32.705  1.00  0.00    -0.354 N 
ATOM     40  C   UNL A   1      39.797  27.264  29.306  1.00  0.00     0.074 A 
ATOM     41  C   UNL A   1      38.915  26.823  30.365  1.00  0.00     0.031 C 
ATOM     42  C   UNL A   1      42.417  32.201  31.669  1.00  0.00     0.029 A 
ATOM     43  C   UNL A   1      42.649  31.165  32.673  1.00  0.00     0.049 A 
ATOM     44  H   UNL A   1      41.255  29.738  33.347  1.00  0.00     0.167 HD
ATOM     45  C   UNL A   1      40.220  26.656  28.165  1.00  0.00     0.031 A 
ATOM     46  C   UNL A   1      43.870  30.619  32.940  1.00  0.00     0.031 A 
ATOM     47  C   UNL A   1      41.088  27.437  27.333  1.00  0.00     0.049 A 
ATOM     48  C   UNL A   1      44.087  29.783  31.701  1.00  0.00     0.074 A 
ATOM     49  C   UNL A   1      41.015  28.178  26.172  1.00  0.00     0.029 A 
ATOM     50  N   UNL A   1      42.394  27.566  27.733  1.00  0.00    -0.354 N 
ATOM     51  N   UNL A   1      44.445  30.212  30.522  1.00  0.00    -0.248 NA
ATOM     52  C   UNL A   1      43.510  28.437  31.716  1.00  0.00     0.031 C 
ATOM     53  C   UNL A   1      42.133  29.073  26.224  1.00  0.00     0.029 A 
ATOM     54  C   UNL A   1      42.792  28.840  27.429  1.00  0.00     0.049 A 
ATOM     55  H   UNL A   1      42.945  26.870  28.160  1.00  0.00     0.167 HD
ATOM     56  C   UNL A   1      43.860  29.328  29.613  1.00  0.00     0.074 A 
ATOM     57  C   UNL A   1      43.315  28.252  30.417  1.00  0.00     0.031 C 
ATOM     58  C   UNL A   1      43.677  29.601  28.286  1.00  0.00     0.031 A 
BRANCH  45  59
ATOM     59  C   UNL A   1      40.038  25.220  27.864  1.00  0.00    -0.014 A 
ATOM     60  C   UNL A   1      41.097  24.365  28.215  1.00  0.00     0.009 A 
ATOM     61  C   UNL A   1      38.994  24.726  27.078  1.00  0.00     0.009 A 
ATOM     62  C   UNL A   1      41.145  23.055  27.749  1.00  0.00     0.001 A 
ATOM     63  C   UNL A   1      39.035  23.401  26.625  1.00  0.00     0.001 A 
ATOM     64  C   UNL A   1      40.116  22.574  26.947  1.00  0.00     0.000 A 
ENDBRANCH  45  59
BRANCH  46  65
ATOM     65  C   UNL A   1      44.085  30.075  34.322  1.00  0.00    -0.014 A 
ATOM     66  C   UNL A   1      43.254  30.547  35.357  1.00  0.00     0.009 A 
ATOM     67  C   UNL A   1      45.073  29.141  34.675  1.00  0.00     0.009 A 
ATOM     68  C   UNL A   1      43.322  30.020  36.651  1.00  0.00     0.001 A 
ATOM     69  C   UNL A   1      45.121  28.586  35.961  1.00  0.00     0.001 A 
ATOM     70  C   UNL A   1      44.234  29.012  36.944  1.00  0.00     0.000 A 
ENDBRANCH  46  65
BRANCH  58  71
ATOM     71  C   UNL A   1      44.259  30.877  27.771  1.00  0.00    -0.014 A 
ATOM     72  C   UNL A   1      43.698  32.107  28.134  1.00  0.00     0.009 A 
ATOM     73  C   UNL A   1      45.427  30.870  26.989  1.00  0.00     0.009 A 
ATOM     74  C   UNL A   1      44.313  33.303  27.761  1.00  0.00     0.001 A 
ATOM     75  C   UNL A   1      46.053  32.066  26.632  1.00  0.00     0.001 A 
ATOM     76  C   UNL A   1      45.498  33.282  27.026  1.00  0.00     0.000 A 
ENDBRANCH  58  71
ENDBRANCH  32  33
ENDBRANCH  25  27
ENDBRANCH  24  25
ENDBRANCH  23  24
ENDBRANCH   1  23
TORSDOF 15
ENDMDL
