MODEL 1
REMARK VINA RESULT:      -9.8      0.000      0.000
REMARK SMILES O=C(OCCOCCOC(=O)[C@H]1CC[C@H](CNC(=O)c2ccccc2O)O1)c1ccc(-c2c3nc(c(-c4ccccc4)c4ccc([nH]4)c(-c4ccccc4)c4nc(c(-c5ccccc5)c5ccc2[nH]5)C=C4)C=C3)cc1
REMARK SMILES IDX 7 1 6 2 5 3 4 4 3 5 2 6 1 7 28 8 29 9 75 10 30 11 74 12
REMARK SMILES IDX 31 13 32 14 33 15 68 16 34 17 73 18 67 19 69 20 35 21 72 22
REMARK SMILES IDX 66 23 65 24 36 26 58 27 43 28 57 29 44 30 47 31 56 32 70 33
REMARK SMILES IDX 45 34 46 35 55 37 71 38 48 39 37 40 38 41 42 42 39 43 41 44
REMARK SMILES IDX 40 45 59 46 60 47 64 48 61 49 63 50 62 51 49 52 50 53 54 54
REMARK SMILES IDX 51 55 53 56 52 57 8 58 9 59 10 60 11 61 12 62 13 63 27 64
REMARK SMILES IDX 14 65 15 66 16 67 17 68 18 69 19 71 20 72 21 73 25 74 22 75
REMARK SMILES IDX 24 76 23 77 26 78
REMARK H PARENT 69 25 47 36 17 70 26 79
REMARK Flexibility Score: inf
ROOT
ATOM      1  C   UNL A   1      34.609  33.135  29.206  1.00  0.00     0.202 C 
ENDROOT
BRANCH   1   2
ATOM      2  O   UNL A   1      33.555  33.980  28.716  1.00  0.00    -0.374 OA
BRANCH   2   3
ATOM      3  C   UNL A   1      33.726  35.392  28.851  1.00  0.00     0.202 C 
BRANCH   3   4
ATOM      4  C   UNL A   1      32.528  36.173  29.397  1.00  0.00     0.261 C 
BRANCH   4   5
ATOM      5  O   UNL A   1      32.744  36.506  30.773  1.00  0.00    -0.460 OA
BRANCH   5   6
ATOM      6  C   UNL A   1      32.795  35.668  31.830  1.00  0.00     0.338 C 
ATOM      7  O   UNL A   1      31.770  35.483  32.484  1.00  0.00    -0.246 OA
BRANCH   6   8
ATOM      8  C   UNL A   1      34.030  34.939  32.250  1.00  0.00     0.060 A 
ATOM      9  C   UNL A   1      35.336  35.436  32.172  1.00  0.00     0.016 A 
ATOM     10  C   UNL A   1      33.832  33.697  32.872  1.00  0.00     0.016 A 
ATOM     11  C   UNL A   1      36.416  34.735  32.671  1.00  0.00     0.010 A 
ATOM     12  C   UNL A   1      34.911  32.978  33.380  1.00  0.00     0.010 A 
ATOM     13  C   UNL A   1      36.202  33.501  33.265  1.00  0.00    -0.014 A 
BRANCH  13  14
ATOM     14  C   UNL A   1      37.378  32.703  33.603  1.00  0.00     0.031 A 
ATOM     15  C   UNL A   1      37.995  32.929  34.941  1.00  0.00     0.074 A 
ATOM     16  C   UNL A   1      37.799  31.750  32.759  1.00  0.00     0.049 A 
ATOM     17  N   UNL A   1      39.106  32.457  35.427  1.00  0.00    -0.248 NA
ATOM     18  C   UNL A   1      37.249  33.808  35.859  1.00  0.00     0.031 C 
ATOM     19  C   UNL A   1      37.135  31.376  31.507  1.00  0.00     0.029 A 
ATOM     20  N   UNL A   1      38.880  30.920  32.832  1.00  0.00    -0.354 N 
ATOM     21  C   UNL A   1      39.219  33.021  36.690  1.00  0.00     0.074 A 
ATOM     22  C   UNL A   1      38.062  33.858  36.900  1.00  0.00     0.031 C 
ATOM     23  C   UNL A   1      37.843  30.400  30.916  1.00  0.00     0.029 A 
ATOM     24  C   UNL A   1      39.037  30.143  31.712  1.00  0.00     0.049 A 
ATOM     25  H   UNL A   1      39.486  30.885  33.607  1.00  0.00     0.167 HD
ATOM     26  C   UNL A   1      40.228  32.865  37.574  1.00  0.00     0.031 A 
ATOM     27  C   UNL A   1      40.073  29.363  31.357  1.00  0.00     0.031 A 
ATOM     28  C   UNL A   1      41.376  32.049  37.295  1.00  0.00     0.049 A 
ATOM     29  C   UNL A   1      41.239  29.285  32.303  1.00  0.00     0.074 A 
ATOM     30  C   UNL A   1      42.504  31.843  38.063  1.00  0.00     0.029 A 
ATOM     31  N   UNL A   1      41.534  31.307  36.128  1.00  0.00    -0.354 N 
ATOM     32  N   UNL A   1      41.389  29.867  33.472  1.00  0.00    -0.248 NA
ATOM     33  C   UNL A   1      42.377  28.459  31.889  1.00  0.00     0.031 C 
ATOM     34  C   UNL A   1      43.370  31.021  37.332  1.00  0.00     0.029 A 
ATOM     35  C   UNL A   1      42.751  30.659  36.142  1.00  0.00     0.049 A 
ATOM     36  H   UNL A   1      40.873  31.252  35.401  1.00  0.00     0.167 HD
ATOM     37  C   UNL A   1      42.628  29.463  33.946  1.00  0.00     0.074 A 
ATOM     38  C   UNL A   1      43.184  28.580  32.936  1.00  0.00     0.031 C 
ATOM     39  C   UNL A   1      43.250  29.784  35.108  1.00  0.00     0.031 A 
BRANCH  26  40
ATOM     40  C   UNL A   1      40.160  33.693  38.825  1.00  0.00    -0.014 A 
ATOM     41  C   UNL A   1      39.533  33.227  39.993  1.00  0.00     0.009 A 
ATOM     42  C   UNL A   1      40.656  35.006  38.802  1.00  0.00     0.009 A 
ATOM     43  C   UNL A   1      39.350  34.081  41.086  1.00  0.00     0.001 A 
ATOM     44  C   UNL A   1      40.502  35.845  39.906  1.00  0.00     0.001 A 
ATOM     45  C   UNL A   1      39.832  35.389  41.039  1.00  0.00     0.000 A 
ENDBRANCH  26  40
BRANCH  27  46
ATOM     46  C   UNL A   1      40.063  28.680  30.038  1.00  0.00    -0.014 A 
ATOM     47  C   UNL A   1      39.549  27.384  29.896  1.00  0.00     0.009 A 
ATOM     48  C   UNL A   1      40.519  29.355  28.891  1.00  0.00     0.009 A 
ATOM     49  C   UNL A   1      39.498  26.776  28.637  1.00  0.00     0.001 A 
ATOM     50  C   UNL A   1      40.440  28.757  27.631  1.00  0.00     0.001 A 
ATOM     51  C   UNL A   1      39.935  27.466  27.507  1.00  0.00     0.000 A 
ENDBRANCH  27  46
BRANCH  39  52
ATOM     52  C   UNL A   1      44.577  29.135  35.370  1.00  0.00    -0.014 A 
ATOM     53  C   UNL A   1      45.777  29.750  34.987  1.00  0.00     0.009 A 
ATOM     54  C   UNL A   1      44.618  27.944  36.112  1.00  0.00     0.009 A 
ATOM     55  C   UNL A   1      46.999  29.173  35.336  1.00  0.00     0.001 A 
ATOM     56  C   UNL A   1      45.841  27.387  36.484  1.00  0.00     0.001 A 
ATOM     57  C   UNL A   1      47.028  28.001  36.092  1.00  0.00     0.000 A 
ENDBRANCH  39  52
ENDBRANCH  13  14
ENDBRANCH   6   8
ENDBRANCH   5   6
ENDBRANCH   4   5
ENDBRANCH   3   4
ENDBRANCH   2   3
ENDBRANCH   1   2
BRANCH   1  58
ATOM     58  C   UNL A   1      35.244  32.378  28.034  1.00  0.00     0.261 C 
BRANCH  58  59
ATOM     59  O   UNL A   1      34.286  31.428  27.568  1.00  0.00    -0.461 OA
BRANCH  59  60
ATOM     60  C   UNL A   1      34.709  30.134  27.673  1.00  0.00     0.335 C 
ATOM     61  O   UNL A   1      35.342  29.683  28.612  1.00  0.00    -0.249 OA
BRANCH  60  62
ATOM     62  C   UNL A   1      34.195  29.300  26.493  1.00  0.00     0.228 C 
ATOM     63  C   UNL A   1      33.318  28.106  26.854  1.00  0.00     0.047 C 
ATOM     64  O   UNL A   1      33.411  30.120  25.632  1.00  0.00    -0.361 OA
ATOM     65  C   UNL A   1      31.948  28.731  26.909  1.00  0.00     0.037 C 
ATOM     66  C   UNL A   1      32.026  29.766  25.797  1.00  0.00     0.138 C 
BRANCH  66  67
ATOM     67  C   UNL A   1      31.536  29.202  24.465  1.00  0.00     0.148 C 
BRANCH  67  68
ATOM     68  N   UNL A   1      32.543  29.336  23.432  1.00  0.00    -0.349 N 
ATOM     69  C   UNL A   1      33.248  28.333  22.816  1.00  0.00     0.255 C 
ATOM     70  H   UNL A   1      32.745  30.253  23.137  1.00  0.00     0.163 HD
ATOM     71  O   UNL A   1      34.231  28.610  22.133  1.00  0.00    -0.269 OA
BRANCH  69  72
ATOM     72  C   UNL A   1      32.881  26.915  23.040  1.00  0.00     0.081 A 
ATOM     73  C   UNL A   1      33.688  26.176  23.913  1.00  0.00     0.018 A 
ATOM     74  C   UNL A   1      31.786  26.300  22.417  1.00  0.00     0.128 A 
ATOM     75  C   UNL A   1      33.375  24.846  24.195  1.00  0.00     0.001 A 
ATOM     76  C   UNL A   1      31.465  24.976  22.714  1.00  0.00     0.047 A 
ATOM     77  C   UNL A   1      32.260  24.252  23.605  1.00  0.00     0.004 A 
BRANCH  74  78
ATOM     78  O   UNL A   1      31.011  26.990  21.525  1.00  0.00    -0.507 OA
ATOM     79  H   UNL A   1      30.088  27.071  21.671  1.00  0.00     0.293 HD
ENDBRANCH  74  78
ENDBRANCH  69  72
ENDBRANCH  67  68
ENDBRANCH  66  67
ENDBRANCH  60  62
ENDBRANCH  59  60
ENDBRANCH  58  59
ENDBRANCH   1  58
TORSDOF 18
ENDMDL
MODEL 2
REMARK VINA RESULT:      -9.7      6.678     12.608
REMARK SMILES O=C(OCCOCCOC(=O)[C@H]1CC[C@H](CNC(=O)c2ccccc2O)O1)c1ccc(-c2c3nc(c(-c4ccccc4)c4ccc([nH]4)c(-c4ccccc4)c4nc(c(-c5ccccc5)c5ccc2[nH]5)C=C4)C=C3)cc1
REMARK SMILES IDX 7 1 6 2 5 3 4 4 3 5 2 6 1 7 28 8 29 9 75 10 30 11 74 12
REMARK SMILES IDX 31 13 32 14 33 15 68 16 34 17 73 18 67 19 69 20 35 21 72 22
REMARK SMILES IDX 66 23 65 24 36 26 58 27 43 28 57 29 44 30 47 31 56 32 70 33
REMARK SMILES IDX 45 34 46 35 55 37 71 38 48 39 37 40 38 41 42 42 39 43 41 44
REMARK SMILES IDX 40 45 59 46 60 47 64 48 61 49 63 50 62 51 49 52 50 53 54 54
REMARK SMILES IDX 51 55 53 56 52 57 8 58 9 59 10 60 11 61 12 62 13 63 27 64
REMARK SMILES IDX 14 65 15 66 16 67 17 68 18 69 19 71 20 72 21 73 25 74 22 75
REMARK SMILES IDX 24 76 23 77 26 78
REMARK H PARENT 69 25 47 36 17 70 26 79
REMARK Flexibility Score: inf
ROOT
ATOM      1  C   UNL A   1      46.170  20.745  24.709  1.00  0.00     0.202 C 
ENDROOT
BRANCH   1   2
ATOM      2  O   UNL A   1      46.515  19.528  25.390  1.00  0.00    -0.374 OA
BRANCH   2   3
ATOM      3  C   UNL A   1      45.539  18.485  25.411  1.00  0.00     0.202 C 
BRANCH   3   4
ATOM      4  C   UNL A   1      44.152  18.839  24.870  1.00  0.00     0.261 C 
BRANCH   4   5
ATOM      5  O   UNL A   1      43.185  18.791  25.926  1.00  0.00    -0.460 OA
BRANCH   5   6
ATOM      6  C   UNL A   1      42.153  19.633  26.141  1.00  0.00     0.338 C 
ATOM      7  O   UNL A   1      41.009  19.225  25.945  1.00  0.00    -0.246 OA
BRANCH   6   8
ATOM      8  C   UNL A   1      42.317  21.041  26.614  1.00  0.00     0.060 A 
ATOM      9  C   UNL A   1      42.467  22.164  25.793  1.00  0.00     0.016 A 
ATOM     10  C   UNL A   1      42.199  21.244  27.997  1.00  0.00     0.016 A 
ATOM     11  C   UNL A   1      42.517  23.444  26.308  1.00  0.00     0.010 A 
ATOM     12  C   UNL A   1      42.248  22.530  28.532  1.00  0.00     0.010 A 
ATOM     13  C   UNL A   1      42.419  23.624  27.679  1.00  0.00    -0.014 A 
BRANCH  13  14
ATOM     14  C   UNL A   1      42.672  24.964  28.203  1.00  0.00     0.031 A 
ATOM     15  C   UNL A   1      44.061  25.271  28.647  1.00  0.00     0.074 A 
ATOM     16  C   UNL A   1      41.694  25.881  28.181  1.00  0.00     0.049 A 
ATOM     17  N   UNL A   1      44.516  26.323  29.265  1.00  0.00    -0.248 NA
ATOM     18  C   UNL A   1      45.080  24.250  28.345  1.00  0.00     0.031 C 
ATOM     19  C   UNL A   1      40.361  25.682  27.609  1.00  0.00     0.029 A 
ATOM     20  N   UNL A   1      41.676  27.164  28.648  1.00  0.00    -0.354 N 
ATOM     21  C   UNL A   1      45.864  26.068  29.471  1.00  0.00     0.074 A 
ATOM     22  C   UNL A   1      46.157  24.774  28.904  1.00  0.00     0.031 C 
ATOM     23  C   UNL A   1      39.643  26.804  27.781  1.00  0.00     0.029 A 
ATOM     24  C   UNL A   1      40.446  27.759  28.536  1.00  0.00     0.049 A 
ATOM     25  H   UNL A   1      42.466  27.615  29.027  1.00  0.00     0.167 HD
ATOM     26  C   UNL A   1      46.761  26.850  30.111  1.00  0.00     0.031 A 
ATOM     27  C   UNL A   1      40.014  28.923  29.053  1.00  0.00     0.031 A 
ATOM     28  C   UNL A   1      46.404  28.114  30.691  1.00  0.00     0.049 A 
ATOM     29  C   UNL A   1      40.994  29.732  29.856  1.00  0.00     0.074 A 
ATOM     30  C   UNL A   1      47.183  28.987  31.422  1.00  0.00     0.029 A 
ATOM     31  N   UNL A   1      45.133  28.674  30.606  1.00  0.00    -0.354 N 
ATOM     32  N   UNL A   1      42.255  29.470  30.117  1.00  0.00    -0.248 NA
ATOM     33  C   UNL A   1      40.502  30.982  30.442  1.00  0.00     0.031 C 
ATOM     34  C   UNL A   1      46.366  30.049  31.827  1.00  0.00     0.029 A 
ATOM     35  C   UNL A   1      45.097  29.871  31.290  1.00  0.00     0.049 A 
ATOM     36  H   UNL A   1      44.371  28.275  30.126  1.00  0.00     0.167 HD
ATOM     37  C   UNL A   1      42.718  30.532  30.879  1.00  0.00     0.074 A 
ATOM     38  C   UNL A   1      41.597  31.444  31.033  1.00  0.00     0.031 C 
ATOM     39  C   UNL A   1      43.952  30.743  31.403  1.00  0.00     0.031 A 
BRANCH  26  40
ATOM     40  C   UNL A   1      48.135  26.277  30.305  1.00  0.00    -0.014 A 
ATOM     41  C   UNL A   1      49.082  26.246  29.268  1.00  0.00     0.009 A 
ATOM     42  C   UNL A   1      48.455  25.672  31.531  1.00  0.00     0.009 A 
ATOM     43  C   UNL A   1      50.292  25.565  29.435  1.00  0.00     0.001 A 
ATOM     44  C   UNL A   1      49.678  25.022  31.707  1.00  0.00     0.001 A 
ATOM     45  C   UNL A   1      50.587  24.953  30.653  1.00  0.00     0.000 A 
ENDBRANCH  26  40
BRANCH  27  46
ATOM     46  C   UNL A   1      38.594  29.324  28.878  1.00  0.00    -0.014 A 
ATOM     47  C   UNL A   1      38.126  29.818  27.653  1.00  0.00     0.009 A 
ATOM     48  C   UNL A   1      37.680  29.157  29.933  1.00  0.00     0.009 A 
ATOM     49  C   UNL A   1      36.774  30.141  27.490  1.00  0.00     0.001 A 
ATOM     50  C   UNL A   1      36.325  29.454  29.759  1.00  0.00     0.001 A 
ATOM     51  C   UNL A   1      35.876  29.951  28.539  1.00  0.00     0.000 A 
ENDBRANCH  27  46
BRANCH  39  52
ATOM     52  C   UNL A   1      44.167  32.029  32.143  1.00  0.00    -0.014 A 
ATOM     53  C   UNL A   1      43.991  32.110  33.531  1.00  0.00     0.009 A 
ATOM     54  C   UNL A   1      44.659  33.143  31.443  1.00  0.00     0.009 A 
ATOM     55  C   UNL A   1      44.298  33.292  34.206  1.00  0.00     0.001 A 
ATOM     56  C   UNL A   1      44.992  34.312  32.126  1.00  0.00     0.001 A 
ATOM     57  C   UNL A   1      44.808  34.385  33.505  1.00  0.00     0.000 A 
ENDBRANCH  39  52
ENDBRANCH  13  14
ENDBRANCH   6   8
ENDBRANCH   5   6
ENDBRANCH   4   5
ENDBRANCH   3   4
ENDBRANCH   2   3
ENDBRANCH   1   2
BRANCH   1  58
ATOM     58  C   UNL A   1      46.033  21.881  25.727  1.00  0.00     0.261 C 
BRANCH  58  59
ATOM     59  O   UNL A   1      46.809  22.981  25.251  1.00  0.00    -0.461 OA
BRANCH  59  60
ATOM     60  C   UNL A   1      46.056  24.001  24.747  1.00  0.00     0.335 C 
ATOM     61  O   UNL A   1      45.227  23.881  23.861  1.00  0.00    -0.249 OA
BRANCH  60  62
ATOM     62  C   UNL A   1      46.325  25.301  25.513  1.00  0.00     0.228 C 
ATOM     63  C   UNL A   1      47.790  25.612  25.801  1.00  0.00     0.047 C 
ATOM     64  O   UNL A   1      45.825  26.408  24.769  1.00  0.00    -0.361 OA
ATOM     65  C   UNL A   1      48.203  26.352  24.555  1.00  0.00     0.037 C 
ATOM     66  C   UNL A   1      46.940  27.129  24.215  1.00  0.00     0.138 C 
BRANCH  66  67
ATOM     67  C   UNL A   1      46.946  28.520  24.844  1.00  0.00     0.148 C 
BRANCH  67  68
ATOM     68  N   UNL A   1      47.702  28.538  26.080  1.00  0.00    -0.349 N 
ATOM     69  C   UNL A   1      47.461  29.295  27.199  1.00  0.00     0.255 C 
ATOM     70  H   UNL A   1      48.481  27.936  26.123  1.00  0.00     0.163 HD
ATOM     71  O   UNL A   1      48.318  29.379  28.074  1.00  0.00    -0.269 OA
BRANCH  69  72
ATOM     72  C   UNL A   1      46.209  30.079  27.314  1.00  0.00     0.081 A 
ATOM     73  C   UNL A   1      46.335  31.457  27.527  1.00  0.00     0.018 A 
ATOM     74  C   UNL A   1      44.935  29.503  27.228  1.00  0.00     0.128 A 
ATOM     75  C   UNL A   1      45.195  32.257  27.608  1.00  0.00     0.001 A 
ATOM     76  C   UNL A   1      43.797  30.307  27.292  1.00  0.00     0.047 A 
ATOM     77  C   UNL A   1      43.930  31.684  27.480  1.00  0.00     0.004 A 
BRANCH  74  78
ATOM     78  O   UNL A   1      44.787  28.152  27.065  1.00  0.00    -0.507 OA
ATOM     79  H   UNL A   1      45.156  27.726  26.316  1.00  0.00     0.293 HD
ENDBRANCH  74  78
ENDBRANCH  69  72
ENDBRANCH  67  68
ENDBRANCH  66  67
ENDBRANCH  60  62
ENDBRANCH  59  60
ENDBRANCH  58  59
ENDBRANCH   1  58
TORSDOF 18
ENDMDL
MODEL 3
REMARK VINA RESULT:      -9.6      2.483      7.112
REMARK SMILES O=C(OCCOCCOC(=O)[C@H]1CC[C@H](CNC(=O)c2ccccc2O)O1)c1ccc(-c2c3nc(c(-c4ccccc4)c4ccc([nH]4)c(-c4ccccc4)c4nc(c(-c5ccccc5)c5ccc2[nH]5)C=C4)C=C3)cc1
REMARK SMILES IDX 7 1 6 2 5 3 4 4 3 5 2 6 1 7 28 8 29 9 75 10 30 11 74 12
REMARK SMILES IDX 31 13 32 14 33 15 68 16 34 17 73 18 67 19 69 20 35 21 72 22
REMARK SMILES IDX 66 23 65 24 36 26 58 27 43 28 57 29 44 30 47 31 56 32 70 33
REMARK SMILES IDX 45 34 46 35 55 37 71 38 48 39 37 40 38 41 42 42 39 43 41 44
REMARK SMILES IDX 40 45 59 46 60 47 64 48 61 49 63 50 62 51 49 52 50 53 54 54
REMARK SMILES IDX 51 55 53 56 52 57 8 58 9 59 10 60 11 61 12 62 13 63 27 64
REMARK SMILES IDX 14 65 15 66 16 67 17 68 18 69 19 71 20 72 21 73 25 74 22 75
REMARK SMILES IDX 24 76 23 77 26 78
REMARK H PARENT 69 25 47 36 17 70 26 79
REMARK Flexibility Score: inf
ROOT
ATOM      1  C   UNL A   1      34.218  29.539  26.647  1.00  0.00     0.202 C 
ENDROOT
BRANCH   1   2
ATOM      2  O   UNL A   1      33.162  30.427  26.249  1.00  0.00    -0.374 OA
BRANCH   2   3
ATOM      3  C   UNL A   1      32.268  30.887  27.265  1.00  0.00     0.202 C 
BRANCH   3   4
ATOM      4  C   UNL A   1      31.517  32.187  26.973  1.00  0.00     0.261 C 
BRANCH   4   5
ATOM      5  O   UNL A   1      32.434  33.288  26.943  1.00  0.00    -0.460 OA
BRANCH   5   6
ATOM      6  C   UNL A   1      32.978  33.940  27.992  1.00  0.00     0.338 C 
ATOM      7  O   UNL A   1      32.378  34.905  28.461  1.00  0.00    -0.246 OA
BRANCH   6   8
ATOM      8  C   UNL A   1      34.273  33.550  28.627  1.00  0.00     0.060 A 
ATOM      9  C   UNL A   1      35.537  34.028  28.262  1.00  0.00     0.016 A 
ATOM     10  C   UNL A   1      34.182  32.717  29.753  1.00  0.00     0.016 A 
ATOM     11  C   UNL A   1      36.677  33.690  28.964  1.00  0.00     0.010 A 
ATOM     12  C   UNL A   1      35.323  32.367  30.471  1.00  0.00     0.010 A 
ATOM     13  C   UNL A   1      36.570  32.851  30.061  1.00  0.00    -0.014 A 
BRANCH  13  14
ATOM     14  C   UNL A   1      37.809  32.358  30.657  1.00  0.00     0.031 A 
ATOM     15  C   UNL A   1      38.494  31.227  29.970  1.00  0.00     0.074 A 
ATOM     16  C   UNL A   1      38.328  32.985  31.723  1.00  0.00     0.049 A 
ATOM     17  N   UNL A   1      39.520  30.525  30.358  1.00  0.00    -0.248 NA
ATOM     18  C   UNL A   1      37.946  30.837  28.658  1.00  0.00     0.031 C 
ATOM     19  C   UNL A   1      37.784  34.197  32.339  1.00  0.00     0.029 A 
ATOM     20  N   UNL A   1      39.432  32.689  32.470  1.00  0.00    -0.354 N 
ATOM     21  C   UNL A   1      39.710  29.578  29.362  1.00  0.00     0.074 A 
ATOM     22  C   UNL A   1      38.706  29.800  28.349  1.00  0.00     0.031 C 
ATOM     23  C   UNL A   1      38.549  34.529  33.391  1.00  0.00     0.029 A 
ATOM     24  C   UNL A   1      39.581  33.513  33.556  1.00  0.00     0.049 A 
ATOM     25  H   UNL A   1      40.055  31.959  32.252  1.00  0.00     0.167 HD
ATOM     26  C   UNL A   1      40.633  28.592  29.329  1.00  0.00     0.031 A 
ATOM     27  C   UNL A   1      40.426  33.403  34.597  1.00  0.00     0.031 A 
ATOM     28  C   UNL A   1      41.585  28.395  30.386  1.00  0.00     0.049 A 
ATOM     29  C   UNL A   1      41.375  32.238  34.600  1.00  0.00     0.074 A 
ATOM     30  C   UNL A   1      42.538  27.406  30.524  1.00  0.00     0.029 A 
ATOM     31  N   UNL A   1      41.684  29.217  31.504  1.00  0.00    -0.354 N 
ATOM     32  N   UNL A   1      41.520  31.295  33.697  1.00  0.00    -0.248 NA
ATOM     33  C   UNL A   1      42.267  32.110  35.756  1.00  0.00     0.031 C 
ATOM     34  C   UNL A   1      43.175  27.600  31.755  1.00  0.00     0.029 A 
ATOM     35  C   UNL A   1      42.667  28.748  32.350  1.00  0.00     0.049 A 
ATOM     36  H   UNL A   1      41.135  30.018  31.665  1.00  0.00     0.167 HD
ATOM     37  C   UNL A   1      42.534  30.471  34.161  1.00  0.00     0.074 A 
ATOM     38  C   UNL A   1      42.971  31.034  35.428  1.00  0.00     0.031 C 
ATOM     39  C   UNL A   1      43.064  29.356  33.598  1.00  0.00     0.031 A 
BRANCH  26  40
ATOM     40  C   UNL A   1      40.540  27.621  28.188  1.00  0.00    -0.014 A 
ATOM     41  C   UNL A   1      39.815  26.422  28.289  1.00  0.00     0.009 A 
ATOM     42  C   UNL A   1      41.272  27.872  27.016  1.00  0.00     0.009 A 
ATOM     43  C   UNL A   1      39.879  25.468  27.268  1.00  0.00     0.001 A 
ATOM     44  C   UNL A   1      41.306  26.934  25.984  1.00  0.00     0.001 A 
ATOM     45  C   UNL A   1      40.626  25.725  26.118  1.00  0.00     0.000 A 
ENDBRANCH  26  40
BRANCH  27  46
ATOM     46  C   UNL A   1      40.342  34.374  35.719  1.00  0.00    -0.014 A 
ATOM     47  C   UNL A   1      39.616  34.077  36.880  1.00  0.00     0.009 A 
ATOM     48  C   UNL A   1      41.044  35.590  35.653  1.00  0.00     0.009 A 
ATOM     49  C   UNL A   1      39.590  34.980  37.949  1.00  0.00     0.001 A 
ATOM     50  C   UNL A   1      41.040  36.478  36.732  1.00  0.00     0.001 A 
ATOM     51  C   UNL A   1      40.308  36.173  37.877  1.00  0.00     0.000 A 
ENDBRANCH  27  46
BRANCH  39  52
ATOM     52  C   UNL A   1      44.205  28.704  34.320  1.00  0.00    -0.014 A 
ATOM     53  C   UNL A   1      43.991  27.660  35.230  1.00  0.00     0.009 A 
ATOM     54  C   UNL A   1      45.519  29.077  33.994  1.00  0.00     0.009 A 
ATOM     55  C   UNL A   1      45.079  27.004  35.809  1.00  0.00     0.001 A 
ATOM     56  C   UNL A   1      46.602  28.399  34.551  1.00  0.00     0.001 A 
ATOM     57  C   UNL A   1      46.380  27.367  35.460  1.00  0.00     0.000 A 
ENDBRANCH  39  52
ENDBRANCH  13  14
ENDBRANCH   6   8
ENDBRANCH   5   6
ENDBRANCH   4   5
ENDBRANCH   3   4
ENDBRANCH   2   3
ENDBRANCH   1   2
BRANCH   1  58
ATOM     58  C   UNL A   1      33.719  28.092  26.590  1.00  0.00     0.261 C 
BRANCH  58  59
ATOM     59  O   UNL A   1      34.111  27.552  25.327  1.00  0.00    -0.461 OA
BRANCH  59  60
ATOM     60  C   UNL A   1      33.584  26.318  25.075  1.00  0.00     0.335 C 
ATOM     61  O   UNL A   1      33.807  25.319  25.738  1.00  0.00    -0.249 OA
BRANCH  60  62
ATOM     62  C   UNL A   1      32.599  26.380  23.902  1.00  0.00     0.228 C 
ATOM     63  C   UNL A   1      31.244  25.723  24.137  1.00  0.00     0.047 C 
ATOM     64  O   UNL A   1      32.328  27.740  23.576  1.00  0.00    -0.361 OA
ATOM     65  C   UNL A   1      30.455  26.848  24.758  1.00  0.00     0.037 C 
ATOM     66  C   UNL A   1      30.997  28.061  24.018  1.00  0.00     0.138 C 
BRANCH  66  67
ATOM     67  C   UNL A   1      30.167  28.384  22.777  1.00  0.00     0.148 C 
BRANCH  67  68
ATOM     68  N   UNL A   1      28.756  28.154  23.011  1.00  0.00    -0.349 N 
ATOM     69  C   UNL A   1      27.731  29.060  22.902  1.00  0.00     0.255 C 
ATOM     70  H   UNL A   1      28.502  27.241  23.279  1.00  0.00     0.163 HD
ATOM     71  O   UNL A   1      26.624  28.784  23.358  1.00  0.00    -0.269 OA
BRANCH  69  72
ATOM     72  C   UNL A   1      27.975  30.398  22.316  1.00  0.00     0.081 A 
ATOM     73  C   UNL A   1      27.800  30.531  20.933  1.00  0.00     0.018 A 
ATOM     74  C   UNL A   1      28.374  31.505  23.076  1.00  0.00     0.128 A 
ATOM     75  C   UNL A   1      27.980  31.774  20.324  1.00  0.00     0.001 A 
ATOM     76  C   UNL A   1      28.536  32.751  22.468  1.00  0.00     0.047 A 
ATOM     77  C   UNL A   1      28.336  32.882  21.093  1.00  0.00     0.004 A 
BRANCH  74  78
ATOM     78  O   UNL A   1      28.596  31.388  24.422  1.00  0.00    -0.507 OA
ATOM     79  H   UNL A   1      28.552  32.145  24.972  1.00  0.00     0.293 HD
ENDBRANCH  74  78
ENDBRANCH  69  72
ENDBRANCH  67  68
ENDBRANCH  66  67
ENDBRANCH  60  62
ENDBRANCH  59  60
ENDBRANCH  58  59
ENDBRANCH   1  58
TORSDOF 18
ENDMDL
