MODEL 1
REMARK VINA RESULT:      -9.8      0.000      0.000
REMARK SMILES CC[C@@](C)(NS(=O)(=O)Cc1ccccc1)C(=O)OCCOCCOC(=O)c1ccc(-c2c3nc(c(-c4ccccc4)c4ccc([nH]4)c(-c4ccccc4)c4nc(c(-c5ccccc5)c5ccc2[nH]5)C=C4)C=C3)cc1
REMARK SMILES IDX 20 1 19 2 18 3 16 4 17 5 3 6 4 7 2 8 1 9 5 10 6 12 7 13 8 14
REMARK SMILES IDX 9 15 10 16 11 17 15 18 12 19 14 20 13 21 21 22 22 23 23 24
REMARK SMILES IDX 24 25 25 26 26 27 27 28 28 29 74 30 29 31 73 32 30 33 31 34
REMARK SMILES IDX 32 35 67 36 33 37 72 38 66 39 68 40 34 41 71 42 65 43 64 44
REMARK SMILES IDX 35 46 57 47 42 48 56 49 43 50 46 51 55 52 69 53 44 54 45 55
REMARK SMILES IDX 54 57 70 58 47 59 36 60 37 61 41 62 38 63 40 64 39 65 58 66
REMARK SMILES IDX 59 67 63 68 60 69 62 70 61 71 48 72 49 73 53 74 50 75 52 76
REMARK SMILES IDX 51 77
REMARK H PARENT 5 11 68 45 46 56
REMARK Flexibility Score: inf
ROOT
ATOM      1  C   UNL A   1      33.133  30.174  27.134  1.00  0.00     0.202 C 
ENDROOT
BRANCH   1   2
ATOM      2  C   UNL A   1      33.351  28.699  27.534  1.00  0.00     0.261 C 
BRANCH   2   3
ATOM      3  O   UNL A   1      33.314  27.743  26.447  1.00  0.00    -0.462 OA
BRANCH   3   4
ATOM      4  C   UNL A   1      32.156  27.031  26.331  1.00  0.00     0.327 C 
ATOM      5  O   UNL A   1      31.209  27.169  27.104  1.00  0.00    -0.250 OA
BRANCH   4   6
ATOM      6  C   UNL A   1      32.098  26.060  25.127  1.00  0.00     0.127 C 
ATOM      7  C   UNL A   1      33.520  26.066  24.532  1.00  0.00     0.042 C 
BRANCH   6   8
ATOM      8  C   UNL A   1      31.780  24.599  25.613  1.00  0.00     0.032 C 
ATOM      9  C   UNL A   1      31.097  23.636  24.652  1.00  0.00     0.006 C 
ENDBRANCH   6   8
BRANCH   6  10
ATOM     10  N   UNL A   1      30.999  26.320  24.089  1.00  0.00    -0.198 NA
ATOM     11  H   UNL A   1      30.124  26.374  24.610  1.00  0.00     0.142 HD
BRANCH  10  12
ATOM     12  S   UNL A   1      31.020  27.657  23.069  1.00  0.00     0.216 S 
ATOM     13  O   UNL A   1      32.115  28.506  23.459  1.00  0.00    -0.212 OA
ATOM     14  O   UNL A   1      30.931  27.114  21.723  1.00  0.00    -0.212 OA
BRANCH  12  15
ATOM     15  C   UNL A   1      29.528  28.550  23.450  1.00  0.00     0.189 C 
BRANCH  15  16
ATOM     16  C   UNL A   1      29.317  29.960  22.927  1.00  0.00    -0.032 A 
ATOM     17  C   UNL A   1      29.118  31.048  23.781  1.00  0.00     0.005 A 
ATOM     18  C   UNL A   1      28.976  30.163  21.581  1.00  0.00     0.005 A 
ATOM     19  C   UNL A   1      28.545  32.243  23.303  1.00  0.00     0.000 A 
ATOM     20  C   UNL A   1      28.405  31.338  21.094  1.00  0.00     0.000 A 
ATOM     21  C   UNL A   1      28.172  32.382  21.966  1.00  0.00     0.000 A 
ENDBRANCH  15  16
ENDBRANCH  12  15
ENDBRANCH  10  12
ENDBRANCH   6  10
ENDBRANCH   4   6
ENDBRANCH   3   4
ENDBRANCH   2   3
ENDBRANCH   1   2
BRANCH   1  22
ATOM     22  O   UNL A   1      31.829  30.588  26.753  1.00  0.00    -0.374 OA
BRANCH  22  23
ATOM     23  C   UNL A   1      31.576  31.979  26.741  1.00  0.00     0.202 C 
BRANCH  23  24
ATOM     24  C   UNL A   1      32.580  32.923  27.412  1.00  0.00     0.261 C 
BRANCH  24  25
ATOM     25  O   UNL A   1      32.154  34.283  27.710  1.00  0.00    -0.460 OA
BRANCH  25  26
ATOM     26  C   UNL A   1      32.867  34.956  28.658  1.00  0.00     0.338 C 
ATOM     27  O   UNL A   1      32.599  36.055  29.115  1.00  0.00    -0.246 OA
BRANCH  26  28
ATOM     28  C   UNL A   1      34.091  34.222  29.073  1.00  0.00     0.060 A 
ATOM     29  C   UNL A   1      34.033  33.312  30.127  1.00  0.00     0.016 A 
ATOM     30  C   UNL A   1      35.343  34.568  28.552  1.00  0.00     0.016 A 
ATOM     31  C   UNL A   1      35.221  32.768  30.648  1.00  0.00     0.010 A 
ATOM     32  C   UNL A   1      36.520  33.957  29.012  1.00  0.00     0.010 A 
ATOM     33  C   UNL A   1      36.482  33.079  30.097  1.00  0.00    -0.014 A 
BRANCH  33  34
ATOM     34  C   UNL A   1      37.729  32.490  30.677  1.00  0.00     0.031 A 
ATOM     35  C   UNL A   1      38.324  32.994  31.974  1.00  0.00     0.074 A 
ATOM     36  C   UNL A   1      38.328  31.461  30.042  1.00  0.00     0.049 A 
ATOM     37  N   UNL A   1      39.307  32.489  32.684  1.00  0.00    -0.248 NA
ATOM     38  C   UNL A   1      37.761  34.228  32.541  1.00  0.00     0.031 C 
ATOM     39  C   UNL A   1      37.911  30.919  28.747  1.00  0.00     0.029 A 
ATOM     40  N   UNL A   1      39.394  30.674  30.404  1.00  0.00    -0.354 N 
ATOM     41  C   UNL A   1      39.469  33.334  33.778  1.00  0.00     0.074 A 
ATOM     42  C   UNL A   1      38.525  34.417  33.609  1.00  0.00     0.031 C 
ATOM     43  C   UNL A   1      38.667  29.848  28.457  1.00  0.00     0.029 A 
ATOM     44  C   UNL A   1      39.645  29.649  29.522  1.00  0.00     0.049 A 
ATOM     45  H   UNL A   1      39.928  30.829  31.217  1.00  0.00     0.167 HD
ATOM     46  C   UNL A   1      40.307  33.214  34.839  1.00  0.00     0.031 A 
ATOM     47  C   UNL A   1      40.546  28.648  29.566  1.00  0.00     0.031 A 
ATOM     48  C   UNL A   1      41.262  32.147  35.005  1.00  0.00     0.049 A 
ATOM     49  C   UNL A   1      41.463  28.532  30.752  1.00  0.00     0.074 A 
ATOM     50  C   UNL A   1      42.122  31.911  36.066  1.00  0.00     0.029 A 
ATOM     51  N   UNL A   1      41.491  31.141  34.079  1.00  0.00    -0.354 N 
ATOM     52  N   UNL A   1      41.528  29.285  31.822  1.00  0.00    -0.248 NA
ATOM     53  C   UNL A   1      42.420  27.417  30.740  1.00  0.00     0.031 C 
ATOM     54  C   UNL A   1      42.910  30.797  35.756  1.00  0.00     0.029 A 
ATOM     55  C   UNL A   1      42.495  30.300  34.531  1.00  0.00     0.049 A 
ATOM     56  H   UNL A   1      41.011  31.040  33.225  1.00  0.00     0.167 HD
ATOM     57  C   UNL A   1      42.515  28.723  32.621  1.00  0.00     0.074 A 
ATOM     58  C   UNL A   1      43.002  27.551  31.924  1.00  0.00     0.031 C 
ATOM     59  C   UNL A   1      42.979  29.142  33.824  1.00  0.00     0.031 A 
BRANCH  46  60
ATOM     60  C   UNL A   1      40.232  34.267  35.918  1.00  0.00    -0.014 A 
ATOM     61  C   UNL A   1      40.972  35.457  35.824  1.00  0.00     0.009 A 
ATOM     62  C   UNL A   1      39.368  34.098  37.013  1.00  0.00     0.009 A 
ATOM     63  C   UNL A   1      40.880  36.435  36.819  1.00  0.00     0.001 A 
ATOM     64  C   UNL A   1      39.255  35.090  37.991  1.00  0.00     0.001 A 
ATOM     65  C   UNL A   1      40.018  36.252  37.898  1.00  0.00     0.000 A 
ENDBRANCH  46  60
BRANCH  47  66
ATOM     66  C   UNL A   1      40.606  27.654  28.460  1.00  0.00    -0.014 A 
ATOM     67  C   UNL A   1      39.821  26.490  28.495  1.00  0.00     0.009 A 
ATOM     68  C   UNL A   1      41.449  27.867  27.358  1.00  0.00     0.009 A 
ATOM     69  C   UNL A   1      39.900  25.550  27.464  1.00  0.00     0.001 A 
ATOM     70  C   UNL A   1      41.500  26.943  26.313  1.00  0.00     0.001 A 
ATOM     71  C   UNL A   1      40.734  25.781  26.371  1.00  0.00     0.000 A 
ENDBRANCH  47  66
BRANCH  59  72
ATOM     72  C   UNL A   1      44.052  28.310  34.472  1.00  0.00    -0.014 A 
ATOM     73  C   UNL A   1      43.734  27.234  35.314  1.00  0.00     0.009 A 
ATOM     74  C   UNL A   1      45.403  28.596  34.216  1.00  0.00     0.009 A 
ATOM     75  C   UNL A   1      44.747  26.488  35.921  1.00  0.00     0.001 A 
ATOM     76  C   UNL A   1      46.413  27.830  34.800  1.00  0.00     0.001 A 
ATOM     77  C   UNL A   1      46.085  26.783  35.661  1.00  0.00     0.000 A 
ENDBRANCH  59  72
ENDBRANCH  33  34
ENDBRANCH  26  28
ENDBRANCH  25  26
ENDBRANCH  24  25
ENDBRANCH  23  24
ENDBRANCH  22  23
ENDBRANCH   1  22
TORSDOF 19
ENDMDL
MODEL 2
REMARK VINA RESULT:      -9.7      1.688      3.669
REMARK SMILES CC[C@@](C)(NS(=O)(=O)Cc1ccccc1)C(=O)OCCOCCOC(=O)c1ccc(-c2c3nc(c(-c4ccccc4)c4ccc([nH]4)c(-c4ccccc4)c4nc(c(-c5ccccc5)c5ccc2[nH]5)C=C4)C=C3)cc1
REMARK SMILES IDX 20 1 19 2 18 3 16 4 17 5 3 6 4 7 2 8 1 9 5 10 6 12 7 13 8 14
REMARK SMILES IDX 9 15 10 16 11 17 15 18 12 19 14 20 13 21 21 22 22 23 23 24
REMARK SMILES IDX 24 25 25 26 26 27 27 28 28 29 74 30 29 31 73 32 30 33 31 34
REMARK SMILES IDX 32 35 67 36 33 37 72 38 66 39 68 40 34 41 71 42 65 43 64 44
REMARK SMILES IDX 35 46 57 47 42 48 56 49 43 50 46 51 55 52 69 53 44 54 45 55
REMARK SMILES IDX 54 57 70 58 47 59 36 60 37 61 41 62 38 63 40 64 39 65 58 66
REMARK SMILES IDX 59 67 63 68 60 69 62 70 61 71 48 72 49 73 53 74 50 75 52 76
REMARK SMILES IDX 51 77
REMARK H PARENT 5 11 68 45 46 56
REMARK Flexibility Score: inf
ROOT
ATOM      1  C   UNL A   1      32.866  30.048  27.042  1.00  0.00     0.202 C 
ENDROOT
BRANCH   1   2
ATOM      2  C   UNL A   1      33.603  29.146  26.029  1.00  0.00     0.261 C 
BRANCH   2   3
ATOM      3  O   UNL A   1      32.773  28.199  25.315  1.00  0.00    -0.462 OA
BRANCH   3   4
ATOM      4  C   UNL A   1      32.492  28.525  24.020  1.00  0.00     0.327 C 
ATOM      5  O   UNL A   1      33.164  29.327  23.375  1.00  0.00    -0.250 OA
BRANCH   4   6
ATOM      6  C   UNL A   1      31.285  27.778  23.401  1.00  0.00     0.127 C 
ATOM      7  C   UNL A   1      30.901  26.701  24.433  1.00  0.00     0.042 C 
BRANCH   6   8
ATOM      8  C   UNL A   1      30.063  28.752  23.235  1.00  0.00     0.032 C 
ATOM      9  C   UNL A   1      30.031  29.698  22.043  1.00  0.00     0.006 C 
ENDBRANCH   6   8
BRANCH   6  10
ATOM     10  N   UNL A   1      31.475  27.226  21.982  1.00  0.00    -0.198 NA
ATOM     11  H   UNL A   1      31.551  28.038  21.370  1.00  0.00     0.142 HD
BRANCH  10  12
ATOM     12  S   UNL A   1      32.752  26.210  21.573  1.00  0.00     0.216 S 
ATOM     13  O   UNL A   1      32.404  25.512  20.364  1.00  0.00    -0.212 OA
ATOM     14  O   UNL A   1      33.942  27.042  21.646  1.00  0.00    -0.212 OA
BRANCH  12  15
ATOM     15  C   UNL A   1      32.799  24.989  22.867  1.00  0.00     0.189 C 
BRANCH  15  16
ATOM     16  C   UNL A   1      34.117  24.604  23.518  1.00  0.00    -0.032 A 
ATOM     17  C   UNL A   1      34.908  23.558  23.033  1.00  0.00     0.005 A 
ATOM     18  C   UNL A   1      34.415  25.053  24.812  1.00  0.00     0.005 A 
ATOM     19  C   UNL A   1      35.894  22.966  23.847  1.00  0.00     0.000 A 
ATOM     20  C   UNL A   1      35.385  24.476  25.631  1.00  0.00     0.000 A 
ATOM     21  C   UNL A   1      36.120  23.411  25.150  1.00  0.00     0.000 A 
ENDBRANCH  15  16
ENDBRANCH  12  15
ENDBRANCH  10  12
ENDBRANCH   6  10
ENDBRANCH   4   6
ENDBRANCH   3   4
ENDBRANCH   2   3
ENDBRANCH   1   2
BRANCH   1  22
ATOM     22  O   UNL A   1      31.633  30.637  26.655  1.00  0.00    -0.374 OA
BRANCH  22  23
ATOM     23  C   UNL A   1      31.529  32.042  26.770  1.00  0.00     0.202 C 
BRANCH  23  24
ATOM     24  C   UNL A   1      32.654  32.815  27.467  1.00  0.00     0.261 C 
BRANCH  24  25
ATOM     25  O   UNL A   1      32.388  34.182  27.895  1.00  0.00    -0.460 OA
BRANCH  25  26
ATOM     26  C   UNL A   1      33.080  34.632  28.981  1.00  0.00     0.338 C 
ATOM     27  O   UNL A   1      32.752  35.549  29.714  1.00  0.00    -0.246 OA
BRANCH  26  28
ATOM     28  C   UNL A   1      34.362  33.905  29.175  1.00  0.00     0.060 A 
ATOM     29  C   UNL A   1      34.513  33.037  30.255  1.00  0.00     0.016 A 
ATOM     30  C   UNL A   1      35.487  34.222  28.404  1.00  0.00     0.016 A 
ATOM     31  C   UNL A   1      35.781  32.505  30.553  1.00  0.00     0.010 A 
ATOM     32  C   UNL A   1      36.731  33.620  28.646  1.00  0.00     0.010 A 
ATOM     33  C   UNL A   1      36.908  32.784  29.752  1.00  0.00    -0.014 A 
BRANCH  33  34
ATOM     34  C   UNL A   1      38.246  32.209  30.097  1.00  0.00     0.031 A 
ATOM     35  C   UNL A   1      39.172  32.878  31.089  1.00  0.00     0.074 A 
ATOM     36  C   UNL A   1      38.628  31.046  29.530  1.00  0.00     0.049 A 
ATOM     37  N   UNL A   1      40.291  32.427  31.609  1.00  0.00    -0.248 NA
ATOM     38  C   UNL A   1      38.813  34.229  31.544  1.00  0.00     0.031 C 
ATOM     39  C   UNL A   1      37.872  30.326  28.502  1.00  0.00     0.029 A 
ATOM     40  N   UNL A   1      39.728  30.253  29.750  1.00  0.00    -0.354 N 
ATOM     41  C   UNL A   1      40.757  33.429  32.455  1.00  0.00     0.074 A 
ATOM     42  C   UNL A   1      39.834  34.536  32.334  1.00  0.00     0.031 C 
ATOM     43  C   UNL A   1      38.495  29.169  28.232  1.00  0.00     0.029 A 
ATOM     44  C   UNL A   1      39.710  29.078  29.035  1.00  0.00     0.049 A 
ATOM     45  H   UNL A   1      40.460  30.502  30.361  1.00  0.00     0.167 HD
ATOM     46  C   UNL A   1      41.838  33.426  33.275  1.00  0.00     0.031 A 
ATOM     47  C   UNL A   1      40.561  28.034  29.033  1.00  0.00     0.031 A 
ATOM     48  C   UNL A   1      42.772  32.333  33.387  1.00  0.00     0.049 A 
ATOM     49  C   UNL A   1      41.751  28.050  29.951  1.00  0.00     0.074 A 
ATOM     50  C   UNL A   1      43.871  32.215  34.223  1.00  0.00     0.029 A 
ATOM     51  N   UNL A   1      42.722  31.172  32.632  1.00  0.00    -0.354 N 
ATOM     52  N   UNL A   1      42.115  28.965  30.815  1.00  0.00    -0.248 NA
ATOM     53  C   UNL A   1      42.640  26.880  29.902  1.00  0.00     0.031 C 
ATOM     54  C   UNL A   1      44.517  31.009  33.933  1.00  0.00     0.029 A 
ATOM     55  C   UNL A   1      43.784  30.345  32.963  1.00  0.00     0.049 A 
ATOM     56  H   UNL A   1      42.034  30.965  31.959  1.00  0.00     0.167 HD
ATOM     57  C   UNL A   1      43.259  28.472  31.429  1.00  0.00     0.074 A 
ATOM     58  C   UNL A   1      43.513  27.167  30.857  1.00  0.00     0.031 C 
ATOM     59  C   UNL A   1      44.033  29.052  32.380  1.00  0.00     0.031 A 
BRANCH  46  60
ATOM     60  C   UNL A   1      42.078  34.648  34.127  1.00  0.00    -0.014 A 
ATOM     61  C   UNL A   1      42.726  35.781  33.608  1.00  0.00     0.009 A 
ATOM     62  C   UNL A   1      41.600  34.694  35.448  1.00  0.00     0.009 A 
ATOM     63  C   UNL A   1      42.925  36.915  34.401  1.00  0.00     0.001 A 
ATOM     64  C   UNL A   1      41.774  35.840  36.229  1.00  0.00     0.001 A 
ATOM     65  C   UNL A   1      42.444  36.945  35.708  1.00  0.00     0.000 A 
ENDBRANCH  46  60
BRANCH  47  66
ATOM     66  C   UNL A   1      40.301  26.866  28.147  1.00  0.00    -0.014 A 
ATOM     67  C   UNL A   1      40.905  26.774  26.882  1.00  0.00     0.009 A 
ATOM     68  C   UNL A   1      39.448  25.832  28.565  1.00  0.00     0.009 A 
ATOM     69  C   UNL A   1      40.638  25.686  26.046  1.00  0.00     0.001 A 
ATOM     70  C   UNL A   1      39.211  24.730  27.742  1.00  0.00     0.001 A 
ATOM     71  C   UNL A   1      39.797  24.662  26.480  1.00  0.00     0.000 A 
ENDBRANCH  47  66
BRANCH  59  72
ATOM     72  C   UNL A   1      45.213  28.262  32.878  1.00  0.00    -0.014 A 
ATOM     73  C   UNL A   1      46.473  28.369  32.270  1.00  0.00     0.009 A 
ATOM     74  C   UNL A   1      45.062  27.412  33.986  1.00  0.00     0.009 A 
ATOM     75  C   UNL A   1      47.549  27.609  32.736  1.00  0.00     0.001 A 
ATOM     76  C   UNL A   1      46.147  26.677  34.468  1.00  0.00     0.001 A 
ATOM     77  C   UNL A   1      47.387  26.768  33.836  1.00  0.00     0.000 A 
ENDBRANCH  59  72
ENDBRANCH  33  34
ENDBRANCH  26  28
ENDBRANCH  25  26
ENDBRANCH  24  25
ENDBRANCH  23  24
ENDBRANCH  22  23
ENDBRANCH   1  22
TORSDOF 19
ENDMDL
MODEL 3
REMARK VINA RESULT:      -9.6      1.993      6.933
REMARK SMILES CC[C@@](C)(NS(=O)(=O)Cc1ccccc1)C(=O)OCCOCCOC(=O)c1ccc(-c2c3nc(c(-c4ccccc4)c4ccc([nH]4)c(-c4ccccc4)c4nc(c(-c5ccccc5)c5ccc2[nH]5)C=C4)C=C3)cc1
REMARK SMILES IDX 20 1 19 2 18 3 16 4 17 5 3 6 4 7 2 8 1 9 5 10 6 12 7 13 8 14
REMARK SMILES IDX 9 15 10 16 11 17 15 18 12 19 14 20 13 21 21 22 22 23 23 24
REMARK SMILES IDX 24 25 25 26 26 27 27 28 28 29 74 30 29 31 73 32 30 33 31 34
REMARK SMILES IDX 32 35 67 36 33 37 72 38 66 39 68 40 34 41 71 42 65 43 64 44
REMARK SMILES IDX 35 46 57 47 42 48 56 49 43 50 46 51 55 52 69 53 44 54 45 55
REMARK SMILES IDX 54 57 70 58 47 59 36 60 37 61 41 62 38 63 40 64 39 65 58 66
REMARK SMILES IDX 59 67 63 68 60 69 62 70 61 71 48 72 49 73 53 74 50 75 52 76
REMARK SMILES IDX 51 77
REMARK H PARENT 5 11 68 45 46 56
REMARK Flexibility Score: inf
ROOT
ATOM      1  C   UNL A   1      33.002  30.065  27.104  1.00  0.00     0.202 C 
ENDROOT
BRANCH   1   2
ATOM      2  C   UNL A   1      33.541  29.126  26.004  1.00  0.00     0.261 C 
BRANCH   2   3
ATOM      3  O   UNL A   1      32.540  28.381  25.270  1.00  0.00    -0.462 OA
BRANCH   3   4
ATOM      4  C   UNL A   1      32.513  28.602  23.924  1.00  0.00     0.327 C 
ATOM      5  O   UNL A   1      33.341  29.307  23.349  1.00  0.00    -0.250 OA
BRANCH   4   6
ATOM      6  C   UNL A   1      31.387  27.865  23.159  1.00  0.00     0.127 C 
ATOM      7  C   UNL A   1      30.628  27.059  24.231  1.00  0.00     0.042 C 
BRANCH   6   8
ATOM      8  C   UNL A   1      30.386  28.898  22.526  1.00  0.00     0.032 C 
ATOM      9  C   UNL A   1      28.898  28.753  22.815  1.00  0.00     0.006 C 
ENDBRANCH   6   8
BRANCH   6  10
ATOM     10  N   UNL A   1      31.817  27.024  21.950  1.00  0.00    -0.198 NA
ATOM     11  H   UNL A   1      32.440  27.615  21.400  1.00  0.00     0.142 HD
BRANCH  10  12
ATOM     12  S   UNL A   1      32.599  25.543  22.114  1.00  0.00     0.216 S 
ATOM     13  O   UNL A   1      31.655  24.590  22.635  1.00  0.00    -0.212 OA
ATOM     14  O   UNL A   1      33.270  25.322  20.844  1.00  0.00    -0.212 OA
BRANCH  12  15
ATOM     15  C   UNL A   1      33.811  25.803  23.391  1.00  0.00     0.189 C 
BRANCH  15  16
ATOM     16  C   UNL A   1      34.510  24.622  24.043  1.00  0.00    -0.032 A 
ATOM     17  C   UNL A   1      34.953  24.661  25.368  1.00  0.00     0.005 A 
ATOM     18  C   UNL A   1      35.034  23.593  23.247  1.00  0.00     0.005 A 
ATOM     19  C   UNL A   1      35.921  23.746  25.829  1.00  0.00     0.000 A 
ATOM     20  C   UNL A   1      35.995  22.683  23.688  1.00  0.00     0.000 A 
ATOM     21  C   UNL A   1      36.455  22.771  24.987  1.00  0.00     0.000 A 
ENDBRANCH  15  16
ENDBRANCH  12  15
ENDBRANCH  10  12
ENDBRANCH   6  10
ENDBRANCH   4   6
ENDBRANCH   3   4
ENDBRANCH   2   3
ENDBRANCH   1   2
BRANCH   1  22
ATOM     22  O   UNL A   1      31.718  30.646  26.931  1.00  0.00    -0.374 OA
BRANCH  22  23
ATOM     23  C   UNL A   1      31.659  32.056  26.850  1.00  0.00     0.202 C 
BRANCH  23  24
ATOM     24  C   UNL A   1      32.721  32.888  27.577  1.00  0.00     0.261 C 
BRANCH  24  25
ATOM     25  O   UNL A   1      32.376  34.245  27.981  1.00  0.00    -0.460 OA
BRANCH  25  26
ATOM     26  C   UNL A   1      33.147  34.811  28.954  1.00  0.00     0.338 C 
ATOM     27  O   UNL A   1      32.921  35.860  29.531  1.00  0.00    -0.246 OA
BRANCH  26  28
ATOM     28  C   UNL A   1      34.378  34.024  29.228  1.00  0.00     0.060 A 
ATOM     29  C   UNL A   1      34.427  33.169  30.328  1.00  0.00     0.016 A 
ATOM     30  C   UNL A   1      35.557  34.270  28.514  1.00  0.00     0.016 A 
ATOM     31  C   UNL A   1      35.648  32.581  30.702  1.00  0.00     0.010 A 
ATOM     32  C   UNL A   1      36.755  33.611  28.833  1.00  0.00     0.010 A 
ATOM     33  C   UNL A   1      36.830  32.788  29.959  1.00  0.00    -0.014 A 
BRANCH  33  34
ATOM     34  C   UNL A   1      38.116  32.153  30.385  1.00  0.00     0.031 A 
ATOM     35  C   UNL A   1      38.579  30.828  29.821  1.00  0.00     0.074 A 
ATOM     36  C   UNL A   1      38.901  32.792  31.277  1.00  0.00     0.049 A 
ATOM     37  N   UNL A   1      39.737  30.225  29.971  1.00  0.00    -0.248 NA
ATOM     38  C   UNL A   1      37.622  30.072  29.000  1.00  0.00     0.031 C 
ATOM     39  C   UNL A   1      38.551  34.039  31.961  1.00  0.00     0.029 A 
ATOM     40  N   UNL A   1      40.160  32.500  31.745  1.00  0.00    -0.354 N 
ATOM     41  C   UNL A   1      39.648  29.034  29.257  1.00  0.00     0.074 A 
ATOM     42  C   UNL A   1      38.304  28.968  28.724  1.00  0.00     0.031 C 
ATOM     43  C   UNL A   1      39.594  34.438  32.705  1.00  0.00     0.029 A 
ATOM     44  C   UNL A   1      40.672  33.461  32.584  1.00  0.00     0.049 A 
ATOM     45  H   UNL A   1      40.648  31.679  31.503  1.00  0.00     0.167 HD
ATOM     46  C   UNL A   1      40.599  28.088  29.043  1.00  0.00     0.031 A 
ATOM     47  C   UNL A   1      41.876  33.563  33.178  1.00  0.00     0.031 A 
ATOM     48  C   UNL A   1      41.933  28.139  29.585  1.00  0.00     0.049 A 
ATOM     49  C   UNL A   1      42.915  32.507  32.925  1.00  0.00     0.074 A 
ATOM     50  C   UNL A   1      42.982  27.255  29.388  1.00  0.00     0.029 A 
ATOM     51  N   UNL A   1      42.401  29.124  30.442  1.00  0.00    -0.354 N 
ATOM     52  N   UNL A   1      42.842  31.441  32.165  1.00  0.00    -0.248 NA
ATOM     53  C   UNL A   1      44.209  32.676  33.601  1.00  0.00     0.031 C 
ATOM     54  C   UNL A   1      44.064  27.674  30.169  1.00  0.00     0.029 A 
ATOM     55  C   UNL A   1      43.712  28.855  30.802  1.00  0.00     0.049 A 
ATOM     56  H   UNL A   1      41.878  29.899  30.749  1.00  0.00     0.167 HD
ATOM     57  C   UNL A   1      44.085  30.827  32.253  1.00  0.00     0.074 A 
ATOM     58  C   UNL A   1      44.900  31.654  33.118  1.00  0.00     0.031 C 
ATOM     59  C   UNL A   1      44.511  29.679  31.671  1.00  0.00     0.031 A 
BRANCH  46  60
ATOM     60  C   UNL A   1      40.234  26.907  28.177  1.00  0.00    -0.014 A 
ATOM     61  C   UNL A   1      40.639  26.838  26.833  1.00  0.00     0.009 A 
ATOM     62  C   UNL A   1      39.528  25.822  28.723  1.00  0.00     0.009 A 
ATOM     63  C   UNL A   1      40.312  25.729  26.047  1.00  0.00     0.001 A 
ATOM     64  C   UNL A   1      39.228  24.701  27.942  1.00  0.00     0.001 A 
ATOM     65  C   UNL A   1      39.612  24.661  26.603  1.00  0.00     0.000 A 
ENDBRANCH  46  60
BRANCH  47  66
ATOM     66  C   UNL A   1      42.177  34.729  34.053  1.00  0.00    -0.014 A 
ATOM     67  C   UNL A   1      41.943  34.670  35.437  1.00  0.00     0.009 A 
ATOM     68  C   UNL A   1      42.704  35.910  33.507  1.00  0.00     0.009 A 
ATOM     69  C   UNL A   1      42.206  35.777  36.248  1.00  0.00     0.001 A 
ATOM     70  C   UNL A   1      42.998  37.002  34.326  1.00  0.00     0.001 A 
ATOM     71  C   UNL A   1      42.739  36.939  35.693  1.00  0.00     0.000 A 
ENDBRANCH  47  66
BRANCH  59  72
ATOM     72  C   UNL A   1      45.934  29.266  31.934  1.00  0.00    -0.014 A 
ATOM     73  C   UNL A   1      46.260  28.395  32.985  1.00  0.00     0.009 A 
ATOM     74  C   UNL A   1      46.960  29.742  31.103  1.00  0.00     0.009 A 
ATOM     75  C   UNL A   1      47.590  28.042  33.223  1.00  0.00     0.001 A 
ATOM     76  C   UNL A   1      48.285  29.363  31.324  1.00  0.00     0.001 A 
ATOM     77  C   UNL A   1      48.601  28.522  32.391  1.00  0.00     0.000 A 
ENDBRANCH  59  72
ENDBRANCH  33  34
ENDBRANCH  26  28
ENDBRANCH  25  26
ENDBRANCH  24  25
ENDBRANCH  23  24
ENDBRANCH  22  23
ENDBRANCH   1  22
TORSDOF 19
ENDMDL
