MODEL 1
REMARK VINA RESULT:      -9.3      0.000      0.000
REMARK SMILES CCCC[C@@H](Sc1nc(OCCC2CCCCC2)cc(OCCC2CCCCC2)n1)C(=O)OCCOCCOC(=O)c1ccc(-c2c3nc(c(-c4ccccc4)c4ccc([nH]4)c(-c4ccccc4)c4nc(c(-c5ccccc5)c5ccc2[nH]5)C=C4)C=C3)cc1
REMARK SMILES IDX 34 1 33 2 31 3 32 4 5 5 4 6 3 7 2 8 1 9 6 10 7 11 8 12 30 13
REMARK SMILES IDX 9 14 20 15 19 16 10 17 11 18 12 19 13 20 14 21 18 22 15 23
REMARK SMILES IDX 17 24 16 25 21 26 22 27 23 28 24 29 25 30 29 31 26 32 28 33
REMARK SMILES IDX 27 34 35 35 36 36 37 37 38 38 39 39 40 40 41 41 42 42 43 43
REMARK SMILES IDX 89 44 44 45 88 46 45 47 46 48 47 49 82 50 48 51 87 52 81 53
REMARK SMILES IDX 83 54 49 55 86 56 80 57 79 58 50 60 72 61 57 62 71 63 58 64
REMARK SMILES IDX 61 65 70 66 84 67 59 68 60 69 69 71 85 72 62 73 51 74 52 75
REMARK SMILES IDX 56 76 53 77 55 78 54 79 73 80 74 81 78 82 75 83 77 84 76 85
REMARK SMILES IDX 63 86 64 87 68 88 65 89 67 90 66 91
REMARK H PARENT 83 59 61 70
REMARK Flexibility Score: inf
ROOT
ATOM      1  C   UNL A   1      36.281  21.205  25.397  1.00  0.00     0.261 C 
ENDROOT
BRANCH   1   2
ATOM      2  O   UNL A   1      35.502  22.406  25.299  1.00  0.00    -0.462 OA
BRANCH   2   3
ATOM      3  C   UNL A   1      34.261  22.337  25.857  1.00  0.00     0.319 C 
ATOM      4  O   UNL A   1      33.991  21.710  26.877  1.00  0.00    -0.251 OA
BRANCH   3   5
ATOM      5  C   UNL A   1      33.218  23.118  25.075  1.00  0.00     0.164 C 
BRANCH   5   6
ATOM      6  C   UNL A   1      32.186  22.245  24.325  1.00  0.00     0.027 C 
BRANCH   6   7
ATOM      7  C   UNL A   1      32.248  22.291  22.788  1.00  0.00     0.001 C 
BRANCH   7   8
ATOM      8  C   UNL A   1      33.386  23.122  22.185  1.00  0.00    -0.003 C 
ATOM      9  C   UNL A   1      32.939  24.268  21.301  1.00  0.00     0.004 C 
ENDBRANCH   7   8
ENDBRANCH   6   7
ENDBRANCH   5   6
BRANCH   5  10
ATOM     10  S   UNL A   1      32.448  24.279  26.262  1.00  0.00    -0.071 SA
BRANCH  10  11
ATOM     11  C   UNL A   1      32.638  25.759  25.324  1.00  0.00     0.195 A 
ATOM     12  N   UNL A   1      31.887  25.915  24.224  1.00  0.00    -0.187 NA
ATOM     13  N   UNL A   1      33.424  26.693  25.859  1.00  0.00    -0.187 NA
ATOM     14  C   UNL A   1      31.979  27.087  23.591  1.00  0.00     0.221 A 
ATOM     15  C   UNL A   1      33.504  27.853  25.205  1.00  0.00     0.221 A 
ATOM     16  C   UNL A   1      32.836  28.067  24.024  1.00  0.00     0.136 A 
BRANCH  14  17
ATOM     17  O   UNL A   1      30.992  27.271  22.656  1.00  0.00    -0.477 OA
BRANCH  17  18
ATOM     18  C   UNL A   1      29.720  27.803  23.011  1.00  0.00     0.231 C 
BRANCH  18  19
ATOM     19  C   UNL A   1      29.638  29.217  23.651  1.00  0.00     0.045 C 
BRANCH  19  20
ATOM     20  C   UNL A   1      29.372  30.441  22.758  1.00  0.00    -0.008 C 
ATOM     21  C   UNL A   1      28.411  30.173  21.589  1.00  0.00     0.004 C 
ATOM     22  C   UNL A   1      28.823  31.618  23.558  1.00  0.00     0.004 C 
ATOM     23  C   UNL A   1      28.286  31.430  20.710  1.00  0.00     0.000 C 
ATOM     24  C   UNL A   1      28.762  32.885  22.724  1.00  0.00     0.000 C 
ATOM     25  C   UNL A   1      27.885  32.677  21.501  1.00  0.00     0.000 C 
ENDBRANCH  19  20
ENDBRANCH  18  19
ENDBRANCH  17  18
ENDBRANCH  14  17
BRANCH  15  26
ATOM     26  O   UNL A   1      34.323  28.737  25.837  1.00  0.00    -0.477 OA
BRANCH  26  27
ATOM     27  C   UNL A   1      34.223  28.971  27.237  1.00  0.00     0.231 C 
BRANCH  27  28
ATOM     28  C   UNL A   1      35.016  30.221  27.650  1.00  0.00     0.045 C 
BRANCH  28  29
ATOM     29  C   UNL A   1      36.058  30.076  28.792  1.00  0.00    -0.008 C 
ATOM     30  C   UNL A   1      37.246  29.166  28.420  1.00  0.00     0.004 C 
ATOM     31  C   UNL A   1      36.385  31.438  29.424  1.00  0.00     0.004 C 
ATOM     32  C   UNL A   1      38.630  29.510  28.967  1.00  0.00     0.000 C 
ATOM     33  C   UNL A   1      37.651  31.427  30.263  1.00  0.00     0.000 C 
ATOM     34  C   UNL A   1      38.808  30.943  29.420  1.00  0.00     0.000 C 
ENDBRANCH  28  29
ENDBRANCH  27  28
ENDBRANCH  26  27
ENDBRANCH  15  26
ENDBRANCH  10  11
ENDBRANCH   5  10
ENDBRANCH   3   5
ENDBRANCH   2   3
ENDBRANCH   1   2
BRANCH   1  35
ATOM     35  C   UNL A   1      37.786  21.482  25.357  1.00  0.00     0.202 C 
BRANCH  35  36
ATOM     36  O   UNL A   1      38.268  22.610  26.080  1.00  0.00    -0.374 OA
BRANCH  36  37
ATOM     37  C   UNL A   1      39.589  22.550  26.612  1.00  0.00     0.202 C 
BRANCH  37  38
ATOM     38  C   UNL A   1      40.359  23.875  26.730  1.00  0.00     0.261 C 
BRANCH  38  39
ATOM     39  O   UNL A   1      41.596  23.737  27.457  1.00  0.00    -0.460 OA
BRANCH  39  40
ATOM     40  C   UNL A   1      42.700  23.605  26.686  1.00  0.00     0.338 C 
ATOM     41  O   UNL A   1      42.991  22.667  25.950  1.00  0.00    -0.246 OA
BRANCH  40  42
ATOM     42  C   UNL A   1      43.482  24.848  26.707  1.00  0.00     0.060 A 
ATOM     43  C   UNL A   1      43.816  25.441  25.482  1.00  0.00     0.016 A 
ATOM     44  C   UNL A   1      43.977  25.362  27.906  1.00  0.00     0.016 A 
ATOM     45  C   UNL A   1      44.658  26.551  25.451  1.00  0.00     0.010 A 
ATOM     46  C   UNL A   1      44.835  26.466  27.870  1.00  0.00     0.010 A 
ATOM     47  C   UNL A   1      45.195  27.051  26.643  1.00  0.00    -0.014 A 
BRANCH  47  48
ATOM     48  C   UNL A   1      46.214  28.126  26.604  1.00  0.00     0.031 A 
ATOM     49  C   UNL A   1      45.777  29.560  26.671  1.00  0.00     0.074 A 
ATOM     50  C   UNL A   1      47.520  27.821  26.519  1.00  0.00     0.049 A 
ATOM     51  N   UNL A   1      46.496  30.650  26.575  1.00  0.00    -0.248 NA
ATOM     52  C   UNL A   1      44.339  29.800  26.875  1.00  0.00     0.031 C 
ATOM     53  C   UNL A   1      48.075  26.469  26.517  1.00  0.00     0.029 A 
ATOM     54  N   UNL A   1      48.618  28.637  26.409  1.00  0.00    -0.354 N 
ATOM     55  C   UNL A   1      45.600  31.704  26.703  1.00  0.00     0.074 A 
ATOM     56  C   UNL A   1      44.283  31.123  26.859  1.00  0.00     0.031 C 
ATOM     57  C   UNL A   1      49.411  26.547  26.401  1.00  0.00     0.029 A 
ATOM     58  C   UNL A   1      49.798  27.951  26.276  1.00  0.00     0.049 A 
ATOM     59  H   UNL A   1      48.563  29.620  26.426  1.00  0.00     0.167 HD
ATOM     60  C   UNL A   1      45.852  33.035  26.691  1.00  0.00     0.031 A 
ATOM     61  C   UNL A   1      51.045  28.402  26.042  1.00  0.00     0.031 A 
ATOM     62  C   UNL A   1      47.158  33.610  26.507  1.00  0.00     0.049 A 
ATOM     63  C   UNL A   1      51.281  29.881  25.897  1.00  0.00     0.074 A 
ATOM     64  C   UNL A   1      47.518  34.947  26.489  1.00  0.00     0.029 A 
ATOM     65  N   UNL A   1      48.317  32.880  26.293  1.00  0.00    -0.354 N 
ATOM     66  N   UNL A   1      50.430  30.870  26.031  1.00  0.00    -0.248 NA
ATOM     67  C   UNL A   1      52.647  30.304  25.557  1.00  0.00     0.031 C 
ATOM     68  C   UNL A   1      48.886  35.026  26.202  1.00  0.00     0.029 A 
ATOM     69  C   UNL A   1      49.386  33.739  26.098  1.00  0.00     0.049 A 
ATOM     70  H   UNL A   1      48.371  31.897  26.282  1.00  0.00     0.167 HD
ATOM     71  C   UNL A   1      51.160  32.031  25.810  1.00  0.00     0.074 A 
ATOM     72  C   UNL A   1      52.526  31.625  25.548  1.00  0.00     0.031 C 
ATOM     73  C   UNL A   1      50.737  33.319  25.825  1.00  0.00     0.031 A 
BRANCH  60  74
ATOM     74  C   UNL A   1      44.675  33.959  26.834  1.00  0.00    -0.014 A 
ATOM     75  C   UNL A   1      43.875  34.298  25.732  1.00  0.00     0.009 A 
ATOM     76  C   UNL A   1      44.352  34.481  28.096  1.00  0.00     0.009 A 
ATOM     77  C   UNL A   1      42.796  35.172  25.885  1.00  0.00     0.001 A 
ATOM     78  C   UNL A   1      43.257  35.333  28.250  1.00  0.00     0.001 A 
ATOM     79  C   UNL A   1      42.486  35.687  27.143  1.00  0.00     0.000 A 
ENDBRANCH  60  74
BRANCH  61  80
ATOM     80  C   UNL A   1      52.166  27.439  25.893  1.00  0.00    -0.014 A 
ATOM     81  C   UNL A   1      52.450  26.863  24.646  1.00  0.00     0.009 A 
ATOM     82  C   UNL A   1      52.956  27.087  27.000  1.00  0.00     0.009 A 
ATOM     83  C   UNL A   1      53.495  25.945  24.514  1.00  0.00     0.001 A 
ATOM     84  C   UNL A   1      54.015  26.189  26.859  1.00  0.00     0.001 A 
ATOM     85  C   UNL A   1      54.281  25.614  25.618  1.00  0.00     0.000 A 
ENDBRANCH  61  80
BRANCH  73  86
ATOM     86  C   UNL A   1      51.763  34.386  25.567  1.00  0.00    -0.014 A 
ATOM     87  C   UNL A   1      51.974  34.888  24.274  1.00  0.00     0.009 A 
ATOM     88  C   UNL A   1      52.486  34.933  26.638  1.00  0.00     0.009 A 
ATOM     89  C   UNL A   1      52.906  35.905  24.056  1.00  0.00     0.001 A 
ATOM     90  C   UNL A   1      53.398  35.968  26.421  1.00  0.00     0.001 A 
ATOM     91  C   UNL A   1      53.612  36.448  25.130  1.00  0.00     0.000 A 
ENDBRANCH  73  86
ENDBRANCH  47  48
ENDBRANCH  40  42
ENDBRANCH  39  40
ENDBRANCH  38  39
ENDBRANCH  37  38
ENDBRANCH  36  37
ENDBRANCH  35  36
ENDBRANCH   1  35
TORSDOF 27
ENDMDL
MODEL 2
REMARK VINA RESULT:      -9.2      0.583      5.495
REMARK SMILES CCCC[C@@H](Sc1nc(OCCC2CCCCC2)cc(OCCC2CCCCC2)n1)C(=O)OCCOCCOC(=O)c1ccc(-c2c3nc(c(-c4ccccc4)c4ccc([nH]4)c(-c4ccccc4)c4nc(c(-c5ccccc5)c5ccc2[nH]5)C=C4)C=C3)cc1
REMARK SMILES IDX 34 1 33 2 31 3 32 4 5 5 4 6 3 7 2 8 1 9 6 10 7 11 8 12 30 13
REMARK SMILES IDX 9 14 20 15 19 16 10 17 11 18 12 19 13 20 14 21 18 22 15 23
REMARK SMILES IDX 17 24 16 25 21 26 22 27 23 28 24 29 25 30 29 31 26 32 28 33
REMARK SMILES IDX 27 34 35 35 36 36 37 37 38 38 39 39 40 40 41 41 42 42 43 43
REMARK SMILES IDX 89 44 44 45 88 46 45 47 46 48 47 49 82 50 48 51 87 52 81 53
REMARK SMILES IDX 83 54 49 55 86 56 80 57 79 58 50 60 72 61 57 62 71 63 58 64
REMARK SMILES IDX 61 65 70 66 84 67 59 68 60 69 69 71 85 72 62 73 51 74 52 75
REMARK SMILES IDX 56 76 53 77 55 78 54 79 73 80 74 81 78 82 75 83 77 84 76 85
REMARK SMILES IDX 63 86 64 87 68 88 65 89 67 90 66 91
REMARK H PARENT 83 59 61 70
REMARK Flexibility Score: inf
ROOT
ATOM      1  C   UNL A   1      36.278  20.992  25.336  1.00  0.00     0.261 C 
ENDROOT
BRANCH   1   2
ATOM      2  O   UNL A   1      35.530  22.215  25.273  1.00  0.00    -0.462 OA
BRANCH   2   3
ATOM      3  C   UNL A   1      34.278  22.154  25.805  1.00  0.00     0.319 C 
ATOM      4  O   UNL A   1      33.978  21.513  26.808  1.00  0.00    -0.251 OA
BRANCH   3   5
ATOM      5  C   UNL A   1      33.262  22.965  25.016  1.00  0.00     0.164 C 
BRANCH   5   6
ATOM      6  C   UNL A   1      32.276  22.122  24.176  1.00  0.00     0.027 C 
BRANCH   6   7
ATOM      7  C   UNL A   1      32.414  22.239  22.648  1.00  0.00     0.001 C 
BRANCH   7   8
ATOM      8  C   UNL A   1      33.489  23.207  22.142  1.00  0.00    -0.003 C 
ATOM      9  C   UNL A   1      32.964  24.380  21.338  1.00  0.00     0.004 C 
ENDBRANCH   7   8
ENDBRANCH   6   7
ENDBRANCH   5   6
BRANCH   5  10
ATOM     10  S   UNL A   1      32.425  24.056  26.224  1.00  0.00    -0.071 SA
BRANCH  10  11
ATOM     11  C   UNL A   1      32.487  25.552  25.295  1.00  0.00     0.195 A 
ATOM     12  N   UNL A   1      31.647  25.692  24.258  1.00  0.00    -0.187 NA
ATOM     13  N   UNL A   1      33.278  26.509  25.780  1.00  0.00    -0.187 NA
ATOM     14  C   UNL A   1      31.647  26.874  23.636  1.00  0.00     0.221 A 
ATOM     15  C   UNL A   1      33.264  27.678  25.138  1.00  0.00     0.221 A 
ATOM     16  C   UNL A   1      32.499  27.880  24.015  1.00  0.00     0.136 A 
BRANCH  14  17
ATOM     17  O   UNL A   1      30.583  27.031  22.784  1.00  0.00    -0.477 OA
BRANCH  17  18
ATOM     18  C   UNL A   1      29.425  27.764  23.166  1.00  0.00     0.231 C 
BRANCH  18  19
ATOM     19  C   UNL A   1      29.586  29.204  23.729  1.00  0.00     0.045 C 
BRANCH  19  20
ATOM     20  C   UNL A   1      29.342  30.411  22.808  1.00  0.00    -0.008 C 
ATOM     21  C   UNL A   1      28.335  30.150  21.677  1.00  0.00     0.004 C 
ATOM     22  C   UNL A   1      28.867  31.633  23.588  1.00  0.00     0.004 C 
ATOM     23  C   UNL A   1      28.233  31.385  20.764  1.00  0.00     0.000 C 
ATOM     24  C   UNL A   1      28.831  32.877  22.718  1.00  0.00     0.000 C 
ATOM     25  C   UNL A   1      27.907  32.670  21.529  1.00  0.00     0.000 C 
ENDBRANCH  19  20
ENDBRANCH  18  19
ENDBRANCH  17  18
ENDBRANCH  14  17
BRANCH  15  26
ATOM     26  O   UNL A   1      34.097  28.585  25.717  1.00  0.00    -0.477 OA
BRANCH  26  27
ATOM     27  C   UNL A   1      34.148  28.751  27.129  1.00  0.00     0.231 C 
BRANCH  27  28
ATOM     28  C   UNL A   1      34.789  30.095  27.509  1.00  0.00     0.045 C 
BRANCH  28  29
ATOM     29  C   UNL A   1      35.868  30.095  28.626  1.00  0.00    -0.008 C 
ATOM     30  C   UNL A   1      37.201  29.455  28.186  1.00  0.00     0.004 C 
ATOM     31  C   UNL A   1      35.940  31.459  29.330  1.00  0.00     0.004 C 
ATOM     32  C   UNL A   1      38.505  30.033  28.732  1.00  0.00     0.000 C 
ATOM     33  C   UNL A   1      37.205  31.650  30.149  1.00  0.00     0.000 C 
ATOM     34  C   UNL A   1      38.413  31.447  29.263  1.00  0.00     0.000 C 
ENDBRANCH  28  29
ENDBRANCH  27  28
ENDBRANCH  26  27
ENDBRANCH  15  26
ENDBRANCH  10  11
ENDBRANCH   5  10
ENDBRANCH   3   5
ENDBRANCH   2   3
ENDBRANCH   1   2
BRANCH   1  35
ATOM     35  C   UNL A   1      37.789  21.228  25.258  1.00  0.00     0.202 C 
BRANCH  35  36
ATOM     36  O   UNL A   1      38.338  22.254  26.078  1.00  0.00    -0.374 OA
BRANCH  36  37
ATOM     37  C   UNL A   1      39.641  22.052  26.621  1.00  0.00     0.202 C 
BRANCH  37  38
ATOM     38  C   UNL A   1      40.521  23.297  26.817  1.00  0.00     0.261 C 
BRANCH  38  39
ATOM     39  O   UNL A   1      41.644  23.053  27.687  1.00  0.00    -0.460 OA
BRANCH  39  40
ATOM     40  C   UNL A   1      42.833  22.906  27.057  1.00  0.00     0.338 C 
ATOM     41  O   UNL A   1      43.266  21.902  26.501  1.00  0.00    -0.246 OA
BRANCH  40  42
ATOM     42  C   UNL A   1      43.521  24.201  26.972  1.00  0.00     0.060 A 
ATOM     43  C   UNL A   1      43.774  24.734  25.700  1.00  0.00     0.016 A 
ATOM     44  C   UNL A   1      44.012  24.829  28.117  1.00  0.00     0.016 A 
ATOM     45  C   UNL A   1      44.531  25.896  25.569  1.00  0.00     0.010 A 
ATOM     46  C   UNL A   1      44.785  25.986  27.981  1.00  0.00     0.010 A 
ATOM     47  C   UNL A   1      45.065  26.512  26.707  1.00  0.00    -0.014 A 
BRANCH  47  48
ATOM     48  C   UNL A   1      46.000  27.652  26.563  1.00  0.00     0.031 A 
ATOM     49  C   UNL A   1      47.464  27.385  26.369  1.00  0.00     0.074 A 
ATOM     50  C   UNL A   1      45.542  28.915  26.599  1.00  0.00     0.049 A 
ATOM     51  N   UNL A   1      48.458  28.234  26.299  1.00  0.00    -0.248 NA
ATOM     52  C   UNL A   1      47.862  25.975  26.231  1.00  0.00     0.031 C 
ATOM     53  C   UNL A   1      44.138  29.303  26.714  1.00  0.00     0.029 A 
ATOM     54  N   UNL A   1      46.220  30.107  26.549  1.00  0.00    -0.354 N 
ATOM     55  C   UNL A   1      49.599  27.463  26.114  1.00  0.00     0.074 A 
ATOM     56  C   UNL A   1      49.177  26.078  26.105  1.00  0.00     0.031 C 
ATOM     57  C   UNL A   1      44.058  30.644  26.735  1.00  0.00     0.029 A 
ATOM     58  C   UNL A   1      45.407  31.204  26.682  1.00  0.00     0.049 A 
ATOM     59  H   UNL A   1      47.195  30.169  26.429  1.00  0.00     0.167 HD
ATOM     60  C   UNL A   1      50.882  27.872  25.965  1.00  0.00     0.031 A 
ATOM     61  C   UNL A   1      45.718  32.510  26.785  1.00  0.00     0.031 A 
ATOM     62  C   UNL A   1      51.302  29.248  26.001  1.00  0.00     0.049 A 
ATOM     63  C   UNL A   1      47.162  32.931  26.753  1.00  0.00     0.074 A 
ATOM     64  C   UNL A   1      52.578  29.765  25.851  1.00  0.00     0.029 A 
ATOM     65  N   UNL A   1      50.457  30.324  26.220  1.00  0.00    -0.354 N 
ATOM     66  N   UNL A   1      48.232  32.197  26.566  1.00  0.00    -0.248 NA
ATOM     67  C   UNL A   1      47.441  34.359  26.957  1.00  0.00     0.031 C 
ATOM     68  C   UNL A   1      52.512  31.150  26.041  1.00  0.00     0.029 A 
ATOM     69  C   UNL A   1      51.188  31.500  26.252  1.00  0.00     0.049 A 
ATOM     70  H   UNL A   1      49.482  30.262  26.335  1.00  0.00     0.167 HD
ATOM     71  C   UNL A   1      49.308  33.075  26.613  1.00  0.00     0.074 A 
ATOM     72  C   UNL A   1      48.761  34.398  26.831  1.00  0.00     0.031 C 
ATOM     73  C   UNL A   1      50.631  32.808  26.483  1.00  0.00     0.031 A 
BRANCH  60  74
ATOM     74  C   UNL A   1      51.928  26.807  25.796  1.00  0.00    -0.014 A 
ATOM     75  C   UNL A   1      52.586  26.248  26.903  1.00  0.00     0.009 A 
ATOM     76  C   UNL A   1      52.245  26.341  24.510  1.00  0.00     0.009 A 
ATOM     77  C   UNL A   1      53.568  25.270  26.722  1.00  0.00     0.001 A 
ATOM     78  C   UNL A   1      53.207  25.345  24.335  1.00  0.00     0.001 A 
ATOM     79  C   UNL A   1      53.875  24.818  25.439  1.00  0.00     0.000 A 
ENDBRANCH  60  74
BRANCH  61  80
ATOM     80  C   UNL A   1      44.640  33.516  26.968  1.00  0.00    -0.014 A 
ATOM     81  C   UNL A   1      44.177  33.841  28.251  1.00  0.00     0.009 A 
ATOM     82  C   UNL A   1      44.066  34.155  25.857  1.00  0.00     0.009 A 
ATOM     83  C   UNL A   1      43.152  34.776  28.417  1.00  0.00     0.001 A 
ATOM     84  C   UNL A   1      43.060  35.108  26.027  1.00  0.00     0.001 A 
ATOM     85  C   UNL A   1      42.600  35.413  27.306  1.00  0.00     0.000 A 
ENDBRANCH  61  80
BRANCH  73  86
ATOM     86  C   UNL A   1      51.580  33.970  26.558  1.00  0.00    -0.014 A 
ATOM     87  C   UNL A   1      52.108  34.395  27.787  1.00  0.00     0.009 A 
ATOM     88  C   UNL A   1      51.992  34.612  25.380  1.00  0.00     0.009 A 
ATOM     89  C   UNL A   1      53.017  35.454  27.835  1.00  0.00     0.001 A 
ATOM     90  C   UNL A   1      52.921  35.653  25.430  1.00  0.00     0.001 A 
ATOM     91  C   UNL A   1      53.427  36.078  26.657  1.00  0.00     0.000 A 
ENDBRANCH  73  86
ENDBRANCH  47  48
ENDBRANCH  40  42
ENDBRANCH  39  40
ENDBRANCH  38  39
ENDBRANCH  37  38
ENDBRANCH  36  37
ENDBRANCH  35  36
ENDBRANCH   1  35
TORSDOF 27
ENDMDL
MODEL 3
REMARK VINA RESULT:      -9.1      3.883      7.970
REMARK SMILES CCCC[C@@H](Sc1nc(OCCC2CCCCC2)cc(OCCC2CCCCC2)n1)C(=O)OCCOCCOC(=O)c1ccc(-c2c3nc(c(-c4ccccc4)c4ccc([nH]4)c(-c4ccccc4)c4nc(c(-c5ccccc5)c5ccc2[nH]5)C=C4)C=C3)cc1
REMARK SMILES IDX 34 1 33 2 31 3 32 4 5 5 4 6 3 7 2 8 1 9 6 10 7 11 8 12 30 13
REMARK SMILES IDX 9 14 20 15 19 16 10 17 11 18 12 19 13 20 14 21 18 22 15 23
REMARK SMILES IDX 17 24 16 25 21 26 22 27 23 28 24 29 25 30 29 31 26 32 28 33
REMARK SMILES IDX 27 34 35 35 36 36 37 37 38 38 39 39 40 40 41 41 42 42 43 43
REMARK SMILES IDX 89 44 44 45 88 46 45 47 46 48 47 49 82 50 48 51 87 52 81 53
REMARK SMILES IDX 83 54 49 55 86 56 80 57 79 58 50 60 72 61 57 62 71 63 58 64
REMARK SMILES IDX 61 65 70 66 84 67 59 68 60 69 69 71 85 72 62 73 51 74 52 75
REMARK SMILES IDX 56 76 53 77 55 78 54 79 73 80 74 81 78 82 75 83 77 84 76 85
REMARK SMILES IDX 63 86 64 87 68 88 65 89 67 90 66 91
REMARK H PARENT 83 59 61 70
REMARK Flexibility Score: inf
ROOT
ATOM      1  C   UNL A   1      36.164  21.261  25.508  1.00  0.00     0.261 C 
ENDROOT
BRANCH   1   2
ATOM      2  O   UNL A   1      35.202  22.312  25.331  1.00  0.00    -0.462 OA
BRANCH   2   3
ATOM      3  C   UNL A   1      33.974  22.065  25.865  1.00  0.00     0.319 C 
ATOM      4  O   UNL A   1      33.742  21.206  26.710  1.00  0.00    -0.251 OA
BRANCH   3   5
ATOM      5  C   UNL A   1      32.891  22.967  25.295  1.00  0.00     0.164 C 
BRANCH   5   6
ATOM      6  C   UNL A   1      31.939  22.279  24.291  1.00  0.00     0.027 C 
BRANCH   6   7
ATOM      7  C   UNL A   1      32.467  22.122  22.855  1.00  0.00     0.001 C 
BRANCH   7   8
ATOM      8  C   UNL A   1      33.393  23.235  22.353  1.00  0.00    -0.003 C 
ATOM      9  C   UNL A   1      32.705  24.551  22.052  1.00  0.00     0.004 C 
ENDBRANCH   7   8
ENDBRANCH   6   7
ENDBRANCH   5   6
BRANCH   5  10
ATOM     10  S   UNL A   1      32.018  23.692  26.732  1.00  0.00    -0.071 SA
BRANCH  10  11
ATOM     11  C   UNL A   1      31.734  25.299  26.067  1.00  0.00     0.195 A 
ATOM     12  N   UNL A   1      30.889  25.419  25.032  1.00  0.00    -0.187 NA
ATOM     13  N   UNL A   1      32.278  26.313  26.739  1.00  0.00    -0.187 NA
ATOM     14  C   UNL A   1      30.616  26.658  24.616  1.00  0.00     0.221 A 
ATOM     15  C   UNL A   1      31.995  27.541  26.300  1.00  0.00     0.221 A 
ATOM     16  C   UNL A   1      31.208  27.753  25.194  1.00  0.00     0.136 A 
BRANCH  14  17
ATOM     17  O   UNL A   1      29.549  26.712  23.755  1.00  0.00    -0.477 OA
BRANCH  17  18
ATOM     18  C   UNL A   1      28.986  27.952  23.343  1.00  0.00     0.231 C 
BRANCH  18  19
ATOM     19  C   UNL A   1      29.694  28.779  22.235  1.00  0.00     0.045 C 
BRANCH  19  20
ATOM     20  C   UNL A   1      29.446  30.294  22.142  1.00  0.00    -0.008 C 
ATOM     21  C   UNL A   1      28.400  30.699  21.091  1.00  0.00     0.004 C 
ATOM     22  C   UNL A   1      29.019  30.882  23.483  1.00  0.00     0.004 C 
ATOM     23  C   UNL A   1      28.294  32.233  21.016  1.00  0.00     0.000 C 
ATOM     24  C   UNL A   1      28.981  32.400  23.445  1.00  0.00     0.000 C 
ATOM     25  C   UNL A   1      28.018  32.882  22.374  1.00  0.00     0.000 C 
ENDBRANCH  19  20
ENDBRANCH  18  19
ENDBRANCH  17  18
ENDBRANCH  14  17
BRANCH  15  26
ATOM     26  O   UNL A   1      32.591  28.502  27.058  1.00  0.00    -0.477 OA
BRANCH  26  27
ATOM     27  C   UNL A   1      33.761  29.177  26.612  1.00  0.00     0.231 C 
BRANCH  27  28
ATOM     28  C   UNL A   1      34.866  29.140  27.680  1.00  0.00     0.045 C 
BRANCH  28  29
ATOM     29  C   UNL A   1      35.931  30.271  27.664  1.00  0.00    -0.008 C 
ATOM     30  C   UNL A   1      35.321  31.683  27.774  1.00  0.00     0.004 C 
ATOM     31  C   UNL A   1      37.110  29.938  28.591  1.00  0.00     0.004 C 
ATOM     32  C   UNL A   1      36.091  32.754  28.544  1.00  0.00     0.000 C 
ATOM     33  C   UNL A   1      37.980  31.140  28.916  1.00  0.00     0.000 C 
ATOM     34  C   UNL A   1      37.125  32.231  29.518  1.00  0.00     0.000 C 
ENDBRANCH  28  29
ENDBRANCH  27  28
ENDBRANCH  26  27
ENDBRANCH  15  26
ENDBRANCH  10  11
ENDBRANCH   5  10
ENDBRANCH   3   5
ENDBRANCH   2   3
ENDBRANCH   1   2
BRANCH   1  35
ATOM     35  C   UNL A   1      37.606  21.773  25.439  1.00  0.00     0.202 C 
BRANCH  35  36
ATOM     36  O   UNL A   1      37.880  23.047  26.015  1.00  0.00    -0.374 OA
BRANCH  36  37
ATOM     37  C   UNL A   1      39.160  23.250  26.610  1.00  0.00     0.202 C 
BRANCH  37  38
ATOM     38  C   UNL A   1      39.643  24.703  26.754  1.00  0.00     0.261 C 
BRANCH  38  39
ATOM     39  O   UNL A   1      40.490  24.896  27.905  1.00  0.00    -0.460 OA
BRANCH  39  40
ATOM     40  C   UNL A   1      41.640  25.566  27.661  1.00  0.00     0.338 C 
ATOM     41  O   UNL A   1      42.519  25.275  26.856  1.00  0.00    -0.246 OA
BRANCH  40  42
ATOM     42  C   UNL A   1      41.648  26.837  28.396  1.00  0.00     0.060 A 
ATOM     43  C   UNL A   1      40.920  27.912  27.869  1.00  0.00     0.016 A 
ATOM     44  C   UNL A   1      42.449  27.006  29.527  1.00  0.00     0.016 A 
ATOM     45  C   UNL A   1      40.999  29.168  28.466  1.00  0.00     0.010 A 
ATOM     46  C   UNL A   1      42.539  28.271  30.114  1.00  0.00     0.010 A 
ATOM     47  C   UNL A   1      41.831  29.361  29.575  1.00  0.00    -0.014 A 
BRANCH  47  48
ATOM     48  C   UNL A   1      42.044  30.724  30.116  1.00  0.00     0.031 A 
ATOM     49  C   UNL A   1      43.078  31.614  29.489  1.00  0.00     0.074 A 
ATOM     50  C   UNL A   1      41.311  31.166  31.152  1.00  0.00     0.049 A 
ATOM     51  N   UNL A   1      43.474  32.807  29.854  1.00  0.00    -0.248 NA
ATOM     52  C   UNL A   1      43.754  31.091  28.290  1.00  0.00     0.031 C 
ATOM     53  C   UNL A   1      40.232  30.425  31.802  1.00  0.00     0.029 A 
ATOM     54  N   UNL A   1      41.376  32.348  31.846  1.00  0.00    -0.354 N 
ATOM     55  C   UNL A   1      44.447  33.177  28.934  1.00  0.00     0.074 A 
ATOM     56  C   UNL A   1      44.598  32.073  28.009  1.00  0.00     0.031 C 
ATOM     57  C   UNL A   1      39.739  31.167  32.808  1.00  0.00     0.029 A 
ATOM     58  C   UNL A   1      40.499  32.412  32.899  1.00  0.00     0.049 A 
ATOM     59  H   UNL A   1      41.990  33.080  31.608  1.00  0.00     0.167 HD
ATOM     60  C   UNL A   1      45.152  34.332  28.867  1.00  0.00     0.031 A 
ATOM     61  C   UNL A   1      40.351  33.352  33.852  1.00  0.00     0.031 A 
ATOM     62  C   UNL A   1      45.020  35.416  29.803  1.00  0.00     0.049 A 
ATOM     63  C   UNL A   1      41.240  34.567  33.835  1.00  0.00     0.074 A 
ATOM     64  C   UNL A   1      45.683  36.632  29.815  1.00  0.00     0.029 A 
ATOM     65  N   UNL A   1      44.180  35.408  30.905  1.00  0.00    -0.354 N 
ATOM     66  N   UNL A   1      42.149  34.914  32.957  1.00  0.00    -0.248 NA
ATOM     67  C   UNL A   1      41.089  35.513  34.950  1.00  0.00     0.031 C 
ATOM     68  C   UNL A   1      45.287  37.333  30.960  1.00  0.00     0.029 A 
ATOM     69  C   UNL A   1      44.337  36.578  31.629  1.00  0.00     0.049 A 
ATOM     70  H   UNL A   1      43.562  34.678  31.138  1.00  0.00     0.167 HD
ATOM     71  C   UNL A   1      42.665  36.125  33.401  1.00  0.00     0.074 A 
ATOM     72  C   UNL A   1      41.957  36.460  34.620  1.00  0.00     0.031 C 
ATOM     73  C   UNL A   1      43.635  36.892  32.847  1.00  0.00     0.031 A 
BRANCH  60  74
ATOM     74  C   UNL A   1      46.165  34.456  27.764  1.00  0.00    -0.014 A 
ATOM     75  C   UNL A   1      47.479  33.988  27.923  1.00  0.00     0.009 A 
ATOM     76  C   UNL A   1      45.792  35.032  26.539  1.00  0.00     0.009 A 
ATOM     77  C   UNL A   1      48.409  34.129  26.890  1.00  0.00     0.001 A 
ATOM     78  C   UNL A   1      46.717  35.147  25.500  1.00  0.00     0.001 A 
ATOM     79  C   UNL A   1      48.027  34.705  25.680  1.00  0.00     0.000 A 
ENDBRANCH  60  74
BRANCH  61  80
ATOM     80  C   UNL A   1      39.344  33.166  34.927  1.00  0.00    -0.014 A 
ATOM     81  C   UNL A   1      39.604  32.310  36.007  1.00  0.00     0.009 A 
ATOM     82  C   UNL A   1      38.114  33.841  34.876  1.00  0.00     0.009 A 
ATOM     83  C   UNL A   1      38.646  32.125  37.008  1.00  0.00     0.001 A 
ATOM     84  C   UNL A   1      37.169  33.674  35.890  1.00  0.00     0.001 A 
ATOM     85  C   UNL A   1      37.434  32.812  36.953  1.00  0.00     0.000 A 
ENDBRANCH  61  80
BRANCH  73  86
ATOM     86  C   UNL A   1      43.982  38.177  33.543  1.00  0.00    -0.014 A 
ATOM     87  C   UNL A   1      43.329  39.375  33.217  1.00  0.00     0.009 A 
ATOM     88  C   UNL A   1      44.932  38.177  34.576  1.00  0.00     0.009 A 
ATOM     89  C   UNL A   1      43.638  40.555  33.899  1.00  0.00     0.001 A 
ATOM     90  C   UNL A   1      45.220  39.352  35.273  1.00  0.00     0.001 A 
ATOM     91  C   UNL A   1      44.578  40.541  34.930  1.00  0.00     0.000 A 
ENDBRANCH  73  86
ENDBRANCH  47  48
ENDBRANCH  40  42
ENDBRANCH  39  40
ENDBRANCH  38  39
ENDBRANCH  37  38
ENDBRANCH  36  37
ENDBRANCH  35  36
ENDBRANCH   1  35
TORSDOF 27
ENDMDL
