MODEL 1
REMARK VINA RESULT:      -9.7      0.000      0.000
REMARK SMILES CC(C)CN(C1CCCC1)S(=O)(=O)c1[nH]ncc1C(=O)OCCOCCOC(=O)c1ccc(-c2c3nc(c(-c4ccccc4)c4ccc([nH]4)c(-c4ccccc4)c4nc(c(-c5ccccc5)c5ccc2[nH]5)C=C4)C=C3)cc1
REMARK SMILES IDX 23 1 22 2 21 3 19 4 20 5 18 6 14 7 15 8 16 9 17 11 11 12
REMARK SMILES IDX 12 13 13 14 5 15 4 16 2 17 1 18 3 19 6 20 7 21 10 22 8 23
REMARK SMILES IDX 9 24 24 25 25 26 26 27 27 28 28 29 29 30 30 31 31 32 77 33
REMARK SMILES IDX 32 34 76 35 33 36 34 37 35 38 70 39 36 40 75 41 69 42 71 43
REMARK SMILES IDX 37 44 74 45 68 46 67 47 38 49 60 50 45 51 59 52 46 53 49 54
REMARK SMILES IDX 58 55 72 56 47 57 48 58 57 60 73 61 50 62 39 63 40 64 44 65
REMARK SMILES IDX 41 66 43 67 42 68 61 69 62 70 66 71 63 72 65 73 64 74 51 75
REMARK SMILES IDX 52 76 56 77 53 78 55 79 54 80
REMARK H PARENT 15 10 71 48 49 59
REMARK Flexibility Score: inf
ROOT
ATOM      1  C   UNL A   1      33.117  28.829  26.465  1.00  0.00     0.202 C 
ENDROOT
BRANCH   1   2
ATOM      2  C   UNL A   1      33.240  27.763  25.377  1.00  0.00     0.261 C 
BRANCH   2   3
ATOM      3  O   UNL A   1      32.535  26.552  25.679  1.00  0.00    -0.460 OA
BRANCH   3   4
ATOM      4  C   UNL A   1      31.262  26.483  25.217  1.00  0.00     0.342 C 
ATOM      5  O   UNL A   1      30.304  26.089  25.875  1.00  0.00    -0.246 OA
BRANCH   4   6
ATOM      6  C   UNL A   1      31.103  26.983  23.871  1.00  0.00     0.118 A 
ATOM      7  C   UNL A   1      31.745  26.630  22.690  1.00  0.00     0.180 A 
ATOM      8  N   UNL A   1      31.196  27.457  21.740  1.00  0.00    -0.265 N 
ATOM      9  N   UNL A   1      30.243  28.283  22.197  1.00  0.00    -0.182 NA
ATOM     10  H   UNL A   1      31.480  27.444  20.798  1.00  0.00     0.191 HD
ATOM     11  C   UNL A   1      30.188  27.994  23.494  1.00  0.00     0.152 A 
BRANCH   7  12
ATOM     12  S   UNL A   1      33.044  25.578  22.152  1.00  0.00     0.261 S 
ATOM     13  O   UNL A   1      34.177  26.436  21.910  1.00  0.00    -0.205 OA
ATOM     14  O   UNL A   1      32.383  24.923  21.042  1.00  0.00    -0.205 OA
BRANCH  12  15
ATOM     15  N   UNL A   1      33.503  24.333  23.248  1.00  0.00    -0.193 NA
BRANCH  15  16
ATOM     16  C   UNL A   1      33.225  22.937  22.662  1.00  0.00     0.106 C 
BRANCH  16  17
ATOM     17  C   UNL A   1      32.190  22.035  23.360  1.00  0.00    -0.002 C 
ATOM     18  C   UNL A   1      32.789  20.811  24.063  1.00  0.00     0.009 C 
ATOM     19  C   UNL A   1      31.494  22.880  24.445  1.00  0.00     0.009 C 
ENDBRANCH  16  17
ENDBRANCH  15  16
BRANCH  15  20
ATOM     20  C   UNL A   1      34.897  24.281  23.839  1.00  0.00     0.073 C 
ATOM     21  C   UNL A   1      34.939  24.215  25.363  1.00  0.00     0.020 C 
ATOM     22  C   UNL A   1      35.861  23.213  23.343  1.00  0.00     0.020 C 
ATOM     23  C   UNL A   1      36.368  23.803  25.671  1.00  0.00     0.002 C 
ATOM     24  C   UNL A   1      36.769  22.876  24.534  1.00  0.00     0.002 C 
ENDBRANCH  15  20
ENDBRANCH  12  15
ENDBRANCH   7  12
ENDBRANCH   4   6
ENDBRANCH   3   4
ENDBRANCH   2   3
ENDBRANCH   1   2
BRANCH   1  25
ATOM     25  O   UNL A   1      32.943  30.184  26.071  1.00  0.00    -0.374 OA
BRANCH  25  26
ATOM     26  C   UNL A   1      31.766  30.877  26.475  1.00  0.00     0.202 C 
BRANCH  26  27
ATOM     27  C   UNL A   1      31.889  32.268  27.110  1.00  0.00     0.261 C 
BRANCH  27  28
ATOM     28  O   UNL A   1      33.240  32.694  27.338  1.00  0.00    -0.460 OA
BRANCH  28  29
ATOM     29  C   UNL A   1      33.358  33.711  28.224  1.00  0.00     0.338 C 
ATOM     30  O   UNL A   1      32.534  34.575  28.474  1.00  0.00    -0.246 OA
BRANCH  29  31
ATOM     31  C   UNL A   1      34.601  33.586  29.001  1.00  0.00     0.060 A 
ATOM     32  C   UNL A   1      35.799  33.970  28.383  1.00  0.00     0.016 A 
ATOM     33  C   UNL A   1      34.610  32.936  30.234  1.00  0.00     0.016 A 
ATOM     34  C   UNL A   1      37.019  33.638  28.966  1.00  0.00     0.010 A 
ATOM     35  C   UNL A   1      35.836  32.598  30.814  1.00  0.00     0.010 A 
ATOM     36  C   UNL A   1      37.043  32.903  30.158  1.00  0.00    -0.014 A 
BRANCH  36  37
ATOM     37  C   UNL A   1      38.318  32.314  30.629  1.00  0.00     0.031 A 
ATOM     38  C   UNL A   1      38.792  31.019  30.023  1.00  0.00     0.074 A 
ATOM     39  C   UNL A   1      39.059  32.934  31.563  1.00  0.00     0.049 A 
ATOM     40  N   UNL A   1      39.849  30.303  30.318  1.00  0.00    -0.248 NA
ATOM     41  C   UNL A   1      37.965  30.455  28.945  1.00  0.00     0.031 C 
ATOM     42  C   UNL A   1      38.734  34.217  32.184  1.00  0.00     0.029 A 
ATOM     43  N   UNL A   1      40.238  32.561  32.153  1.00  0.00    -0.354 N 
ATOM     44  C   UNL A   1      39.803  29.200  29.475  1.00  0.00     0.074 A 
ATOM     45  C   UNL A   1      38.602  29.324  28.679  1.00  0.00     0.031 C 
ATOM     46  C   UNL A   1      39.692  34.522  33.075  1.00  0.00     0.029 A 
ATOM     47  C   UNL A   1      40.672  33.438  33.115  1.00  0.00     0.049 A 
ATOM     48  H   UNL A   1      40.728  31.742  31.909  1.00  0.00     0.167 HD
ATOM     49  C   UNL A   1      40.684  28.176  29.370  1.00  0.00     0.031 A 
ATOM     50  C   UNL A   1      41.725  33.362  33.951  1.00  0.00     0.031 A 
ATOM     51  C   UNL A   1      41.872  28.048  30.171  1.00  0.00     0.049 A 
ATOM     52  C   UNL A   1      42.644  32.171  33.873  1.00  0.00     0.074 A 
ATOM     53  C   UNL A   1      42.838  27.058  30.129  1.00  0.00     0.029 A 
ATOM     54  N   UNL A   1      42.253  28.937  31.164  1.00  0.00    -0.354 N 
ATOM     55  N   UNL A   1      42.604  31.144  33.058  1.00  0.00    -0.248 NA
ATOM     56  C   UNL A   1      43.760  32.134  34.829  1.00  0.00     0.031 C 
ATOM     57  C   UNL A   1      43.768  27.312  31.142  1.00  0.00     0.029 A 
ATOM     58  C   UNL A   1      43.422  28.500  31.765  1.00  0.00     0.049 A 
ATOM     59  H   UNL A   1      41.766  29.757  31.407  1.00  0.00     0.167 HD
ATOM     60  C   UNL A   1      43.704  30.359  33.379  1.00  0.00     0.074 A 
ATOM     61  C   UNL A   1      44.401  31.036  34.453  1.00  0.00     0.031 C 
ATOM     62  C   UNL A   1      44.105  29.185  32.833  1.00  0.00     0.031 A 
BRANCH  49  63
ATOM     63  C   UNL A   1      40.372  27.087  28.379  1.00  0.00    -0.014 A 
ATOM     64  C   UNL A   1      40.853  27.134  27.061  1.00  0.00     0.009 A 
ATOM     65  C   UNL A   1      39.613  25.977  28.783  1.00  0.00     0.009 A 
ATOM     66  C   UNL A   1      40.551  26.109  26.160  1.00  0.00     0.001 A 
ATOM     67  C   UNL A   1      39.339  24.940  27.891  1.00  0.00     0.001 A 
ATOM     68  C   UNL A   1      39.799  25.011  26.577  1.00  0.00     0.000 A 
ENDBRANCH  49  63
BRANCH  50  69
ATOM     69  C   UNL A   1      41.958  34.432  34.955  1.00  0.00    -0.014 A 
ATOM     70  C   UNL A   1      41.354  34.374  36.219  1.00  0.00     0.009 A 
ATOM     71  C   UNL A   1      42.774  35.533  34.643  1.00  0.00     0.009 A 
ATOM     72  C   UNL A   1      41.537  35.409  37.140  1.00  0.00     0.001 A 
ATOM     73  C   UNL A   1      42.981  36.549  35.577  1.00  0.00     0.001 A 
ATOM     74  C   UNL A   1      42.354  36.493  36.820  1.00  0.00     0.000 A 
ENDBRANCH  50  69
BRANCH  62  75
ATOM     75  C   UNL A   1      45.380  28.578  33.354  1.00  0.00    -0.014 A 
ATOM     76  C   UNL A   1      46.624  28.872  32.773  1.00  0.00     0.009 A 
ATOM     77  C   UNL A   1      45.337  27.732  34.473  1.00  0.00     0.009 A 
ATOM     78  C   UNL A   1      47.793  28.299  33.280  1.00  0.00     0.001 A 
ATOM     79  C   UNL A   1      46.510  27.188  34.999  1.00  0.00     0.001 A 
ATOM     80  C   UNL A   1      47.736  27.463  34.395  1.00  0.00     0.000 A 
ENDBRANCH  62  75
ENDBRANCH  36  37
ENDBRANCH  29  31
ENDBRANCH  28  29
ENDBRANCH  27  28
ENDBRANCH  26  27
ENDBRANCH  25  26
ENDBRANCH   1  25
TORSDOF 19
ENDMDL
MODEL 2
REMARK VINA RESULT:      -9.7      1.869      5.895
REMARK SMILES CC(C)CN(C1CCCC1)S(=O)(=O)c1[nH]ncc1C(=O)OCCOCCOC(=O)c1ccc(-c2c3nc(c(-c4ccccc4)c4ccc([nH]4)c(-c4ccccc4)c4nc(c(-c5ccccc5)c5ccc2[nH]5)C=C4)C=C3)cc1
REMARK SMILES IDX 23 1 22 2 21 3 19 4 20 5 18 6 14 7 15 8 16 9 17 11 11 12
REMARK SMILES IDX 12 13 13 14 5 15 4 16 2 17 1 18 3 19 6 20 7 21 10 22 8 23
REMARK SMILES IDX 9 24 24 25 25 26 26 27 27 28 28 29 29 30 30 31 31 32 77 33
REMARK SMILES IDX 32 34 76 35 33 36 34 37 35 38 70 39 36 40 75 41 69 42 71 43
REMARK SMILES IDX 37 44 74 45 68 46 67 47 38 49 60 50 45 51 59 52 46 53 49 54
REMARK SMILES IDX 58 55 72 56 47 57 48 58 57 60 73 61 50 62 39 63 40 64 44 65
REMARK SMILES IDX 41 66 43 67 42 68 61 69 62 70 66 71 63 72 65 73 64 74 51 75
REMARK SMILES IDX 52 76 56 77 53 78 55 79 54 80
REMARK H PARENT 15 10 71 48 49 59
REMARK Flexibility Score: inf
ROOT
ATOM      1  C   UNL A   1      32.361  29.378  25.509  1.00  0.00     0.202 C 
ENDROOT
BRANCH   1   2
ATOM      2  C   UNL A   1      31.736  28.145  26.162  1.00  0.00     0.261 C 
BRANCH   2   3
ATOM      3  O   UNL A   1      32.170  26.909  25.583  1.00  0.00    -0.460 OA
BRANCH   3   4
ATOM      4  C   UNL A   1      31.211  26.189  24.950  1.00  0.00     0.342 C 
ATOM      5  O   UNL A   1      30.242  25.681  25.506  1.00  0.00    -0.246 OA
BRANCH   4   6
ATOM      6  C   UNL A   1      31.387  26.114  23.519  1.00  0.00     0.118 A 
ATOM      7  C   UNL A   1      31.902  25.099  22.720  1.00  0.00     0.180 A 
ATOM      8  N   UNL A   1      31.840  25.603  21.443  1.00  0.00    -0.265 N 
ATOM      9  N   UNL A   1      31.307  26.830  21.348  1.00  0.00    -0.182 NA
ATOM     10  H   UNL A   1      32.162  25.102  20.659  1.00  0.00     0.191 HD
ATOM     11  C   UNL A   1      31.032  27.140  22.612  1.00  0.00     0.152 A 
BRANCH   7  12
ATOM     12  S   UNL A   1      32.655  23.523  22.901  1.00  0.00     0.261 S 
ATOM     13  O   UNL A   1      33.505  23.353  21.749  1.00  0.00    -0.205 OA
ATOM     14  O   UNL A   1      31.469  22.704  23.052  1.00  0.00    -0.205 OA
BRANCH  12  15
ATOM     15  N   UNL A   1      33.588  23.298  24.330  1.00  0.00    -0.193 NA
BRANCH  15  16
ATOM     16  C   UNL A   1      33.263  21.955  25.007  1.00  0.00     0.106 C 
BRANCH  16  17
ATOM     17  C   UNL A   1      32.897  21.950  26.503  1.00  0.00    -0.002 C 
ATOM     18  C   UNL A   1      34.037  21.523  27.433  1.00  0.00     0.009 C 
ATOM     19  C   UNL A   1      32.518  23.393  26.892  1.00  0.00     0.009 C 
ENDBRANCH  16  17
ENDBRANCH  15  16
BRANCH  15  20
ATOM     20  C   UNL A   1      35.098  23.414  24.308  1.00  0.00     0.073 C 
ATOM     21  C   UNL A   1      35.699  24.113  25.524  1.00  0.00     0.020 C 
ATOM     22  C   UNL A   1      35.925  22.155  24.092  1.00  0.00     0.020 C 
ATOM     23  C   UNL A   1      37.177  23.775  25.446  1.00  0.00     0.002 C 
ATOM     24  C   UNL A   1      37.234  22.371  24.862  1.00  0.00     0.002 C 
ENDBRANCH  15  20
ENDBRANCH  12  15
ENDBRANCH   7  12
ENDBRANCH   4   6
ENDBRANCH   3   4
ENDBRANCH   2   3
ENDBRANCH   1   2
BRANCH   1  25
ATOM     25  O   UNL A   1      32.558  30.540  26.304  1.00  0.00    -0.374 OA
BRANCH  25  26
ATOM     26  C   UNL A   1      31.501  31.489  26.417  1.00  0.00     0.202 C 
BRANCH  26  27
ATOM     27  C   UNL A   1      31.830  32.953  26.731  1.00  0.00     0.261 C 
BRANCH  27  28
ATOM     28  O   UNL A   1      32.316  33.176  28.062  1.00  0.00    -0.460 OA
BRANCH  28  29
ATOM     29  C   UNL A   1      33.429  33.945  28.124  1.00  0.00     0.338 C 
ATOM     30  O   UNL A   1      33.487  35.163  28.157  1.00  0.00    -0.246 OA
BRANCH  29  31
ATOM     31  C   UNL A   1      34.630  33.113  28.296  1.00  0.00     0.060 A 
ATOM     32  C   UNL A   1      34.453  31.787  28.712  1.00  0.00     0.016 A 
ATOM     33  C   UNL A   1      35.904  33.675  28.229  1.00  0.00     0.016 A 
ATOM     34  C   UNL A   1      35.548  31.038  29.134  1.00  0.00     0.010 A 
ATOM     35  C   UNL A   1      37.002  32.924  28.659  1.00  0.00     0.010 A 
ATOM     36  C   UNL A   1      36.821  31.622  29.160  1.00  0.00    -0.014 A 
BRANCH  36  37
ATOM     37  C   UNL A   1      37.928  30.932  29.863  1.00  0.00     0.031 A 
ATOM     38  C   UNL A   1      38.161  31.222  31.322  1.00  0.00     0.074 A 
ATOM     39  C   UNL A   1      38.699  30.039  29.219  1.00  0.00     0.049 A 
ATOM     40  N   UNL A   1      39.099  30.771  32.117  1.00  0.00    -0.248 NA
ATOM     41  C   UNL A   1      37.215  32.145  31.969  1.00  0.00     0.031 C 
ATOM     42  C   UNL A   1      38.538  29.633  27.823  1.00  0.00     0.029 A 
ATOM     43  N   UNL A   1      39.777  29.315  29.660  1.00  0.00    -0.354 N 
ATOM     44  C   UNL A   1      38.864  31.366  33.351  1.00  0.00     0.074 A 
ATOM     45  C   UNL A   1      37.717  32.232  33.192  1.00  0.00     0.031 C 
ATOM     46  C   UNL A   1      39.490  28.734  27.521  1.00  0.00     0.029 A 
ATOM     47  C   UNL A   1      40.348  28.535  28.688  1.00  0.00     0.049 A 
ATOM     48  H   UNL A   1      40.108  29.352  30.587  1.00  0.00     0.167 HD
ATOM     49  C   UNL A   1      39.542  31.204  34.512  1.00  0.00     0.031 A 
ATOM     50  C   UNL A   1      41.454  27.767  28.726  1.00  0.00     0.031 A 
ATOM     51  C   UNL A   1      40.689  30.351  34.666  1.00  0.00     0.049 A 
ATOM     52  C   UNL A   1      42.239  27.668  30.007  1.00  0.00     0.074 A 
ATOM     53  C   UNL A   1      41.435  30.104  35.806  1.00  0.00     0.029 A 
ATOM     54  N   UNL A   1      41.262  29.609  33.644  1.00  0.00    -0.354 N 
ATOM     55  N   UNL A   1      41.997  28.219  31.174  1.00  0.00    -0.248 NA
ATOM     56  C   UNL A   1      43.450  26.834  29.978  1.00  0.00     0.031 C 
ATOM     57  C   UNL A   1      42.499  29.266  35.459  1.00  0.00     0.029 A 
ATOM     58  C   UNL A   1      42.373  28.931  34.120  1.00  0.00     0.049 A 
ATOM     59  H   UNL A   1      40.930  29.570  32.719  1.00  0.00     0.167 HD
ATOM     60  C   UNL A   1      43.002  27.771  32.022  1.00  0.00     0.074 A 
ATOM     61  C   UNL A   1      43.848  26.893  31.241  1.00  0.00     0.031 C 
ATOM     62  C   UNL A   1      43.206  28.059  33.331  1.00  0.00     0.031 A 
BRANCH  49  63
ATOM     63  C   UNL A   1      39.081  32.001  35.704  1.00  0.00    -0.014 A 
ATOM     64  C   UNL A   1      39.557  33.299  35.947  1.00  0.00     0.009 A 
ATOM     65  C   UNL A   1      38.127  31.455  36.577  1.00  0.00     0.009 A 
ATOM     66  C   UNL A   1      39.112  34.019  37.059  1.00  0.00     0.001 A 
ATOM     67  C   UNL A   1      37.661  32.188  37.669  1.00  0.00     0.001 A 
ATOM     68  C   UNL A   1      38.161  33.465  37.916  1.00  0.00     0.000 A 
ENDBRANCH  49  63
BRANCH  50  69
ATOM     69  C   UNL A   1      41.903  27.045  27.507  1.00  0.00    -0.014 A 
ATOM     70  C   UNL A   1      42.758  27.664  26.582  1.00  0.00     0.009 A 
ATOM     71  C   UNL A   1      41.460  25.737  27.251  1.00  0.00     0.009 A 
ATOM     72  C   UNL A   1      43.135  26.999  25.412  1.00  0.00     0.001 A 
ATOM     73  C   UNL A   1      41.866  25.063  26.098  1.00  0.00     0.001 A 
ATOM     74  C   UNL A   1      42.693  25.698  25.174  1.00  0.00     0.000 A 
ENDBRANCH  50  69
BRANCH  62  75
ATOM     75  C   UNL A   1      44.362  27.382  34.017  1.00  0.00    -0.014 A 
ATOM     76  C   UNL A   1      44.223  26.120  34.617  1.00  0.00     0.009 A 
ATOM     77  C   UNL A   1      45.621  28.001  34.024  1.00  0.00     0.009 A 
ATOM     78  C   UNL A   1      45.314  25.512  35.242  1.00  0.00     0.001 A 
ATOM     79  C   UNL A   1      46.718  27.377  34.620  1.00  0.00     0.001 A 
ATOM     80  C   UNL A   1      46.561  26.138  35.238  1.00  0.00     0.000 A 
ENDBRANCH  62  75
ENDBRANCH  36  37
ENDBRANCH  29  31
ENDBRANCH  28  29
ENDBRANCH  27  28
ENDBRANCH  26  27
ENDBRANCH  25  26
ENDBRANCH   1  25
TORSDOF 19
ENDMDL
MODEL 3
REMARK VINA RESULT:      -9.7      3.933      7.589
REMARK SMILES CC(C)CN(C1CCCC1)S(=O)(=O)c1[nH]ncc1C(=O)OCCOCCOC(=O)c1ccc(-c2c3nc(c(-c4ccccc4)c4ccc([nH]4)c(-c4ccccc4)c4nc(c(-c5ccccc5)c5ccc2[nH]5)C=C4)C=C3)cc1
REMARK SMILES IDX 23 1 22 2 21 3 19 4 20 5 18 6 14 7 15 8 16 9 17 11 11 12
REMARK SMILES IDX 12 13 13 14 5 15 4 16 2 17 1 18 3 19 6 20 7 21 10 22 8 23
REMARK SMILES IDX 9 24 24 25 25 26 26 27 27 28 28 29 29 30 30 31 31 32 77 33
REMARK SMILES IDX 32 34 76 35 33 36 34 37 35 38 70 39 36 40 75 41 69 42 71 43
REMARK SMILES IDX 37 44 74 45 68 46 67 47 38 49 60 50 45 51 59 52 46 53 49 54
REMARK SMILES IDX 58 55 72 56 47 57 48 58 57 60 73 61 50 62 39 63 40 64 44 65
REMARK SMILES IDX 41 66 43 67 42 68 61 69 62 70 66 71 63 72 65 73 64 74 51 75
REMARK SMILES IDX 52 76 56 77 53 78 55 79 54 80
REMARK H PARENT 15 10 71 48 49 59
REMARK Flexibility Score: inf
ROOT
ATOM      1  C   UNL A   1      33.784  20.629  24.269  1.00  0.00     0.202 C 
ENDROOT
BRANCH   1   2
ATOM      2  C   UNL A   1      32.570  21.558  24.271  1.00  0.00     0.261 C 
BRANCH   2   3
ATOM      3  O   UNL A   1      32.910  22.944  24.147  1.00  0.00    -0.460 OA
BRANCH   3   4
ATOM      4  C   UNL A   1      32.898  23.657  25.300  1.00  0.00     0.342 C 
ATOM      5  O   UNL A   1      33.898  24.113  25.846  1.00  0.00    -0.246 OA
BRANCH   4   6
ATOM      6  C   UNL A   1      31.573  23.902  25.820  1.00  0.00     0.118 A 
ATOM      7  C   UNL A   1      30.573  24.764  25.386  1.00  0.00     0.180 A 
ATOM      8  N   UNL A   1      29.549  24.580  26.284  1.00  0.00    -0.265 N 
ATOM      9  N   UNL A   1      29.788  23.661  27.230  1.00  0.00    -0.182 NA
ATOM     10  H   UNL A   1      28.704  25.083  26.235  1.00  0.00     0.191 HD
ATOM     11  C   UNL A   1      31.022  23.249  26.948  1.00  0.00     0.152 A 
BRANCH   7  12
ATOM     12  S   UNL A   1      30.330  26.005  24.168  1.00  0.00     0.261 S 
ATOM     13  O   UNL A   1      28.932  26.353  24.228  1.00  0.00    -0.205 OA
ATOM     14  O   UNL A   1      30.854  25.313  23.009  1.00  0.00    -0.205 OA
BRANCH  12  15
ATOM     15  N   UNL A   1      31.275  27.431  24.353  1.00  0.00    -0.193 NA
BRANCH  15  16
ATOM     16  C   UNL A   1      30.387  28.673  24.553  1.00  0.00     0.106 C 
BRANCH  16  17
ATOM     17  C   UNL A   1      30.220  29.658  23.382  1.00  0.00    -0.002 C 
ATOM     18  C   UNL A   1      30.878  29.206  22.074  1.00  0.00     0.009 C 
ATOM     19  C   UNL A   1      28.709  29.792  23.101  1.00  0.00     0.009 C 
ENDBRANCH  16  17
ENDBRANCH  15  16
BRANCH  15  20
ATOM     20  C   UNL A   1      32.374  27.517  25.393  1.00  0.00     0.073 C 
ATOM     21  C   UNL A   1      33.518  28.460  25.032  1.00  0.00     0.020 C 
ATOM     22  C   UNL A   1      31.995  27.843  26.830  1.00  0.00     0.020 C 
ATOM     23  C   UNL A   1      34.261  28.650  26.343  1.00  0.00     0.002 C 
ATOM     24  C   UNL A   1      33.186  28.610  27.419  1.00  0.00     0.002 C 
ENDBRANCH  15  20
ENDBRANCH  12  15
ENDBRANCH   7  12
ENDBRANCH   4   6
ENDBRANCH   3   4
ENDBRANCH   2   3
ENDBRANCH   1   2
BRANCH   1  25
ATOM     25  O   UNL A   1      35.080  21.207  24.362  1.00  0.00    -0.374 OA
BRANCH  25  26
ATOM     26  C   UNL A   1      35.972  20.748  25.374  1.00  0.00     0.202 C 
BRANCH  26  27
ATOM     27  C   UNL A   1      37.401  20.343  24.995  1.00  0.00     0.261 C 
BRANCH  27  28
ATOM     28  O   UNL A   1      38.359  21.407  25.087  1.00  0.00    -0.460 OA
BRANCH  28  29
ATOM     29  C   UNL A   1      39.333  21.199  26.004  1.00  0.00     0.338 C 
ATOM     30  O   UNL A   1      39.976  20.178  26.183  1.00  0.00    -0.246 OA
BRANCH  29  31
ATOM     31  C   UNL A   1      39.653  22.445  26.719  1.00  0.00     0.060 A 
ATOM     32  C   UNL A   1      38.941  23.599  26.370  1.00  0.00     0.016 A 
ATOM     33  C   UNL A   1      40.752  22.515  27.575  1.00  0.00     0.016 A 
ATOM     34  C   UNL A   1      39.370  24.844  26.822  1.00  0.00     0.010 A 
ATOM     35  C   UNL A   1      41.185  23.766  28.023  1.00  0.00     0.010 A 
ATOM     36  C   UNL A   1      40.527  24.938  27.607  1.00  0.00    -0.014 A 
BRANCH  36  37
ATOM     37  C   UNL A   1      41.138  26.265  27.853  1.00  0.00     0.031 A 
ATOM     38  C   UNL A   1      42.476  26.579  27.238  1.00  0.00     0.074 A 
ATOM     39  C   UNL A   1      40.500  27.189  28.592  1.00  0.00     0.049 A 
ATOM     40  N   UNL A   1      43.214  27.654  27.362  1.00  0.00    -0.248 NA
ATOM     41  C   UNL A   1      43.061  25.543  26.372  1.00  0.00     0.031 C 
ATOM     42  C   UNL A   1      39.178  27.024  29.195  1.00  0.00     0.029 A 
ATOM     43  N   UNL A   1      40.887  28.451  28.962  1.00  0.00    -0.354 N 
ATOM     44  C   UNL A   1      44.355  27.417  26.603  1.00  0.00     0.074 A 
ATOM     45  C   UNL A   1      44.226  26.087  26.049  1.00  0.00     0.031 C 
ATOM     46  C   UNL A   1      38.865  28.146  29.866  1.00  0.00     0.029 A 
ATOM     47  C   UNL A   1      39.981  29.085  29.774  1.00  0.00     0.049 A 
ATOM     48  H   UNL A   1      41.734  28.863  28.673  1.00  0.00     0.167 HD
ATOM     49  C   UNL A   1      45.413  28.233  26.386  1.00  0.00     0.031 A 
ATOM     50  C   UNL A   1      40.055  30.279  30.394  1.00  0.00     0.031 A 
ATOM     51  C   UNL A   1      45.544  29.551  26.948  1.00  0.00     0.049 A 
ATOM     52  C   UNL A   1      41.280  31.134  30.204  1.00  0.00     0.074 A 
ATOM     53  C   UNL A   1      46.570  30.465  26.773  1.00  0.00     0.029 A 
ATOM     54  N   UNL A   1      44.623  30.141  27.799  1.00  0.00    -0.354 N 
ATOM     55  N   UNL A   1      42.343  30.910  29.468  1.00  0.00    -0.248 NA
ATOM     56  C   UNL A   1      41.310  32.414  30.927  1.00  0.00     0.031 C 
ATOM     57  C   UNL A   1      46.301  31.581  27.573  1.00  0.00     0.029 A 
ATOM     58  C   UNL A   1      45.073  31.393  28.186  1.00  0.00     0.049 A 
ATOM     59  H   UNL A   1      43.776  29.731  28.087  1.00  0.00     0.167 HD
ATOM     60  C   UNL A   1      43.150  32.031  29.613  1.00  0.00     0.074 A 
ATOM     61  C   UNL A   1      42.447  32.941  30.494  1.00  0.00     0.031 C 
ATOM     62  C   UNL A   1      44.362  32.288  29.064  1.00  0.00     0.031 A 
BRANCH  49  63
ATOM     63  C   UNL A   1      46.536  27.706  25.533  1.00  0.00    -0.014 A 
ATOM     64  C   UNL A   1      46.622  28.006  24.165  1.00  0.00     0.009 A 
ATOM     65  C   UNL A   1      47.546  26.926  26.120  1.00  0.00     0.009 A 
ATOM     66  C   UNL A   1      47.676  27.506  23.395  1.00  0.00     0.001 A 
ATOM     67  C   UNL A   1      48.614  26.455  25.357  1.00  0.00     0.001 A 
ATOM     68  C   UNL A   1      48.673  26.736  23.992  1.00  0.00     0.000 A 
ENDBRANCH  49  63
BRANCH  50  69
ATOM     69  C   UNL A   1      38.946  30.731  31.275  1.00  0.00    -0.014 A 
ATOM     70  C   UNL A   1      38.937  30.406  32.639  1.00  0.00     0.009 A 
ATOM     71  C   UNL A   1      37.878  31.475  30.748  1.00  0.00     0.009 A 
ATOM     72  C   UNL A   1      37.866  30.790  33.451  1.00  0.00     0.001 A 
ATOM     73  C   UNL A   1      36.826  31.886  31.568  1.00  0.00     0.001 A 
ATOM     74  C   UNL A   1      36.815  31.534  32.916  1.00  0.00     0.000 A 
ENDBRANCH  50  69
BRANCH  62  75
ATOM     75  C   UNL A   1      44.988  33.624  29.361  1.00  0.00    -0.014 A 
ATOM     76  C   UNL A   1      45.871  33.799  30.438  1.00  0.00     0.009 A 
ATOM     77  C   UNL A   1      44.722  34.715  28.519  1.00  0.00     0.009 A 
ATOM     78  C   UNL A   1      46.442  35.049  30.687  1.00  0.00     0.001 A 
ATOM     79  C   UNL A   1      45.320  35.954  28.749  1.00  0.00     0.001 A 
ATOM     80  C   UNL A   1      46.171  36.124  29.839  1.00  0.00     0.000 A 
ENDBRANCH  62  75
ENDBRANCH  36  37
ENDBRANCH  29  31
ENDBRANCH  28  29
ENDBRANCH  27  28
ENDBRANCH  26  27
ENDBRANCH  25  26
ENDBRANCH   1  25
TORSDOF 19
ENDMDL
