MODEL 1
REMARK VINA RESULT:     -11.6      0.000      0.000
REMARK SMILES COc1cccc([C@H]2CC(c3ccc(S(C)(=O)=O)cc3)=NN2c2ccc(C(=O)OCCOCCOC(=O)c3ccc(-c4c5nc(c(-c6ccccc6)c6ccc([nH]6)c(-c6ccccc6)c6nc(c(-c7ccccc7)c7ccc4[nH]7)C=C6)C=C5)cc3)cc2)c1
REMARK SMILES IDX 31 1 30 2 29 3 27 4 28 5 26 6 23 7 24 8 87 9 25 10 86 11
REMARK SMILES IDX 22 12 8 13 9 14 10 15 21 16 7 17 3 18 4 19 88 20 5 21 6 22
REMARK SMILES IDX 2 23 1 24 11 25 12 26 20 27 13 28 19 29 14 30 15 31 16 32
REMARK SMILES IDX 17 33 18 34 32 35 33 36 34 37 35 38 36 39 37 40 38 41 39 42
REMARK SMILES IDX 85 43 40 44 84 45 41 46 42 47 43 48 78 49 44 50 83 51 77 52
REMARK SMILES IDX 79 53 45 54 82 55 76 56 75 57 46 59 68 60 53 61 67 62 54 63
REMARK SMILES IDX 57 64 66 65 80 66 55 67 56 68 65 70 81 71 58 72 47 73 48 74
REMARK SMILES IDX 52 75 49 76 51 77 50 78 69 79 70 80 74 81 71 82 73 83 72 84
REMARK SMILES IDX 59 85 60 86 64 87 61 88 63 89 62 90
REMARK H PARENT 79 58 57 69
REMARK Flexibility Score: inf
ROOT
ATOM      1  C   UNL A   1      35.435  32.549  28.756  1.00  0.00     0.202 C 
ENDROOT
BRANCH   1   2
ATOM      2  C   UNL A   1      35.380  31.525  27.618  1.00  0.00     0.261 C 
BRANCH   2   3
ATOM      3  O   UNL A   1      34.592  30.381  27.988  1.00  0.00    -0.460 OA
BRANCH   3   4
ATOM      4  C   UNL A   1      33.382  30.305  27.384  1.00  0.00     0.338 C 
ATOM      5  O   UNL A   1      32.716  31.240  26.961  1.00  0.00    -0.246 OA
BRANCH   4   6
ATOM      6  C   UNL A   1      33.006  28.892  27.162  1.00  0.00     0.060 A 
ATOM      7  C   UNL A   1      32.331  26.242  26.507  1.00  0.00     0.060 A 
ATOM      8  C   UNL A   1      33.581  26.767  26.156  1.00  0.00     0.029 A 
ATOM      9  C   UNL A   1      31.461  27.039  27.268  1.00  0.00     0.029 A 
ATOM     10  C   UNL A   1      33.907  28.090  26.454  1.00  0.00     0.018 A 
ATOM     11  C   UNL A   1      31.797  28.354  27.612  1.00  0.00     0.018 A 
BRANCH   7  12
ATOM     12  N   UNL A   1      31.926  24.998  26.023  1.00  0.00    -0.257 N 
ATOM     13  C   UNL A   1      30.822  24.881  25.058  1.00  0.00     0.144 C 
ATOM     14  C   UNL A   1      30.962  23.440  24.557  1.00  0.00     0.091 C 
ATOM     15  C   UNL A   1      32.241  23.046  25.237  1.00  0.00     0.071 C 
ATOM     16  N   UNL A   1      32.770  23.929  26.025  1.00  0.00    -0.176 NA
BRANCH  13  17
ATOM     17  C   UNL A   1      30.903  25.914  23.937  1.00  0.00    -0.019 A 
ATOM     18  C   UNL A   1      30.085  27.910  22.797  1.00  0.00     0.119 A 
ATOM     19  C   UNL A   1      31.000  27.694  21.768  1.00  0.00     0.046 A 
ATOM     20  C   UNL A   1      30.024  27.013  23.867  1.00  0.00     0.052 A 
ATOM     21  C   UNL A   1      31.877  26.613  21.819  1.00  0.00     0.004 A 
ATOM     22  C   UNL A   1      31.833  25.732  22.899  1.00  0.00     0.006 A 
BRANCH  18  23
ATOM     23  O   UNL A   1      29.259  28.988  22.629  1.00  0.00    -0.497 OA
ATOM     24  C   UNL A   1      29.506  30.081  23.505  1.00  0.00     0.278 C 
ENDBRANCH  18  23
ENDBRANCH  13  17
BRANCH  15  25
ATOM     25  C   UNL A   1      32.794  21.698  25.055  1.00  0.00    -0.002 A 
ATOM     26  C   UNL A   1      31.904  20.628  24.915  1.00  0.00     0.011 A 
ATOM     27  C   UNL A   1      34.175  21.496  24.984  1.00  0.00     0.011 A 
ATOM     28  C   UNL A   1      32.396  19.344  24.677  1.00  0.00     0.021 A 
ATOM     29  C   UNL A   1      34.672  20.207  24.773  1.00  0.00     0.021 A 
ATOM     30  C   UNL A   1      33.779  19.140  24.618  1.00  0.00     0.067 A 
BRANCH  30  31
ATOM     31  S   UNL A   1      34.399  17.503  24.301  1.00  0.00     0.175 S 
ATOM     32  C   UNL A   1      33.481  16.466  25.410  1.00  0.00     0.163 C 
ATOM     33  O   UNL A   1      34.020  17.171  22.941  1.00  0.00    -0.224 OA
ATOM     34  O   UNL A   1      35.786  17.472  24.721  1.00  0.00    -0.224 OA
ENDBRANCH  30  31
ENDBRANCH  15  25
ENDBRANCH   7  12
ENDBRANCH   4   6
ENDBRANCH   3   4
ENDBRANCH   2   3
ENDBRANCH   1   2
BRANCH   1  35
ATOM     35  O   UNL A   1      34.973  33.859  28.430  1.00  0.00    -0.374 OA
BRANCH  35  36
ATOM     36  C   UNL A   1      33.626  34.173  28.793  1.00  0.00     0.202 C 
BRANCH  36  37
ATOM     37  C   UNL A   1      33.459  35.387  29.714  1.00  0.00     0.261 C 
BRANCH  37  38
ATOM     38  O   UNL A   1      32.508  35.124  30.763  1.00  0.00    -0.460 OA
BRANCH  38  39
ATOM     39  C   UNL A   1      32.823  35.651  31.968  1.00  0.00     0.338 C 
ATOM     40  O   UNL A   1      32.191  36.484  32.603  1.00  0.00    -0.246 OA
BRANCH  39  41
ATOM     41  C   UNL A   1      33.989  34.947  32.533  1.00  0.00     0.060 A 
ATOM     42  C   UNL A   1      35.237  35.572  32.421  1.00  0.00     0.016 A 
ATOM     43  C   UNL A   1      33.880  33.677  33.107  1.00  0.00     0.016 A 
ATOM     44  C   UNL A   1      36.390  34.909  32.836  1.00  0.00     0.010 A 
ATOM     45  C   UNL A   1      35.040  33.010  33.516  1.00  0.00     0.010 A 
ATOM     46  C   UNL A   1      36.302  33.609  33.351  1.00  0.00    -0.014 A 
BRANCH  46  47
ATOM     47  C   UNL A   1      37.540  32.828  33.582  1.00  0.00     0.031 A 
ATOM     48  C   UNL A   1      38.320  33.051  34.848  1.00  0.00     0.074 A 
ATOM     49  C   UNL A   1      37.952  31.909  32.691  1.00  0.00     0.049 A 
ATOM     50  N   UNL A   1      39.434  32.490  35.247  1.00  0.00    -0.248 NA
ATOM     51  C   UNL A   1      37.770  34.037  35.794  1.00  0.00     0.031 C 
ATOM     52  C   UNL A   1      37.264  31.567  31.448  1.00  0.00     0.029 A 
ATOM     53  N   UNL A   1      39.057  31.096  32.702  1.00  0.00    -0.354 N 
ATOM     54  C   UNL A   1      39.720  33.057  36.483  1.00  0.00     0.074 A 
ATOM     55  C   UNL A   1      38.680  34.025  36.757  1.00  0.00     0.031 C 
ATOM     56  C   UNL A   1      37.968  30.614  30.810  1.00  0.00     0.029 A 
ATOM     57  C   UNL A   1      39.167  30.303  31.586  1.00  0.00     0.049 A 
ATOM     58  H   UNL A   1      39.709  31.081  33.439  1.00  0.00     0.167 HD
ATOM     59  C   UNL A   1      40.753  32.793  37.318  1.00  0.00     0.031 A 
ATOM     60  C   UNL A   1      40.134  29.439  31.223  1.00  0.00     0.031 A 
ATOM     61  C   UNL A   1      41.796  31.842  37.044  1.00  0.00     0.049 A 
ATOM     62  C   UNL A   1      41.313  29.221  32.132  1.00  0.00     0.074 A 
ATOM     63  C   UNL A   1      42.877  31.495  37.836  1.00  0.00     0.029 A 
ATOM     64  N   UNL A   1      41.893  31.092  35.882  1.00  0.00    -0.354 N 
ATOM     65  N   UNL A   1      41.559  29.744  33.309  1.00  0.00    -0.248 NA
ATOM     66  C   UNL A   1      42.346  28.285  31.664  1.00  0.00     0.031 C 
ATOM     67  C   UNL A   1      43.656  30.572  37.131  1.00  0.00     0.029 A 
ATOM     68  C   UNL A   1      43.031  30.304  35.923  1.00  0.00     0.049 A 
ATOM     69  H   UNL A   1      41.248  31.117  35.138  1.00  0.00     0.167 HD
ATOM     70  C   UNL A   1      42.758  29.183  33.731  1.00  0.00     0.074 A 
ATOM     71  C   UNL A   1      43.183  28.269  32.692  1.00  0.00     0.031 C 
ATOM     72  C   UNL A   1      43.442  29.402  34.881  1.00  0.00     0.031 A 
BRANCH  59  73
ATOM     73  C   UNL A   1      40.818  33.574  38.599  1.00  0.00    -0.014 A 
ATOM     74  C   UNL A   1      41.495  34.802  38.670  1.00  0.00     0.009 A 
ATOM     75  C   UNL A   1      40.169  33.087  39.744  1.00  0.00     0.009 A 
ATOM     76  C   UNL A   1      41.545  35.512  39.872  1.00  0.00     0.001 A 
ATOM     77  C   UNL A   1      40.200  33.810  40.937  1.00  0.00     0.001 A 
ATOM     78  C   UNL A   1      40.896  35.017  41.003  1.00  0.00     0.000 A 
ENDBRANCH  59  73
BRANCH  60  79
ATOM     79  C   UNL A   1      40.042  28.723  29.925  1.00  0.00    -0.014 A 
ATOM     80  C   UNL A   1      40.507  29.319  28.743  1.00  0.00     0.009 A 
ATOM     81  C   UNL A   1      39.467  27.444  29.859  1.00  0.00     0.009 A 
ATOM     82  C   UNL A   1      40.377  28.659  27.519  1.00  0.00     0.001 A 
ATOM     83  C   UNL A   1      39.362  26.775  28.639  1.00  0.00     0.001 A 
ATOM     84  C   UNL A   1      39.809  27.386  27.469  1.00  0.00     0.000 A 
ENDBRANCH  60  79
BRANCH  72  85
ATOM     85  C   UNL A   1      44.707  28.616  35.089  1.00  0.00    -0.014 A 
ATOM     86  C   UNL A   1      45.957  29.135  34.718  1.00  0.00     0.009 A 
ATOM     87  C   UNL A   1      44.647  27.356  35.706  1.00  0.00     0.009 A 
ATOM     88  C   UNL A   1      47.120  28.392  34.933  1.00  0.00     0.001 A 
ATOM     89  C   UNL A   1      45.813  26.628  35.944  1.00  0.00     0.001 A 
ATOM     90  C   UNL A   1      47.048  27.142  35.550  1.00  0.00     0.000 A 
ENDBRANCH  72  85
ENDBRANCH  46  47
ENDBRANCH  39  41
ENDBRANCH  38  39
ENDBRANCH  37  38
ENDBRANCH  36  37
ENDBRANCH  35  36
ENDBRANCH   1  35
TORSDOF 19
ENDMDL
MODEL 2
REMARK VINA RESULT:     -11.2      4.249      6.348
REMARK SMILES COc1cccc([C@H]2CC(c3ccc(S(C)(=O)=O)cc3)=NN2c2ccc(C(=O)OCCOCCOC(=O)c3ccc(-c4c5nc(c(-c6ccccc6)c6ccc([nH]6)c(-c6ccccc6)c6nc(c(-c7ccccc7)c7ccc4[nH]7)C=C6)C=C5)cc3)cc2)c1
REMARK SMILES IDX 31 1 30 2 29 3 27 4 28 5 26 6 23 7 24 8 87 9 25 10 86 11
REMARK SMILES IDX 22 12 8 13 9 14 10 15 21 16 7 17 3 18 4 19 88 20 5 21 6 22
REMARK SMILES IDX 2 23 1 24 11 25 12 26 20 27 13 28 19 29 14 30 15 31 16 32
REMARK SMILES IDX 17 33 18 34 32 35 33 36 34 37 35 38 36 39 37 40 38 41 39 42
REMARK SMILES IDX 85 43 40 44 84 45 41 46 42 47 43 48 78 49 44 50 83 51 77 52
REMARK SMILES IDX 79 53 45 54 82 55 76 56 75 57 46 59 68 60 53 61 67 62 54 63
REMARK SMILES IDX 57 64 66 65 80 66 55 67 56 68 65 70 81 71 58 72 47 73 48 74
REMARK SMILES IDX 52 75 49 76 51 77 50 78 69 79 70 80 74 81 71 82 73 83 72 84
REMARK SMILES IDX 59 85 60 86 64 87 61 88 63 89 62 90
REMARK H PARENT 79 58 57 69
REMARK Flexibility Score: inf
ROOT
ATOM      1  C   UNL A   1      35.723  31.791  29.469  1.00  0.00     0.202 C 
ENDROOT
BRANCH   1   2
ATOM      2  C   UNL A   1      35.604  31.717  27.943  1.00  0.00     0.261 C 
BRANCH   2   3
ATOM      3  O   UNL A   1      35.030  30.467  27.528  1.00  0.00    -0.460 OA
BRANCH   3   4
ATOM      4  C   UNL A   1      33.687  30.487  27.355  1.00  0.00     0.338 C 
ATOM      5  O   UNL A   1      32.977  31.479  27.266  1.00  0.00    -0.246 OA
BRANCH   4   6
ATOM      6  C   UNL A   1      33.174  29.117  27.136  1.00  0.00     0.060 A 
ATOM      7  C   UNL A   1      32.248  26.542  26.490  1.00  0.00     0.060 A 
ATOM      8  C   UNL A   1      33.548  26.938  26.152  1.00  0.00     0.029 A 
ATOM      9  C   UNL A   1      31.452  27.428  27.234  1.00  0.00     0.029 A 
ATOM     10  C   UNL A   1      34.000  28.224  26.446  1.00  0.00     0.018 A 
ATOM     11  C   UNL A   1      31.913  28.705  27.574  1.00  0.00     0.018 A 
BRANCH   7  12
ATOM     12  N   UNL A   1      31.727  25.341  26.009  1.00  0.00    -0.257 N 
ATOM     13  C   UNL A   1      30.512  25.317  25.182  1.00  0.00     0.144 C 
ATOM     14  C   UNL A   1      30.519  23.897  24.609  1.00  0.00     0.091 C 
ATOM     15  C   UNL A   1      31.850  23.415  25.112  1.00  0.00     0.071 C 
ATOM     16  N   UNL A   1      32.512  24.237  25.864  1.00  0.00    -0.176 NA
BRANCH  13  17
ATOM     17  C   UNL A   1      30.507  26.396  24.102  1.00  0.00    -0.019 A 
ATOM     18  C   UNL A   1      29.576  28.408  23.084  1.00  0.00     0.119 A 
ATOM     19  C   UNL A   1      30.448  28.265  22.007  1.00  0.00     0.046 A 
ATOM     20  C   UNL A   1      29.592  27.468  24.117  1.00  0.00     0.052 A 
ATOM     21  C   UNL A   1      31.361  27.212  21.974  1.00  0.00     0.004 A 
ATOM     22  C   UNL A   1      31.394  26.287  23.017  1.00  0.00     0.006 A 
BRANCH  18  23
ATOM     23  O   UNL A   1      28.710  29.464  22.998  1.00  0.00    -0.497 OA
ATOM     24  C   UNL A   1      28.500  29.970  21.685  1.00  0.00     0.278 C 
ENDBRANCH  18  23
ENDBRANCH  13  17
BRANCH  15  25
ATOM     25  C   UNL A   1      32.310  22.054  24.809  1.00  0.00    -0.002 A 
ATOM     26  C   UNL A   1      32.902  21.309  25.836  1.00  0.00     0.011 A 
ATOM     27  C   UNL A   1      32.126  21.503  23.538  1.00  0.00     0.011 A 
ATOM     28  C   UNL A   1      33.292  19.991  25.598  1.00  0.00     0.021 A 
ATOM     29  C   UNL A   1      32.540  20.192  23.290  1.00  0.00     0.021 A 
ATOM     30  C   UNL A   1      33.118  19.444  24.322  1.00  0.00     0.067 A 
BRANCH  30  31
ATOM     31  S   UNL A   1      33.606  17.758  24.030  1.00  0.00     0.175 S 
ATOM     32  C   UNL A   1      32.803  16.842  25.319  1.00  0.00     0.163 C 
ATOM     33  O   UNL A   1      33.024  17.371  22.760  1.00  0.00    -0.224 OA
ATOM     34  O   UNL A   1      35.035  17.671  24.257  1.00  0.00    -0.224 OA
ENDBRANCH  30  31
ENDBRANCH  15  25
ENDBRANCH   7  12
ENDBRANCH   4   6
ENDBRANCH   3   4
ENDBRANCH   2   3
ENDBRANCH   1   2
BRANCH   1  35
ATOM     35  O   UNL A   1      35.104  32.922  30.082  1.00  0.00    -0.374 OA
BRANCH  35  36
ATOM     36  C   UNL A   1      34.396  32.683  31.300  1.00  0.00     0.202 C 
BRANCH  36  37
ATOM     37  C   UNL A   1      35.165  33.016  32.584  1.00  0.00     0.261 C 
BRANCH  37  38
ATOM     38  O   UNL A   1      35.900  31.875  33.066  1.00  0.00    -0.460 OA
BRANCH  38  39
ATOM     39  C   UNL A   1      36.994  32.168  33.804  1.00  0.00     0.338 C 
ATOM     40  O   UNL A   1      37.029  32.518  34.976  1.00  0.00    -0.246 OA
BRANCH  39  41
ATOM     41  C   UNL A   1      38.215  31.840  33.044  1.00  0.00     0.060 A 
ATOM     42  C   UNL A   1      38.330  32.364  31.750  1.00  0.00     0.016 A 
ATOM     43  C   UNL A   1      39.200  30.991  33.556  1.00  0.00     0.016 A 
ATOM     44  C   UNL A   1      39.405  32.001  30.942  1.00  0.00     0.010 A 
ATOM     45  C   UNL A   1      40.275  30.621  32.740  1.00  0.00     0.010 A 
ATOM     46  C   UNL A   1      40.364  31.097  31.419  1.00  0.00    -0.014 A 
BRANCH  46  47
ATOM     47  C   UNL A   1      41.376  30.545  30.488  1.00  0.00     0.031 A 
ATOM     48  C   UNL A   1      42.614  31.347  30.194  1.00  0.00     0.074 A 
ATOM     49  C   UNL A   1      41.213  29.332  29.932  1.00  0.00     0.049 A 
ATOM     50  N   UNL A   1      43.618  31.063  29.404  1.00  0.00    -0.248 NA
ATOM     51  C   UNL A   1      42.739  32.641  30.886  1.00  0.00     0.031 C 
ATOM     52  C   UNL A   1      40.081  28.438  30.169  1.00  0.00     0.029 A 
ATOM     53  N   UNL A   1      42.007  28.646  29.049  1.00  0.00    -0.354 N 
ATOM     54  C   UNL A   1      44.489  32.142  29.498  1.00  0.00     0.074 A 
ATOM     55  C   UNL A   1      43.883  33.098  30.400  1.00  0.00     0.031 C 
ATOM     56  C   UNL A   1      40.252  27.319  29.442  1.00  0.00     0.029 A 
ATOM     57  C   UNL A   1      41.487  27.433  28.669  1.00  0.00     0.049 A 
ATOM     58  H   UNL A   1      42.869  28.990  28.719  1.00  0.00     0.167 HD
ATOM     59  C   UNL A   1      45.687  32.320  28.893  1.00  0.00     0.031 A 
ATOM     60  C   UNL A   1      41.947  26.527  27.786  1.00  0.00     0.031 A 
ATOM     61  C   UNL A   1      46.286  31.380  27.985  1.00  0.00     0.049 A 
ATOM     62  C   UNL A   1      43.243  26.784  27.065  1.00  0.00     0.074 A 
ATOM     63  C   UNL A   1      47.504  31.466  27.333  1.00  0.00     0.029 A 
ATOM     64  N   UNL A   1      45.706  30.183  27.594  1.00  0.00    -0.354 N 
ATOM     65  N   UNL A   1      44.068  27.795  27.183  1.00  0.00    -0.248 NA
ATOM     66  C   UNL A   1      43.674  25.767  26.094  1.00  0.00     0.031 C 
ATOM     67  C   UNL A   1      47.637  30.344  26.507  1.00  0.00     0.029 A 
ATOM     68  C   UNL A   1      46.527  29.535  26.688  1.00  0.00     0.049 A 
ATOM     69  H   UNL A   1      44.837  29.845  27.913  1.00  0.00     0.167 HD
ATOM     70  C   UNL A   1      45.125  27.525  26.322  1.00  0.00     0.074 A 
ATOM     71  C   UNL A   1      44.844  26.248  25.700  1.00  0.00     0.031 C 
ATOM     72  C   UNL A   1      46.233  28.267  26.074  1.00  0.00     0.031 A 
BRANCH  59  73
ATOM     73  C   UNL A   1      46.415  33.604  29.173  1.00  0.00    -0.014 A 
ATOM     74  C   UNL A   1      46.204  34.747  28.386  1.00  0.00     0.009 A 
ATOM     75  C   UNL A   1      47.303  33.677  30.256  1.00  0.00     0.009 A 
ATOM     76  C   UNL A   1      46.892  35.931  28.663  1.00  0.00     0.001 A 
ATOM     77  C   UNL A   1      47.971  34.868  30.546  1.00  0.00     0.001 A 
ATOM     78  C   UNL A   1      47.772  35.991  29.743  1.00  0.00     0.000 A 
ENDBRANCH  59  73
BRANCH  60  79
ATOM     79  C   UNL A   1      41.166  25.292  27.514  1.00  0.00    -0.014 A 
ATOM     80  C   UNL A   1      40.019  25.333  26.708  1.00  0.00     0.009 A 
ATOM     81  C   UNL A   1      41.556  24.068  28.079  1.00  0.00     0.009 A 
ATOM     82  C   UNL A   1      39.265  24.177  26.492  1.00  0.00     0.001 A 
ATOM     83  C   UNL A   1      40.816  22.908  27.840  1.00  0.00     0.001 A 
ATOM     84  C   UNL A   1      39.666  22.966  27.055  1.00  0.00     0.000 A 
ENDBRANCH  60  79
BRANCH  72  85
ATOM     85  C   UNL A   1      47.239  27.700  25.112  1.00  0.00    -0.014 A 
ATOM     86  C   UNL A   1      47.163  27.969  23.736  1.00  0.00     0.009 A 
ATOM     87  C   UNL A   1      48.302  26.922  25.597  1.00  0.00     0.009 A 
ATOM     88  C   UNL A   1      48.117  27.443  22.863  1.00  0.00     0.001 A 
ATOM     89  C   UNL A   1      49.268  26.420  24.725  1.00  0.00     0.001 A 
ATOM     90  C   UNL A   1      49.171  26.673  23.357  1.00  0.00     0.000 A 
ENDBRANCH  72  85
ENDBRANCH  46  47
ENDBRANCH  39  41
ENDBRANCH  38  39
ENDBRANCH  37  38
ENDBRANCH  36  37
ENDBRANCH  35  36
ENDBRANCH   1  35
TORSDOF 19
ENDMDL
MODEL 3
REMARK VINA RESULT:     -10.8      1.717      5.995
REMARK SMILES COc1cccc([C@H]2CC(c3ccc(S(C)(=O)=O)cc3)=NN2c2ccc(C(=O)OCCOCCOC(=O)c3ccc(-c4c5nc(c(-c6ccccc6)c6ccc([nH]6)c(-c6ccccc6)c6nc(c(-c7ccccc7)c7ccc4[nH]7)C=C6)C=C5)cc3)cc2)c1
REMARK SMILES IDX 31 1 30 2 29 3 27 4 28 5 26 6 23 7 24 8 87 9 25 10 86 11
REMARK SMILES IDX 22 12 8 13 9 14 10 15 21 16 7 17 3 18 4 19 88 20 5 21 6 22
REMARK SMILES IDX 2 23 1 24 11 25 12 26 20 27 13 28 19 29 14 30 15 31 16 32
REMARK SMILES IDX 17 33 18 34 32 35 33 36 34 37 35 38 36 39 37 40 38 41 39 42
REMARK SMILES IDX 85 43 40 44 84 45 41 46 42 47 43 48 78 49 44 50 83 51 77 52
REMARK SMILES IDX 79 53 45 54 82 55 76 56 75 57 46 59 68 60 53 61 67 62 54 63
REMARK SMILES IDX 57 64 66 65 80 66 55 67 56 68 65 70 81 71 58 72 47 73 48 74
REMARK SMILES IDX 52 75 49 76 51 77 50 78 69 79 70 80 74 81 71 82 73 83 72 84
REMARK SMILES IDX 59 85 60 86 64 87 61 88 63 89 62 90
REMARK H PARENT 79 58 57 69
REMARK Flexibility Score: inf
ROOT
ATOM      1  C   UNL A   1      36.125  31.544  28.380  1.00  0.00     0.202 C 
ENDROOT
BRANCH   1   2
ATOM      2  C   UNL A   1      35.794  30.384  27.436  1.00  0.00     0.261 C 
BRANCH   2   3
ATOM      3  O   UNL A   1      34.659  29.639  27.908  1.00  0.00    -0.460 OA
BRANCH   3   4
ATOM      4  C   UNL A   1      33.591  29.640  27.074  1.00  0.00     0.338 C 
ATOM      5  O   UNL A   1      33.117  30.608  26.496  1.00  0.00    -0.246 OA
BRANCH   4   6
ATOM      6  C   UNL A   1      33.132  28.257  26.823  1.00  0.00     0.060 A 
ATOM      7  C   UNL A   1      32.307  25.664  26.117  1.00  0.00     0.060 A 
ATOM      8  C   UNL A   1      33.596  26.113  25.801  1.00  0.00     0.029 A 
ATOM      9  C   UNL A   1      31.472  26.505  26.870  1.00  0.00     0.029 A 
ATOM     10  C   UNL A   1      33.997  27.409  26.125  1.00  0.00     0.018 A 
ATOM     11  C   UNL A   1      31.882  27.791  27.240  1.00  0.00     0.018 A 
BRANCH   7  12
ATOM     12  N   UNL A   1      31.836  24.454  25.607  1.00  0.00    -0.257 N 
ATOM     13  C   UNL A   1      30.814  24.422  24.550  1.00  0.00     0.144 C 
ATOM     14  C   UNL A   1      30.867  22.968  24.072  1.00  0.00     0.091 C 
ATOM     15  C   UNL A   1      32.042  22.471  24.864  1.00  0.00     0.071 C 
ATOM     16  N   UNL A   1      32.577  23.314  25.690  1.00  0.00    -0.176 NA
BRANCH  13  17
ATOM     17  C   UNL A   1      31.083  25.428  23.434  1.00  0.00    -0.019 A 
ATOM     18  C   UNL A   1      30.643  27.542  22.300  1.00  0.00     0.119 A 
ATOM     19  C   UNL A   1      31.508  27.170  21.274  1.00  0.00     0.046 A 
ATOM     20  C   UNL A   1      30.417  26.667  23.366  1.00  0.00     0.052 A 
ATOM     21  C   UNL A   1      32.177  25.949  21.323  1.00  0.00     0.004 A 
ATOM     22  C   UNL A   1      31.971  25.086  22.399  1.00  0.00     0.006 A 
BRANCH  18  23
ATOM     23  O   UNL A   1      30.025  28.752  22.134  1.00  0.00    -0.497 OA
ATOM     24  C   UNL A   1      28.737  28.860  22.729  1.00  0.00     0.278 C 
ENDBRANCH  18  23
ENDBRANCH  13  17
BRANCH  15  25
ATOM     25  C   UNL A   1      32.486  21.076  24.740  1.00  0.00    -0.002 A 
ATOM     26  C   UNL A   1      32.355  20.446  23.497  1.00  0.00     0.011 A 
ATOM     27  C   UNL A   1      33.061  20.410  25.825  1.00  0.00     0.011 A 
ATOM     28  C   UNL A   1      32.826  19.143  23.329  1.00  0.00     0.021 A 
ATOM     29  C   UNL A   1      33.508  19.096  25.666  1.00  0.00     0.021 A 
ATOM     30  C   UNL A   1      33.390  18.472  24.419  1.00  0.00     0.067 A 
BRANCH  30  31
ATOM     31  S   UNL A   1      34.000  16.816  24.193  1.00  0.00     0.175 S 
ATOM     32  C   UNL A   1      32.842  15.800  25.073  1.00  0.00     0.163 C 
ATOM     33  O   UNL A   1      33.888  16.521  22.778  1.00  0.00    -0.224 OA
ATOM     34  O   UNL A   1      35.274  16.722  24.879  1.00  0.00    -0.224 OA
ENDBRANCH  30  31
ENDBRANCH  15  25
ENDBRANCH   7  12
ENDBRANCH   4   6
ENDBRANCH   3   4
ENDBRANCH   2   3
ENDBRANCH   1   2
BRANCH   1  35
ATOM     35  O   UNL A   1      35.404  32.753  28.147  1.00  0.00    -0.374 OA
BRANCH  35  36
ATOM     36  C   UNL A   1      34.179  32.917  28.866  1.00  0.00     0.202 C 
BRANCH  36  37
ATOM     37  C   UNL A   1      33.994  34.277  29.550  1.00  0.00     0.261 C 
BRANCH  37  38
ATOM     38  O   UNL A   1      33.789  34.128  30.968  1.00  0.00    -0.460 OA
BRANCH  38  39
ATOM     39  C   UNL A   1      34.794  34.592  31.744  1.00  0.00     0.338 C 
ATOM     40  O   UNL A   1      34.754  35.528  32.531  1.00  0.00    -0.246 OA
BRANCH  39  41
ATOM     41  C   UNL A   1      35.957  33.690  31.652  1.00  0.00     0.060 A 
ATOM     42  C   UNL A   1      35.859  32.444  32.284  1.00  0.00     0.016 A 
ATOM     43  C   UNL A   1      37.140  34.071  31.015  1.00  0.00     0.016 A 
ATOM     44  C   UNL A   1      36.961  31.593  32.326  1.00  0.00     0.010 A 
ATOM     45  C   UNL A   1      38.249  33.220  31.066  1.00  0.00     0.010 A 
ATOM     46  C   UNL A   1      38.175  31.993  31.750  1.00  0.00    -0.014 A 
BRANCH  46  47
ATOM     47  C   UNL A   1      39.397  31.189  31.989  1.00  0.00     0.031 A 
ATOM     48  C   UNL A   1      39.719  30.053  31.057  1.00  0.00     0.074 A 
ATOM     49  C   UNL A   1      40.229  31.484  33.003  1.00  0.00     0.049 A 
ATOM     50  N   UNL A   1      40.724  29.216  31.087  1.00  0.00    -0.248 NA
ATOM     51  C   UNL A   1      38.784  29.833  29.942  1.00  0.00     0.031 C 
ATOM     52  C   UNL A   1      40.054  32.585  33.948  1.00  0.00     0.029 A 
ATOM     53  N   UNL A   1      41.390  30.874  33.404  1.00  0.00    -0.354 N 
ATOM     54  C   UNL A   1      40.540  28.367  30.002  1.00  0.00     0.074 A 
ATOM     55  C   UNL A   1      39.314  28.773  29.349  1.00  0.00     0.031 C 
ATOM     56  C   UNL A   1      41.073  32.569  34.827  1.00  0.00     0.029 A 
ATOM     57  C   UNL A   1      41.951  31.441  34.522  1.00  0.00     0.049 A 
ATOM     58  H   UNL A   1      41.785  30.103  32.936  1.00  0.00     0.167 HD
ATOM     59  C   UNL A   1      41.324  27.346  29.582  1.00  0.00     0.031 A 
ATOM     60  C   UNL A   1      43.040  31.081  35.229  1.00  0.00     0.031 A 
ATOM     61  C   UNL A   1      42.536  26.930  30.235  1.00  0.00     0.049 A 
ATOM     62  C   UNL A   1      43.851  29.892  34.787  1.00  0.00     0.074 A 
ATOM     63  C   UNL A   1      43.405  25.915  29.875  1.00  0.00     0.029 A 
ATOM     64  N   UNL A   1      43.045  27.504  31.389  1.00  0.00    -0.354 N 
ATOM     65  N   UNL A   1      43.680  29.115  33.745  1.00  0.00    -0.248 NA
ATOM     66  C   UNL A   1      45.010  29.536  35.619  1.00  0.00     0.031 C 
ATOM     67  C   UNL A   1      44.414  25.841  30.841  1.00  0.00     0.029 A 
ATOM     68  C   UNL A   1      44.202  26.846  31.772  1.00  0.00     0.049 A 
ATOM     69  H   UNL A   1      42.643  28.266  31.866  1.00  0.00     0.167 HD
ATOM     70  C   UNL A   1      44.723  28.197  33.782  1.00  0.00     0.074 A 
ATOM     71  C   UNL A   1      45.528  28.522  34.940  1.00  0.00     0.031 C 
ATOM     72  C   UNL A   1      44.991  27.178  32.928  1.00  0.00     0.031 A 
BRANCH  59  73
ATOM     73  C   UNL A   1      40.870  26.584  28.369  1.00  0.00    -0.014 A 
ATOM     74  C   UNL A   1      39.945  25.533  28.474  1.00  0.00     0.009 A 
ATOM     75  C   UNL A   1      41.352  26.942  27.102  1.00  0.00     0.009 A 
ATOM     76  C   UNL A   1      39.537  24.836  27.334  1.00  0.00     0.001 A 
ATOM     77  C   UNL A   1      40.924  26.261  25.962  1.00  0.00     0.001 A 
ATOM     78  C   UNL A   1      40.024  25.203  26.080  1.00  0.00     0.000 A 
ENDBRANCH  59  73
BRANCH  60  79
ATOM     79  C   UNL A   1      43.421  31.843  36.445  1.00  0.00    -0.014 A 
ATOM     80  C   UNL A   1      44.315  32.921  36.365  1.00  0.00     0.009 A 
ATOM     81  C   UNL A   1      42.907  31.479  37.700  1.00  0.00     0.009 A 
ATOM     82  C   UNL A   1      44.704  33.605  37.518  1.00  0.00     0.001 A 
ATOM     83  C   UNL A   1      43.277  32.182  38.849  1.00  0.00     0.001 A 
ATOM     84  C   UNL A   1      44.181  33.237  38.758  1.00  0.00     0.000 A 
ENDBRANCH  60  79
BRANCH  72  85
ATOM     85  C   UNL A   1      46.224  26.362  33.197  1.00  0.00    -0.014 A 
ATOM     86  C   UNL A   1      46.179  25.223  34.015  1.00  0.00     0.009 A 
ATOM     87  C   UNL A   1      47.437  26.715  32.586  1.00  0.00     0.009 A 
ATOM     88  C   UNL A   1      47.335  24.471  34.240  1.00  0.00     0.001 A 
ATOM     89  C   UNL A   1      48.584  25.948  32.792  1.00  0.00     0.001 A 
ATOM     90  C   UNL A   1      48.534  24.831  33.625  1.00  0.00     0.000 A 
ENDBRANCH  72  85
ENDBRANCH  46  47
ENDBRANCH  39  41
ENDBRANCH  38  39
ENDBRANCH  37  38
ENDBRANCH  36  37
ENDBRANCH  35  36
ENDBRANCH   1  35
TORSDOF 19
ENDMDL
