MODEL 1
REMARK VINA RESULT:     -10.6      0.000      0.000
REMARK SMILES Cc1cc(C)cc(OCC(=O)Nc2ccc(O)cc2C(=O)OCCOCCOC(=O)c2ccc(-c3c4nc(c(-c5ccccc5)c5ccc([nH]5)c(-c5ccccc5)c5nc(c(-c6ccccc6)c6ccc3[nH]6)C=C5)C=C4)cc2)c1
REMARK SMILES IDX 24 1 23 2 22 3 20 4 21 5 19 6 13 7 14 8 15 9 18 10 16 11
REMARK SMILES IDX 12 12 10 13 11 14 9 16 8 17 7 18 1 19 2 20 3 21 79 22 4 23
REMARK SMILES IDX 5 24 6 25 17 26 25 28 26 29 27 30 28 31 29 32 30 33 31 34
REMARK SMILES IDX 32 35 78 36 33 37 77 38 34 39 35 40 36 41 71 42 37 43 76 44
REMARK SMILES IDX 70 45 72 46 38 47 75 48 69 49 68 50 39 52 61 53 46 54 60 55
REMARK SMILES IDX 47 56 50 57 59 58 73 59 48 60 49 61 58 63 74 64 51 65 40 66
REMARK SMILES IDX 41 67 45 68 42 69 44 70 43 71 62 72 63 73 67 74 64 75 66 76
REMARK SMILES IDX 65 77 52 78 53 79 57 80 54 81 56 82 55 83
REMARK H PARENT 12 15 17 27 72 51 50 62
REMARK Flexibility Score: inf
ROOT
ATOM      1  C   UNL A   1      31.579  29.648  24.870  1.00  0.00     0.202 C 
ENDROOT
BRANCH   1   2
ATOM      2  C   UNL A   1      30.763  28.369  24.669  1.00  0.00     0.261 C 
BRANCH   2   3
ATOM      3  O   UNL A   1      30.995  27.451  25.755  1.00  0.00    -0.460 OA
BRANCH   3   4
ATOM      4  C   UNL A   1      30.726  26.154  25.478  1.00  0.00     0.340 C 
ATOM      5  O   UNL A   1      29.765  25.744  24.841  1.00  0.00    -0.246 OA
BRANCH   4   6
ATOM      6  C   UNL A   1      31.832  25.259  25.919  1.00  0.00     0.087 A 
ATOM      7  C   UNL A   1      33.193  25.372  25.545  1.00  0.00     0.056 A 
ATOM      8  C   UNL A   1      34.095  24.485  26.139  1.00  0.00     0.031 A 
ATOM      9  C   UNL A   1      33.680  23.450  26.981  1.00  0.00     0.048 A 
ATOM     10  C   UNL A   1      31.415  24.195  26.743  1.00  0.00     0.064 A 
ATOM     11  C   UNL A   1      32.333  23.291  27.247  1.00  0.00     0.116 A 
BRANCH   7  12
ATOM     12  N   UNL A   1      33.609  26.368  24.637  1.00  0.00    -0.322 N 
ATOM     13  C   UNL A   1      33.644  26.462  23.273  1.00  0.00     0.262 C 
ATOM     14  O   UNL A   1      34.113  27.506  22.797  1.00  0.00    -0.271 OA
ATOM     15  H   UNL A   1      33.952  27.174  25.084  1.00  0.00     0.170 HD
BRANCH  13  16
ATOM     16  C   UNL A   1      33.003  25.422  22.327  1.00  0.00     0.329 C 
BRANCH  16  17
ATOM     17  O   UNL A   1      33.713  24.324  21.786  1.00  0.00    -0.484 OA
BRANCH  17  18
ATOM     18  C   UNL A   1      34.113  23.346  22.648  1.00  0.00     0.120 A 
ATOM     19  C   UNL A   1      37.125  21.913  24.461  1.00  0.00     0.044 C 
ATOM     20  C   UNL A   1      35.717  22.133  23.992  1.00  0.00    -0.047 A 
ATOM     21  C   UNL A   1      34.685  21.312  24.469  1.00  0.00     0.007 A 
ATOM     22  C   UNL A   1      35.424  23.141  23.065  1.00  0.00     0.049 A 
ATOM     23  C   UNL A   1      33.368  21.490  24.030  1.00  0.00    -0.047 A 
ATOM     24  C   UNL A   1      32.274  20.601  24.544  1.00  0.00     0.044 C 
ATOM     25  C   UNL A   1      33.096  22.499  23.103  1.00  0.00     0.049 A 
ENDBRANCH  17  18
ENDBRANCH  16  17
ENDBRANCH  13  16
ENDBRANCH   7  12
BRANCH  11  26
ATOM     26  O   UNL A   1      31.874  22.265  28.010  1.00  0.00    -0.508 OA
ATOM     27  H   UNL A   1      31.080  21.826  27.777  1.00  0.00     0.293 HD
ENDBRANCH  11  26
ENDBRANCH   4   6
ENDBRANCH   3   4
ENDBRANCH   2   3
ENDBRANCH   1   2
BRANCH   1  28
ATOM     28  O   UNL A   1      31.670  30.114  26.217  1.00  0.00    -0.374 OA
BRANCH  28  29
ATOM     29  C   UNL A   1      31.456  31.509  26.441  1.00  0.00     0.202 C 
BRANCH  29  30
ATOM     30  C   UNL A   1      32.451  32.197  27.381  1.00  0.00     0.261 C 
BRANCH  30  31
ATOM     31  O   UNL A   1      32.231  33.618  27.440  1.00  0.00    -0.460 OA
BRANCH  31  32
ATOM     32  C   UNL A   1      32.984  34.271  28.354  1.00  0.00     0.338 C 
ATOM     33  O   UNL A   1      32.666  35.254  29.011  1.00  0.00    -0.246 OA
BRANCH  32  34
ATOM     34  C   UNL A   1      34.233  33.530  28.605  1.00  0.00     0.060 A 
ATOM     35  C   UNL A   1      34.257  32.658  29.702  1.00  0.00     0.016 A 
ATOM     36  C   UNL A   1      35.380  33.729  27.832  1.00  0.00     0.016 A 
ATOM     37  C   UNL A   1      35.442  32.026  30.067  1.00  0.00     0.010 A 
ATOM     38  C   UNL A   1      36.571  33.099  28.204  1.00  0.00     0.010 A 
ATOM     39  C   UNL A   1      36.616  32.278  29.345  1.00  0.00    -0.014 A 
BRANCH  39  40
ATOM     40  C   UNL A   1      37.915  31.810  29.882  1.00  0.00     0.031 A 
ATOM     41  C   UNL A   1      38.473  30.499  29.402  1.00  0.00     0.074 A 
ATOM     42  C   UNL A   1      38.612  32.559  30.754  1.00  0.00     0.049 A 
ATOM     43  N   UNL A   1      39.589  29.900  29.729  1.00  0.00    -0.248 NA
ATOM     44  C   UNL A   1      37.659  29.765  28.419  1.00  0.00     0.031 C 
ATOM     45  C   UNL A   1      38.209  33.871  31.255  1.00  0.00     0.029 A 
ATOM     46  N   UNL A   1      39.816  32.316  31.365  1.00  0.00    -0.354 N 
ATOM     47  C   UNL A   1      39.611  28.719  28.998  1.00  0.00     0.074 A 
ATOM     48  C   UNL A   1      38.381  28.670  28.237  1.00  0.00     0.031 C 
ATOM     49  C   UNL A   1      39.158  34.325  32.092  1.00  0.00     0.029 A 
ATOM     50  C   UNL A   1      40.213  33.322  32.211  1.00  0.00     0.049 A 
ATOM     51  H   UNL A   1      40.344  31.500  31.213  1.00  0.00     0.167 HD
ATOM     52  C   UNL A   1      40.569  27.761  28.959  1.00  0.00     0.031 A 
ATOM     53  C   UNL A   1      41.301  33.415  32.998  1.00  0.00     0.031 A 
ATOM     54  C   UNL A   1      41.780  27.796  29.732  1.00  0.00     0.049 A 
ATOM     55  C   UNL A   1      42.302  32.292  33.016  1.00  0.00     0.074 A 
ATOM     56  C   UNL A   1      42.818  26.880  29.755  1.00  0.00     0.029 A 
ATOM     57  N   UNL A   1      42.111  28.797  30.633  1.00  0.00    -0.354 N 
ATOM     58  N   UNL A   1      42.323  31.190  32.307  1.00  0.00    -0.248 NA
ATOM     59  C   UNL A   1      43.434  32.431  33.944  1.00  0.00     0.031 C 
ATOM     60  C   UNL A   1      43.750  27.300  30.711  1.00  0.00     0.029 A 
ATOM     61  C   UNL A   1      43.320  28.506  31.241  1.00  0.00     0.049 A 
ATOM     62  H   UNL A   1      41.565  29.596  30.813  1.00  0.00     0.167 HD
ATOM     63  C   UNL A   1      43.481  30.519  32.680  1.00  0.00     0.074 A 
ATOM     64  C   UNL A   1      44.140  31.342  33.673  1.00  0.00     0.031 C 
ATOM     65  C   UNL A   1      43.961  29.332  32.232  1.00  0.00     0.031 A 
BRANCH  52  66
ATOM     66  C   UNL A   1      40.307  26.574  28.076  1.00  0.00    -0.014 A 
ATOM     67  C   UNL A   1      39.582  25.462  28.538  1.00  0.00     0.009 A 
ATOM     68  C   UNL A   1      40.800  26.563  26.762  1.00  0.00     0.009 A 
ATOM     69  C   UNL A   1      39.400  24.346  27.718  1.00  0.00     0.001 A 
ATOM     70  C   UNL A   1      40.590  25.457  25.935  1.00  0.00     0.001 A 
ATOM     71  C   UNL A   1      39.903  24.346  26.417  1.00  0.00     0.000 A 
ENDBRANCH  52  66
BRANCH  53  72
ATOM     72  C   UNL A   1      41.508  34.624  33.836  1.00  0.00    -0.014 A 
ATOM     73  C   UNL A   1      42.322  35.672  33.383  1.00  0.00     0.009 A 
ATOM     74  C   UNL A   1      40.893  34.735  35.094  1.00  0.00     0.009 A 
ATOM     75  C   UNL A   1      42.529  36.801  34.175  1.00  0.00     0.001 A 
ATOM     76  C   UNL A   1      41.081  35.878  35.874  1.00  0.00     0.001 A 
ATOM     77  C   UNL A   1      41.905  36.906  35.418  1.00  0.00     0.000 A 
ENDBRANCH  53  72
BRANCH  65  78
ATOM     78  C   UNL A   1      45.280  28.871  32.785  1.00  0.00    -0.014 A 
ATOM     79  C   UNL A   1      45.351  28.063  33.932  1.00  0.00     0.009 A 
ATOM     80  C   UNL A   1      46.469  29.221  32.126  1.00  0.00     0.009 A 
ATOM     81  C   UNL A   1      46.590  27.643  34.423  1.00  0.00     0.001 A 
ATOM     82  C   UNL A   1      47.704  28.776  32.603  1.00  0.00     0.001 A 
ATOM     83  C   UNL A   1      47.763  27.995  33.755  1.00  0.00     0.000 A 
ENDBRANCH  65  78
ENDBRANCH  39  40
ENDBRANCH  32  34
ENDBRANCH  31  32
ENDBRANCH  30  31
ENDBRANCH  29  30
ENDBRANCH  28  29
ENDBRANCH   1  28
TORSDOF 19
ENDMDL
MODEL 2
REMARK VINA RESULT:     -10.5      3.094      8.341
REMARK SMILES Cc1cc(C)cc(OCC(=O)Nc2ccc(O)cc2C(=O)OCCOCCOC(=O)c2ccc(-c3c4nc(c(-c5ccccc5)c5ccc([nH]5)c(-c5ccccc5)c5nc(c(-c6ccccc6)c6ccc3[nH]6)C=C5)C=C4)cc2)c1
REMARK SMILES IDX 24 1 23 2 22 3 20 4 21 5 19 6 13 7 14 8 15 9 18 10 16 11
REMARK SMILES IDX 12 12 10 13 11 14 9 16 8 17 7 18 1 19 2 20 3 21 79 22 4 23
REMARK SMILES IDX 5 24 6 25 17 26 25 28 26 29 27 30 28 31 29 32 30 33 31 34
REMARK SMILES IDX 32 35 78 36 33 37 77 38 34 39 35 40 36 41 71 42 37 43 76 44
REMARK SMILES IDX 70 45 72 46 38 47 75 48 69 49 68 50 39 52 61 53 46 54 60 55
REMARK SMILES IDX 47 56 50 57 59 58 73 59 48 60 49 61 58 63 74 64 51 65 40 66
REMARK SMILES IDX 41 67 45 68 42 69 44 70 43 71 62 72 63 73 67 74 64 75 66 76
REMARK SMILES IDX 65 77 52 78 53 79 57 80 54 81 56 82 55 83
REMARK H PARENT 12 15 17 27 72 51 50 62
REMARK Flexibility Score: inf
ROOT
ATOM      1  C   UNL A   1      37.364  23.406  25.209  1.00  0.00     0.202 C 
ENDROOT
BRANCH   1   2
ATOM      2  C   UNL A   1      35.942  23.759  24.764  1.00  0.00     0.261 C 
BRANCH   2   3
ATOM      3  O   UNL A   1      35.383  24.766  25.630  1.00  0.00    -0.460 OA
BRANCH   3   4
ATOM      4  C   UNL A   1      34.145  24.491  26.105  1.00  0.00     0.340 C 
ATOM      5  O   UNL A   1      33.779  23.418  26.563  1.00  0.00    -0.246 OA
BRANCH   4   6
ATOM      6  C   UNL A   1      33.291  25.711  26.148  1.00  0.00     0.087 A 
ATOM      7  C   UNL A   1      31.910  25.749  26.451  1.00  0.00     0.056 A 
ATOM      8  C   UNL A   1      31.305  27.007  26.527  1.00  0.00     0.031 A 
ATOM      9  C   UNL A   1      31.990  28.184  26.211  1.00  0.00     0.048 A 
ATOM     10  C   UNL A   1      33.969  26.897  25.800  1.00  0.00     0.064 A 
ATOM     11  C   UNL A   1      33.311  28.114  25.813  1.00  0.00     0.116 A 
BRANCH   7  12
ATOM     12  N   UNL A   1      31.194  24.559  26.698  1.00  0.00    -0.322 N 
ATOM     13  C   UNL A   1      30.703  23.558  25.906  1.00  0.00     0.262 C 
ATOM     14  O   UNL A   1      30.082  22.648  26.474  1.00  0.00    -0.271 OA
ATOM     15  H   UNL A   1      31.006  24.416  27.653  1.00  0.00     0.170 HD
BRANCH  13  16
ATOM     16  C   UNL A   1      31.010  23.432  24.396  1.00  0.00     0.329 C 
BRANCH  16  17
ATOM     17  O   UNL A   1      30.312  24.155  23.400  1.00  0.00    -0.484 OA
BRANCH  17  18
ATOM     18  C   UNL A   1      30.712  25.435  23.152  1.00  0.00     0.120 A 
ATOM     19  C   UNL A   1      33.681  27.564  22.123  1.00  0.00     0.044 C 
ATOM     20  C   UNL A   1      32.295  27.151  22.521  1.00  0.00    -0.047 A 
ATOM     21  C   UNL A   1      31.283  28.115  22.635  1.00  0.00     0.007 A 
ATOM     22  C   UNL A   1      32.004  25.809  22.798  1.00  0.00     0.049 A 
ATOM     23  C   UNL A   1      29.988  27.752  23.023  1.00  0.00    -0.047 A 
ATOM     24  C   UNL A   1      28.917  28.794  23.148  1.00  0.00     0.044 C 
ATOM     25  C   UNL A   1      29.719  26.409  23.298  1.00  0.00     0.049 A 
ENDBRANCH  17  18
ENDBRANCH  16  17
ENDBRANCH  13  16
ENDBRANCH   7  12
BRANCH  11  26
ATOM     26  O   UNL A   1      34.001  29.223  25.438  1.00  0.00    -0.508 OA
ATOM     27  H   UNL A   1      33.714  30.070  25.714  1.00  0.00     0.293 HD
ENDBRANCH  11  26
ENDBRANCH   4   6
ENDBRANCH   3   4
ENDBRANCH   2   3
ENDBRANCH   1   2
BRANCH   1  28
ATOM     28  O   UNL A   1      37.520  22.116  25.801  1.00  0.00    -0.374 OA
BRANCH  28  29
ATOM     29  C   UNL A   1      37.574  20.995  24.916  1.00  0.00     0.202 C 
BRANCH  29  30
ATOM     30  C   UNL A   1      38.582  19.900  25.282  1.00  0.00     0.261 C 
BRANCH  30  31
ATOM     31  O   UNL A   1      39.394  20.280  26.407  1.00  0.00    -0.460 OA
BRANCH  31  32
ATOM     32  C   UNL A   1      40.723  20.098  26.234  1.00  0.00     0.338 C 
ATOM     33  O   UNL A   1      41.276  19.165  25.664  1.00  0.00    -0.246 OA
BRANCH  32  34
ATOM     34  C   UNL A   1      41.462  21.290  26.686  1.00  0.00     0.060 A 
ATOM     35  C   UNL A   1      41.545  21.514  28.067  1.00  0.00     0.016 A 
ATOM     36  C   UNL A   1      42.005  22.209  25.784  1.00  0.00     0.016 A 
ATOM     37  C   UNL A   1      42.120  22.685  28.551  1.00  0.00     0.010 A 
ATOM     38  C   UNL A   1      42.576  23.388  26.272  1.00  0.00     0.010 A 
ATOM     39  C   UNL A   1      42.598  23.649  27.654  1.00  0.00    -0.014 A 
BRANCH  39  40
ATOM     40  C   UNL A   1      42.972  24.991  28.158  1.00  0.00     0.031 A 
ATOM     41  C   UNL A   1      41.894  26.021  28.356  1.00  0.00     0.074 A 
ATOM     42  C   UNL A   1      44.245  25.281  28.475  1.00  0.00     0.049 A 
ATOM     43  N   UNL A   1      41.989  27.252  28.791  1.00  0.00    -0.248 NA
ATOM     44  C   UNL A   1      40.523  25.604  28.019  1.00  0.00     0.031 C 
ATOM     45  C   UNL A   1      45.372  24.356  28.381  1.00  0.00     0.029 A 
ATOM     46  N   UNL A   1      44.797  26.443  28.949  1.00  0.00    -0.354 N 
ATOM     47  C   UNL A   1      40.696  27.758  28.774  1.00  0.00     0.074 A 
ATOM     48  C   UNL A   1      39.839  26.713  28.256  1.00  0.00     0.031 C 
ATOM     49  C   UNL A   1      46.485  24.985  28.797  1.00  0.00     0.029 A 
ATOM     50  C   UNL A   1      46.153  26.363  29.151  1.00  0.00     0.049 A 
ATOM     51  H   UNL A   1      44.273  27.257  29.127  1.00  0.00     0.167 HD
ATOM     52  C   UNL A   1      40.256  28.980  29.159  1.00  0.00     0.031 A 
ATOM     53  C   UNL A   1      47.026  27.300  29.565  1.00  0.00     0.031 A 
ATOM     54  C   UNL A   1      41.108  30.028  29.652  1.00  0.00     0.049 A 
ATOM     55  C   UNL A   1      46.531  28.683  29.890  1.00  0.00     0.074 A 
ATOM     56  C   UNL A   1      40.758  31.298  30.079  1.00  0.00     0.029 A 
ATOM     57  N   UNL A   1      42.486  29.932  29.772  1.00  0.00    -0.354 N 
ATOM     58  N   UNL A   1      45.304  29.145  29.890  1.00  0.00    -0.248 NA
ATOM     59  C   UNL A   1      47.546  29.674  30.276  1.00  0.00     0.031 C 
ATOM     60  C   UNL A   1      41.933  31.988  30.403  1.00  0.00     0.029 A 
ATOM     61  C   UNL A   1      43.007  31.128  30.235  1.00  0.00     0.049 A 
ATOM     62  H   UNL A   1      43.016  29.130  29.560  1.00  0.00     0.167 HD
ATOM     63  C   UNL A   1      45.395  30.468  30.304  1.00  0.00     0.074 A 
ATOM     64  C   UNL A   1      46.797  30.733  30.553  1.00  0.00     0.031 C 
ATOM     65  C   UNL A   1      44.405  31.379  30.472  1.00  0.00     0.031 A 
BRANCH  52  66
ATOM     66  C   UNL A   1      38.785  29.252  29.013  1.00  0.00    -0.014 A 
ATOM     67  C   UNL A   1      38.233  29.652  27.785  1.00  0.00     0.009 A 
ATOM     68  C   UNL A   1      37.939  29.112  30.123  1.00  0.00     0.009 A 
ATOM     69  C   UNL A   1      36.873  29.953  27.686  1.00  0.00     0.001 A 
ATOM     70  C   UNL A   1      36.574  29.385  30.014  1.00  0.00     0.001 A 
ATOM     71  C   UNL A   1      36.045  29.818  28.800  1.00  0.00     0.000 A 
ENDBRANCH  52  66
BRANCH  53  72
ATOM     72  C   UNL A   1      48.465  26.962  29.703  1.00  0.00    -0.014 A 
ATOM     73  C   UNL A   1      48.964  26.460  30.914  1.00  0.00     0.009 A 
ATOM     74  C   UNL A   1      49.349  27.141  28.626  1.00  0.00     0.009 A 
ATOM     75  C   UNL A   1      50.319  26.156  31.050  1.00  0.00     0.001 A 
ATOM     76  C   UNL A   1      50.700  26.812  28.757  1.00  0.00     0.001 A 
ATOM     77  C   UNL A   1      51.185  26.327  29.970  1.00  0.00     0.000 A 
ENDBRANCH  53  72
BRANCH  65  78
ATOM     78  C   UNL A   1      44.799  32.736  30.984  1.00  0.00    -0.014 A 
ATOM     79  C   UNL A   1      44.877  33.006  32.360  1.00  0.00     0.009 A 
ATOM     80  C   UNL A   1      45.134  33.751  30.073  1.00  0.00     0.009 A 
ATOM     81  C   UNL A   1      45.251  34.274  32.811  1.00  0.00     0.001 A 
ATOM     82  C   UNL A   1      45.535  35.009  30.527  1.00  0.00     0.001 A 
ATOM     83  C   UNL A   1      45.585  35.271  31.894  1.00  0.00     0.000 A 
ENDBRANCH  65  78
ENDBRANCH  39  40
ENDBRANCH  32  34
ENDBRANCH  31  32
ENDBRANCH  30  31
ENDBRANCH  29  30
ENDBRANCH  28  29
ENDBRANCH   1  28
TORSDOF 19
ENDMDL
MODEL 3
REMARK VINA RESULT:     -10.5      1.411      2.821
REMARK SMILES Cc1cc(C)cc(OCC(=O)Nc2ccc(O)cc2C(=O)OCCOCCOC(=O)c2ccc(-c3c4nc(c(-c5ccccc5)c5ccc([nH]5)c(-c5ccccc5)c5nc(c(-c6ccccc6)c6ccc3[nH]6)C=C5)C=C4)cc2)c1
REMARK SMILES IDX 24 1 23 2 22 3 20 4 21 5 19 6 13 7 14 8 15 9 18 10 16 11
REMARK SMILES IDX 12 12 10 13 11 14 9 16 8 17 7 18 1 19 2 20 3 21 79 22 4 23
REMARK SMILES IDX 5 24 6 25 17 26 25 28 26 29 27 30 28 31 29 32 30 33 31 34
REMARK SMILES IDX 32 35 78 36 33 37 77 38 34 39 35 40 36 41 71 42 37 43 76 44
REMARK SMILES IDX 70 45 72 46 38 47 75 48 69 49 68 50 39 52 61 53 46 54 60 55
REMARK SMILES IDX 47 56 50 57 59 58 73 59 48 60 49 61 58 63 74 64 51 65 40 66
REMARK SMILES IDX 41 67 45 68 42 69 44 70 43 71 62 72 63 73 67 74 64 75 66 76
REMARK SMILES IDX 65 77 52 78 53 79 57 80 54 81 56 82 55 83
REMARK H PARENT 12 15 17 27 72 51 50 62
REMARK Flexibility Score: inf
ROOT
ATOM      1  C   UNL A   1      33.226  29.305  26.067  1.00  0.00     0.202 C 
ENDROOT
BRANCH   1   2
ATOM      2  C   UNL A   1      33.697  28.053  26.811  1.00  0.00     0.261 C 
BRANCH   2   3
ATOM      3  O   UNL A   1      32.838  26.938  26.507  1.00  0.00    -0.460 OA
BRANCH   3   4
ATOM      4  C   UNL A   1      33.424  25.936  25.809  1.00  0.00     0.340 C 
ATOM      5  O   UNL A   1      34.546  25.965  25.324  1.00  0.00    -0.246 OA
BRANCH   4   6
ATOM      6  C   UNL A   1      32.588  24.703  25.815  1.00  0.00     0.087 A 
ATOM      7  C   UNL A   1      32.935  23.461  25.232  1.00  0.00     0.056 A 
ATOM      8  C   UNL A   1      32.051  22.395  25.424  1.00  0.00     0.031 A 
ATOM      9  C   UNL A   1      30.818  22.553  26.064  1.00  0.00     0.048 A 
ATOM     10  C   UNL A   1      31.332  24.865  26.431  1.00  0.00     0.064 A 
ATOM     11  C   UNL A   1      30.453  23.801  26.531  1.00  0.00     0.116 A 
BRANCH   7  12
ATOM     12  N   UNL A   1      34.143  23.312  24.520  1.00  0.00    -0.322 N 
ATOM     13  C   UNL A   1      34.457  23.111  23.204  1.00  0.00     0.262 C 
ATOM     14  O   UNL A   1      35.661  22.997  22.928  1.00  0.00    -0.271 OA
ATOM     15  H   UNL A   1      34.937  23.364  25.098  1.00  0.00     0.170 HD
BRANCH  13  16
ATOM     16  C   UNL A   1      33.423  23.171  22.058  1.00  0.00     0.329 C 
BRANCH  16  17
ATOM     17  O   UNL A   1      33.194  24.331  21.279  1.00  0.00    -0.484 OA
BRANCH  17  18
ATOM     18  C   UNL A   1      32.629  25.406  21.901  1.00  0.00     0.120 A 
ATOM     19  C   UNL A   1      29.520  26.598  23.723  1.00  0.00     0.044 C 
ATOM     20  C   UNL A   1      30.889  26.571  23.110  1.00  0.00    -0.047 A 
ATOM     21  C   UNL A   1      31.708  27.708  23.177  1.00  0.00     0.007 A 
ATOM     22  C   UNL A   1      31.353  25.424  22.453  1.00  0.00     0.049 A 
ATOM     23  C   UNL A   1      32.981  27.709  22.595  1.00  0.00    -0.047 A 
ATOM     24  C   UNL A   1      33.844  28.933  22.670  1.00  0.00     0.044 C 
ATOM     25  C   UNL A   1      33.424  26.556  21.942  1.00  0.00     0.049 A 
ENDBRANCH  17  18
ENDBRANCH  16  17
ENDBRANCH  13  16
ENDBRANCH   7  12
BRANCH  11  26
ATOM     26  O   UNL A   1      29.240  24.019  27.106  1.00  0.00    -0.508 OA
ATOM     27  H   UNL A   1      28.903  23.411  27.732  1.00  0.00     0.293 HD
ENDBRANCH  11  26
ENDBRANCH   4   6
ENDBRANCH   3   4
ENDBRANCH   2   3
ENDBRANCH   1   2
BRANCH   1  28
ATOM     28  O   UNL A   1      33.080  30.478  26.868  1.00  0.00    -0.374 OA
BRANCH  28  29
ATOM     29  C   UNL A   1      31.837  31.178  26.778  1.00  0.00     0.202 C 
BRANCH  29  30
ATOM     30  C   UNL A   1      31.870  32.657  27.179  1.00  0.00     0.261 C 
BRANCH  30  31
ATOM     31  O   UNL A   1      33.217  33.126  27.373  1.00  0.00    -0.460 OA
BRANCH  31  32
ATOM     32  C   UNL A   1      33.363  34.039  28.359  1.00  0.00     0.338 C 
ATOM     33  O   UNL A   1      32.574  34.921  28.676  1.00  0.00    -0.246 OA
BRANCH  32  34
ATOM     34  C   UNL A   1      34.563  33.736  29.159  1.00  0.00     0.060 A 
ATOM     35  C   UNL A   1      35.800  34.151  28.649  1.00  0.00     0.016 A 
ATOM     36  C   UNL A   1      34.494  33.003  30.347  1.00  0.00     0.016 A 
ATOM     37  C   UNL A   1      36.980  33.785  29.293  1.00  0.00     0.010 A 
ATOM     38  C   UNL A   1      35.680  32.632  30.989  1.00  0.00     0.010 A 
ATOM     39  C   UNL A   1      36.926  32.986  30.442  1.00  0.00    -0.014 A 
BRANCH  39  40
ATOM     40  C   UNL A   1      38.175  32.392  30.974  1.00  0.00     0.031 A 
ATOM     41  C   UNL A   1      38.705  31.131  30.350  1.00  0.00     0.074 A 
ATOM     42  C   UNL A   1      38.852  32.985  31.972  1.00  0.00     0.049 A 
ATOM     43  N   UNL A   1      39.777  30.442  30.647  1.00  0.00    -0.248 NA
ATOM     44  C   UNL A   1      37.918  30.572  29.238  1.00  0.00     0.031 C 
ATOM     45  C   UNL A   1      38.474  34.236  32.625  1.00  0.00     0.029 A 
ATOM     46  N   UNL A   1      40.010  32.608  32.603  1.00  0.00    -0.354 N 
ATOM     47  C   UNL A   1      39.792  29.368  29.767  1.00  0.00     0.074 A 
ATOM     48  C   UNL A   1      38.605  29.478  28.946  1.00  0.00     0.031 C 
ATOM     49  C   UNL A   1      39.393  34.531  33.561  1.00  0.00     0.029 A 
ATOM     50  C   UNL A   1      40.400  33.473  33.595  1.00  0.00     0.049 A 
ATOM     51  H   UNL A   1      40.513  31.794  32.368  1.00  0.00     0.167 HD
ATOM     52  C   UNL A   1      40.712  28.381  29.646  1.00  0.00     0.031 A 
ATOM     53  C   UNL A   1      41.445  33.410  34.440  1.00  0.00     0.031 A 
ATOM     54  C   UNL A   1      41.879  28.256  30.475  1.00  0.00     0.049 A 
ATOM     55  C   UNL A   1      42.399  32.249  34.356  1.00  0.00     0.074 A 
ATOM     56  C   UNL A   1      42.877  27.298  30.425  1.00  0.00     0.029 A 
ATOM     57  N   UNL A   1      42.200  29.113  31.517  1.00  0.00    -0.354 N 
ATOM     58  N   UNL A   1      42.414  31.250  33.507  1.00  0.00    -0.248 NA
ATOM     59  C   UNL A   1      43.482  32.211  35.349  1.00  0.00     0.031 C 
ATOM     60  C   UNL A   1      43.771  27.544  31.474  1.00  0.00     0.029 A 
ATOM     61  C   UNL A   1      43.362  28.688  32.139  1.00  0.00     0.049 A 
ATOM     62  H   UNL A   1      41.677  29.906  31.776  1.00  0.00     0.167 HD
ATOM     63  C   UNL A   1      43.523  30.483  33.842  1.00  0.00     0.074 A 
ATOM     64  C   UNL A   1      44.159  31.136  34.968  1.00  0.00     0.031 C 
ATOM     65  C   UNL A   1      43.979  29.345  33.263  1.00  0.00     0.031 A 
BRANCH  52  66
ATOM     66  C   UNL A   1      40.452  27.334  28.599  1.00  0.00    -0.014 A 
ATOM     67  C   UNL A   1      40.986  27.445  27.304  1.00  0.00     0.009 A 
ATOM     68  C   UNL A   1      39.655  26.222  28.910  1.00  0.00     0.009 A 
ATOM     69  C   UNL A   1      40.685  26.490  26.331  1.00  0.00     0.001 A 
ATOM     70  C   UNL A   1      39.381  25.253  27.943  1.00  0.00     0.001 A 
ATOM     71  C   UNL A   1      39.885  25.394  26.652  1.00  0.00     0.000 A 
ENDBRANCH  52  66
BRANCH  53  72
ATOM     72  C   UNL A   1      41.654  34.486  35.442  1.00  0.00    -0.014 A 
ATOM     73  C   UNL A   1      41.045  34.410  36.703  1.00  0.00     0.009 A 
ATOM     74  C   UNL A   1      42.461  35.596  35.143  1.00  0.00     0.009 A 
ATOM     75  C   UNL A   1      41.227  35.427  37.641  1.00  0.00     0.001 A 
ATOM     76  C   UNL A   1      42.663  36.600  36.093  1.00  0.00     0.001 A 
ATOM     77  C   UNL A   1      42.040  36.519  37.337  1.00  0.00     0.000 A 
ENDBRANCH  53  72
BRANCH  65  78
ATOM     78  C   UNL A   1      45.247  28.753  33.813  1.00  0.00    -0.014 A 
ATOM     79  C   UNL A   1      45.223  27.798  34.841  1.00  0.00     0.009 A 
ATOM     80  C   UNL A   1      46.483  29.132  33.266  1.00  0.00     0.009 A 
ATOM     81  C   UNL A   1      46.415  27.259  35.332  1.00  0.00     0.001 A 
ATOM     82  C   UNL A   1      47.671  28.571  33.739  1.00  0.00     0.001 A 
ATOM     83  C   UNL A   1      47.636  27.642  34.777  1.00  0.00     0.000 A 
ENDBRANCH  65  78
ENDBRANCH  39  40
ENDBRANCH  32  34
ENDBRANCH  31  32
ENDBRANCH  30  31
ENDBRANCH  29  30
ENDBRANCH  28  29
ENDBRANCH   1  28
TORSDOF 19
ENDMDL
