MODEL 1
REMARK VINA RESULT:     -10.7      0.000      0.000
REMARK SMILES O=C(OCCOCCOC(=O)c1ccccc1Sc1ccc(S(=O)(=O)N2CCCC2)cc1[N+](=O)[O-])c1ccc(-c2c3nc(c(-c4ccccc4)c4ccc([nH]4)c(-c4ccccc4)c4nc(c(-c5ccccc5)c5ccc2[nH]5)C=C4)C=C3)cc1
REMARK SMILES IDX 7 1 6 2 5 3 4 4 3 5 2 6 1 7 36 8 37 9 83 10 38 11 82 12
REMARK SMILES IDX 39 13 40 14 41 15 76 16 42 17 81 18 75 19 77 20 43 21 80 22
REMARK SMILES IDX 74 23 73 24 44 26 66 27 51 28 65 29 52 30 55 31 64 32 78 33
REMARK SMILES IDX 53 34 54 35 63 37 79 38 56 39 45 40 46 41 50 42 47 43 49 44
REMARK SMILES IDX 48 45 67 46 68 47 72 48 69 49 71 50 70 51 57 52 58 53 62 54
REMARK SMILES IDX 59 55 61 56 60 57 8 58 9 59 10 60 11 61 12 62 13 63 17 64
REMARK SMILES IDX 14 65 16 66 15 67 18 68 19 69 20 70 32 71 21 72 31 73 22 74
REMARK SMILES IDX 33 75 34 76 35 77 23 78 24 79 25 80 26 81 27 82 30 83 28 84
REMARK SMILES IDX 29 85
REMARK H PARENT 77 25 55 36
REMARK Flexibility Score: inf
ROOT
ATOM      1  C   UNL A   1      32.196  28.444  27.511  1.00  0.00     0.202 C 
ENDROOT
BRANCH   1   2
ATOM      2  O   UNL A   1      31.844  29.708  26.939  1.00  0.00    -0.374 OA
BRANCH   2   3
ATOM      3  C   UNL A   1      32.742  30.769  27.260  1.00  0.00     0.202 C 
BRANCH   3   4
ATOM      4  C   UNL A   1      34.142  30.280  27.648  1.00  0.00     0.261 C 
BRANCH   4   5
ATOM      5  O   UNL A   1      34.843  31.250  28.448  1.00  0.00    -0.460 OA
BRANCH   5   6
ATOM      6  C   UNL A   1      35.759  31.079  29.429  1.00  0.00     0.338 C 
ATOM      7  O   UNL A   1      35.563  31.661  30.497  1.00  0.00    -0.246 OA
BRANCH   6   8
ATOM      8  C   UNL A   1      37.004  30.242  29.319  1.00  0.00     0.060 A 
ATOM      9  C   UNL A   1      37.684  29.632  30.376  1.00  0.00     0.016 A 
ATOM     10  C   UNL A   1      37.502  30.025  28.018  1.00  0.00     0.016 A 
ATOM     11  C   UNL A   1      38.854  28.915  30.173  1.00  0.00     0.010 A 
ATOM     12  C   UNL A   1      38.685  29.311  27.798  1.00  0.00     0.010 A 
ATOM     13  C   UNL A   1      39.389  28.808  28.893  1.00  0.00    -0.014 A 
BRANCH  13  14
ATOM     14  C   UNL A   1      40.810  28.430  28.812  1.00  0.00     0.031 A 
ATOM     15  C   UNL A   1      41.113  27.018  28.400  1.00  0.00     0.074 A 
ATOM     16  C   UNL A   1      41.766  29.369  28.877  1.00  0.00     0.049 A 
ATOM     17  N   UNL A   1      42.258  26.469  28.104  1.00  0.00    -0.248 NA
ATOM     18  C   UNL A   1      39.955  26.113  28.264  1.00  0.00     0.031 C 
ATOM     19  C   UNL A   1      41.530  30.792  29.127  1.00  0.00     0.029 A 
ATOM     20  N   UNL A   1      43.116  29.279  28.677  1.00  0.00    -0.354 N 
ATOM     21  C   UNL A   1      41.959  25.159  27.751  1.00  0.00     0.074 A 
ATOM     22  C   UNL A   1      40.530  24.991  27.869  1.00  0.00     0.031 C 
ATOM     23  C   UNL A   1      42.698  31.449  29.028  1.00  0.00     0.029 A 
ATOM     24  C   UNL A   1      43.761  30.488  28.750  1.00  0.00     0.049 A 
ATOM     25  H   UNL A   1      43.579  28.429  28.498  1.00  0.00     0.167 HD
ATOM     26  C   UNL A   1      42.807  24.176  27.376  1.00  0.00     0.031 A 
ATOM     27  C   UNL A   1      45.070  30.769  28.614  1.00  0.00     0.031 A 
ATOM     28  C   UNL A   1      44.229  24.348  27.315  1.00  0.00     0.049 A 
ATOM     29  C   UNL A   1      46.009  29.632  28.315  1.00  0.00     0.074 A 
ATOM     30  C   UNL A   1      45.210  23.408  27.071  1.00  0.00     0.029 A 
ATOM     31  N   UNL A   1      44.869  25.563  27.518  1.00  0.00    -0.354 N 
ATOM     32  N   UNL A   1      45.729  28.376  28.056  1.00  0.00    -0.248 NA
ATOM     33  C   UNL A   1      47.444  29.945  28.304  1.00  0.00     0.031 C 
ATOM     34  C   UNL A   1      46.452  24.049  27.166  1.00  0.00     0.029 A 
ATOM     35  C   UNL A   1      46.236  25.397  27.420  1.00  0.00     0.049 A 
ATOM     36  H   UNL A   1      44.417  26.418  27.702  1.00  0.00     0.167 HD
ATOM     37  C   UNL A   1      46.948  27.750  27.840  1.00  0.00     0.074 A 
ATOM     38  C   UNL A   1      47.968  28.773  27.974  1.00  0.00     0.031 C 
ATOM     39  C   UNL A   1      47.211  26.448  27.563  1.00  0.00     0.031 A 
BRANCH  26  40
ATOM     40  C   UNL A   1      42.196  22.830  27.120  1.00  0.00    -0.014 A 
ATOM     41  C   UNL A   1      41.751  22.458  25.842  1.00  0.00     0.009 A 
ATOM     42  C   UNL A   1      41.986  21.956  28.197  1.00  0.00     0.009 A 
ATOM     43  C   UNL A   1      41.069  21.252  25.657  1.00  0.00     0.001 A 
ATOM     44  C   UNL A   1      41.322  20.744  28.006  1.00  0.00     0.001 A 
ATOM     45  C   UNL A   1      40.853  20.398  26.739  1.00  0.00     0.000 A 
ENDBRANCH  26  40
BRANCH  27  46
ATOM     46  C   UNL A   1      45.566  32.160  28.794  1.00  0.00    -0.014 A 
ATOM     47  C   UNL A   1      46.054  32.601  30.034  1.00  0.00     0.009 A 
ATOM     48  C   UNL A   1      45.541  33.066  27.720  1.00  0.00     0.009 A 
ATOM     49  C   UNL A   1      46.487  33.922  30.196  1.00  0.00     0.001 A 
ATOM     50  C   UNL A   1      46.000  34.375  27.877  1.00  0.00     0.001 A 
ATOM     51  C   UNL A   1      46.464  34.805  29.119  1.00  0.00     0.000 A 
ENDBRANCH  27  46
BRANCH  39  52
ATOM     52  C   UNL A   1      48.650  26.078  27.366  1.00  0.00    -0.014 A 
ATOM     53  C   UNL A   1      49.440  25.649  28.444  1.00  0.00     0.009 A 
ATOM     54  C   UNL A   1      49.204  26.115  26.078  1.00  0.00     0.009 A 
ATOM     55  C   UNL A   1      50.772  25.291  28.236  1.00  0.00     0.001 A 
ATOM     56  C   UNL A   1      50.528  25.732  25.871  1.00  0.00     0.001 A 
ATOM     57  C   UNL A   1      51.314  25.329  26.951  1.00  0.00     0.000 A 
ENDBRANCH  39  52
ENDBRANCH  13  14
ENDBRANCH   6   8
ENDBRANCH   5   6
ENDBRANCH   4   5
ENDBRANCH   3   4
ENDBRANCH   2   3
ENDBRANCH   1   2
BRANCH   1  58
ATOM     58  C   UNL A   1      31.545  27.334  26.722  1.00  0.00     0.261 C 
BRANCH  58  59
ATOM     59  O   UNL A   1      30.613  27.902  25.795  1.00  0.00    -0.460 OA
BRANCH  59  60
ATOM     60  C   UNL A   1      30.367  27.150  24.697  1.00  0.00     0.339 C 
ATOM     61  O   UNL A   1      30.275  25.938  24.612  1.00  0.00    -0.246 OA
BRANCH  60  62
ATOM     62  C   UNL A   1      30.156  28.067  23.581  1.00  0.00     0.074 A 
ATOM     63  C   UNL A   1      28.803  28.330  23.290  1.00  0.00     0.017 A 
ATOM     64  C   UNL A   1      31.198  28.698  22.885  1.00  0.00     0.027 A 
ATOM     65  C   UNL A   1      28.463  29.296  22.352  1.00  0.00     0.001 A 
ATOM     66  C   UNL A   1      30.818  29.685  21.954  1.00  0.00     0.016 A 
ATOM     67  C   UNL A   1      29.473  29.991  21.699  1.00  0.00     0.001 A 
BRANCH  64  68
ATOM     68  S   UNL A   1      32.974  28.433  22.985  1.00  0.00    -0.082 SA
BRANCH  68  69
ATOM     69  C   UNL A   1      33.313  26.691  23.191  1.00  0.00     0.090 A 
ATOM     70  C   UNL A   1      33.925  26.379  24.425  1.00  0.00     0.024 A 
ATOM     71  C   UNL A   1      33.042  25.620  22.315  1.00  0.00     0.284 A 
ATOM     72  C   UNL A   1      34.140  25.055  24.827  1.00  0.00     0.023 A 
ATOM     73  C   UNL A   1      33.234  24.281  22.733  1.00  0.00     0.108 A 
ATOM     74  C   UNL A   1      33.746  24.004  23.999  1.00  0.00     0.089 A 
BRANCH  71  75
ATOM     75  N   UNL A   1      32.512  25.816  20.954  1.00  0.00     0.063 N 
ATOM     76  O   UNL A   1      31.320  26.145  20.848  1.00  0.00    -0.258 OA
ATOM     77  O   UNL A   1      33.251  25.596  19.988  1.00  0.00    -0.258 OA
ENDBRANCH  71  75
BRANCH  74  78
ATOM     78  S   UNL A   1      33.831  22.353  24.673  1.00  0.00     0.243 S 
ATOM     79  O   UNL A   1      33.594  22.488  26.088  1.00  0.00    -0.207 OA
ATOM     80  O   UNL A   1      32.971  21.548  23.823  1.00  0.00    -0.207 OA
BRANCH  78  81
ATOM     81  N   UNL A   1      35.386  21.812  24.444  1.00  0.00    -0.198 NA
ATOM     82  C   UNL A   1      35.923  20.622  25.092  1.00  0.00     0.102 C 
ATOM     83  C   UNL A   1      36.451  22.629  23.873  1.00  0.00     0.102 C 
ATOM     84  C   UNL A   1      37.377  20.960  25.396  1.00  0.00     0.018 C 
ATOM     85  C   UNL A   1      37.696  22.255  24.660  1.00  0.00     0.018 C 
ENDBRANCH  78  81
ENDBRANCH  74  78
ENDBRANCH  68  69
ENDBRANCH  64  68
ENDBRANCH  60  62
ENDBRANCH  59  60
ENDBRANCH  58  59
ENDBRANCH   1  58
TORSDOF 19
ENDMDL
MODEL 2
REMARK VINA RESULT:     -10.5      4.210      7.410
REMARK SMILES O=C(OCCOCCOC(=O)c1ccccc1Sc1ccc(S(=O)(=O)N2CCCC2)cc1[N+](=O)[O-])c1ccc(-c2c3nc(c(-c4ccccc4)c4ccc([nH]4)c(-c4ccccc4)c4nc(c(-c5ccccc5)c5ccc2[nH]5)C=C4)C=C3)cc1
REMARK SMILES IDX 7 1 6 2 5 3 4 4 3 5 2 6 1 7 36 8 37 9 83 10 38 11 82 12
REMARK SMILES IDX 39 13 40 14 41 15 76 16 42 17 81 18 75 19 77 20 43 21 80 22
REMARK SMILES IDX 74 23 73 24 44 26 66 27 51 28 65 29 52 30 55 31 64 32 78 33
REMARK SMILES IDX 53 34 54 35 63 37 79 38 56 39 45 40 46 41 50 42 47 43 49 44
REMARK SMILES IDX 48 45 67 46 68 47 72 48 69 49 71 50 70 51 57 52 58 53 62 54
REMARK SMILES IDX 59 55 61 56 60 57 8 58 9 59 10 60 11 61 12 62 13 63 17 64
REMARK SMILES IDX 14 65 16 66 15 67 18 68 19 69 20 70 32 71 21 72 31 73 22 74
REMARK SMILES IDX 33 75 34 76 35 77 23 78 24 79 25 80 26 81 27 82 30 83 28 84
REMARK SMILES IDX 29 85
REMARK H PARENT 77 25 55 36
REMARK Flexibility Score: inf
ROOT
ATOM      1  C   UNL A   1      34.402  28.801  26.841  1.00  0.00     0.202 C 
ENDROOT
BRANCH   1   2
ATOM      2  O   UNL A   1      33.305  29.641  27.214  1.00  0.00    -0.374 OA
BRANCH   2   3
ATOM      3  C   UNL A   1      33.594  31.037  27.172  1.00  0.00     0.202 C 
BRANCH   3   4
ATOM      4  C   UNL A   1      32.342  31.917  27.262  1.00  0.00     0.261 C 
BRANCH   4   5
ATOM      5  O   UNL A   1      32.676  33.316  27.323  1.00  0.00    -0.460 OA
BRANCH   5   6
ATOM      6  C   UNL A   1      33.161  34.058  28.346  1.00  0.00     0.338 C 
ATOM      7  O   UNL A   1      32.511  35.047  28.687  1.00  0.00    -0.246 OA
BRANCH   6   8
ATOM      8  C   UNL A   1      34.434  33.778  29.095  1.00  0.00     0.060 A 
ATOM      9  C   UNL A   1      35.708  34.242  28.759  1.00  0.00     0.016 A 
ATOM     10  C   UNL A   1      34.316  33.006  30.269  1.00  0.00     0.016 A 
ATOM     11  C   UNL A   1      36.830  33.888  29.494  1.00  0.00     0.010 A 
ATOM     12  C   UNL A   1      35.439  32.634  31.015  1.00  0.00     0.010 A 
ATOM     13  C   UNL A   1      36.705  33.033  30.584  1.00  0.00    -0.014 A 
BRANCH  13  14
ATOM     14  C   UNL A   1      37.939  32.366  31.031  1.00  0.00     0.031 A 
ATOM     15  C   UNL A   1      38.373  32.623  32.445  1.00  0.00     0.074 A 
ATOM     16  C   UNL A   1      38.498  31.403  30.283  1.00  0.00     0.049 A 
ATOM     17  N   UNL A   1      39.320  32.054  33.138  1.00  0.00    -0.248 NA
ATOM     18  C   UNL A   1      37.602  33.635  33.193  1.00  0.00     0.031 C 
ATOM     19  C   UNL A   1      38.036  30.996  28.955  1.00  0.00     0.029 A 
ATOM     20  N   UNL A   1      39.535  30.555  30.556  1.00  0.00    -0.354 N 
ATOM     21  C   UNL A   1      39.261  32.639  34.396  1.00  0.00     0.074 A 
ATOM     22  C   UNL A   1      38.189  33.607  34.377  1.00  0.00     0.031 C 
ATOM     23  C   UNL A   1      38.767  29.946  28.545  1.00  0.00     0.029 A 
ATOM     24  C   UNL A   1      39.770  29.639  29.560  1.00  0.00     0.049 A 
ATOM     25  H   UNL A   1      40.062  30.596  31.387  1.00  0.00     0.167 HD
ATOM     26  C   UNL A   1      40.044  32.400  35.472  1.00  0.00     0.031 A 
ATOM     27  C   UNL A   1      40.701  28.671  29.490  1.00  0.00     0.031 A 
ATOM     28  C   UNL A   1      41.136  31.473  35.455  1.00  0.00     0.049 A 
ATOM     29  C   UNL A   1      41.640  28.508  30.655  1.00  0.00     0.074 A 
ATOM     30  C   UNL A   1      42.082  31.224  36.430  1.00  0.00     0.029 A 
ATOM     31  N   UNL A   1      41.429  30.643  34.381  1.00  0.00    -0.354 N 
ATOM     32  N   UNL A   1      41.627  29.118  31.817  1.00  0.00    -0.248 NA
ATOM     33  C   UNL A   1      42.729  27.535  30.495  1.00  0.00     0.031 C 
ATOM     34  C   UNL A   1      42.975  30.268  35.927  1.00  0.00     0.029 A 
ATOM     35  C   UNL A   1      42.552  29.889  34.661  1.00  0.00     0.049 A 
ATOM     36  H   UNL A   1      40.912  30.596  33.545  1.00  0.00     0.167 HD
ATOM     37  C   UNL A   1      42.696  28.597  32.532  1.00  0.00     0.074 A 
ATOM     38  C   UNL A   1      43.321  27.603  31.680  1.00  0.00     0.031 C 
ATOM     39  C   UNL A   1      43.134  28.912  33.777  1.00  0.00     0.031 A 
BRANCH  26  40
ATOM     40  C   UNL A   1      39.785  33.243  36.685  1.00  0.00    -0.014 A 
ATOM     41  C   UNL A   1      38.912  32.821  37.699  1.00  0.00     0.009 A 
ATOM     42  C   UNL A   1      40.361  34.520  36.769  1.00  0.00     0.009 A 
ATOM     43  C   UNL A   1      38.588  33.680  38.754  1.00  0.00     0.001 A 
ATOM     44  C   UNL A   1      40.052  35.368  37.834  1.00  0.00     0.001 A 
ATOM     45  C   UNL A   1      39.156  34.952  38.818  1.00  0.00     0.000 A 
ENDBRANCH  26  40
BRANCH  27  46
ATOM     46  C   UNL A   1      40.816  27.820  28.274  1.00  0.00    -0.014 A 
ATOM     47  C   UNL A   1      40.292  26.519  28.248  1.00  0.00     0.009 A 
ATOM     48  C   UNL A   1      41.469  28.307  27.129  1.00  0.00     0.009 A 
ATOM     49  C   UNL A   1      40.437  25.719  27.108  1.00  0.00     0.001 A 
ATOM     50  C   UNL A   1      41.586  27.517  25.983  1.00  0.00     0.001 A 
ATOM     51  C   UNL A   1      41.079  26.220  25.978  1.00  0.00     0.000 A 
ENDBRANCH  27  46
BRANCH  39  52
ATOM     52  C   UNL A   1      44.324  28.154  34.285  1.00  0.00    -0.014 A 
ATOM     53  C   UNL A   1      45.626  28.639  34.092  1.00  0.00     0.009 A 
ATOM     54  C   UNL A   1      44.131  26.966  35.005  1.00  0.00     0.009 A 
ATOM     55  C   UNL A   1      46.718  27.927  34.589  1.00  0.00     0.001 A 
ATOM     56  C   UNL A   1      45.223  26.272  35.522  1.00  0.00     0.001 A 
ATOM     57  C   UNL A   1      46.516  26.748  35.306  1.00  0.00     0.000 A 
ENDBRANCH  39  52
ENDBRANCH  13  14
ENDBRANCH   6   8
ENDBRANCH   5   6
ENDBRANCH   4   5
ENDBRANCH   3   4
ENDBRANCH   2   3
ENDBRANCH   1   2
BRANCH   1  58
ATOM     58  C   UNL A   1      33.901  27.400  26.586  1.00  0.00     0.261 C 
BRANCH  58  59
ATOM     59  O   UNL A   1      33.004  27.419  25.470  1.00  0.00    -0.460 OA
BRANCH  59  60
ATOM     60  C   UNL A   1      31.693  27.305  25.787  1.00  0.00     0.339 C 
ATOM     61  O   UNL A   1      31.194  26.866  26.808  1.00  0.00    -0.246 OA
BRANCH  60  62
ATOM     62  C   UNL A   1      30.928  27.879  24.684  1.00  0.00     0.074 A 
ATOM     63  C   UNL A   1      30.909  29.287  24.658  1.00  0.00     0.017 A 
ATOM     64  C   UNL A   1      30.311  27.113  23.684  1.00  0.00     0.027 A 
ATOM     65  C   UNL A   1      30.343  29.961  23.583  1.00  0.00     0.001 A 
ATOM     66  C   UNL A   1      29.763  27.828  22.600  1.00  0.00     0.016 A 
ATOM     67  C   UNL A   1      29.790  29.229  22.541  1.00  0.00     0.001 A 
BRANCH  64  68
ATOM     68  S   UNL A   1      30.092  25.332  23.570  1.00  0.00    -0.082 SA
BRANCH  68  69
ATOM     69  C   UNL A   1      31.587  24.506  24.095  1.00  0.00     0.090 A 
ATOM     70  C   UNL A   1      31.442  23.799  25.310  1.00  0.00     0.024 A 
ATOM     71  C   UNL A   1      32.847  24.457  23.465  1.00  0.00     0.284 A 
ATOM     72  C   UNL A   1      32.459  22.977  25.809  1.00  0.00     0.023 A 
ATOM     73  C   UNL A   1      33.865  23.604  23.956  1.00  0.00     0.108 A 
ATOM     74  C   UNL A   1      33.653  22.841  25.102  1.00  0.00     0.089 A 
BRANCH  71  75
ATOM     75  N   UNL A   1      33.167  25.238  22.256  1.00  0.00     0.063 N 
ATOM     76  O   UNL A   1      33.148  24.639  21.169  1.00  0.00    -0.258 OA
ATOM     77  O   UNL A   1      33.488  26.425  22.380  1.00  0.00    -0.258 OA
ENDBRANCH  71  75
BRANCH  74  78
ATOM     78  S   UNL A   1      34.804  21.599  25.669  1.00  0.00     0.243 S 
ATOM     79  O   UNL A   1      34.604  21.490  27.092  1.00  0.00    -0.207 OA
ATOM     80  O   UNL A   1      34.617  20.467  24.777  1.00  0.00    -0.207 OA
BRANCH  78  81
ATOM     81  N   UNL A   1      36.334  22.189  25.392  1.00  0.00    -0.198 NA
ATOM     82  C   UNL A   1      37.490  21.334  25.151  1.00  0.00     0.102 C 
ATOM     83  C   UNL A   1      36.742  23.555  25.697  1.00  0.00     0.102 C 
ATOM     84  C   UNL A   1      38.653  22.043  25.832  1.00  0.00     0.018 C 
ATOM     85  C   UNL A   1      38.163  23.433  26.217  1.00  0.00     0.018 C 
ENDBRANCH  78  81
ENDBRANCH  74  78
ENDBRANCH  68  69
ENDBRANCH  64  68
ENDBRANCH  60  62
ENDBRANCH  59  60
ENDBRANCH  58  59
ENDBRANCH   1  58
TORSDOF 19
ENDMDL
MODEL 3
REMARK VINA RESULT:     -10.1      3.483      8.654
REMARK SMILES O=C(OCCOCCOC(=O)c1ccccc1Sc1ccc(S(=O)(=O)N2CCCC2)cc1[N+](=O)[O-])c1ccc(-c2c3nc(c(-c4ccccc4)c4ccc([nH]4)c(-c4ccccc4)c4nc(c(-c5ccccc5)c5ccc2[nH]5)C=C4)C=C3)cc1
REMARK SMILES IDX 7 1 6 2 5 3 4 4 3 5 2 6 1 7 36 8 37 9 83 10 38 11 82 12
REMARK SMILES IDX 39 13 40 14 41 15 76 16 42 17 81 18 75 19 77 20 43 21 80 22
REMARK SMILES IDX 74 23 73 24 44 26 66 27 51 28 65 29 52 30 55 31 64 32 78 33
REMARK SMILES IDX 53 34 54 35 63 37 79 38 56 39 45 40 46 41 50 42 47 43 49 44
REMARK SMILES IDX 48 45 67 46 68 47 72 48 69 49 71 50 70 51 57 52 58 53 62 54
REMARK SMILES IDX 59 55 61 56 60 57 8 58 9 59 10 60 11 61 12 62 13 63 17 64
REMARK SMILES IDX 14 65 16 66 15 67 18 68 19 69 20 70 32 71 21 72 31 73 22 74
REMARK SMILES IDX 33 75 34 76 35 77 23 78 24 79 25 80 26 81 27 82 30 83 28 84
REMARK SMILES IDX 29 85
REMARK H PARENT 77 25 55 36
REMARK Flexibility Score: inf
ROOT
ATOM      1  C   UNL A   1      37.724  21.814  24.981  1.00  0.00     0.202 C 
ENDROOT
BRANCH   1   2
ATOM      2  O   UNL A   1      38.785  21.069  25.587  1.00  0.00    -0.374 OA
BRANCH   2   3
ATOM      3  C   UNL A   1      39.678  21.854  26.376  1.00  0.00     0.202 C 
BRANCH   3   4
ATOM      4  C   UNL A   1      41.152  21.489  26.165  1.00  0.00     0.261 C 
BRANCH   4   5
ATOM      5  O   UNL A   1      41.982  22.661  26.060  1.00  0.00    -0.460 OA
BRANCH   5   6
ATOM      6  C   UNL A   1      42.563  23.413  27.023  1.00  0.00     0.338 C 
ATOM      7  O   UNL A   1      42.501  23.000  28.181  1.00  0.00    -0.246 OA
BRANCH   6   8
ATOM      8  C   UNL A   1      43.271  24.720  26.795  1.00  0.00     0.060 A 
ATOM      9  C   UNL A   1      43.466  25.349  25.563  1.00  0.00     0.016 A 
ATOM     10  C   UNL A   1      43.744  25.387  27.944  1.00  0.00     0.016 A 
ATOM     11  C   UNL A   1      44.175  26.536  25.454  1.00  0.00     0.010 A 
ATOM     12  C   UNL A   1      44.468  26.581  27.849  1.00  0.00     0.010 A 
ATOM     13  C   UNL A   1      44.731  27.119  26.589  1.00  0.00    -0.014 A 
BRANCH  13  14
ATOM     14  C   UNL A   1      45.806  28.098  26.356  1.00  0.00     0.031 A 
ATOM     15  C   UNL A   1      45.454  29.546  26.538  1.00  0.00     0.074 A 
ATOM     16  C   UNL A   1      47.077  27.689  26.221  1.00  0.00     0.049 A 
ATOM     17  N   UNL A   1      46.232  30.593  26.548  1.00  0.00    -0.248 NA
ATOM     18  C   UNL A   1      44.031  29.848  26.785  1.00  0.00     0.031 C 
ATOM     19  C   UNL A   1      47.510  26.292  26.184  1.00  0.00     0.029 A 
ATOM     20  N   UNL A   1      48.238  28.407  26.150  1.00  0.00    -0.354 N 
ATOM     21  C   UNL A   1      45.395  31.673  26.798  1.00  0.00     0.074 A 
ATOM     22  C   UNL A   1      44.052  31.161  26.933  1.00  0.00     0.031 C 
ATOM     23  C   UNL A   1      48.853  26.255  26.136  1.00  0.00     0.029 A 
ATOM     24  C   UNL A   1      49.364  27.622  26.096  1.00  0.00     0.049 A 
ATOM     25  H   UNL A   1      48.265  29.391  26.141  1.00  0.00     0.167 HD
ATOM     26  C   UNL A   1      45.718  32.982  26.891  1.00  0.00     0.031 A 
ATOM     27  C   UNL A   1      50.657  27.985  26.015  1.00  0.00     0.031 A 
ATOM     28  C   UNL A   1      47.051  33.476  26.702  1.00  0.00     0.049 A 
ATOM     29  C   UNL A   1      50.978  29.455  25.998  1.00  0.00     0.074 A 
ATOM     30  C   UNL A   1      47.496  34.781  26.647  1.00  0.00     0.029 A 
ATOM     31  N   UNL A   1      48.159  32.659  26.523  1.00  0.00    -0.354 N 
ATOM     32  N   UNL A   1      50.172  30.478  26.160  1.00  0.00    -0.248 NA
ATOM     33  C   UNL A   1      52.383  29.822  25.775  1.00  0.00     0.031 C 
ATOM     34  C   UNL A   1      48.873  34.755  26.394  1.00  0.00     0.029 A 
ATOM     35  C   UNL A   1      49.289  33.432  26.341  1.00  0.00     0.049 A 
ATOM     36  H   UNL A   1      48.143  31.675  26.527  1.00  0.00     0.167 HD
ATOM     37  C   UNL A   1      50.970  31.610  26.069  1.00  0.00     0.074 A 
ATOM     38  C   UNL A   1      52.328  31.144  25.863  1.00  0.00     0.031 C 
ATOM     39  C   UNL A   1      50.620  32.919  26.140  1.00  0.00     0.031 A 
BRANCH  26  40
ATOM     40  C   UNL A   1      44.580  33.936  27.101  1.00  0.00    -0.014 A 
ATOM     41  C   UNL A   1      44.108  34.243  28.387  1.00  0.00     0.009 A 
ATOM     42  C   UNL A   1      43.916  34.468  25.986  1.00  0.00     0.009 A 
ATOM     43  C   UNL A   1      42.965  35.032  28.549  1.00  0.00     0.001 A 
ATOM     44  C   UNL A   1      42.787  35.271  26.151  1.00  0.00     0.001 A 
ATOM     45  C   UNL A   1      42.305  35.542  27.431  1.00  0.00     0.000 A 
ENDBRANCH  26  40
BRANCH  27  46
ATOM     46  C   UNL A   1      51.724  26.955  25.905  1.00  0.00    -0.014 A 
ATOM     47  C   UNL A   1      52.145  26.477  24.655  1.00  0.00     0.009 A 
ATOM     48  C   UNL A   1      52.323  26.429  27.063  1.00  0.00     0.009 A 
ATOM     49  C   UNL A   1      53.128  25.484  24.569  1.00  0.00     0.001 A 
ATOM     50  C   UNL A   1      53.323  25.459  26.973  1.00  0.00     0.001 A 
ATOM     51  C   UNL A   1      53.718  24.980  25.726  1.00  0.00     0.000 A 
ENDBRANCH  27  46
BRANCH  39  52
ATOM     52  C   UNL A   1      51.728  33.921  26.018  1.00  0.00    -0.014 A 
ATOM     53  C   UNL A   1      52.130  34.404  24.763  1.00  0.00     0.009 A 
ATOM     54  C   UNL A   1      52.340  34.420  27.177  1.00  0.00     0.009 A 
ATOM     55  C   UNL A   1      53.151  35.350  24.673  1.00  0.00     0.001 A 
ATOM     56  C   UNL A   1      53.342  35.385  27.083  1.00  0.00     0.001 A 
ATOM     57  C   UNL A   1      53.753  35.842  25.831  1.00  0.00     0.000 A 
ENDBRANCH  39  52
ENDBRANCH  13  14
ENDBRANCH   6   8
ENDBRANCH   5   6
ENDBRANCH   4   5
ENDBRANCH   3   4
ENDBRANCH   2   3
ENDBRANCH   1   2
BRANCH   1  58
ATOM     58  C   UNL A   1      36.636  22.061  25.998  1.00  0.00     0.261 C 
BRANCH  58  59
ATOM     59  O   UNL A   1      35.551  21.159  25.753  1.00  0.00    -0.460 OA
BRANCH  59  60
ATOM     60  C   UNL A   1      34.318  21.700  25.885  1.00  0.00     0.339 C 
ATOM     61  O   UNL A   1      33.811  22.203  26.872  1.00  0.00    -0.246 OA
BRANCH  60  62
ATOM     62  C   UNL A   1      33.676  21.641  24.575  1.00  0.00     0.074 A 
ATOM     63  C   UNL A   1      32.865  20.508  24.372  1.00  0.00     0.017 A 
ATOM     64  C   UNL A   1      33.789  22.652  23.608  1.00  0.00     0.027 A 
ATOM     65  C   UNL A   1      32.082  20.401  23.230  1.00  0.00     0.001 A 
ATOM     66  C   UNL A   1      32.967  22.520  22.471  1.00  0.00     0.016 A 
ATOM     67  C   UNL A   1      32.116  21.420  22.289  1.00  0.00     0.001 A 
BRANCH  64  68
ATOM     68  S   UNL A   1      34.845  24.106  23.583  1.00  0.00    -0.082 SA
BRANCH  68  69
ATOM     69  C   UNL A   1      33.933  25.524  24.177  1.00  0.00     0.090 A 
ATOM     70  C   UNL A   1      33.599  25.444  25.547  1.00  0.00     0.024 A 
ATOM     71  C   UNL A   1      33.531  26.681  23.479  1.00  0.00     0.284 A 
ATOM     72  C   UNL A   1      33.009  26.518  26.225  1.00  0.00     0.023 A 
ATOM     73  C   UNL A   1      32.960  27.777  24.171  1.00  0.00     0.108 A 
ATOM     74  C   UNL A   1      32.736  27.705  25.544  1.00  0.00     0.089 A 
BRANCH  71  75
ATOM     75  N   UNL A   1      33.715  26.843  22.025  1.00  0.00     0.063 N 
ATOM     76  O   UNL A   1      34.078  27.957  21.617  1.00  0.00    -0.258 OA
ATOM     77  O   UNL A   1      33.452  25.891  21.281  1.00  0.00    -0.258 OA
ENDBRANCH  71  75
BRANCH  74  78
ATOM     78  S   UNL A   1      32.209  29.105  26.517  1.00  0.00     0.243 S 
ATOM     79  O   UNL A   1      31.380  29.904  25.649  1.00  0.00    -0.207 OA
ATOM     80  O   UNL A   1      31.702  28.541  27.757  1.00  0.00    -0.207 OA
BRANCH  78  81
ATOM     81  N   UNL A   1      33.572  29.975  26.899  1.00  0.00    -0.198 NA
ATOM     82  C   UNL A   1      34.884  29.368  27.084  1.00  0.00     0.102 C 
ATOM     83  C   UNL A   1      33.542  31.338  27.420  1.00  0.00     0.102 C 
ATOM     84  C   UNL A   1      35.533  30.165  28.208  1.00  0.00     0.018 C 
ATOM     85  C   UNL A   1      34.658  31.388  28.449  1.00  0.00     0.018 C 
ENDBRANCH  78  81
ENDBRANCH  74  78
ENDBRANCH  68  69
ENDBRANCH  64  68
ENDBRANCH  60  62
ENDBRANCH  59  60
ENDBRANCH  58  59
ENDBRANCH   1  58
TORSDOF 19
ENDMDL
