MODEL 1
REMARK VINA RESULT:      -9.5      0.000      0.000
REMARK SMILES CSCC[C@H](NC(=O)N[C@@H]1CCCCC1(C)C)C(=O)OCCOCCOC(=O)c1ccc(-c2c3nc(c(-c4ccccc4)c4ccc([nH]4)c(-c4ccccc4)c4nc(c(-c5ccccc5)c5ccc2[nH]5)C=C4)C=C3)cc1
REMARK SMILES IDX 22 1 21 2 20 3 18 4 19 5 5 6 4 7 3 8 2 9 1 10 6 11 7 12 8 14
REMARK SMILES IDX 9 15 10 17 11 18 15 19 12 20 14 21 16 22 17 23 13 24 23 25
REMARK SMILES IDX 24 26 25 27 26 28 27 29 28 30 29 31 30 32 76 33 31 34 75 35
REMARK SMILES IDX 32 36 33 37 34 38 69 39 35 40 74 41 68 42 70 43 36 44 73 45
REMARK SMILES IDX 67 46 66 47 37 49 59 50 44 51 58 52 45 53 48 54 57 55 71 56
REMARK SMILES IDX 46 57 47 58 56 60 72 61 49 62 38 63 39 64 43 65 40 66 42 67
REMARK SMILES IDX 41 68 60 69 61 70 65 71 62 72 64 73 63 74 50 75 51 76 55 77
REMARK SMILES IDX 52 78 54 79 53 80
REMARK H PARENT 6 13 9 16 70 48 48 59
REMARK Flexibility Score: inf
ROOT
ATOM      1  C   UNL A   1      36.066  21.916  24.722  1.00  0.00     0.202 C 
ENDROOT
BRANCH   1   2
ATOM      2  C   UNL A   1      35.511  21.679  26.148  1.00  0.00     0.261 C 
BRANCH   2   3
ATOM      3  O   UNL A   1      34.750  22.812  26.652  1.00  0.00    -0.462 OA
BRANCH   3   4
ATOM      4  C   UNL A   1      33.408  22.747  26.765  1.00  0.00     0.328 C 
ATOM      5  O   UNL A   1      32.854  22.556  27.846  1.00  0.00    -0.250 OA
BRANCH   4   6
ATOM      6  C   UNL A   1      32.579  22.781  25.395  1.00  0.00     0.194 C 
BRANCH   6   7
ATOM      7  C   UNL A   1      31.866  21.399  25.403  1.00  0.00     0.048 C 
BRANCH   7   8
ATOM      8  C   UNL A   1      32.565  20.065  25.166  1.00  0.00     0.072 C 
BRANCH   8   9
ATOM      9  S   UNL A   1      32.457  19.280  23.541  1.00  0.00    -0.165 SA
ATOM     10  C   UNL A   1      33.306  17.720  23.882  1.00  0.00     0.085 C 
ENDBRANCH   8   9
ENDBRANCH   7   8
ENDBRANCH   6   7
BRANCH   6  11
ATOM     11  N   UNL A   1      32.771  23.625  24.036  1.00  0.00    -0.325 N 
ATOM     12  C   UNL A   1      33.091  24.651  23.221  1.00  0.00     0.315 C 
ATOM     13  H   UNL A   1      32.449  22.969  23.376  1.00  0.00     0.166 HD
ATOM     14  O   UNL A   1      32.931  24.375  22.018  1.00  0.00    -0.249 OA
ATOM     15  N   UNL A   1      33.549  25.911  23.424  1.00  0.00    -0.335 N 
ATOM     16  H   UNL A   1      33.863  26.299  22.575  1.00  0.00     0.165 HD
BRANCH  15  17
ATOM     17  C   UNL A   1      33.728  26.909  24.551  1.00  0.00     0.089 C 
ATOM     18  C   UNL A   1      33.300  26.504  25.957  1.00  0.00     0.025 C 
ATOM     19  C   UNL A   1      33.063  28.177  24.098  1.00  0.00    -0.015 C 
ATOM     20  C   UNL A   1      31.827  26.207  26.094  1.00  0.00     0.002 C 
ATOM     21  C   UNL A   1      31.557  27.685  23.966  1.00  0.00     0.008 C 
ATOM     22  C   UNL A   1      32.902  29.463  24.923  1.00  0.00     0.013 C 
ATOM     23  C   UNL A   1      34.159  28.573  23.046  1.00  0.00     0.013 C 
ATOM     24  C   UNL A   1      30.940  27.149  25.288  1.00  0.00     0.001 C 
ENDBRANCH  15  17
ENDBRANCH   6  11
ENDBRANCH   4   6
ENDBRANCH   3   4
ENDBRANCH   2   3
ENDBRANCH   1   2
BRANCH   1  25
ATOM     25  O   UNL A   1      37.234  21.159  24.395  1.00  0.00    -0.374 OA
BRANCH  25  26
ATOM     26  C   UNL A   1      37.307  19.856  24.963  1.00  0.00     0.202 C 
BRANCH  26  27
ATOM     27  C   UNL A   1      38.708  19.345  25.300  1.00  0.00     0.261 C 
BRANCH  27  28
ATOM     28  O   UNL A   1      39.517  20.327  25.968  1.00  0.00    -0.460 OA
BRANCH  28  29
ATOM     29  C   UNL A   1      40.824  19.979  26.045  1.00  0.00     0.338 C 
ATOM     30  O   UNL A   1      41.323  18.920  25.711  1.00  0.00    -0.246 OA
BRANCH  29  31
ATOM     31  C   UNL A   1      41.655  21.081  26.563  1.00  0.00     0.060 A 
ATOM     32  C   UNL A   1      41.673  21.247  27.949  1.00  0.00     0.016 A 
ATOM     33  C   UNL A   1      42.206  22.055  25.725  1.00  0.00     0.016 A 
ATOM     34  C   UNL A   1      42.147  22.434  28.501  1.00  0.00     0.010 A 
ATOM     35  C   UNL A   1      42.697  23.245  26.284  1.00  0.00     0.010 A 
ATOM     36  C   UNL A   1      42.609  23.466  27.671  1.00  0.00    -0.014 A 
BRANCH  36  37
ATOM     37  C   UNL A   1      42.831  24.808  28.274  1.00  0.00     0.031 A 
ATOM     38  C   UNL A   1      44.232  25.254  28.612  1.00  0.00     0.074 A 
ATOM     39  C   UNL A   1      41.811  25.674  28.411  1.00  0.00     0.049 A 
ATOM     40  N   UNL A   1      44.654  26.426  29.018  1.00  0.00    -0.248 NA
ATOM     41  C   UNL A   1      45.299  24.251  28.468  1.00  0.00     0.031 C 
ATOM     42  C   UNL A   1      40.412  25.391  28.089  1.00  0.00     0.029 A 
ATOM     43  N   UNL A   1      41.801  26.982  28.832  1.00  0.00    -0.354 N 
ATOM     44  C   UNL A   1      46.031  26.301  29.176  1.00  0.00     0.074 A 
ATOM     45  C   UNL A   1      46.366  24.929  28.863  1.00  0.00     0.031 C 
ATOM     46  C   UNL A   1      39.683  26.499  28.302  1.00  0.00     0.029 A 
ATOM     47  C   UNL A   1      40.556  27.561  28.797  1.00  0.00     0.049 A 
ATOM     48  H   UNL A   1      42.609  27.457  29.131  1.00  0.00     0.167 HD
ATOM     49  C   UNL A   1      46.939  27.242  29.534  1.00  0.00     0.031 A 
ATOM     50  C   UNL A   1      40.162  28.807  29.122  1.00  0.00     0.031 A 
ATOM     51  C   UNL A   1      46.616  28.608  29.853  1.00  0.00     0.049 A 
ATOM     52  C   UNL A   1      41.183  29.818  29.572  1.00  0.00     0.074 A 
ATOM     53  C   UNL A   1      47.473  29.637  30.209  1.00  0.00     0.029 A 
ATOM     54  N   UNL A   1      45.335  29.136  29.864  1.00  0.00    -0.354 N 
ATOM     55  N   UNL A   1      42.483  29.694  29.678  1.00  0.00    -0.248 NA
ATOM     56  C   UNL A   1      40.675  31.151  29.931  1.00  0.00     0.031 C 
ATOM     57  C   UNL A   1      46.705  30.772  30.489  1.00  0.00     0.029 A 
ATOM     58  C   UNL A   1      45.376  30.467  30.246  1.00  0.00     0.049 A 
ATOM     59  H   UNL A   1      44.517  28.639  29.633  1.00  0.00     0.167 HD
ATOM     60  C   UNL A   1      42.951  30.936  30.089  1.00  0.00     0.074 A 
ATOM     61  C   UNL A   1      41.798  31.806  30.191  1.00  0.00     0.031 C 
ATOM     62  C   UNL A   1      44.223  31.324  30.355  1.00  0.00     0.031 A 
BRANCH  49  63
ATOM     63  C   UNL A   1      48.378  26.814  29.628  1.00  0.00    -0.014 A 
ATOM     64  C   UNL A   1      49.286  27.068  28.586  1.00  0.00     0.009 A 
ATOM     65  C   UNL A   1      48.841  26.180  30.791  1.00  0.00     0.009 A 
ATOM     66  C   UNL A   1      50.619  26.663  28.696  1.00  0.00     0.001 A 
ATOM     67  C   UNL A   1      50.181  25.802  30.909  1.00  0.00     0.001 A 
ATOM     68  C   UNL A   1      51.066  26.035  29.857  1.00  0.00     0.000 A 
ENDBRANCH  49  63
BRANCH  50  69
ATOM     69  C   UNL A   1      38.725  29.177  29.038  1.00  0.00    -0.014 A 
ATOM     70  C   UNL A   1      38.186  29.711  27.858  1.00  0.00     0.009 A 
ATOM     71  C   UNL A   1      37.889  29.021  30.155  1.00  0.00     0.009 A 
ATOM     72  C   UNL A   1      36.848  30.108  27.808  1.00  0.00     0.001 A 
ATOM     73  C   UNL A   1      36.545  29.390  30.092  1.00  0.00     0.001 A 
ATOM     74  C   UNL A   1      36.028  29.942  28.923  1.00  0.00     0.000 A 
ENDBRANCH  50  69
BRANCH  62  75
ATOM     75  C   UNL A   1      44.436  32.759  30.752  1.00  0.00    -0.014 A 
ATOM     76  C   UNL A   1      44.651  33.761  29.793  1.00  0.00     0.009 A 
ATOM     77  C   UNL A   1      44.405  33.117  32.110  1.00  0.00     0.009 A 
ATOM     78  C   UNL A   1      44.877  35.082  30.187  1.00  0.00     0.001 A 
ATOM     79  C   UNL A   1      44.600  34.443  32.499  1.00  0.00     0.001 A 
ATOM     80  C   UNL A   1      44.848  35.423  31.538  1.00  0.00     0.000 A 
ENDBRANCH  62  75
ENDBRANCH  36  37
ENDBRANCH  29  31
ENDBRANCH  28  29
ENDBRANCH  27  28
ENDBRANCH  26  27
ENDBRANCH  25  26
ENDBRANCH   1  25
TORSDOF 19
ENDMDL
MODEL 2
REMARK VINA RESULT:      -9.4      4.302      9.101
REMARK SMILES CSCC[C@H](NC(=O)N[C@@H]1CCCCC1(C)C)C(=O)OCCOCCOC(=O)c1ccc(-c2c3nc(c(-c4ccccc4)c4ccc([nH]4)c(-c4ccccc4)c4nc(c(-c5ccccc5)c5ccc2[nH]5)C=C4)C=C3)cc1
REMARK SMILES IDX 22 1 21 2 20 3 18 4 19 5 5 6 4 7 3 8 2 9 1 10 6 11 7 12 8 14
REMARK SMILES IDX 9 15 10 17 11 18 15 19 12 20 14 21 16 22 17 23 13 24 23 25
REMARK SMILES IDX 24 26 25 27 26 28 27 29 28 30 29 31 30 32 76 33 31 34 75 35
REMARK SMILES IDX 32 36 33 37 34 38 69 39 35 40 74 41 68 42 70 43 36 44 73 45
REMARK SMILES IDX 67 46 66 47 37 49 59 50 44 51 58 52 45 53 48 54 57 55 71 56
REMARK SMILES IDX 46 57 47 58 56 60 72 61 49 62 38 63 39 64 43 65 40 66 42 67
REMARK SMILES IDX 41 68 60 69 61 70 65 71 62 72 64 73 63 74 50 75 51 76 55 77
REMARK SMILES IDX 52 78 54 79 53 80
REMARK H PARENT 6 13 9 16 70 48 48 59
REMARK Flexibility Score: inf
ROOT
ATOM      1  C   UNL A   1      33.185  29.170  26.397  1.00  0.00     0.202 C 
ENDROOT
BRANCH   1   2
ATOM      2  C   UNL A   1      32.044  28.503  27.204  1.00  0.00     0.261 C 
BRANCH   2   3
ATOM      3  O   UNL A   1      31.023  27.913  26.353  1.00  0.00    -0.462 OA
BRANCH   3   4
ATOM      4  C   UNL A   1      31.206  26.701  25.794  1.00  0.00     0.328 C 
ATOM      5  O   UNL A   1      31.218  25.669  26.464  1.00  0.00    -0.250 OA
BRANCH   4   6
ATOM      6  C   UNL A   1      31.557  26.687  24.231  1.00  0.00     0.194 C 
BRANCH   6   7
ATOM      7  C   UNL A   1      30.395  27.521  23.621  1.00  0.00     0.048 C 
BRANCH   7   8
ATOM      8  C   UNL A   1      30.436  29.029  23.402  1.00  0.00     0.072 C 
BRANCH   8   9
ATOM      9  S   UNL A   1      29.236  29.800  22.290  1.00  0.00    -0.165 SA
ATOM     10  C   UNL A   1      28.451  30.968  23.426  1.00  0.00     0.085 C 
ENDBRANCH   8   9
ENDBRANCH   7   8
ENDBRANCH   6   7
BRANCH   6  11
ATOM     11  N   UNL A   1      32.440  25.684  23.331  1.00  0.00    -0.325 N 
ATOM     12  C   UNL A   1      33.296  24.689  23.019  1.00  0.00     0.315 C 
ATOM     13  H   UNL A   1      32.201  26.000  22.430  1.00  0.00     0.166 HD
ATOM     14  O   UNL A   1      33.401  24.516  21.790  1.00  0.00    -0.249 OA
ATOM     15  N   UNL A   1      34.063  23.839  23.745  1.00  0.00    -0.335 N 
ATOM     16  H   UNL A   1      34.399  23.112  23.173  1.00  0.00     0.165 HD
BRANCH  15  17
ATOM     17  C   UNL A   1      34.564  23.661  25.165  1.00  0.00     0.089 C 
ATOM     18  C   UNL A   1      36.025  23.974  25.466  1.00  0.00     0.025 C 
ATOM     19  C   UNL A   1      34.186  22.264  25.570  1.00  0.00    -0.015 C 
ATOM     20  C   UNL A   1      37.010  23.104  24.724  1.00  0.00     0.002 C 
ATOM     21  C   UNL A   1      35.034  21.418  24.524  1.00  0.00     0.008 C 
ATOM     22  C   UNL A   1      34.544  21.575  26.895  1.00  0.00     0.013 C 
ATOM     23  C   UNL A   1      32.651  22.548  25.729  1.00  0.00     0.013 C 
ATOM     24  C   UNL A   1      36.568  21.649  24.606  1.00  0.00     0.001 C 
ENDBRANCH  15  17
ENDBRANCH   6  11
ENDBRANCH   4   6
ENDBRANCH   3   4
ENDBRANCH   2   3
ENDBRANCH   1   2
BRANCH   1  25
ATOM     25  O   UNL A   1      33.026  30.573  26.170  1.00  0.00    -0.374 OA
BRANCH  25  26
ATOM     26  C   UNL A   1      31.698  31.071  26.284  1.00  0.00     0.202 C 
BRANCH  26  27
ATOM     27  C   UNL A   1      31.510  32.296  27.180  1.00  0.00     0.261 C 
BRANCH  27  28
ATOM     28  O   UNL A   1      32.528  33.291  26.989  1.00  0.00    -0.460 OA
BRANCH  28  29
ATOM     29  C   UNL A   1      33.205  33.589  28.124  1.00  0.00     0.338 C 
ATOM     30  O   UNL A   1      32.830  34.302  29.036  1.00  0.00    -0.246 OA
BRANCH  29  31
ATOM     31  C   UNL A   1      34.504  32.894  28.186  1.00  0.00     0.060 A 
ATOM     32  C   UNL A   1      34.487  31.588  28.679  1.00  0.00     0.016 A 
ATOM     33  C   UNL A   1      35.715  33.564  27.994  1.00  0.00     0.016 A 
ATOM     34  C   UNL A   1      35.673  30.982  29.082  1.00  0.00     0.010 A 
ATOM     35  C   UNL A   1      36.912  32.945  28.387  1.00  0.00     0.010 A 
ATOM     36  C   UNL A   1      36.889  31.676  28.994  1.00  0.00    -0.014 A 
BRANCH  36  37
ATOM     37  C   UNL A   1      38.075  31.111  29.693  1.00  0.00     0.031 A 
ATOM     38  C   UNL A   1      38.307  31.433  31.149  1.00  0.00     0.074 A 
ATOM     39  C   UNL A   1      38.874  30.223  29.077  1.00  0.00     0.049 A 
ATOM     40  N   UNL A   1      39.198  30.941  31.975  1.00  0.00    -0.248 NA
ATOM     41  C   UNL A   1      37.416  32.434  31.757  1.00  0.00     0.031 C 
ATOM     42  C   UNL A   1      38.743  29.792  27.685  1.00  0.00     0.029 A 
ATOM     43  N   UNL A   1      39.941  29.501  29.554  1.00  0.00    -0.354 N 
ATOM     44  C   UNL A   1      38.975  31.571  33.195  1.00  0.00     0.074 A 
ATOM     45  C   UNL A   1      37.893  32.509  32.991  1.00  0.00     0.031 C 
ATOM     46  C   UNL A   1      39.679  28.863  27.427  1.00  0.00     0.029 A 
ATOM     47  C   UNL A   1      40.488  28.651  28.625  1.00  0.00     0.049 A 
ATOM     48  H   UNL A   1      40.280  29.586  30.474  1.00  0.00     0.167 HD
ATOM     49  C   UNL A   1      39.600  31.379  34.383  1.00  0.00     0.031 A 
ATOM     50  C   UNL A   1      41.522  27.794  28.727  1.00  0.00     0.031 A 
ATOM     51  C   UNL A   1      40.680  30.452  34.596  1.00  0.00     0.049 A 
ATOM     52  C   UNL A   1      42.237  27.641  30.043  1.00  0.00     0.074 A 
ATOM     53  C   UNL A   1      41.362  30.177  35.771  1.00  0.00     0.029 A 
ATOM     54  N   UNL A   1      41.244  29.655  33.613  1.00  0.00    -0.354 N 
ATOM     55  N   UNL A   1      41.987  28.214  31.195  1.00  0.00    -0.248 NA
ATOM     56  C   UNL A   1      43.370  26.702  30.071  1.00  0.00     0.031 C 
ATOM     57  C   UNL A   1      42.375  29.255  35.485  1.00  0.00     0.029 A 
ATOM     58  C   UNL A   1      42.282  28.909  34.147  1.00  0.00     0.049 A 
ATOM     59  H   UNL A   1      40.950  29.623  32.674  1.00  0.00     0.167 HD
ATOM     60  C   UNL A   1      42.911  27.688  32.089  1.00  0.00     0.074 A 
ATOM     61  C   UNL A   1      43.713  26.732  31.351  1.00  0.00     0.031 C 
ATOM     62  C   UNL A   1      43.081  27.968  33.405  1.00  0.00     0.031 A 
BRANCH  49  63
ATOM     63  C   UNL A   1      39.143  32.214  35.548  1.00  0.00    -0.014 A 
ATOM     64  C   UNL A   1      38.141  31.763  36.423  1.00  0.00     0.009 A 
ATOM     65  C   UNL A   1      39.750  33.455  35.794  1.00  0.00     0.009 A 
ATOM     66  C   UNL A   1      37.734  32.555  37.500  1.00  0.00     0.001 A 
ATOM     67  C   UNL A   1      39.361  34.232  36.888  1.00  0.00     0.001 A 
ATOM     68  C   UNL A   1      38.347  33.786  37.734  1.00  0.00     0.000 A 
ENDBRANCH  49  63
BRANCH  50  69
ATOM     69  C   UNL A   1      41.954  27.007  27.541  1.00  0.00    -0.014 A 
ATOM     70  C   UNL A   1      42.924  27.506  26.660  1.00  0.00     0.009 A 
ATOM     71  C   UNL A   1      41.372  25.758  27.273  1.00  0.00     0.009 A 
ATOM     72  C   UNL A   1      43.282  26.784  25.519  1.00  0.00     0.001 A 
ATOM     73  C   UNL A   1      41.754  25.025  26.149  1.00  0.00     0.001 A 
ATOM     74  C   UNL A   1      42.700  25.542  25.268  1.00  0.00     0.000 A 
ENDBRANCH  50  69
BRANCH  62  75
ATOM     75  C   UNL A   1      44.153  27.209  34.137  1.00  0.00    -0.014 A 
ATOM     76  C   UNL A   1      43.924  25.922  34.646  1.00  0.00     0.009 A 
ATOM     77  C   UNL A   1      45.422  27.788  34.308  1.00  0.00     0.009 A 
ATOM     78  C   UNL A   1      44.925  25.248  35.351  1.00  0.00     0.001 A 
ATOM     79  C   UNL A   1      46.431  27.100  34.983  1.00  0.00     0.001 A 
ATOM     80  C   UNL A   1      46.178  25.836  35.515  1.00  0.00     0.000 A 
ENDBRANCH  62  75
ENDBRANCH  36  37
ENDBRANCH  29  31
ENDBRANCH  28  29
ENDBRANCH  27  28
ENDBRANCH  26  27
ENDBRANCH  25  26
ENDBRANCH   1  25
TORSDOF 19
ENDMDL
MODEL 3
REMARK VINA RESULT:      -9.4      1.530      6.103
REMARK SMILES CSCC[C@H](NC(=O)N[C@@H]1CCCCC1(C)C)C(=O)OCCOCCOC(=O)c1ccc(-c2c3nc(c(-c4ccccc4)c4ccc([nH]4)c(-c4ccccc4)c4nc(c(-c5ccccc5)c5ccc2[nH]5)C=C4)C=C3)cc1
REMARK SMILES IDX 22 1 21 2 20 3 18 4 19 5 5 6 4 7 3 8 2 9 1 10 6 11 7 12 8 14
REMARK SMILES IDX 9 15 10 17 11 18 15 19 12 20 14 21 16 22 17 23 13 24 23 25
REMARK SMILES IDX 24 26 25 27 26 28 27 29 28 30 29 31 30 32 76 33 31 34 75 35
REMARK SMILES IDX 32 36 33 37 34 38 69 39 35 40 74 41 68 42 70 43 36 44 73 45
REMARK SMILES IDX 67 46 66 47 37 49 59 50 44 51 58 52 45 53 48 54 57 55 71 56
REMARK SMILES IDX 46 57 47 58 56 60 72 61 49 62 38 63 39 64 43 65 40 66 42 67
REMARK SMILES IDX 41 68 60 69 61 70 65 71 62 72 64 73 63 74 50 75 51 76 55 77
REMARK SMILES IDX 52 78 54 79 53 80
REMARK H PARENT 6 13 9 16 70 48 48 59
REMARK Flexibility Score: inf
ROOT
ATOM      1  C   UNL A   1      38.165  23.265  25.716  1.00  0.00     0.202 C 
ENDROOT
BRANCH   1   2
ATOM      2  C   UNL A   1      36.690  23.727  25.641  1.00  0.00     0.261 C 
BRANCH   2   3
ATOM      3  O   UNL A   1      36.151  23.674  24.290  1.00  0.00    -0.462 OA
BRANCH   3   4
ATOM      4  C   UNL A   1      35.048  22.949  24.016  1.00  0.00     0.328 C 
ATOM      5  O   UNL A   1      34.632  22.805  22.867  1.00  0.00    -0.250 OA
BRANCH   4   6
ATOM      6  C   UNL A   1      34.220  22.411  25.278  1.00  0.00     0.194 C 
BRANCH   6   7
ATOM      7  C   UNL A   1      34.365  20.869  25.137  1.00  0.00     0.048 C 
BRANCH   7   8
ATOM      8  C   UNL A   1      33.245  19.932  24.698  1.00  0.00     0.072 C 
BRANCH   8   9
ATOM      9  S   UNL A   1      33.637  18.224  24.252  1.00  0.00    -0.165 SA
ATOM     10  C   UNL A   1      32.563  18.016  22.811  1.00  0.00     0.085 C 
ENDBRANCH   8   9
ENDBRANCH   7   8
ENDBRANCH   6   7
BRANCH   6  11
ATOM     11  N   UNL A   1      33.049  23.073  26.164  1.00  0.00    -0.325 N 
ATOM     12  C   UNL A   1      32.100  23.951  26.550  1.00  0.00     0.315 C 
ATOM     13  H   UNL A   1      32.982  22.410  26.889  1.00  0.00     0.166 HD
ATOM     14  O   UNL A   1      31.494  23.581  27.573  1.00  0.00    -0.249 OA
ATOM     15  N   UNL A   1      31.663  25.141  26.070  1.00  0.00    -0.335 N 
ATOM     16  H   UNL A   1      30.812  25.388  26.501  1.00  0.00     0.165 HD
BRANCH  15  17
ATOM     17  C   UNL A   1      32.075  26.209  25.077  1.00  0.00     0.089 C 
ATOM     18  C   UNL A   1      33.516  26.706  25.098  1.00  0.00     0.025 C 
ATOM     19  C   UNL A   1      31.085  27.329  25.231  1.00  0.00    -0.015 C 
ATOM     20  C   UNL A   1      33.923  27.371  26.390  1.00  0.00     0.002 C 
ATOM     21  C   UNL A   1      31.370  27.765  26.734  1.00  0.00     0.008 C 
ATOM     22  C   UNL A   1      31.121  28.680  24.500  1.00  0.00     0.013 C 
ATOM     23  C   UNL A   1      29.888  26.589  24.537  1.00  0.00     0.013 C 
ATOM     24  C   UNL A   1      32.827  28.239  26.998  1.00  0.00     0.001 C 
ENDBRANCH  15  17
ENDBRANCH   6  11
ENDBRANCH   4   6
ENDBRANCH   3   4
ENDBRANCH   2   3
ENDBRANCH   1   2
BRANCH   1  25
ATOM     25  O   UNL A   1      38.357  21.931  26.197  1.00  0.00    -0.374 OA
BRANCH  25  26
ATOM     26  C   UNL A   1      38.503  20.928  25.199  1.00  0.00     0.202 C 
BRANCH  26  27
ATOM     27  C   UNL A   1      39.222  19.649  25.628  1.00  0.00     0.261 C 
BRANCH  27  28
ATOM     28  O   UNL A   1      40.647  19.809  25.711  1.00  0.00    -0.460 OA
BRANCH  28  29
ATOM     29  C   UNL A   1      41.074  20.160  26.948  1.00  0.00     0.338 C 
ATOM     30  O   UNL A   1      40.837  19.589  27.997  1.00  0.00    -0.246 OA
BRANCH  29  31
ATOM     31  C   UNL A   1      41.944  21.350  26.912  1.00  0.00     0.060 A 
ATOM     32  C   UNL A   1      42.498  21.752  28.129  1.00  0.00     0.016 A 
ATOM     33  C   UNL A   1      42.028  22.176  25.787  1.00  0.00     0.016 A 
ATOM     34  C   UNL A   1      43.047  23.024  28.256  1.00  0.00     0.010 A 
ATOM     35  C   UNL A   1      42.596  23.453  25.914  1.00  0.00     0.010 A 
ATOM     36  C   UNL A   1      43.048  23.907  27.166  1.00  0.00    -0.014 A 
BRANCH  36  37
ATOM     37  C   UNL A   1      43.375  25.337  27.419  1.00  0.00     0.031 A 
ATOM     38  C   UNL A   1      42.293  26.280  27.885  1.00  0.00     0.074 A 
ATOM     39  C   UNL A   1      44.647  25.770  27.352  1.00  0.00     0.049 A 
ATOM     40  N   UNL A   1      42.394  27.523  28.286  1.00  0.00    -0.248 NA
ATOM     41  C   UNL A   1      40.920  25.753  27.908  1.00  0.00     0.031 C 
ATOM     42  C   UNL A   1      45.796  24.959  26.953  1.00  0.00     0.029 A 
ATOM     43  N   UNL A   1      45.187  26.998  27.647  1.00  0.00    -0.354 N 
ATOM     44  C   UNL A   1      41.102  27.925  28.609  1.00  0.00     0.074 A 
ATOM     45  C   UNL A   1      40.230  26.808  28.318  1.00  0.00     0.031 C 
ATOM     46  C   UNL A   1      46.910  25.704  27.051  1.00  0.00     0.029 A 
ATOM     47  C   UNL A   1      46.551  27.049  27.495  1.00  0.00     0.049 A 
ATOM     48  H   UNL A   1      44.647  27.768  27.939  1.00  0.00     0.167 HD
ATOM     49  C   UNL A   1      40.676  29.108  29.116  1.00  0.00     0.031 A 
ATOM     50  C   UNL A   1      47.415  28.062  27.695  1.00  0.00     0.031 A 
ATOM     51  C   UNL A   1      41.532  30.228  29.405  1.00  0.00     0.049 A 
ATOM     52  C   UNL A   1      46.909  29.385  28.204  1.00  0.00     0.074 A 
ATOM     53  C   UNL A   1      41.191  31.460  29.938  1.00  0.00     0.029 A 
ATOM     54  N   UNL A   1      42.899  30.257  29.179  1.00  0.00    -0.354 N 
ATOM     55  N   UNL A   1      45.692  29.734  28.541  1.00  0.00    -0.248 NA
ATOM     56  C   UNL A   1      47.909  30.450  28.377  1.00  0.00     0.031 C 
ATOM     57  C   UNL A   1      42.342  32.254  29.981  1.00  0.00     0.029 A 
ATOM     58  C   UNL A   1      43.411  31.494  29.535  1.00  0.00     0.049 A 
ATOM     59  H   UNL A   1      43.428  29.509  28.819  1.00  0.00     0.167 HD
ATOM     60  C   UNL A   1      45.783  31.046  28.990  1.00  0.00     0.074 A 
ATOM     61  C   UNL A   1      47.179  31.423  28.904  1.00  0.00     0.031 C 
ATOM     62  C   UNL A   1      44.799  31.865  29.436  1.00  0.00     0.031 A 
BRANCH  49  63
ATOM     63  C   UNL A   1      39.200  29.262  29.367  1.00  0.00    -0.014 A 
ATOM     64  C   UNL A   1      38.329  29.706  28.358  1.00  0.00     0.009 A 
ATOM     65  C   UNL A   1      38.668  28.922  30.621  1.00  0.00     0.009 A 
ATOM     66  C   UNL A   1      36.962  29.840  28.613  1.00  0.00     0.001 A 
ATOM     67  C   UNL A   1      37.297  29.030  30.864  1.00  0.00     0.001 A 
ATOM     68  C   UNL A   1      36.447  29.498  29.863  1.00  0.00     0.000 A 
ENDBRANCH  49  63
BRANCH  50  69
ATOM     69  C   UNL A   1      48.862  27.871  27.409  1.00  0.00    -0.014 A 
ATOM     70  C   UNL A   1      49.409  28.252  26.175  1.00  0.00     0.009 A 
ATOM     71  C   UNL A   1      49.698  27.277  28.368  1.00  0.00     0.009 A 
ATOM     72  C   UNL A   1      50.757  28.016  25.896  1.00  0.00     0.001 A 
ATOM     73  C   UNL A   1      51.052  27.071  28.097  1.00  0.00     0.001 A 
ATOM     74  C   UNL A   1      51.578  27.432  26.859  1.00  0.00     0.000 A 
ENDBRANCH  50  69
BRANCH  62  75
ATOM     75  C   UNL A   1      45.204  33.240  29.895  1.00  0.00    -0.014 A 
ATOM     76  C   UNL A   1      45.580  33.488  31.224  1.00  0.00     0.009 A 
ATOM     77  C   UNL A   1      45.225  34.301  28.976  1.00  0.00     0.009 A 
ATOM     78  C   UNL A   1      45.922  34.779  31.635  1.00  0.00     0.001 A 
ATOM     79  C   UNL A   1      45.598  35.584  29.381  1.00  0.00     0.001 A 
ATOM     80  C   UNL A   1      45.934  35.824  30.713  1.00  0.00     0.000 A 
ENDBRANCH  62  75
ENDBRANCH  36  37
ENDBRANCH  29  31
ENDBRANCH  28  29
ENDBRANCH  27  28
ENDBRANCH  26  27
ENDBRANCH  25  26
ENDBRANCH   1  25
TORSDOF 19
ENDMDL
