MODEL 1
REMARK VINA RESULT:      -8.5      0.000      0.000
REMARK SMILES COc1cccc(-c2ccc(Nc3cccc(C(=O)OCCOCCOC(=O)c4ccc(-c5c6nc(c(-c7ccccc7)c7ccc([nH]7)c(-c7ccccc7)c7nc(c(-c8ccccc8)c8ccc5[nH]8)C=C7)C=C6)cc4)c3)nn2)c1
REMARK SMILES IDX 22 1 21 2 20 3 18 4 19 5 17 6 13 7 14 8 77 9 15 10 16 11
REMARK SMILES IDX 12 12 11 14 8 15 9 16 79 17 10 18 78 19 7 20 3 21 4 22 80 23
REMARK SMILES IDX 5 24 6 25 2 26 1 27 23 28 24 29 25 30 26 31 27 32 28 33
REMARK SMILES IDX 29 34 30 35 76 36 31 37 75 38 32 39 33 40 34 41 69 42 35 43
REMARK SMILES IDX 74 44 68 45 70 46 36 47 73 48 67 49 66 50 37 52 59 53 44 54
REMARK SMILES IDX 58 55 45 56 48 57 57 58 71 59 46 60 47 61 56 63 72 64 49 65
REMARK SMILES IDX 38 66 39 67 43 68 40 69 42 70 41 71 60 72 61 73 65 74 62 75
REMARK SMILES IDX 64 76 63 77 50 78 51 79 55 80 52 81 54 82 53 83
REMARK H PARENT 12 13 70 51 48 62
REMARK Flexibility Score: inf
ROOT
ATOM      1  C   UNL A   1      33.327  35.712  29.586  1.00  0.00     0.202 C 
ENDROOT
BRANCH   1   2
ATOM      2  C   UNL A   1      33.091  35.639  31.099  1.00  0.00     0.261 C 
BRANCH   2   3
ATOM      3  O   UNL A   1      34.298  35.263  31.783  1.00  0.00    -0.460 OA
BRANCH   3   4
ATOM      4  C   UNL A   1      34.246  34.097  32.470  1.00  0.00     0.338 C 
ATOM      5  O   UNL A   1      33.254  33.589  32.977  1.00  0.00    -0.246 OA
BRANCH   4   6
ATOM      6  C   UNL A   1      35.541  33.390  32.348  1.00  0.00     0.062 A 
ATOM      7  C   UNL A   1      37.233  31.855  33.186  1.00  0.00     0.040 A 
ATOM      8  C   UNL A   1      38.017  32.140  32.059  1.00  0.00     0.026 A 
ATOM      9  C   UNL A   1      36.004  32.515  33.335  1.00  0.00     0.041 A 
ATOM     10  C   UNL A   1      37.566  33.028  31.079  1.00  0.00     0.003 A 
ATOM     11  C   UNL A   1      36.322  33.639  31.214  1.00  0.00     0.016 A 
BRANCH   7  12
ATOM     12  N   UNL A   1      37.638  30.838  34.074  1.00  0.00    -0.339 N 
ATOM     13  H   UNL A   1      36.974  30.524  34.730  1.00  0.00     0.168 HD
BRANCH  12  14
ATOM     14  C   UNL A   1      38.909  30.233  34.108  1.00  0.00     0.153 A 
ATOM     15  C   UNL A   1      41.358  28.985  34.224  1.00  0.00     0.093 A 
ATOM     16  C   UNL A   1      41.198  30.219  34.837  1.00  0.00     0.035 A 
ATOM     17  N   UNL A   1      40.330  28.408  33.574  1.00  0.00    -0.148 NA
ATOM     18  C   UNL A   1      39.954  30.849  34.779  1.00  0.00     0.051 A 
ATOM     19  N   UNL A   1      39.111  29.034  33.524  1.00  0.00    -0.132 NA
BRANCH  15  20
ATOM     20  C   UNL A   1      42.607  28.221  34.230  1.00  0.00     0.006 A 
ATOM     21  C   UNL A   1      43.966  26.358  33.447  1.00  0.00     0.119 A 
ATOM     22  C   UNL A   1      45.025  26.785  34.247  1.00  0.00     0.046 A 
ATOM     23  C   UNL A   1      42.756  27.058  33.456  1.00  0.00     0.056 A 
ATOM     24  C   UNL A   1      44.900  27.943  35.012  1.00  0.00     0.005 A 
ATOM     25  C   UNL A   1      43.704  28.659  34.993  1.00  0.00     0.011 A 
BRANCH  21  26
ATOM     26  O   UNL A   1      44.175  25.215  32.724  1.00  0.00    -0.497 OA
ATOM     27  C   UNL A   1      45.192  24.374  33.264  1.00  0.00     0.278 C 
ENDBRANCH  21  26
ENDBRANCH  15  20
ENDBRANCH  12  14
ENDBRANCH   7  12
ENDBRANCH   4   6
ENDBRANCH   3   4
ENDBRANCH   2   3
ENDBRANCH   1   2
BRANCH   1  28
ATOM     28  O   UNL A   1      34.231  34.742  29.048  1.00  0.00    -0.374 OA
BRANCH  28  29
ATOM     29  C   UNL A   1      33.650  33.577  28.462  1.00  0.00     0.202 C 
BRANCH  29  30
ATOM     30  C   UNL A   1      34.316  32.243  28.812  1.00  0.00     0.261 C 
BRANCH  30  31
ATOM     31  O   UNL A   1      34.579  31.448  27.642  1.00  0.00    -0.460 OA
BRANCH  31  32
ATOM     32  C   UNL A   1      34.782  30.135  27.894  1.00  0.00     0.338 C 
ATOM     33  O   UNL A   1      34.048  29.201  27.605  1.00  0.00    -0.246 OA
BRANCH  32  34
ATOM     34  C   UNL A   1      36.129  29.924  28.455  1.00  0.00     0.060 A 
ATOM     35  C   UNL A   1      37.216  30.228  27.628  1.00  0.00     0.016 A 
ATOM     36  C   UNL A   1      36.334  29.371  29.722  1.00  0.00     0.016 A 
ATOM     37  C   UNL A   1      38.510  29.926  28.040  1.00  0.00     0.010 A 
ATOM     38  C   UNL A   1      37.637  29.066  30.135  1.00  0.00     0.010 A 
ATOM     39  C   UNL A   1      38.727  29.308  29.280  1.00  0.00    -0.014 A 
BRANCH  39  40
ATOM     40  C   UNL A   1      40.092  28.826  29.606  1.00  0.00     0.031 A 
ATOM     41  C   UNL A   1      40.540  27.475  29.118  1.00  0.00     0.074 A 
ATOM     42  C   UNL A   1      40.954  29.623  30.264  1.00  0.00     0.049 A 
ATOM     43  N   UNL A   1      41.720  26.915  29.202  1.00  0.00    -0.248 NA
ATOM     44  C   UNL A   1      39.528  26.648  28.444  1.00  0.00     0.031 C 
ATOM     45  C   UNL A   1      40.650  30.962  30.766  1.00  0.00     0.029 A 
ATOM     46  N   UNL A   1      42.268  29.424  30.601  1.00  0.00    -0.354 N 
ATOM     47  C   UNL A   1      41.595  25.675  28.589  1.00  0.00     0.074 A 
ATOM     48  C   UNL A   1      40.214  25.547  28.173  1.00  0.00     0.031 C 
ATOM     49  C   UNL A   1      41.755  31.473  31.335  1.00  0.00     0.029 A 
ATOM     50  C   UNL A   1      42.834  30.491  31.255  1.00  0.00     0.049 A 
ATOM     51  H   UNL A   1      42.759  28.595  30.397  1.00  0.00     0.167 HD
ATOM     52  C   UNL A   1      42.544  24.730  28.379  1.00  0.00     0.031 A 
ATOM     53  C   UNL A   1      44.082  30.658  31.733  1.00  0.00     0.031 A 
ATOM     54  C   UNL A   1      43.915  24.847  28.803  1.00  0.00     0.049 A 
ATOM     55  C   UNL A   1      45.103  29.571  31.536  1.00  0.00     0.074 A 
ATOM     56  C   UNL A   1      44.955  23.953  28.614  1.00  0.00     0.029 A 
ATOM     57  N   UNL A   1      44.433  25.919  29.510  1.00  0.00    -0.354 N 
ATOM     58  N   UNL A   1      44.980  28.424  30.914  1.00  0.00    -0.248 NA
ATOM     59  C   UNL A   1      46.440  29.812  32.098  1.00  0.00     0.031 C 
ATOM     60  C   UNL A   1      46.089  24.459  29.258  1.00  0.00     0.029 A 
ATOM     61  C   UNL A   1      45.771  25.695  29.795  1.00  0.00     0.049 A 
ATOM     62  H   UNL A   1      43.926  26.722  29.772  1.00  0.00     0.167 HD
ATOM     63  C   UNL A   1      46.228  27.816  30.992  1.00  0.00     0.074 A 
ATOM     64  C   UNL A   1      47.097  28.732  31.700  1.00  0.00     0.031 C 
ATOM     65  C   UNL A   1      46.620  26.607  30.518  1.00  0.00     0.031 A 
BRANCH  52  66
ATOM     66  C   UNL A   1      42.120  23.469  27.677  1.00  0.00    -0.014 A 
ATOM     67  C   UNL A   1      41.539  22.403  28.381  1.00  0.00     0.009 A 
ATOM     68  C   UNL A   1      42.272  23.362  26.287  1.00  0.00     0.009 A 
ATOM     69  C   UNL A   1      41.148  21.242  27.711  1.00  0.00     0.001 A 
ATOM     70  C   UNL A   1      41.856  22.210  25.614  1.00  0.00     0.001 A 
ATOM     71  C   UNL A   1      41.303  21.149  26.328  1.00  0.00     0.000 A 
ENDBRANCH  52  66
BRANCH  53  72
ATOM     72  C   UNL A   1      44.440  31.910  32.449  1.00  0.00    -0.014 A 
ATOM     73  C   UNL A   1      44.789  33.069  31.741  1.00  0.00     0.009 A 
ATOM     74  C   UNL A   1      44.451  31.944  33.853  1.00  0.00     0.009 A 
ATOM     75  C   UNL A   1      45.164  34.230  32.423  1.00  0.00     0.001 A 
ATOM     76  C   UNL A   1      44.798  33.112  34.532  1.00  0.00     0.001 A 
ATOM     77  C   UNL A   1      45.164  34.251  33.816  1.00  0.00     0.000 A 
ENDBRANCH  53  72
BRANCH  65  78
ATOM     78  C   UNL A   1      48.054  26.217  30.742  1.00  0.00    -0.014 A 
ATOM     79  C   UNL A   1      49.022  26.400  29.742  1.00  0.00     0.009 A 
ATOM     80  C   UNL A   1      48.446  25.673  31.976  1.00  0.00     0.009 A 
ATOM     81  C   UNL A   1      50.345  26.007  29.959  1.00  0.00     0.001 A 
ATOM     82  C   UNL A   1      49.775  25.309  32.200  1.00  0.00     0.001 A 
ATOM     83  C   UNL A   1      50.720  25.464  31.188  1.00  0.00     0.000 A 
ENDBRANCH  65  78
ENDBRANCH  39  40
ENDBRANCH  32  34
ENDBRANCH  31  32
ENDBRANCH  30  31
ENDBRANCH  29  30
ENDBRANCH  28  29
ENDBRANCH   1  28
TORSDOF 18
ENDMDL
MODEL 2
REMARK VINA RESULT:      -7.8      4.159      8.942
REMARK SMILES COc1cccc(-c2ccc(Nc3cccc(C(=O)OCCOCCOC(=O)c4ccc(-c5c6nc(c(-c7ccccc7)c7ccc([nH]7)c(-c7ccccc7)c7nc(c(-c8ccccc8)c8ccc5[nH]8)C=C7)C=C6)cc4)c3)nn2)c1
REMARK SMILES IDX 22 1 21 2 20 3 18 4 19 5 17 6 13 7 14 8 77 9 15 10 16 11
REMARK SMILES IDX 12 12 11 14 8 15 9 16 79 17 10 18 78 19 7 20 3 21 4 22 80 23
REMARK SMILES IDX 5 24 6 25 2 26 1 27 23 28 24 29 25 30 26 31 27 32 28 33
REMARK SMILES IDX 29 34 30 35 76 36 31 37 75 38 32 39 33 40 34 41 69 42 35 43
REMARK SMILES IDX 74 44 68 45 70 46 36 47 73 48 67 49 66 50 37 52 59 53 44 54
REMARK SMILES IDX 58 55 45 56 48 57 57 58 71 59 46 60 47 61 56 63 72 64 49 65
REMARK SMILES IDX 38 66 39 67 43 68 40 69 42 70 41 71 60 72 61 73 65 74 62 75
REMARK SMILES IDX 64 76 63 77 50 78 51 79 55 80 52 81 54 82 53 83
REMARK H PARENT 12 13 70 51 48 62
REMARK Flexibility Score: inf
ROOT
ATOM      1  C   UNL A   1      32.243  28.870  23.144  1.00  0.00     0.202 C 
ENDROOT
BRANCH   1   2
ATOM      2  C   UNL A   1      32.931  27.654  22.514  1.00  0.00     0.261 C 
BRANCH   2   3
ATOM      3  O   UNL A   1      31.973  26.826  21.833  1.00  0.00    -0.460 OA
BRANCH   3   4
ATOM      4  C   UNL A   1      32.458  25.674  21.311  1.00  0.00     0.338 C 
ATOM      5  O   UNL A   1      33.039  25.541  20.241  1.00  0.00    -0.246 OA
BRANCH   4   6
ATOM      6  C   UNL A   1      32.379  24.597  22.324  1.00  0.00     0.062 A 
ATOM      7  C   UNL A   1      33.327  22.696  23.511  1.00  0.00     0.040 A 
ATOM      8  C   UNL A   1      32.122  22.565  24.216  1.00  0.00     0.026 A 
ATOM      9  C   UNL A   1      33.431  23.702  22.539  1.00  0.00     0.041 A 
ATOM     10  C   UNL A   1      31.061  23.446  23.992  1.00  0.00     0.003 A 
ATOM     11  C   UNL A   1      31.195  24.471  23.059  1.00  0.00     0.016 A 
BRANCH   7  12
ATOM     12  N   UNL A   1      34.432  21.898  23.870  1.00  0.00    -0.339 N 
ATOM     13  H   UNL A   1      34.405  20.949  23.610  1.00  0.00     0.168 HD
BRANCH  12  14
ATOM     14  C   UNL A   1      35.572  22.339  24.569  1.00  0.00     0.153 A 
ATOM     15  C   UNL A   1      37.786  23.136  25.996  1.00  0.00     0.093 A 
ATOM     16  C   UNL A   1      36.687  23.980  25.925  1.00  0.00     0.035 A 
ATOM     17  N   UNL A   1      37.773  21.945  25.368  1.00  0.00    -0.148 NA
ATOM     18  C   UNL A   1      35.564  23.573  25.202  1.00  0.00     0.051 A 
ATOM     19  N   UNL A   1      36.664  21.553  24.663  1.00  0.00    -0.132 NA
BRANCH  15  20
ATOM     20  C   UNL A   1      39.013  23.445  26.733  1.00  0.00     0.006 A 
ATOM     21  C   UNL A   1      41.254  22.854  27.477  1.00  0.00     0.119 A 
ATOM     22  C   UNL A   1      41.364  24.074  28.141  1.00  0.00     0.046 A 
ATOM     23  C   UNL A   1      40.077  22.530  26.797  1.00  0.00     0.056 A 
ATOM     24  C   UNL A   1      40.323  24.999  28.079  1.00  0.00     0.005 A 
ATOM     25  C   UNL A   1      39.163  24.689  27.370  1.00  0.00     0.011 A 
BRANCH  21  26
ATOM     26  O   UNL A   1      42.324  22.006  27.586  1.00  0.00    -0.497 OA
ATOM     27  C   UNL A   1      42.923  21.678  26.334  1.00  0.00     0.278 C 
ENDBRANCH  21  26
ENDBRANCH  15  20
ENDBRANCH  12  14
ENDBRANCH   7  12
ENDBRANCH   4   6
ENDBRANCH   3   4
ENDBRANCH   2   3
ENDBRANCH   1   2
BRANCH   1  28
ATOM     28  O   UNL A   1      31.163  28.583  24.038  1.00  0.00    -0.374 OA
BRANCH  28  29
ATOM     29  C   UNL A   1      31.511  28.267  25.386  1.00  0.00     0.202 C 
BRANCH  29  30
ATOM     30  C   UNL A   1      31.801  29.459  26.303  1.00  0.00     0.261 C 
BRANCH  30  31
ATOM     31  O   UNL A   1      33.182  29.506  26.706  1.00  0.00    -0.460 OA
BRANCH  31  32
ATOM     32  C   UNL A   1      33.579  30.700  27.199  1.00  0.00     0.338 C 
ATOM     33  O   UNL A   1      32.884  31.684  27.411  1.00  0.00    -0.246 OA
BRANCH  32  34
ATOM     34  C   UNL A   1      34.991  30.639  27.615  1.00  0.00     0.060 A 
ATOM     35  C   UNL A   1      35.525  29.369  27.864  1.00  0.00     0.016 A 
ATOM     36  C   UNL A   1      35.758  31.787  27.835  1.00  0.00     0.016 A 
ATOM     37  C   UNL A   1      36.807  29.244  28.390  1.00  0.00     0.010 A 
ATOM     38  C   UNL A   1      37.047  31.659  28.366  1.00  0.00     0.010 A 
ATOM     39  C   UNL A   1      37.563  30.389  28.681  1.00  0.00    -0.014 A 
BRANCH  39  40
ATOM     40  C   UNL A   1      38.842  30.230  29.415  1.00  0.00     0.031 A 
ATOM     41  C   UNL A   1      38.939  30.684  30.847  1.00  0.00     0.074 A 
ATOM     42  C   UNL A   1      39.885  29.610  28.834  1.00  0.00     0.049 A 
ATOM     43  N   UNL A   1      39.926  30.539  31.695  1.00  0.00    -0.248 NA
ATOM     44  C   UNL A   1      37.771  31.389  31.395  1.00  0.00     0.031 C 
ATOM     45  C   UNL A   1      39.909  29.101  27.464  1.00  0.00     0.029 A 
ATOM     46  N   UNL A   1      41.119  29.286  29.337  1.00  0.00    -0.354 N 
ATOM     47  C   UNL A   1      39.498  31.130  32.877  1.00  0.00     0.074 A 
ATOM     48  C   UNL A   1      38.179  31.670  32.625  1.00  0.00     0.031 C 
ATOM     49  C   UNL A   1      41.096  28.513  27.239  1.00  0.00     0.029 A 
ATOM     50  C   UNL A   1      41.919  28.622  28.441  1.00  0.00     0.049 A 
ATOM     51  H   UNL A   1      41.405  29.510  30.253  1.00  0.00     0.167 HD
ATOM     52  C   UNL A   1      40.137  31.207  34.069  1.00  0.00     0.031 A 
ATOM     53  C   UNL A   1      43.175  28.152  28.574  1.00  0.00     0.031 A 
ATOM     54  C   UNL A   1      41.455  30.684  34.320  1.00  0.00     0.049 A 
ATOM     55  C   UNL A   1      43.885  28.300  29.892  1.00  0.00     0.074 A 
ATOM     56  C   UNL A   1      42.176  30.693  35.502  1.00  0.00     0.029 A 
ATOM     57  N   UNL A   1      42.253  30.068  33.371  1.00  0.00    -0.354 N 
ATOM     58  N   UNL A   1      43.449  28.820  31.014  1.00  0.00    -0.248 NA
ATOM     59  C   UNL A   1      45.259  27.781  29.962  1.00  0.00     0.031 C 
ATOM     60  C   UNL A   1      43.433  30.134  35.252  1.00  0.00     0.029 A 
ATOM     61  C   UNL A   1      43.473  29.722  33.930  1.00  0.00     0.049 A 
ATOM     62  H   UNL A   1      41.993  29.900  32.435  1.00  0.00     0.167 HD
ATOM     63  C   UNL A   1      44.486  28.673  31.927  1.00  0.00     0.074 A 
ATOM     64  C   UNL A   1      45.561  27.994  31.235  1.00  0.00     0.031 C 
ATOM     65  C   UNL A   1      44.542  29.064  33.225  1.00  0.00     0.031 A 
BRANCH  52  66
ATOM     66  C   UNL A   1      39.425  31.911  35.191  1.00  0.00    -0.014 A 
ATOM     67  C   UNL A   1      39.513  33.302  35.352  1.00  0.00     0.009 A 
ATOM     68  C   UNL A   1      38.625  31.174  36.078  1.00  0.00     0.009 A 
ATOM     69  C   UNL A   1      38.840  33.938  36.399  1.00  0.00     0.001 A 
ATOM     70  C   UNL A   1      37.932  31.814  37.108  1.00  0.00     0.001 A 
ATOM     71  C   UNL A   1      38.047  33.194  37.271  1.00  0.00     0.000 A 
ENDBRANCH  52  66
BRANCH  53  72
ATOM     72  C   UNL A   1      43.847  27.495  27.424  1.00  0.00    -0.014 A 
ATOM     73  C   UNL A   1      43.844  26.099  27.290  1.00  0.00     0.009 A 
ATOM     74  C   UNL A   1      44.513  28.267  26.458  1.00  0.00     0.009 A 
ATOM     75  C   UNL A   1      44.513  25.488  26.227  1.00  0.00     0.001 A 
ATOM     76  C   UNL A   1      45.157  27.656  25.381  1.00  0.00     0.001 A 
ATOM     77  C   UNL A   1      45.165  26.267  25.272  1.00  0.00     0.000 A 
ENDBRANCH  53  72
BRANCH  65  78
ATOM     78  C   UNL A   1      45.805  28.753  33.978  1.00  0.00    -0.014 A 
ATOM     79  C   UNL A   1      46.014  27.492  34.559  1.00  0.00     0.009 A 
ATOM     80  C   UNL A   1      46.808  29.729  34.096  1.00  0.00     0.009 A 
ATOM     81  C   UNL A   1      47.182  27.230  35.279  1.00  0.00     0.001 A 
ATOM     82  C   UNL A   1      47.987  29.454  34.790  1.00  0.00     0.001 A 
ATOM     83  C   UNL A   1      48.168  28.210  35.392  1.00  0.00     0.000 A 
ENDBRANCH  65  78
ENDBRANCH  39  40
ENDBRANCH  32  34
ENDBRANCH  31  32
ENDBRANCH  30  31
ENDBRANCH  29  30
ENDBRANCH  28  29
ENDBRANCH   1  28
TORSDOF 18
ENDMDL
MODEL 3
REMARK VINA RESULT:      -7.8      5.630     11.831
REMARK SMILES COc1cccc(-c2ccc(Nc3cccc(C(=O)OCCOCCOC(=O)c4ccc(-c5c6nc(c(-c7ccccc7)c7ccc([nH]7)c(-c7ccccc7)c7nc(c(-c8ccccc8)c8ccc5[nH]8)C=C7)C=C6)cc4)c3)nn2)c1
REMARK SMILES IDX 22 1 21 2 20 3 18 4 19 5 17 6 13 7 14 8 77 9 15 10 16 11
REMARK SMILES IDX 12 12 11 14 8 15 9 16 79 17 10 18 78 19 7 20 3 21 4 22 80 23
REMARK SMILES IDX 5 24 6 25 2 26 1 27 23 28 24 29 25 30 26 31 27 32 28 33
REMARK SMILES IDX 29 34 30 35 76 36 31 37 75 38 32 39 33 40 34 41 69 42 35 43
REMARK SMILES IDX 74 44 68 45 70 46 36 47 73 48 67 49 66 50 37 52 59 53 44 54
REMARK SMILES IDX 58 55 45 56 48 57 57 58 71 59 46 60 47 61 56 63 72 64 49 65
REMARK SMILES IDX 38 66 39 67 43 68 40 69 42 70 41 71 60 72 61 73 65 74 62 75
REMARK SMILES IDX 64 76 63 77 50 78 51 79 55 80 52 81 54 82 53 83
REMARK H PARENT 12 13 70 51 48 62
REMARK Flexibility Score: inf
ROOT
ATOM      1  C   UNL A   1      44.448  18.892  24.370  1.00  0.00     0.202 C 
ENDROOT
BRANCH   1   2
ATOM      2  C   UNL A   1      43.467  18.642  25.521  1.00  0.00     0.261 C 
BRANCH   2   3
ATOM      3  O   UNL A   1      42.717  19.833  25.816  1.00  0.00    -0.460 OA
BRANCH   3   4
ATOM      4  C   UNL A   1      42.225  19.922  27.075  1.00  0.00     0.338 C 
ATOM      5  O   UNL A   1      42.296  19.070  27.952  1.00  0.00    -0.246 OA
BRANCH   4   6
ATOM      6  C   UNL A   1      41.761  21.305  27.331  1.00  0.00     0.062 A 
ATOM      7  C   UNL A   1      40.348  23.221  26.826  1.00  0.00     0.040 A 
ATOM      8  C   UNL A   1      40.988  23.933  27.851  1.00  0.00     0.026 A 
ATOM      9  C   UNL A   1      40.770  21.910  26.554  1.00  0.00     0.041 A 
ATOM     10  C   UNL A   1      41.991  23.337  28.618  1.00  0.00     0.003 A 
ATOM     11  C   UNL A   1      42.366  22.019  28.370  1.00  0.00     0.016 A 
BRANCH   7  12
ATOM     12  N   UNL A   1      39.233  23.788  26.176  1.00  0.00    -0.339 N 
ATOM     13  H   UNL A   1      39.288  24.742  25.941  1.00  0.00     0.168 HD
BRANCH  12  14
ATOM     14  C   UNL A   1      38.047  23.110  25.836  1.00  0.00     0.153 A 
ATOM     15  C   UNL A   1      35.751  21.793  25.085  1.00  0.00     0.093 A 
ATOM     16  C   UNL A   1      35.651  23.048  25.668  1.00  0.00     0.035 A 
ATOM     17  N   UNL A   1      36.955  21.223  24.897  1.00  0.00    -0.148 NA
ATOM     18  C   UNL A   1      36.817  23.716  26.046  1.00  0.00     0.051 A 
ATOM     19  N   UNL A   1      38.096  21.888  25.269  1.00  0.00    -0.132 NA
BRANCH  15  20
ATOM     20  C   UNL A   1      34.603  21.004  24.634  1.00  0.00     0.006 A 
ATOM     21  C   UNL A   1      33.452  18.872  24.386  1.00  0.00     0.119 A 
ATOM     22  C   UNL A   1      32.377  19.516  23.775  1.00  0.00     0.046 A 
ATOM     23  C   UNL A   1      34.569  19.608  24.791  1.00  0.00     0.056 A 
ATOM     24  C   UNL A   1      32.388  20.901  23.622  1.00  0.00     0.005 A 
ATOM     25  C   UNL A   1      33.488  21.638  24.059  1.00  0.00     0.011 A 
BRANCH  21  26
ATOM     26  O   UNL A   1      33.358  17.512  24.501  1.00  0.00    -0.497 OA
ATOM     27  C   UNL A   1      33.892  16.805  23.384  1.00  0.00     0.278 C 
ENDBRANCH  21  26
ENDBRANCH  15  20
ENDBRANCH  12  14
ENDBRANCH   7  12
ENDBRANCH   4   6
ENDBRANCH   3   4
ENDBRANCH   2   3
ENDBRANCH   1   2
BRANCH   1  28
ATOM     28  O   UNL A   1      45.823  18.617  24.652  1.00  0.00    -0.374 OA
BRANCH  28  29
ATOM     29  C   UNL A   1      46.667  19.742  24.894  1.00  0.00     0.202 C 
BRANCH  29  30
ATOM     30  C   UNL A   1      46.054  21.117  24.613  1.00  0.00     0.261 C 
BRANCH  30  31
ATOM     31  O   UNL A   1      46.383  22.073  25.636  1.00  0.00    -0.460 OA
BRANCH  31  32
ATOM     32  C   UNL A   1      46.364  23.361  25.224  1.00  0.00     0.338 C 
ATOM     33  O   UNL A   1      46.489  23.776  24.081  1.00  0.00    -0.246 OA
BRANCH  32  34
ATOM     34  C   UNL A   1      46.008  24.252  26.342  1.00  0.00     0.060 A 
ATOM     35  C   UNL A   1      44.684  24.701  26.401  1.00  0.00     0.016 A 
ATOM     36  C   UNL A   1      46.953  24.705  27.268  1.00  0.00     0.016 A 
ATOM     37  C   UNL A   1      44.312  25.649  27.348  1.00  0.00     0.010 A 
ATOM     38  C   UNL A   1      46.576  25.662  28.219  1.00  0.00     0.010 A 
ATOM     39  C   UNL A   1      45.264  26.165  28.239  1.00  0.00    -0.014 A 
BRANCH  39  40
ATOM     40  C   UNL A   1      44.883  27.309  29.104  1.00  0.00     0.031 A 
ATOM     41  C   UNL A   1      44.854  28.699  28.529  1.00  0.00     0.074 A 
ATOM     42  C   UNL A   1      44.486  27.098  30.372  1.00  0.00     0.049 A 
ATOM     43  N   UNL A   1      44.450  29.815  29.082  1.00  0.00    -0.248 NA
ATOM     44  C   UNL A   1      45.342  28.853  27.150  1.00  0.00     0.031 C 
ATOM     45  C   UNL A   1      44.444  25.797  31.038  1.00  0.00     0.029 A 
ATOM     46  N   UNL A   1      44.024  27.978  31.317  1.00  0.00    -0.354 N 
ATOM     47  C   UNL A   1      44.629  30.801  28.119  1.00  0.00     0.074 A 
ATOM     48  C   UNL A   1      45.216  30.159  26.962  1.00  0.00     0.031 C 
ATOM     49  C   UNL A   1      43.963  25.962  32.282  1.00  0.00     0.029 A 
ATOM     50  C   UNL A   1      43.685  27.379  32.505  1.00  0.00     0.049 A 
ATOM     51  H   UNL A   1      43.943  28.946  31.160  1.00  0.00     0.167 HD
ATOM     52  C   UNL A   1      44.323  32.119  28.185  1.00  0.00     0.031 A 
ATOM     53  C   UNL A   1      43.203  27.912  33.644  1.00  0.00     0.031 A 
ATOM     54  C   UNL A   1      43.752  32.764  29.339  1.00  0.00     0.049 A 
ATOM     55  C   UNL A   1      42.924  29.388  33.711  1.00  0.00     0.074 A 
ATOM     56  C   UNL A   1      43.386  34.090  29.492  1.00  0.00     0.029 A 
ATOM     57  N   UNL A   1      43.477  32.133  30.540  1.00  0.00    -0.354 N 
ATOM     58  N   UNL A   1      43.055  30.299  32.777  1.00  0.00    -0.248 NA
ATOM     59  C   UNL A   1      42.416  29.906  34.990  1.00  0.00     0.031 C 
ATOM     60  C   UNL A   1      42.941  34.273  30.806  1.00  0.00     0.029 A 
ATOM     61  C   UNL A   1      42.975  33.047  31.452  1.00  0.00     0.049 A 
ATOM     62  H   UNL A   1      43.617  31.174  30.721  1.00  0.00     0.167 HD
ATOM     63  C   UNL A   1      42.627  31.491  33.347  1.00  0.00     0.074 A 
ATOM     64  C   UNL A   1      42.211  31.183  34.700  1.00  0.00     0.031 C 
ATOM     65  C   UNL A   1      42.582  32.732  32.801  1.00  0.00     0.031 A 
BRANCH  52  66
ATOM     66  C   UNL A   1      44.627  32.960  26.976  1.00  0.00    -0.014 A 
ATOM     67  C   UNL A   1      43.720  33.058  25.909  1.00  0.00     0.009 A 
ATOM     68  C   UNL A   1      45.821  33.695  26.922  1.00  0.00     0.009 A 
ATOM     69  C   UNL A   1      44.020  33.848  24.796  1.00  0.00     0.001 A 
ATOM     70  C   UNL A   1      46.106  34.505  25.821  1.00  0.00     0.001 A 
ATOM     71  C   UNL A   1      45.209  34.574  24.756  1.00  0.00     0.000 A 
ENDBRANCH  52  66
BRANCH  53  72
ATOM     72  C   UNL A   1      42.952  27.041  34.822  1.00  0.00    -0.014 A 
ATOM     73  C   UNL A   1      41.702  26.435  35.015  1.00  0.00     0.009 A 
ATOM     74  C   UNL A   1      43.964  26.827  35.772  1.00  0.00     0.009 A 
ATOM     75  C   UNL A   1      41.463  25.651  36.147  1.00  0.00     0.001 A 
ATOM     76  C   UNL A   1      43.732  26.021  36.887  1.00  0.00     0.001 A 
ATOM     77  C   UNL A   1      42.479  25.442  37.079  1.00  0.00     0.000 A 
ENDBRANCH  53  72
BRANCH  65  78
ATOM     78  C   UNL A   1      42.051  33.841  33.666  1.00  0.00    -0.014 A 
ATOM     79  C   UNL A   1      40.677  34.124  33.724  1.00  0.00     0.009 A 
ATOM     80  C   UNL A   1      42.936  34.604  34.444  1.00  0.00     0.009 A 
ATOM     81  C   UNL A   1      40.205  35.176  34.512  1.00  0.00     0.001 A 
ATOM     82  C   UNL A   1      42.457  35.635  35.254  1.00  0.00     0.001 A 
ATOM     83  C   UNL A   1      41.095  35.929  35.278  1.00  0.00     0.000 A 
ENDBRANCH  65  78
ENDBRANCH  39  40
ENDBRANCH  32  34
ENDBRANCH  31  32
ENDBRANCH  30  31
ENDBRANCH  29  30
ENDBRANCH  28  29
ENDBRANCH   1  28
TORSDOF 18
ENDMDL
