MODEL 1
REMARK VINA RESULT:      -8.2      0.000      0.000
REMARK SMILES O=C(C[C@@H]1S/C(=[NH+]\c2ccccc2)N(CCO)C1=O)Nc1ccc(C(=O)OCCOCCOC(=O)c2ccc(-c3c4nc(c(-c5ccccc5)c5ccc([nH]5)c(-c5ccccc5)c5nc(c(-c6ccccc6)c6ccc3[nH]6)C=C5)C=C4)cc2)cc1
REMARK SMILES IDX 28 1 27 2 25 3 26 4 24 5 21 6 22 7 85 8 23 9 84 10 20 11
REMARK SMILES IDX 1 12 2 13 3 15 4 16 5 17 18 18 6 19 14 20 19 21 7 22 15 24
REMARK SMILES IDX 16 25 17 26 8 28 9 29 13 30 10 31 12 32 11 33 29 34 30 35
REMARK SMILES IDX 31 36 32 37 33 38 34 39 35 40 36 41 37 42 83 43 38 44 82 45
REMARK SMILES IDX 39 46 40 47 41 48 76 49 42 50 81 51 75 52 77 53 43 54 80 55
REMARK SMILES IDX 74 56 73 57 44 59 66 60 51 61 65 62 52 63 55 64 64 65 78 66
REMARK SMILES IDX 53 67 54 68 63 70 79 71 56 72 45 73 46 74 50 75 47 76 49 77
REMARK SMILES IDX 48 78 67 79 68 80 72 81 69 82 71 83 70 84 57 85 58 86 62 87
REMARK SMILES IDX 59 88 61 89 60 90
REMARK H PARENT 20 14 7 23 17 27 77 58 55 69
REMARK Flexibility Score: inf
ROOT
ATOM      1  C   UNL A   1      35.193  33.816  34.235  1.00  0.00     0.261 C 
ENDROOT
BRANCH   1   2
ATOM      2  O   UNL A   1      36.397  33.300  34.826  1.00  0.00    -0.460 OA
BRANCH   2   3
ATOM      3  C   UNL A   1      37.537  33.782  34.282  1.00  0.00     0.338 C 
ATOM      4  O   UNL A   1      37.825  34.955  34.094  1.00  0.00    -0.246 OA
BRANCH   3   5
ATOM      5  C   UNL A   1      38.510  32.690  34.085  1.00  0.00     0.060 A 
ATOM      6  C   UNL A   1      40.179  30.467  33.905  1.00  0.00     0.041 A 
ATOM      7  C   UNL A   1      38.835  30.371  33.525  1.00  0.00     0.027 A 
ATOM      8  C   UNL A   1      40.710  31.702  34.276  1.00  0.00     0.027 A 
ATOM      9  C   UNL A   1      37.993  31.468  33.647  1.00  0.00     0.018 A 
ATOM     10  C   UNL A   1      39.878  32.827  34.344  1.00  0.00     0.018 A 
BRANCH   6  11
ATOM     11  N   UNL A   1      40.889  29.256  33.950  1.00  0.00    -0.326 N 
ATOM     12  O   UNL A   1      40.784  28.746  36.212  1.00  0.00    -0.275 OA
ATOM     13  C   UNL A   1      41.088  28.459  35.059  1.00  0.00     0.226 C 
ATOM     14  H   UNL A   1      41.283  28.944  33.104  1.00  0.00     0.169 HD
BRANCH  13  15
ATOM     15  C   UNL A   1      41.715  27.105  34.729  1.00  0.00     0.128 C 
BRANCH  15  16
ATOM     16  C   UNL A   1      42.261  26.367  35.957  1.00  0.00     0.183 C 
ATOM     17  S   UNL A   1      43.972  26.916  36.312  1.00  0.00    -0.022 SA
ATOM     18  C   UNL A   1      42.424  24.887  35.675  1.00  0.00     0.324 C 
ATOM     19  C   UNL A   1      44.683  25.420  35.777  1.00  0.00     0.319 C 
ATOM     20  N   UNL A   1      43.720  24.509  35.459  1.00  0.00    -0.188 N 
ATOM     21  O   UNL A   1      41.473  24.120  35.558  1.00  0.00    -0.245 OA
ATOM     22  N   UNL A   1      45.925  25.101  35.650  1.00  0.00    -0.235 N 
ATOM     23  H   UNL A   1      46.146  24.222  35.267  1.00  0.00     0.313 HD
BRANCH  20  24
ATOM     24  C   UNL A   1      44.032  23.165  34.961  1.00  0.00     0.275 C 
BRANCH  24  25
ATOM     25  C   UNL A   1      44.110  23.145  33.428  1.00  0.00     0.202 C 
BRANCH  25  26
ATOM     26  O   UNL A   1      44.971  24.156  32.911  1.00  0.00    -0.392 OA
ATOM     27  H   UNL A   1      44.581  25.028  33.078  1.00  0.00     0.210 HD
ENDBRANCH  25  26
ENDBRANCH  24  25
ENDBRANCH  20  24
BRANCH  22  28
ATOM     28  C   UNL A   1      46.975  25.943  36.030  1.00  0.00     0.125 A 
ATOM     29  C   UNL A   1      47.556  26.768  35.064  1.00  0.00     0.051 A 
ATOM     30  C   UNL A   1      47.567  25.856  37.294  1.00  0.00     0.051 A 
ATOM     31  C   UNL A   1      48.698  27.513  35.361  1.00  0.00     0.004 A 
ATOM     32  C   UNL A   1      48.700  26.611  37.599  1.00  0.00     0.004 A 
ATOM     33  C   UNL A   1      49.267  27.436  36.630  1.00  0.00     0.000 A 
ENDBRANCH  22  28
ENDBRANCH  15  16
ENDBRANCH  13  15
ENDBRANCH   6  11
ENDBRANCH   3   5
ENDBRANCH   2   3
ENDBRANCH   1   2
BRANCH   1  34
ATOM     34  C   UNL A   1      34.722  32.928  33.081  1.00  0.00     0.202 C 
BRANCH  34  35
ATOM     35  O   UNL A   1      33.922  33.565  32.085  1.00  0.00    -0.374 OA
BRANCH  35  36
ATOM     36  C   UNL A   1      34.609  34.313  31.081  1.00  0.00     0.202 C 
BRANCH  36  37
ATOM     37  C   UNL A   1      34.758  33.629  29.717  1.00  0.00     0.261 C 
BRANCH  37  38
ATOM     38  O   UNL A   1      34.563  32.205  29.816  1.00  0.00    -0.460 OA
BRANCH  38  39
ATOM     39  C   UNL A   1      34.736  31.525  28.660  1.00  0.00     0.338 C 
ATOM     40  O   UNL A   1      34.076  31.620  27.634  1.00  0.00    -0.246 OA
BRANCH  39  41
ATOM     41  C   UNL A   1      35.984  30.741  28.722  1.00  0.00     0.060 A 
ATOM     42  C   UNL A   1      36.338  30.189  29.960  1.00  0.00     0.016 A 
ATOM     43  C   UNL A   1      36.823  30.598  27.615  1.00  0.00     0.016 A 
ATOM     44  C   UNL A   1      37.557  29.532  30.108  1.00  0.00     0.010 A 
ATOM     45  C   UNL A   1      38.051  29.945  27.769  1.00  0.00     0.010 A 
ATOM     46  C   UNL A   1      38.437  29.440  29.024  1.00  0.00    -0.014 A 
BRANCH  46  47
ATOM     47  C   UNL A   1      39.812  28.930  29.243  1.00  0.00     0.031 A 
ATOM     48  C   UNL A   1      40.832  29.825  29.893  1.00  0.00     0.074 A 
ATOM     49  C   UNL A   1      40.142  27.674  28.893  1.00  0.00     0.049 A 
ATOM     50  N   UNL A   1      42.088  29.582  30.174  1.00  0.00    -0.248 NA
ATOM     51  C   UNL A   1      40.378  31.171  30.276  1.00  0.00     0.031 C 
ATOM     52  C   UNL A   1      39.237  26.699  28.286  1.00  0.00     0.029 A 
ATOM     53  N   UNL A   1      41.337  27.007  28.998  1.00  0.00    -0.354 N 
ATOM     54  C   UNL A   1      42.575  30.746  30.754  1.00  0.00     0.074 A 
ATOM     55  C   UNL A   1      41.489  31.702  30.766  1.00  0.00     0.031 C 
ATOM     56  C   UNL A   1      39.914  25.559  28.062  1.00  0.00     0.029 A 
ATOM     57  C   UNL A   1      41.302  25.734  28.486  1.00  0.00     0.049 A 
ATOM     58  H   UNL A   1      42.142  27.403  29.404  1.00  0.00     0.167 HD
ATOM     59  C   UNL A   1      43.814  30.995  31.240  1.00  0.00     0.031 A 
ATOM     60  C   UNL A   1      42.282  24.821  28.355  1.00  0.00     0.031 A 
ATOM     61  C   UNL A   1      44.897  30.048  31.227  1.00  0.00     0.049 A 
ATOM     62  C   UNL A   1      43.667  25.145  28.849  1.00  0.00     0.074 A 
ATOM     63  C   UNL A   1      46.178  30.198  31.729  1.00  0.00     0.029 A 
ATOM     64  N   UNL A   1      44.828  28.780  30.673  1.00  0.00    -0.354 N 
ATOM     65  N   UNL A   1      44.102  26.231  29.440  1.00  0.00    -0.248 NA
ATOM     66  C   UNL A   1      44.695  24.108  28.665  1.00  0.00     0.031 C 
ATOM     67  C   UNL A   1      46.903  29.040  31.427  1.00  0.00     0.029 A 
ATOM     68  C   UNL A   1      46.056  28.148  30.790  1.00  0.00     0.049 A 
ATOM     69  H   UNL A   1      44.027  28.386  30.259  1.00  0.00     0.167 HD
ATOM     70  C   UNL A   1      45.443  26.000  29.721  1.00  0.00     0.074 A 
ATOM     71  C   UNL A   1      45.746  24.664  29.250  1.00  0.00     0.031 C 
ATOM     72  C   UNL A   1      46.344  26.820  30.315  1.00  0.00     0.031 A 
BRANCH  59  73
ATOM     73  C   UNL A   1      44.079  32.366  31.797  1.00  0.00    -0.014 A 
ATOM     74  C   UNL A   1      43.985  32.625  33.173  1.00  0.00     0.009 A 
ATOM     75  C   UNL A   1      44.473  33.400  30.934  1.00  0.00     0.009 A 
ATOM     76  C   UNL A   1      44.255  33.903  33.670  1.00  0.00     0.001 A 
ATOM     77  C   UNL A   1      44.767  34.669  31.435  1.00  0.00     0.001 A 
ATOM     78  C   UNL A   1      44.651  34.920  32.801  1.00  0.00     0.000 A 
ENDBRANCH  59  73
BRANCH  60  79
ATOM     79  C   UNL A   1      42.002  23.516  27.702  1.00  0.00    -0.014 A 
ATOM     80  C   UNL A   1      41.524  22.427  28.446  1.00  0.00     0.009 A 
ATOM     81  C   UNL A   1      42.238  23.348  26.328  1.00  0.00     0.009 A 
ATOM     82  C   UNL A   1      41.313  21.189  27.832  1.00  0.00     0.001 A 
ATOM     83  C   UNL A   1      41.999  22.119  25.712  1.00  0.00     0.001 A 
ATOM     84  C   UNL A   1      41.547  21.037  26.466  1.00  0.00     0.000 A 
ENDBRANCH  60  79
BRANCH  72  85
ATOM     85  C   UNL A   1      47.733  26.286  30.517  1.00  0.00    -0.014 A 
ATOM     86  C   UNL A   1      48.684  26.317  29.485  1.00  0.00     0.009 A 
ATOM     87  C   UNL A   1      48.109  25.782  31.773  1.00  0.00     0.009 A 
ATOM     88  C   UNL A   1      49.972  25.821  29.697  1.00  0.00     0.001 A 
ATOM     89  C   UNL A   1      49.405  25.314  31.990  1.00  0.00     0.001 A 
ATOM     90  C   UNL A   1      50.333  25.324  30.951  1.00  0.00     0.000 A 
ENDBRANCH  72  85
ENDBRANCH  46  47
ENDBRANCH  39  41
ENDBRANCH  38  39
ENDBRANCH  37  38
ENDBRANCH  36  37
ENDBRANCH  35  36
ENDBRANCH  34  35
ENDBRANCH   1  34
TORSDOF 21
ENDMDL
MODEL 2
REMARK VINA RESULT:      -7.7      4.807      8.730
REMARK SMILES O=C(C[C@@H]1S/C(=[NH+]\c2ccccc2)N(CCO)C1=O)Nc1ccc(C(=O)OCCOCCOC(=O)c2ccc(-c3c4nc(c(-c5ccccc5)c5ccc([nH]5)c(-c5ccccc5)c5nc(c(-c6ccccc6)c6ccc3[nH]6)C=C5)C=C4)cc2)cc1
REMARK SMILES IDX 28 1 27 2 25 3 26 4 24 5 21 6 22 7 85 8 23 9 84 10 20 11
REMARK SMILES IDX 1 12 2 13 3 15 4 16 5 17 18 18 6 19 14 20 19 21 7 22 15 24
REMARK SMILES IDX 16 25 17 26 8 28 9 29 13 30 10 31 12 32 11 33 29 34 30 35
REMARK SMILES IDX 31 36 32 37 33 38 34 39 35 40 36 41 37 42 83 43 38 44 82 45
REMARK SMILES IDX 39 46 40 47 41 48 76 49 42 50 81 51 75 52 77 53 43 54 80 55
REMARK SMILES IDX 74 56 73 57 44 59 66 60 51 61 65 62 52 63 55 64 64 65 78 66
REMARK SMILES IDX 53 67 54 68 63 70 79 71 56 72 45 73 46 74 50 75 47 76 49 77
REMARK SMILES IDX 48 78 67 79 68 80 72 81 69 82 71 83 70 84 57 85 58 86 62 87
REMARK SMILES IDX 59 88 61 89 60 90
REMARK H PARENT 20 14 7 23 17 27 77 58 55 69
REMARK Flexibility Score: inf
ROOT
ATOM      1  C   UNL A   1      32.516  31.723  26.830  1.00  0.00     0.261 C 
ENDROOT
BRANCH   1   2
ATOM      2  O   UNL A   1      32.654  30.432  27.446  1.00  0.00    -0.460 OA
BRANCH   2   3
ATOM      3  C   UNL A   1      33.588  29.638  26.876  1.00  0.00     0.338 C 
ATOM      4  O   UNL A   1      34.750  29.927  26.631  1.00  0.00    -0.246 OA
BRANCH   3   5
ATOM      5  C   UNL A   1      33.070  28.265  26.729  1.00  0.00     0.060 A 
ATOM      6  C   UNL A   1      32.170  25.691  26.158  1.00  0.00     0.041 A 
ATOM      7  C   UNL A   1      33.515  26.025  25.965  1.00  0.00     0.027 A 
ATOM      8  C   UNL A   1      31.300  26.616  26.734  1.00  0.00     0.027 A 
ATOM      9  C   UNL A   1      33.958  27.317  26.216  1.00  0.00     0.018 A 
ATOM     10  C   UNL A   1      31.756  27.903  27.044  1.00  0.00     0.018 A 
BRANCH   6  11
ATOM     11  N   UNL A   1      31.778  24.432  25.673  1.00  0.00    -0.326 N 
ATOM     12  O   UNL A   1      32.135  23.093  27.536  1.00  0.00    -0.275 OA
ATOM     13  C   UNL A   1      31.726  23.254  26.390  1.00  0.00     0.226 C 
ATOM     14  H   UNL A   1      31.514  24.386  24.727  1.00  0.00     0.169 HD
BRANCH  13  15
ATOM     15  C   UNL A   1      31.054  22.110  25.632  1.00  0.00     0.128 C 
BRANCH  15  16
ATOM     16  C   UNL A   1      32.034  21.256  24.819  1.00  0.00     0.183 C 
ATOM     17  S   UNL A   1      33.733  21.450  25.475  1.00  0.00    -0.022 SA
ATOM     18  C   UNL A   1      32.151  21.768  23.397  1.00  0.00     0.324 C 
ATOM     19  C   UNL A   1      34.273  22.389  24.113  1.00  0.00     0.319 C 
ATOM     20  N   UNL A   1      33.301  22.469  23.160  1.00  0.00    -0.188 N 
ATOM     21  O   UNL A   1      31.256  21.647  22.566  1.00  0.00    -0.245 OA
ATOM     22  N   UNL A   1      35.401  22.981  23.920  1.00  0.00    -0.235 N 
ATOM     23  H   UNL A   1      35.510  23.528  23.109  1.00  0.00     0.313 HD
BRANCH  20  24
ATOM     24  C   UNL A   1      33.475  23.216  21.909  1.00  0.00     0.275 C 
BRANCH  24  25
ATOM     25  C   UNL A   1      32.977  24.661  22.051  1.00  0.00     0.202 C 
BRANCH  25  26
ATOM     26  O   UNL A   1      34.010  25.561  22.440  1.00  0.00    -0.392 OA
ATOM     27  H   UNL A   1      34.136  25.512  23.401  1.00  0.00     0.210 HD
ENDBRANCH  25  26
ENDBRANCH  24  25
ENDBRANCH  20  24
BRANCH  22  28
ATOM     28  C   UNL A   1      36.479  22.883  24.805  1.00  0.00     0.125 A 
ATOM     29  C   UNL A   1      36.809  23.994  25.585  1.00  0.00     0.051 A 
ATOM     30  C   UNL A   1      37.332  21.775  24.806  1.00  0.00     0.051 A 
ATOM     31  C   UNL A   1      37.962  23.991  26.371  1.00  0.00     0.004 A 
ATOM     32  C   UNL A   1      38.478  21.763  25.602  1.00  0.00     0.004 A 
ATOM     33  C   UNL A   1      38.794  22.874  26.382  1.00  0.00     0.000 A 
ENDBRANCH  22  28
ENDBRANCH  15  16
ENDBRANCH  13  15
ENDBRANCH   6  11
ENDBRANCH   3   5
ENDBRANCH   2   3
ENDBRANCH   1   2
BRANCH   1  34
ATOM     34  C   UNL A   1      32.957  32.837  27.781  1.00  0.00     0.202 C 
BRANCH  34  35
ATOM     35  O   UNL A   1      34.274  33.351  27.577  1.00  0.00    -0.374 OA
BRANCH  35  36
ATOM     36  C   UNL A   1      35.116  33.453  28.727  1.00  0.00     0.202 C 
BRANCH  36  37
ATOM     37  C   UNL A   1      34.398  33.578  30.076  1.00  0.00     0.261 C 
BRANCH  37  38
ATOM     38  O   UNL A   1      34.483  32.357  30.836  1.00  0.00    -0.460 OA
BRANCH  38  39
ATOM     39  C   UNL A   1      35.242  32.432  31.952  1.00  0.00     0.338 C 
ATOM     40  O   UNL A   1      34.921  32.886  33.042  1.00  0.00    -0.246 OA
BRANCH  39  41
ATOM     41  C   UNL A   1      36.510  31.708  31.745  1.00  0.00     0.060 A 
ATOM     42  C   UNL A   1      36.639  30.450  32.348  1.00  0.00     0.016 A 
ATOM     43  C   UNL A   1      37.573  32.265  31.031  1.00  0.00     0.016 A 
ATOM     44  C   UNL A   1      37.849  29.765  32.281  1.00  0.00     0.010 A 
ATOM     45  C   UNL A   1      38.791  31.578  30.972  1.00  0.00     0.010 A 
ATOM     46  C   UNL A   1      38.944  30.342  31.625  1.00  0.00    -0.014 A 
BRANCH  46  47
ATOM     47  C   UNL A   1      40.279  29.708  31.740  1.00  0.00     0.031 A 
ATOM     48  C   UNL A   1      41.199  30.127  32.853  1.00  0.00     0.074 A 
ATOM     49  C   UNL A   1      40.658  28.748  30.877  1.00  0.00     0.049 A 
ATOM     50  N   UNL A   1      42.406  29.706  33.133  1.00  0.00    -0.248 NA
ATOM     51  C   UNL A   1      40.692  31.159  33.772  1.00  0.00     0.031 C 
ATOM     52  C   UNL A   1      39.847  28.230  29.776  1.00  0.00     0.029 A 
ATOM     53  N   UNL A   1      41.831  28.039  30.796  1.00  0.00    -0.354 N 
ATOM     54  C   UNL A   1      42.806  30.427  34.251  1.00  0.00     0.074 A 
ATOM     55  C   UNL A   1      41.725  31.329  34.584  1.00  0.00     0.031 C 
ATOM     56  C   UNL A   1      40.552  27.291  29.121  1.00  0.00     0.029 A 
ATOM     57  C   UNL A   1      41.870  27.162  29.740  1.00  0.00     0.049 A 
ATOM     58  H   UNL A   1      42.573  28.148  31.433  1.00  0.00     0.167 HD
ATOM     59  C   UNL A   1      43.968  30.344  34.941  1.00  0.00     0.031 A 
ATOM     60  C   UNL A   1      42.863  26.362  29.310  1.00  0.00     0.031 A 
ATOM     61  C   UNL A   1      45.047  29.451  34.610  1.00  0.00     0.049 A 
ATOM     62  C   UNL A   1      44.168  26.331  30.060  1.00  0.00     0.074 A 
ATOM     63  C   UNL A   1      46.249  29.269  35.273  1.00  0.00     0.029 A 
ATOM     64  N   UNL A   1      45.059  28.600  33.517  1.00  0.00    -0.354 N 
ATOM     65  N   UNL A   1      44.515  26.981  31.144  1.00  0.00    -0.248 NA
ATOM     66  C   UNL A   1      45.215  25.443  29.531  1.00  0.00     0.031 C 
ATOM     67  C   UNL A   1      47.013  28.349  34.546  1.00  0.00     0.029 A 
ATOM     68  C   UNL A   1      46.262  27.916  33.466  1.00  0.00     0.049 A 
ATOM     69  H   UNL A   1      44.322  28.497  32.872  1.00  0.00     0.167 HD
ATOM     70  C   UNL A   1      45.807  26.566  31.440  1.00  0.00     0.074 A 
ATOM     71  C   UNL A   1      46.176  25.594  30.431  1.00  0.00     0.031 C 
ATOM     72  C   UNL A   1      46.616  26.954  32.455  1.00  0.00     0.031 A 
BRANCH  59  73
ATOM     73  C   UNL A   1      44.151  31.271  36.109  1.00  0.00    -0.014 A 
ATOM     74  C   UNL A   1      44.706  32.549  35.947  1.00  0.00     0.009 A 
ATOM     75  C   UNL A   1      43.716  30.873  37.383  1.00  0.00     0.009 A 
ATOM     76  C   UNL A   1      44.848  33.401  37.045  1.00  0.00     0.001 A 
ATOM     77  C   UNL A   1      43.836  31.736  38.474  1.00  0.00     0.001 A 
ATOM     78  C   UNL A   1      44.408  32.996  38.305  1.00  0.00     0.000 A 
ENDBRANCH  59  73
BRANCH  60  79
ATOM     79  C   UNL A   1      42.678  25.538  28.086  1.00  0.00    -0.014 A 
ATOM     80  C   UNL A   1      42.266  24.200  28.176  1.00  0.00     0.009 A 
ATOM     81  C   UNL A   1      42.940  26.084  26.820  1.00  0.00     0.009 A 
ATOM     82  C   UNL A   1      42.146  23.418  27.023  1.00  0.00     0.001 A 
ATOM     83  C   UNL A   1      42.791  25.310  25.669  1.00  0.00     0.001 A 
ATOM     84  C   UNL A   1      42.404  23.975  25.771  1.00  0.00     0.000 A 
ENDBRANCH  60  79
BRANCH  72  85
ATOM     85  C   UNL A   1      47.969  26.305  32.545  1.00  0.00    -0.014 A 
ATOM     86  C   UNL A   1      49.093  26.873  31.925  1.00  0.00     0.009 A 
ATOM     87  C   UNL A   1      48.127  25.128  33.294  1.00  0.00     0.009 A 
ATOM     88  C   UNL A   1      50.342  26.257  32.027  1.00  0.00     0.001 A 
ATOM     89  C   UNL A   1      49.382  24.531  33.418  1.00  0.00     0.001 A 
ATOM     90  C   UNL A   1      50.486  25.089  32.777  1.00  0.00     0.000 A 
ENDBRANCH  72  85
ENDBRANCH  46  47
ENDBRANCH  39  41
ENDBRANCH  38  39
ENDBRANCH  37  38
ENDBRANCH  36  37
ENDBRANCH  35  36
ENDBRANCH  34  35
ENDBRANCH   1  34
TORSDOF 21
ENDMDL
MODEL 3
REMARK VINA RESULT:      -7.6      5.510     12.931
REMARK SMILES O=C(C[C@@H]1S/C(=[NH+]\c2ccccc2)N(CCO)C1=O)Nc1ccc(C(=O)OCCOCCOC(=O)c2ccc(-c3c4nc(c(-c5ccccc5)c5ccc([nH]5)c(-c5ccccc5)c5nc(c(-c6ccccc6)c6ccc3[nH]6)C=C5)C=C4)cc2)cc1
REMARK SMILES IDX 28 1 27 2 25 3 26 4 24 5 21 6 22 7 85 8 23 9 84 10 20 11
REMARK SMILES IDX 1 12 2 13 3 15 4 16 5 17 18 18 6 19 14 20 19 21 7 22 15 24
REMARK SMILES IDX 16 25 17 26 8 28 9 29 13 30 10 31 12 32 11 33 29 34 30 35
REMARK SMILES IDX 31 36 32 37 33 38 34 39 35 40 36 41 37 42 83 43 38 44 82 45
REMARK SMILES IDX 39 46 40 47 41 48 76 49 42 50 81 51 75 52 77 53 43 54 80 55
REMARK SMILES IDX 74 56 73 57 44 59 66 60 51 61 65 62 52 63 55 64 64 65 78 66
REMARK SMILES IDX 53 67 54 68 63 70 79 71 56 72 45 73 46 74 50 75 47 76 49 77
REMARK SMILES IDX 48 78 67 79 68 80 72 81 69 82 71 83 70 84 57 85 58 86 62 87
REMARK SMILES IDX 59 88 61 89 60 90
REMARK H PARENT 20 14 7 23 17 27 77 58 55 69
REMARK Flexibility Score: inf
ROOT
ATOM      1  C   UNL A   1      42.263  22.940  26.603  1.00  0.00     0.261 C 
ENDROOT
BRANCH   1   2
ATOM      2  O   UNL A   1      40.863  23.261  26.612  1.00  0.00    -0.460 OA
BRANCH   2   3
ATOM      3  C   UNL A   1      40.050  22.208  26.853  1.00  0.00     0.338 C 
ATOM      4  O   UNL A   1      40.252  21.284  27.627  1.00  0.00    -0.246 OA
BRANCH   3   5
ATOM      5  C   UNL A   1      38.757  22.394  26.169  1.00  0.00     0.060 A 
ATOM      6  C   UNL A   1      36.460  22.684  24.619  1.00  0.00     0.041 A 
ATOM      7  C   UNL A   1      37.141  21.461  24.647  1.00  0.00     0.027 A 
ATOM      8  C   UNL A   1      36.871  23.727  25.447  1.00  0.00     0.027 A 
ATOM      9  C   UNL A   1      38.305  21.325  25.391  1.00  0.00     0.018 A 
ATOM     10  C   UNL A   1      38.012  23.576  26.245  1.00  0.00     0.018 A 
BRANCH   6  11
ATOM     11  N   UNL A   1      35.426  22.785  23.674  1.00  0.00    -0.326 N 
ATOM     12  O   UNL A   1      34.613  24.915  24.108  1.00  0.00    -0.275 OA
ATOM     13  C   UNL A   1      34.629  23.887  23.439  1.00  0.00     0.226 C 
ATOM     14  H   UNL A   1      35.252  21.988  23.123  1.00  0.00     0.169 HD
BRANCH  13  15
ATOM     15  C   UNL A   1      33.744  23.745  22.201  1.00  0.00     0.128 C 
BRANCH  15  16
ATOM     16  C   UNL A   1      32.253  23.604  22.527  1.00  0.00     0.183 C 
ATOM     17  S   UNL A   1      31.437  25.243  22.461  1.00  0.00    -0.022 SA
ATOM     18  C   UNL A   1      32.049  23.174  23.966  1.00  0.00     0.324 C 
ATOM     19  C   UNL A   1      31.245  25.343  24.188  1.00  0.00     0.319 C 
ATOM     20  N   UNL A   1      31.650  24.189  24.791  1.00  0.00    -0.188 N 
ATOM     21  O   UNL A   1      32.309  22.045  24.370  1.00  0.00    -0.245 OA
ATOM     22  N   UNL A   1      30.804  26.315  24.910  1.00  0.00    -0.235 N 
ATOM     23  H   UNL A   1      30.827  26.219  25.889  1.00  0.00     0.313 HD
BRANCH  20  24
ATOM     24  C   UNL A   1      31.618  23.999  26.246  1.00  0.00     0.275 C 
BRANCH  24  25
ATOM     25  C   UNL A   1      30.299  23.354  26.692  1.00  0.00     0.202 C 
BRANCH  25  26
ATOM     26  O   UNL A   1      30.323  21.933  26.593  1.00  0.00    -0.392 OA
ATOM     27  H   UNL A   1      31.243  21.626  26.579  1.00  0.00     0.210 HD
ENDBRANCH  25  26
ENDBRANCH  24  25
ENDBRANCH  20  24
BRANCH  22  28
ATOM     28  C   UNL A   1      30.293  27.499  24.370  1.00  0.00     0.125 A 
ATOM     29  C   UNL A   1      29.112  27.442  23.627  1.00  0.00     0.051 A 
ATOM     30  C   UNL A   1      31.015  28.697  24.408  1.00  0.00     0.051 A 
ATOM     31  C   UNL A   1      28.645  28.570  22.949  1.00  0.00     0.004 A 
ATOM     32  C   UNL A   1      30.544  29.829  23.743  1.00  0.00     0.004 A 
ATOM     33  C   UNL A   1      29.361  29.764  23.010  1.00  0.00     0.000 A 
ENDBRANCH  22  28
ENDBRANCH  15  16
ENDBRANCH  13  15
ENDBRANCH   6  11
ENDBRANCH   3   5
ENDBRANCH   2   3
ENDBRANCH   1   2
BRANCH   1  34
ATOM     34  C   UNL A   1      42.611  22.024  25.428  1.00  0.00     0.202 C 
BRANCH  34  35
ATOM     35  O   UNL A   1      43.986  21.988  25.046  1.00  0.00    -0.374 OA
BRANCH  35  36
ATOM     36  C   UNL A   1      44.856  22.941  25.661  1.00  0.00     0.202 C 
BRANCH  36  37
ATOM     37  C   UNL A   1      45.264  24.136  24.791  1.00  0.00     0.261 C 
BRANCH  37  38
ATOM     38  O   UNL A   1      46.122  25.043  25.509  1.00  0.00    -0.460 OA
BRANCH  38  39
ATOM     39  C   UNL A   1      45.862  26.355  25.305  1.00  0.00     0.338 C 
ATOM     40  O   UNL A   1      46.202  27.042  24.351  1.00  0.00    -0.246 OA
BRANCH  39  41
ATOM     41  C   UNL A   1      44.925  26.845  26.333  1.00  0.00     0.060 A 
ATOM     42  C   UNL A   1      44.691  28.225  26.387  1.00  0.00     0.016 A 
ATOM     43  C   UNL A   1      44.333  25.988  27.263  1.00  0.00     0.016 A 
ATOM     44  C   UNL A   1      43.903  28.760  27.402  1.00  0.00     0.010 A 
ATOM     45  C   UNL A   1      43.549  26.529  28.288  1.00  0.00     0.010 A 
ATOM     46  C   UNL A   1      43.359  27.920  28.381  1.00  0.00    -0.014 A 
BRANCH  46  47
ATOM     47  C   UNL A   1      42.702  28.515  29.569  1.00  0.00     0.031 A 
ATOM     48  C   UNL A   1      41.294  29.030  29.450  1.00  0.00     0.074 A 
ATOM     49  C   UNL A   1      43.343  28.572  30.751  1.00  0.00     0.049 A 
ATOM     50  N   UNL A   1      40.537  29.590  30.359  1.00  0.00    -0.248 NA
ATOM     51  C   UNL A   1      40.655  28.898  28.131  1.00  0.00     0.031 C 
ATOM     52  C   UNL A   1      44.696  28.078  31.005  1.00  0.00     0.029 A 
ATOM     53  N   UNL A   1      42.934  29.076  31.960  1.00  0.00    -0.354 N 
ATOM     54  C   UNL A   1      39.339  29.887  29.721  1.00  0.00     0.074 A 
ATOM     55  C   UNL A   1      39.477  29.467  28.343  1.00  0.00     0.031 C 
ATOM     56  C   UNL A   1      45.010  28.314  32.290  1.00  0.00     0.029 A 
ATOM     57  C   UNL A   1      43.893  28.997  32.940  1.00  0.00     0.049 A 
ATOM     58  H   UNL A   1      42.039  29.458  32.111  1.00  0.00     0.167 HD
ATOM     59  C   UNL A   1      38.223  30.453  30.237  1.00  0.00     0.031 A 
ATOM     60  C   UNL A   1      43.878  29.443  34.210  1.00  0.00     0.031 A 
ATOM     61  C   UNL A   1      38.084  30.875  31.605  1.00  0.00     0.049 A 
ATOM     62  C   UNL A   1      42.645  30.123  34.742  1.00  0.00     0.074 A 
ATOM     63  C   UNL A   1      36.977  31.426  32.228  1.00  0.00     0.029 A 
ATOM     64  N   UNL A   1      39.087  30.803  32.557  1.00  0.00    -0.354 N 
ATOM     65  N   UNL A   1      41.502  30.353  34.143  1.00  0.00    -0.248 NA
ATOM     66  C   UNL A   1      42.699  30.596  36.134  1.00  0.00     0.031 C 
ATOM     67  C   UNL A   1      37.331  31.741  33.545  1.00  0.00     0.029 A 
ATOM     68  C   UNL A   1      38.637  31.333  33.756  1.00  0.00     0.049 A 
ATOM     69  H   UNL A   1      39.986  30.432  32.406  1.00  0.00     0.167 HD
ATOM     70  C   UNL A   1      40.695  30.973  35.088  1.00  0.00     0.074 A 
ATOM     71  C   UNL A   1      41.472  31.069  36.306  1.00  0.00     0.031 C 
ATOM     72  C   UNL A   1      39.423  31.424  34.959  1.00  0.00     0.031 A 
BRANCH  59  73
ATOM     73  C   UNL A   1      37.067  30.684  29.304  1.00  0.00    -0.014 A 
ATOM     74  C   UNL A   1      36.846  31.937  28.713  1.00  0.00     0.009 A 
ATOM     75  C   UNL A   1      36.216  29.617  28.979  1.00  0.00     0.009 A 
ATOM     76  C   UNL A   1      35.776  32.123  27.834  1.00  0.00     0.001 A 
ATOM     77  C   UNL A   1      35.162  29.799  28.081  1.00  0.00     0.001 A 
ATOM     78  C   UNL A   1      34.939  31.053  27.516  1.00  0.00     0.000 A 
ENDBRANCH  59  73
BRANCH  60  79
ATOM     79  C   UNL A   1      45.082  29.288  35.068  1.00  0.00    -0.014 A 
ATOM     80  C   UNL A   1      46.136  30.211  35.002  1.00  0.00     0.009 A 
ATOM     81  C   UNL A   1      45.191  28.194  35.941  1.00  0.00     0.009 A 
ATOM     82  C   UNL A   1      47.287  30.027  35.774  1.00  0.00     0.001 A 
ATOM     83  C   UNL A   1      46.329  28.029  36.732  1.00  0.00     0.001 A 
ATOM     84  C   UNL A   1      47.380  28.939  36.641  1.00  0.00     0.000 A 
ENDBRANCH  60  79
BRANCH  72  85
ATOM     85  C   UNL A   1      38.782  32.033  36.174  1.00  0.00    -0.014 A 
ATOM     86  C   UNL A   1      38.937  33.395  36.475  1.00  0.00     0.009 A 
ATOM     87  C   UNL A   1      37.976  31.240  37.007  1.00  0.00     0.009 A 
ATOM     88  C   UNL A   1      38.327  33.942  37.606  1.00  0.00     0.001 A 
ATOM     89  C   UNL A   1      37.344  31.796  38.119  1.00  0.00     0.001 A 
ATOM     90  C   UNL A   1      37.527  33.143  38.424  1.00  0.00     0.000 A 
ENDBRANCH  72  85
ENDBRANCH  46  47
ENDBRANCH  39  41
ENDBRANCH  38  39
ENDBRANCH  37  38
ENDBRANCH  36  37
ENDBRANCH  35  36
ENDBRANCH  34  35
ENDBRANCH   1  34
TORSDOF 21
ENDMDL
