MODEL 1
REMARK VINA RESULT:     -10.1      0.000      0.000
REMARK SMILES COc1cc(NS(=O)(=O)c2cc(C)c(C(=O)OCCOCCOC(=O)c3ccc(-c4c5nc(c(-c6ccccc6)c6ccc([nH]6)c(-c6ccccc6)c6nc(c(-c7ccccc7)c7ccc4[nH]7)C=C6)C=C5)cc3)s2)cc(OC)c1
REMARK SMILES IDX 19 1 18 2 17 3 15 4 16 5 14 6 10 7 11 8 74 9 12 10 13 11
REMARK SMILES IDX 7 12 8 13 9 14 6 15 5 17 3 18 4 19 79 20 76 21 75 22 2 23
REMARK SMILES IDX 1 24 77 25 78 26 20 27 21 28 22 29 23 30 24 31 25 32 26 33
REMARK SMILES IDX 27 34 73 35 28 36 72 37 29 38 30 39 31 40 66 41 32 42 71 43
REMARK SMILES IDX 65 44 67 45 33 46 70 47 64 48 63 49 34 51 56 52 41 53 55 54
REMARK SMILES IDX 42 55 45 56 54 57 68 58 43 59 44 60 53 62 69 63 46 64 35 65
REMARK SMILES IDX 36 66 40 67 37 68 39 69 38 70 57 71 58 72 62 73 59 74 61 75
REMARK SMILES IDX 60 76 47 77 48 78 52 79 49 80 51 81 50 82
REMARK H PARENT 6 16 67 50 45 61
REMARK Flexibility Score: inf
ROOT
ATOM      1  C   UNL A   1      37.075  21.647  24.665  1.00  0.00     0.202 C 
ENDROOT
BRANCH   1   2
ATOM      2  C   UNL A   1      35.863  20.741  24.917  1.00  0.00     0.261 C 
BRANCH   2   3
ATOM      3  O   UNL A   1      34.681  21.469  25.296  1.00  0.00    -0.459 OA
BRANCH   3   4
ATOM      4  C   UNL A   1      33.524  21.109  24.662  1.00  0.00     0.348 C 
ATOM      5  O   UNL A   1      33.236  19.952  24.373  1.00  0.00    -0.245 OA
BRANCH   4   6
ATOM      6  C   UNL A   1      32.656  22.265  24.467  1.00  0.00     0.116 A 
ATOM      7  C   UNL A   1      31.102  24.130  25.006  1.00  0.00     0.141 A 
ATOM      8  C   UNL A   1      31.439  24.085  23.669  1.00  0.00     0.038 A 
ATOM      9  S   UNL A   1      31.768  22.809  25.848  1.00  0.00    -0.115 S 
ATOM     10  C   UNL A   1      32.407  23.068  23.358  1.00  0.00    -0.024 A 
ATOM     11  C   UNL A   1      33.005  22.952  21.993  1.00  0.00     0.046 C 
BRANCH   7  12
ATOM     12  S   UNL A   1      30.211  25.355  25.943  1.00  0.00     0.271 S 
ATOM     13  O   UNL A   1      29.369  24.639  26.876  1.00  0.00    -0.200 OA
ATOM     14  O   UNL A   1      29.635  26.235  24.949  1.00  0.00    -0.200 OA
BRANCH  12  15
ATOM     15  N   UNL A   1      31.305  26.275  26.875  1.00  0.00    -0.279 N 
ATOM     16  H   UNL A   1      31.498  26.030  27.808  1.00  0.00     0.180 HD
BRANCH  15  17
ATOM     17  C   UNL A   1      31.940  27.416  26.272  1.00  0.00     0.056 A 
ATOM     18  C   UNL A   1      33.494  28.351  24.662  1.00  0.00     0.124 A 
ATOM     19  C   UNL A   1      32.845  27.256  25.226  1.00  0.00     0.073 A 
ATOM     20  C   UNL A   1      33.278  29.623  25.180  1.00  0.00     0.093 A 
ATOM     21  C   UNL A   1      32.448  29.790  26.289  1.00  0.00     0.124 A 
ATOM     22  C   UNL A   1      31.754  28.690  26.815  1.00  0.00     0.073 A 
BRANCH  18  23
ATOM     23  O   UNL A   1      34.304  28.069  23.595  1.00  0.00    -0.497 OA
ATOM     24  C   UNL A   1      33.659  28.121  22.328  1.00  0.00     0.278 C 
ENDBRANCH  18  23
BRANCH  21  25
ATOM     25  O   UNL A   1      32.245  30.985  26.930  1.00  0.00    -0.497 OA
ATOM     26  C   UNL A   1      33.375  31.514  27.626  1.00  0.00     0.278 C 
ENDBRANCH  21  25
ENDBRANCH  15  17
ENDBRANCH  12  15
ENDBRANCH   7  12
ENDBRANCH   4   6
ENDBRANCH   3   4
ENDBRANCH   2   3
ENDBRANCH   1   2
BRANCH   1  27
ATOM     27  O   UNL A   1      38.221  21.422  25.483  1.00  0.00    -0.374 OA
BRANCH  27  28
ATOM     28  C   UNL A   1      38.835  20.137  25.423  1.00  0.00     0.202 C 
BRANCH  28  29
ATOM     29  C   UNL A   1      40.089  19.949  26.282  1.00  0.00     0.261 C 
BRANCH  29  30
ATOM     30  O   UNL A   1      41.080  19.128  25.634  1.00  0.00    -0.460 OA
BRANCH  30  31
ATOM     31  C   UNL A   1      42.354  19.570  25.766  1.00  0.00     0.338 C 
ATOM     32  O   UNL A   1      43.381  18.976  25.484  1.00  0.00    -0.246 OA
BRANCH  31  33
ATOM     33  C   UNL A   1      42.371  20.951  26.273  1.00  0.00     0.060 A 
ATOM     34  C   UNL A   1      42.631  21.990  25.373  1.00  0.00     0.016 A 
ATOM     35  C   UNL A   1      42.300  21.203  27.645  1.00  0.00     0.016 A 
ATOM     36  C   UNL A   1      42.856  23.282  25.851  1.00  0.00     0.010 A 
ATOM     37  C   UNL A   1      42.525  22.498  28.121  1.00  0.00     0.010 A 
ATOM     38  C   UNL A   1      42.834  23.539  27.231  1.00  0.00    -0.014 A 
BRANCH  38  39
ATOM     39  C   UNL A   1      43.204  24.879  27.751  1.00  0.00     0.031 A 
ATOM     40  C   UNL A   1      42.135  25.895  28.048  1.00  0.00     0.074 A 
ATOM     41  C   UNL A   1      44.497  25.191  27.954  1.00  0.00     0.049 A 
ATOM     42  N   UNL A   1      42.259  27.122  28.489  1.00  0.00    -0.248 NA
ATOM     43  C   UNL A   1      40.744  25.476  27.816  1.00  0.00     0.031 C 
ATOM     44  C   UNL A   1      45.628  24.294  27.722  1.00  0.00     0.029 A 
ATOM     45  N   UNL A   1      45.073  26.354  28.398  1.00  0.00    -0.354 N 
ATOM     46  C   UNL A   1      40.966  27.623  28.584  1.00  0.00     0.074 A 
ATOM     47  C   UNL A   1      40.075  26.578  28.125  1.00  0.00     0.031 C 
ATOM     48  C   UNL A   1      46.766  24.941  28.026  1.00  0.00     0.029 A 
ATOM     49  C   UNL A   1      46.445  26.304  28.444  1.00  0.00     0.049 A 
ATOM     50  H   UNL A   1      44.553  27.149  28.658  1.00  0.00     0.167 HD
ATOM     51  C   UNL A   1      40.556  28.839  29.021  1.00  0.00     0.031 A 
ATOM     52  C   UNL A   1      47.343  27.252  28.771  1.00  0.00     0.031 A 
ATOM     53  C   UNL A   1      41.439  29.886  29.466  1.00  0.00     0.049 A 
ATOM     54  C   UNL A   1      46.865  28.615  29.192  1.00  0.00     0.074 A 
ATOM     55  C   UNL A   1      41.112  31.140  29.952  1.00  0.00     0.029 A 
ATOM     56  N   UNL A   1      42.823  29.805  29.468  1.00  0.00    -0.354 N 
ATOM     57  N   UNL A   1      45.639  29.059  29.318  1.00  0.00    -0.248 NA
ATOM     58  C   UNL A   1      47.901  29.605  29.524  1.00  0.00     0.031 C 
ATOM     59  C   UNL A   1      42.300  31.838  30.199  1.00  0.00     0.029 A 
ATOM     60  C   UNL A   1      43.364  30.997  29.921  1.00  0.00     0.049 A 
ATOM     61  H   UNL A   1      43.342  29.017  29.190  1.00  0.00     0.167 HD
ATOM     62  C   UNL A   1      45.754  30.367  29.771  1.00  0.00     0.074 A 
ATOM     63  C   UNL A   1      47.170  30.641  29.909  1.00  0.00     0.031 C 
ATOM     64  C   UNL A   1      44.774  31.260  30.052  1.00  0.00     0.031 A 
BRANCH  51  65
ATOM     65  C   UNL A   1      39.078  29.116  29.015  1.00  0.00    -0.014 A 
ATOM     66  C   UNL A   1      38.310  28.991  30.183  1.00  0.00     0.009 A 
ATOM     67  C   UNL A   1      38.455  29.555  27.837  1.00  0.00     0.009 A 
ATOM     68  C   UNL A   1      36.941  29.269  30.163  1.00  0.00     0.001 A 
ATOM     69  C   UNL A   1      37.093  29.857  27.824  1.00  0.00     0.001 A 
ATOM     70  C   UNL A   1      36.335  29.705  28.985  1.00  0.00     0.000 A 
ENDBRANCH  51  65
BRANCH  52  71
ATOM     71  C   UNL A   1      48.796  26.948  28.708  1.00  0.00    -0.014 A 
ATOM     72  C   UNL A   1      49.540  27.256  27.559  1.00  0.00     0.009 A 
ATOM     73  C   UNL A   1      49.442  26.341  29.796  1.00  0.00     0.009 A 
ATOM     74  C   UNL A   1      50.899  26.938  27.492  1.00  0.00     0.001 A 
ATOM     75  C   UNL A   1      50.806  26.051  29.736  1.00  0.00     0.001 A 
ATOM     76  C   UNL A   1      51.531  26.341  28.582  1.00  0.00     0.000 A 
ENDBRANCH  52  71
BRANCH  64  77
ATOM     77  C   UNL A   1      45.195  32.607  30.570  1.00  0.00    -0.014 A 
ATOM     78  C   UNL A   1      45.383  32.836  31.942  1.00  0.00     0.009 A 
ATOM     79  C   UNL A   1      45.442  33.652  29.666  1.00  0.00     0.009 A 
ATOM     80  C   UNL A   1      45.780  34.095  32.400  1.00  0.00     0.001 A 
ATOM     81  C   UNL A   1      45.865  34.901  30.124  1.00  0.00     0.001 A 
ATOM     82  C   UNL A   1      46.025  35.124  31.491  1.00  0.00     0.000 A 
ENDBRANCH  64  77
ENDBRANCH  38  39
ENDBRANCH  31  33
ENDBRANCH  30  31
ENDBRANCH  29  30
ENDBRANCH  28  29
ENDBRANCH  27  28
ENDBRANCH   1  27
TORSDOF 19
ENDMDL
MODEL 2
REMARK VINA RESULT:     -10.0      3.910      7.336
REMARK SMILES COc1cc(NS(=O)(=O)c2cc(C)c(C(=O)OCCOCCOC(=O)c3ccc(-c4c5nc(c(-c6ccccc6)c6ccc([nH]6)c(-c6ccccc6)c6nc(c(-c7ccccc7)c7ccc4[nH]7)C=C6)C=C5)cc3)s2)cc(OC)c1
REMARK SMILES IDX 19 1 18 2 17 3 15 4 16 5 14 6 10 7 11 8 74 9 12 10 13 11
REMARK SMILES IDX 7 12 8 13 9 14 6 15 5 17 3 18 4 19 79 20 76 21 75 22 2 23
REMARK SMILES IDX 1 24 77 25 78 26 20 27 21 28 22 29 23 30 24 31 25 32 26 33
REMARK SMILES IDX 27 34 73 35 28 36 72 37 29 38 30 39 31 40 66 41 32 42 71 43
REMARK SMILES IDX 65 44 67 45 33 46 70 47 64 48 63 49 34 51 56 52 41 53 55 54
REMARK SMILES IDX 42 55 45 56 54 57 68 58 43 59 44 60 53 62 69 63 46 64 35 65
REMARK SMILES IDX 36 66 40 67 37 68 39 69 38 70 57 71 58 72 62 73 59 74 61 75
REMARK SMILES IDX 60 76 47 77 48 78 52 79 49 80 51 81 50 82
REMARK H PARENT 6 16 67 50 45 61
REMARK Flexibility Score: inf
ROOT
ATOM      1  C   UNL A   1      39.638  21.661  26.546  1.00  0.00     0.202 C 
ENDROOT
BRANCH   1   2
ATOM      2  C   UNL A   1      38.567  22.566  25.926  1.00  0.00     0.261 C 
BRANCH   2   3
ATOM      3  O   UNL A   1      37.309  21.896  25.720  1.00  0.00    -0.459 OA
BRANCH   3   4
ATOM      4  C   UNL A   1      36.483  22.445  24.777  1.00  0.00     0.348 C 
ATOM      5  O   UNL A   1      36.872  22.880  23.699  1.00  0.00    -0.245 OA
BRANCH   4   6
ATOM      6  C   UNL A   1      35.089  22.356  25.194  1.00  0.00     0.116 A 
ATOM      7  C   UNL A   1      32.834  23.074  25.960  1.00  0.00     0.141 A 
ATOM      8  C   UNL A   1      32.916  21.715  25.740  1.00  0.00     0.038 A 
ATOM      9  S   UNL A   1      34.351  23.818  25.750  1.00  0.00    -0.115 S 
ATOM     10  C   UNL A   1      34.185  21.297  25.211  1.00  0.00    -0.024 A 
ATOM     11  C   UNL A   1      34.423  19.887  24.775  1.00  0.00     0.046 C 
BRANCH   7  12
ATOM     12  S   UNL A   1      31.433  24.117  26.306  1.00  0.00     0.271 S 
ATOM     13  O   UNL A   1      31.942  25.459  26.488  1.00  0.00    -0.200 OA
ATOM     14  O   UNL A   1      30.724  23.443  27.373  1.00  0.00    -0.200 OA
BRANCH  12  15
ATOM     15  N   UNL A   1      30.400  24.164  24.949  1.00  0.00    -0.279 N 
ATOM     16  H   UNL A   1      29.721  23.466  24.812  1.00  0.00     0.180 HD
BRANCH  15  17
ATOM     17  C   UNL A   1      30.538  25.244  24.009  1.00  0.00     0.056 A 
ATOM     18  C   UNL A   1      31.777  26.344  22.238  1.00  0.00     0.124 A 
ATOM     19  C   UNL A   1      31.613  25.284  23.125  1.00  0.00     0.073 A 
ATOM     20  C   UNL A   1      30.883  27.409  22.263  1.00  0.00     0.093 A 
ATOM     21  C   UNL A   1      29.854  27.431  23.206  1.00  0.00     0.124 A 
ATOM     22  C   UNL A   1      29.664  26.333  24.058  1.00  0.00     0.073 A 
BRANCH  18  23
ATOM     23  O   UNL A   1      32.832  26.231  21.374  1.00  0.00    -0.497 OA
ATOM     24  C   UNL A   1      32.628  25.319  20.301  1.00  0.00     0.278 C 
ENDBRANCH  18  23
BRANCH  21  25
ATOM     25  O   UNL A   1      28.982  28.474  23.374  1.00  0.00    -0.497 OA
ATOM     26  C   UNL A   1      29.109  29.546  22.439  1.00  0.00     0.278 C 
ENDBRANCH  21  25
ENDBRANCH  15  17
ENDBRANCH  12  15
ENDBRANCH   7  12
ENDBRANCH   4   6
ENDBRANCH   3   4
ENDBRANCH   2   3
ENDBRANCH   1   2
BRANCH   1  27
ATOM     27  O   UNL A   1      40.630  21.146  25.661  1.00  0.00    -0.374 OA
BRANCH  27  28
ATOM     28  C   UNL A   1      41.921  20.874  26.200  1.00  0.00     0.202 C 
BRANCH  28  29
ATOM     29  C   UNL A   1      42.431  21.858  27.257  1.00  0.00     0.261 C 
BRANCH  29  30
ATOM     30  O   UNL A   1      43.530  22.658  26.777  1.00  0.00    -0.460 OA
BRANCH  30  31
ATOM     31  C   UNL A   1      43.170  23.688  25.974  1.00  0.00     0.338 C 
ATOM     32  O   UNL A   1      43.212  23.732  24.757  1.00  0.00    -0.246 OA
BRANCH  31  33
ATOM     33  C   UNL A   1      42.640  24.804  26.773  1.00  0.00     0.060 A 
ATOM     34  C   UNL A   1      43.417  25.958  26.907  1.00  0.00     0.016 A 
ATOM     35  C   UNL A   1      41.469  24.647  27.518  1.00  0.00     0.016 A 
ATOM     36  C   UNL A   1      43.041  26.947  27.818  1.00  0.00     0.010 A 
ATOM     37  C   UNL A   1      41.093  25.640  28.428  1.00  0.00     0.010 A 
ATOM     38  C   UNL A   1      41.892  26.781  28.607  1.00  0.00    -0.014 A 
BRANCH  38  39
ATOM     39  C   UNL A   1      41.561  27.763  29.669  1.00  0.00     0.031 A 
ATOM     40  C   UNL A   1      42.340  27.774  30.956  1.00  0.00     0.074 A 
ATOM     41  C   UNL A   1      40.561  28.645  29.485  1.00  0.00     0.049 A 
ATOM     42  N   UNL A   1      42.191  28.541  32.007  1.00  0.00    -0.248 NA
ATOM     43  C   UNL A   1      43.429  26.792  31.077  1.00  0.00     0.031 C 
ATOM     44  C   UNL A   1      39.740  28.750  28.280  1.00  0.00     0.029 A 
ATOM     45  N   UNL A   1      40.066  29.615  30.319  1.00  0.00    -0.354 N 
ATOM     46  C   UNL A   1      43.161  28.134  32.915  1.00  0.00     0.074 A 
ATOM     47  C   UNL A   1      43.873  27.032  32.303  1.00  0.00     0.031 C 
ATOM     48  C   UNL A   1      38.840  29.733  28.452  1.00  0.00     0.029 A 
ATOM     49  C   UNL A   1      39.003  30.303  29.788  1.00  0.00     0.049 A 
ATOM     50  H   UNL A   1      40.436  29.800  31.212  1.00  0.00     0.167 HD
ATOM     51  C   UNL A   1      43.439  28.636  34.143  1.00  0.00     0.031 A 
ATOM     52  C   UNL A   1      38.235  31.273  30.321  1.00  0.00     0.031 A 
ATOM     53  C   UNL A   1      42.726  29.723  34.761  1.00  0.00     0.049 A 
ATOM     54  C   UNL A   1      38.525  31.769  31.711  1.00  0.00     0.074 A 
ATOM     55  C   UNL A   1      42.956  30.317  35.990  1.00  0.00     0.029 A 
ATOM     56  N   UNL A   1      41.636  30.373  34.201  1.00  0.00    -0.354 N 
ATOM     57  N   UNL A   1      39.472  31.404  32.540  1.00  0.00    -0.248 NA
ATOM     58  C   UNL A   1      37.640  32.821  32.235  1.00  0.00     0.031 C 
ATOM     59  C   UNL A   1      41.972  31.291  36.198  1.00  0.00     0.029 A 
ATOM     60  C   UNL A   1      41.166  31.342  35.073  1.00  0.00     0.049 A 
ATOM     61  H   UNL A   1      41.255  30.174  33.316  1.00  0.00     0.167 HD
ATOM     62  C   UNL A   1      39.316  32.199  33.668  1.00  0.00     0.074 A 
ATOM     63  C   UNL A   1      38.191  33.074  33.413  1.00  0.00     0.031 C 
ATOM     64  C   UNL A   1      40.045  32.205  34.811  1.00  0.00     0.031 A 
BRANCH  51  65
ATOM     65  C   UNL A   1      44.556  27.993  34.918  1.00  0.00    -0.014 A 
ATOM     66  C   UNL A   1      44.319  26.897  35.762  1.00  0.00     0.009 A 
ATOM     67  C   UNL A   1      45.870  28.460  34.765  1.00  0.00     0.009 A 
ATOM     68  C   UNL A   1      45.373  26.302  36.461  1.00  0.00     0.001 A 
ATOM     69  C   UNL A   1      46.925  27.849  35.444  1.00  0.00     0.001 A 
ATOM     70  C   UNL A   1      46.674  26.776  36.299  1.00  0.00     0.000 A 
ENDBRANCH  51  65
BRANCH  52  71
ATOM     71  C   UNL A   1      37.107  31.839  29.537  1.00  0.00    -0.014 A 
ATOM     72  C   UNL A   1      37.272  33.021  28.802  1.00  0.00     0.009 A 
ATOM     73  C   UNL A   1      35.858  31.200  29.530  1.00  0.00     0.009 A 
ATOM     74  C   UNL A   1      36.198  33.567  28.093  1.00  0.00     0.001 A 
ATOM     75  C   UNL A   1      34.795  31.732  28.797  1.00  0.00     0.001 A 
ATOM     76  C   UNL A   1      34.963  32.919  28.087  1.00  0.00     0.000 A 
ENDBRANCH  52  71
BRANCH  64  77
ATOM     77  C   UNL A   1      39.670  33.214  35.862  1.00  0.00    -0.014 A 
ATOM     78  C   UNL A   1      38.692  32.933  36.828  1.00  0.00     0.009 A 
ATOM     79  C   UNL A   1      40.334  34.449  35.904  1.00  0.00     0.009 A 
ATOM     80  C   UNL A   1      38.365  33.884  37.798  1.00  0.00     0.001 A 
ATOM     81  C   UNL A   1      40.024  35.387  36.891  1.00  0.00     0.001 A 
ATOM     82  C   UNL A   1      39.034  35.107  37.831  1.00  0.00     0.000 A 
ENDBRANCH  64  77
ENDBRANCH  38  39
ENDBRANCH  31  33
ENDBRANCH  30  31
ENDBRANCH  29  30
ENDBRANCH  28  29
ENDBRANCH  27  28
ENDBRANCH   1  27
TORSDOF 19
ENDMDL
MODEL 3
REMARK VINA RESULT:      -9.9      3.995      5.764
REMARK SMILES COc1cc(NS(=O)(=O)c2cc(C)c(C(=O)OCCOCCOC(=O)c3ccc(-c4c5nc(c(-c6ccccc6)c6ccc([nH]6)c(-c6ccccc6)c6nc(c(-c7ccccc7)c7ccc4[nH]7)C=C6)C=C5)cc3)s2)cc(OC)c1
REMARK SMILES IDX 19 1 18 2 17 3 15 4 16 5 14 6 10 7 11 8 74 9 12 10 13 11
REMARK SMILES IDX 7 12 8 13 9 14 6 15 5 17 3 18 4 19 79 20 76 21 75 22 2 23
REMARK SMILES IDX 1 24 77 25 78 26 20 27 21 28 22 29 23 30 24 31 25 32 26 33
REMARK SMILES IDX 27 34 73 35 28 36 72 37 29 38 30 39 31 40 66 41 32 42 71 43
REMARK SMILES IDX 65 44 67 45 33 46 70 47 64 48 63 49 34 51 56 52 41 53 55 54
REMARK SMILES IDX 42 55 45 56 54 57 68 58 43 59 44 60 53 62 69 63 46 64 35 65
REMARK SMILES IDX 36 66 40 67 37 68 39 69 38 70 57 71 58 72 62 73 59 74 61 75
REMARK SMILES IDX 60 76 47 77 48 78 52 79 49 80 51 81 50 82
REMARK H PARENT 6 16 67 50 45 61
REMARK Flexibility Score: inf
ROOT
ATOM      1  C   UNL A   1      37.976  23.308  25.952  1.00  0.00     0.202 C 
ENDROOT
BRANCH   1   2
ATOM      2  C   UNL A   1      36.690  23.431  25.126  1.00  0.00     0.261 C 
BRANCH   2   3
ATOM      3  O   UNL A   1      35.657  24.178  25.794  1.00  0.00    -0.459 OA
BRANCH   3   4
ATOM      4  C   UNL A   1      34.370  23.869  25.447  1.00  0.00     0.348 C 
ATOM      5  O   UNL A   1      33.731  22.949  25.945  1.00  0.00    -0.245 OA
BRANCH   4   6
ATOM      6  C   UNL A   1      33.847  24.831  24.484  1.00  0.00     0.116 A 
ATOM      7  C   UNL A   1      33.174  27.014  23.500  1.00  0.00     0.141 A 
ATOM      8  C   UNL A   1      32.977  25.956  22.637  1.00  0.00     0.038 A 
ATOM      9  S   UNL A   1      33.707  26.469  25.022  1.00  0.00    -0.115 S 
ATOM     10  C   UNL A   1      33.446  24.700  23.157  1.00  0.00    -0.024 A 
ATOM     11  C   UNL A   1      33.451  23.462  22.319  1.00  0.00     0.046 C 
BRANCH   7  12
ATOM     12  S   UNL A   1      33.059  28.771  23.235  1.00  0.00     0.271 S 
ATOM     13  O   UNL A   1      34.342  29.204  22.726  1.00  0.00    -0.200 OA
ATOM     14  O   UNL A   1      32.539  29.300  24.478  1.00  0.00    -0.200 OA
BRANCH  12  15
ATOM     15  N   UNL A   1      31.911  29.097  22.016  1.00  0.00    -0.279 N 
ATOM     16  H   UNL A   1      32.198  29.268  21.091  1.00  0.00     0.180 HD
BRANCH  15  17
ATOM     17  C   UNL A   1      30.516  29.117  22.364  1.00  0.00     0.056 A 
ATOM     18  C   UNL A   1      28.531  27.974  23.161  1.00  0.00     0.124 A 
ATOM     19  C   UNL A   1      29.889  27.975  22.857  1.00  0.00     0.073 A 
ATOM     20  C   UNL A   1      27.769  29.113  22.923  1.00  0.00     0.093 A 
ATOM     21  C   UNL A   1      28.361  30.235  22.342  1.00  0.00     0.124 A 
ATOM     22  C   UNL A   1      29.741  30.247  22.091  1.00  0.00     0.073 A 
BRANCH  18  23
ATOM     23  O   UNL A   1      28.051  26.813  23.705  1.00  0.00    -0.497 OA
ATOM     24  C   UNL A   1      28.978  26.113  24.526  1.00  0.00     0.278 C 
ENDBRANCH  18  23
BRANCH  21  25
ATOM     25  O   UNL A   1      27.679  31.368  21.982  1.00  0.00    -0.497 OA
ATOM     26  C   UNL A   1      28.039  31.935  20.721  1.00  0.00     0.278 C 
ENDBRANCH  21  25
ENDBRANCH  15  17
ENDBRANCH  12  15
ENDBRANCH   7  12
ENDBRANCH   4   6
ENDBRANCH   3   4
ENDBRANCH   2   3
ENDBRANCH   1   2
BRANCH   1  27
ATOM     27  O   UNL A   1      38.567  22.013  26.024  1.00  0.00    -0.374 OA
BRANCH  27  28
ATOM     28  C   UNL A   1      39.978  21.939  26.218  1.00  0.00     0.202 C 
BRANCH  28  29
ATOM     29  C   UNL A   1      40.472  22.145  27.653  1.00  0.00     0.261 C 
BRANCH  29  30
ATOM     30  O   UNL A   1      41.663  22.954  27.712  1.00  0.00    -0.460 OA
BRANCH  30  31
ATOM     31  C   UNL A   1      41.436  24.285  27.826  1.00  0.00     0.338 C 
ATOM     32  O   UNL A   1      40.387  24.840  28.101  1.00  0.00    -0.246 OA
BRANCH  31  33
ATOM     33  C   UNL A   1      42.682  25.040  27.620  1.00  0.00     0.060 A 
ATOM     34  C   UNL A   1      43.340  25.564  28.738  1.00  0.00     0.016 A 
ATOM     35  C   UNL A   1      43.103  25.372  26.330  1.00  0.00     0.016 A 
ATOM     36  C   UNL A   1      44.403  26.453  28.565  1.00  0.00     0.010 A 
ATOM     37  C   UNL A   1      44.169  26.261  26.160  1.00  0.00     0.010 A 
ATOM     38  C   UNL A   1      44.805  26.831  27.275  1.00  0.00    -0.014 A 
BRANCH  38  39
ATOM     39  C   UNL A   1      45.844  27.874  27.088  1.00  0.00     0.031 A 
ATOM     40  C   UNL A   1      45.453  29.326  27.033  1.00  0.00     0.074 A 
ATOM     41  C   UNL A   1      47.137  27.525  26.963  1.00  0.00     0.049 A 
ATOM     42  N   UNL A   1      46.210  30.381  26.858  1.00  0.00    -0.248 NA
ATOM     43  C   UNL A   1      44.023  29.631  27.193  1.00  0.00     0.031 C 
ATOM     44  C   UNL A   1      47.650  26.157  27.014  1.00  0.00     0.029 A 
ATOM     45  N   UNL A   1      48.252  28.298  26.762  1.00  0.00    -0.354 N 
ATOM     46  C   UNL A   1      45.351  31.473  26.884  1.00  0.00     0.074 A 
ATOM     47  C   UNL A   1      44.012  30.951  27.059  1.00  0.00     0.031 C 
ATOM     48  C   UNL A   1      48.983  26.186  26.849  1.00  0.00     0.029 A 
ATOM     49  C   UNL A   1      49.411  27.570  26.650  1.00  0.00     0.049 A 
ATOM     50  H   UNL A   1      48.225  29.281  26.703  1.00  0.00     0.167 HD
ATOM     51  C   UNL A   1      45.649  32.791  26.778  1.00  0.00     0.031 A 
ATOM     52  C   UNL A   1      50.673  27.968  26.400  1.00  0.00     0.031 A 
ATOM     53  C   UNL A   1      46.977  33.314  26.590  1.00  0.00     0.049 A 
ATOM     54  C   UNL A   1      50.968  29.433  26.223  1.00  0.00     0.074 A 
ATOM     55  C   UNL A   1      47.378  34.637  26.502  1.00  0.00     0.029 A 
ATOM     56  N   UNL A   1      48.119  32.541  26.452  1.00  0.00    -0.354 N 
ATOM     57  N   UNL A   1      50.152  30.455  26.293  1.00  0.00    -0.248 NA
ATOM     58  C   UNL A   1      52.365  29.795  25.941  1.00  0.00     0.031 C 
ATOM     59  C   UNL A   1      48.755  34.662  26.256  1.00  0.00     0.029 A 
ATOM     60  C   UNL A   1      49.220  33.357  26.250  1.00  0.00     0.049 A 
ATOM     61  H   UNL A   1      48.143  31.558  26.492  1.00  0.00     0.167 HD
ATOM     62  C   UNL A   1      50.939  31.582  26.093  1.00  0.00     0.074 A 
ATOM     63  C   UNL A   1      52.299  31.118  25.912  1.00  0.00     0.031 C 
ATOM     64  C   UNL A   1      50.568  32.886  26.068  1.00  0.00     0.031 A 
BRANCH  51  65
ATOM     65  C   UNL A   1      44.507  33.767  26.838  1.00  0.00    -0.014 A 
ATOM     66  C   UNL A   1      43.870  34.215  25.671  1.00  0.00     0.009 A 
ATOM     67  C   UNL A   1      44.031  34.208  28.083  1.00  0.00     0.009 A 
ATOM     68  C   UNL A   1      42.799  35.110  25.747  1.00  0.00     0.001 A 
ATOM     69  C   UNL A   1      42.945  35.081  28.159  1.00  0.00     0.001 A 
ATOM     70  C   UNL A   1      42.336  35.539  26.991  1.00  0.00     0.000 A 
ENDBRANCH  51  65
BRANCH  52  71
ATOM     71  C   UNL A   1      51.759  26.961  26.293  1.00  0.00    -0.014 A 
ATOM     72  C   UNL A   1      52.586  26.684  27.392  1.00  0.00     0.009 A 
ATOM     73  C   UNL A   1      51.979  26.278  25.087  1.00  0.00     0.009 A 
ATOM     74  C   UNL A   1      53.627  25.759  27.277  1.00  0.00     0.001 A 
ATOM     75  C   UNL A   1      53.002  25.334  24.984  1.00  0.00     0.001 A 
ATOM     76  C   UNL A   1      53.831  25.082  26.076  1.00  0.00     0.000 A 
ENDBRANCH  52  71
BRANCH  64  77
ATOM     77  C   UNL A   1      51.653  33.908  25.870  1.00  0.00    -0.014 A 
ATOM     78  C   UNL A   1      51.874  34.506  24.619  1.00  0.00     0.009 A 
ATOM     79  C   UNL A   1      52.440  34.304  26.962  1.00  0.00     0.009 A 
ATOM     80  C   UNL A   1      52.884  35.458  24.461  1.00  0.00     0.001 A 
ATOM     81  C   UNL A   1      53.431  35.275  26.807  1.00  0.00     0.001 A 
ATOM     82  C   UNL A   1      53.658  35.845  25.555  1.00  0.00     0.000 A 
ENDBRANCH  64  77
ENDBRANCH  38  39
ENDBRANCH  31  33
ENDBRANCH  30  31
ENDBRANCH  29  30
ENDBRANCH  28  29
ENDBRANCH  27  28
ENDBRANCH   1  27
TORSDOF 19
ENDMDL
