MODEL 1
REMARK VINA RESULT:     -10.0      0.000      0.000
REMARK SMILES C[C@@H](C(=O)OCCOCCOC(=O)c1ccc(-c2c3nc(c(-c4ccccc4)c4ccc([nH]4)c(-c4ccccc4)c4nc(c(-c5ccccc5)c5ccc2[nH]5)C=C4)C=C3)cc1)N(C)c1ccc(C(N)=O)nn1
REMARK SMILES IDX 7 1 6 2 5 3 3 4 4 5 2 6 1 7 62 8 63 9 64 10 65 11 72 12
REMARK SMILES IDX 66 13 71 14 67 15 68 16 69 17 70 18 8 21 9 22 10 23 11 24
REMARK SMILES IDX 12 25 13 26 14 27 15 28 61 29 16 30 60 31 17 32 18 33 19 34
REMARK SMILES IDX 54 35 20 36 59 37 53 38 55 39 21 40 58 41 52 42 51 43 22 45
REMARK SMILES IDX 44 46 29 47 43 48 30 49 33 50 42 51 56 52 31 53 32 54 41 56
REMARK SMILES IDX 57 57 34 58 23 59 24 60 28 61 25 62 27 63 26 64 45 65 46 66
REMARK SMILES IDX 50 67 47 68 49 69 48 70 35 71 36 72 40 73 37 74 39 75 38 76
REMARK H PARENT 69 19 69 20 55 44 33 55
REMARK Flexibility Score: inf
ROOT
ATOM      1  C   UNL A   1      37.041  22.461  25.237  1.00  0.00     0.202 C 
ENDROOT
BRANCH   1   2
ATOM      2  C   UNL A   1      35.846  23.177  25.873  1.00  0.00     0.261 C 
BRANCH   2   3
ATOM      3  O   UNL A   1      34.780  22.237  26.105  1.00  0.00    -0.462 OA
BRANCH   3   4
ATOM      4  C   UNL A   1      33.630  22.444  25.403  1.00  0.00     0.328 C 
ATOM      5  O   UNL A   1      32.645  23.016  25.857  1.00  0.00    -0.250 OA
BRANCH   4   6
ATOM      6  C   UNL A   1      33.692  21.825  23.987  1.00  0.00     0.190 C 
ATOM      7  C   UNL A   1      33.963  22.821  22.858  1.00  0.00     0.044 C 
BRANCH   6   8
ATOM      8  N   UNL A   1      32.536  20.923  23.697  1.00  0.00    -0.345 N 
ATOM      9  C   UNL A   1      31.893  21.139  22.396  1.00  0.00     0.146 C 
BRANCH   8  10
ATOM     10  C   UNL A   1      32.589  19.571  24.049  1.00  0.00     0.151 A 
ATOM     11  C   UNL A   1      32.958  18.605  23.116  1.00  0.00     0.051 A 
ATOM     12  N   UNL A   1      32.372  19.180  25.327  1.00  0.00    -0.132 NA
ATOM     13  C   UNL A   1      33.079  17.264  23.491  1.00  0.00     0.040 A 
ATOM     14  N   UNL A   1      32.489  17.858  25.720  1.00  0.00    -0.143 NA
ATOM     15  C   UNL A   1      32.839  16.928  24.809  1.00  0.00     0.150 A 
BRANCH  15  16
ATOM     16  C   UNL A   1      32.952  15.519  25.278  1.00  0.00     0.269 C 
ATOM     17  N   UNL A   1      31.776  14.864  25.534  1.00  0.00    -0.364 N 
ATOM     18  O   UNL A   1      34.037  14.973  25.429  1.00  0.00    -0.268 OA
ATOM     19  H   UNL A   1      30.916  15.326  25.405  1.00  0.00     0.160 HD
ATOM     20  H   UNL A   1      31.792  13.931  25.847  1.00  0.00     0.160 HD
ENDBRANCH  15  16
ENDBRANCH   8  10
ENDBRANCH   6   8
ENDBRANCH   4   6
ENDBRANCH   3   4
ENDBRANCH   2   3
ENDBRANCH   1   2
BRANCH   1  21
ATOM     21  O   UNL A   1      37.173  21.076  25.561  1.00  0.00    -0.374 OA
BRANCH  21  22
ATOM     22  C   UNL A   1      37.983  20.281  24.697  1.00  0.00     0.202 C 
BRANCH  22  23
ATOM     23  C   UNL A   1      39.018  19.384  25.386  1.00  0.00     0.261 C 
BRANCH  23  24
ATOM     24  O   UNL A   1      39.506  19.959  26.609  1.00  0.00    -0.460 OA
BRANCH  24  25
ATOM     25  C   UNL A   1      40.803  20.337  26.562  1.00  0.00     0.338 C 
ATOM     26  O   UNL A   1      41.739  19.730  26.056  1.00  0.00    -0.246 OA
BRANCH  25  27
ATOM     27  C   UNL A   1      40.956  21.707  27.079  1.00  0.00     0.060 A 
ATOM     28  C   UNL A   1      40.357  22.738  26.342  1.00  0.00     0.016 A 
ATOM     29  C   UNL A   1      41.729  21.995  28.206  1.00  0.00     0.016 A 
ATOM     30  C   UNL A   1      40.580  24.065  26.693  1.00  0.00     0.010 A 
ATOM     31  C   UNL A   1      41.957  23.331  28.554  1.00  0.00     0.010 A 
ATOM     32  C   UNL A   1      41.416  24.370  27.775  1.00  0.00    -0.014 A 
BRANCH  32  33
ATOM     33  C   UNL A   1      41.843  25.774  27.982  1.00  0.00     0.031 A 
ATOM     34  C   UNL A   1      43.134  26.240  27.366  1.00  0.00     0.074 A 
ATOM     35  C   UNL A   1      41.067  26.635  28.661  1.00  0.00     0.049 A 
ATOM     36  N   UNL A   1      43.688  27.425  27.402  1.00  0.00    -0.248 NA
ATOM     37  C   UNL A   1      43.901  25.238  26.607  1.00  0.00     0.031 C 
ATOM     38  C   UNL A   1      39.773  26.316  29.262  1.00  0.00     0.029 A 
ATOM     39  N   UNL A   1      41.257  27.962  28.951  1.00  0.00    -0.354 N 
ATOM     40  C   UNL A   1      44.868  27.310  26.676  1.00  0.00     0.074 A 
ATOM     41  C   UNL A   1      44.965  25.935  26.237  1.00  0.00     0.031 C 
ATOM     42  C   UNL A   1      39.283  27.421  29.850  1.00  0.00     0.029 A 
ATOM     43  C   UNL A   1      40.241  28.514  29.690  1.00  0.00     0.049 A 
ATOM     44  H   UNL A   1      42.047  28.471  28.656  1.00  0.00     0.167 HD
ATOM     45  C   UNL A   1      45.786  28.265  26.394  1.00  0.00     0.031 A 
ATOM     46  C   UNL A   1      40.105  29.756  30.192  1.00  0.00     0.031 A 
ATOM     47  C   UNL A   1      45.696  29.630  26.837  1.00  0.00     0.049 A 
ATOM     48  C   UNL A   1      41.177  30.779  29.929  1.00  0.00     0.074 A 
ATOM     49  C   UNL A   1      46.567  30.677  26.589  1.00  0.00     0.029 A 
ATOM     50  N   UNL A   1      44.676  30.134  27.628  1.00  0.00    -0.354 N 
ATOM     51  N   UNL A   1      42.274  30.665  29.220  1.00  0.00    -0.248 NA
ATOM     52  C   UNL A   1      40.987  32.106  30.534  1.00  0.00     0.031 C 
ATOM     53  C   UNL A   1      46.100  31.803  27.275  1.00  0.00     0.029 A 
ATOM     54  C   UNL A   1      44.910  31.471  27.903  1.00  0.00     0.049 A 
ATOM     55  H   UNL A   1      43.899  29.621  27.947  1.00  0.00     0.167 HD
ATOM     56  C   UNL A   1      42.889  31.910  29.269  1.00  0.00     0.074 A 
ATOM     57  C   UNL A   1      42.038  32.767  30.068  1.00  0.00     0.031 C 
ATOM     58  C   UNL A   1      44.054  32.309  28.701  1.00  0.00     0.031 A 
BRANCH  45  59
ATOM     59  C   UNL A   1      46.988  27.852  25.594  1.00  0.00    -0.014 A 
ATOM     60  C   UNL A   1      46.972  27.866  24.190  1.00  0.00     0.009 A 
ATOM     61  C   UNL A   1      48.165  27.469  26.256  1.00  0.00     0.009 A 
ATOM     62  C   UNL A   1      48.101  27.475  23.467  1.00  0.00     0.001 A 
ATOM     63  C   UNL A   1      49.300  27.103  25.532  1.00  0.00     0.001 A 
ATOM     64  C   UNL A   1      49.265  27.097  24.138  1.00  0.00     0.000 A 
ENDBRANCH  45  59
BRANCH  46  65
ATOM     65  C   UNL A   1      38.915  30.103  31.011  1.00  0.00    -0.014 A 
ATOM     66  C   UNL A   1      37.725  30.528  30.400  1.00  0.00     0.009 A 
ATOM     67  C   UNL A   1      38.971  30.028  32.411  1.00  0.00     0.009 A 
ATOM     68  C   UNL A   1      36.623  30.894  31.178  1.00  0.00     0.001 A 
ATOM     69  C   UNL A   1      37.859  30.369  33.184  1.00  0.00     0.001 A 
ATOM     70  C   UNL A   1      36.689  30.808  32.567  1.00  0.00     0.000 A 
ENDBRANCH  46  65
BRANCH  58  71
ATOM     71  C   UNL A   1      44.458  33.742  28.895  1.00  0.00    -0.014 A 
ATOM     72  C   UNL A   1      44.073  34.738  27.986  1.00  0.00     0.009 A 
ATOM     73  C   UNL A   1      45.202  34.107  30.029  1.00  0.00     0.009 A 
ATOM     74  C   UNL A   1      44.450  36.067  28.193  1.00  0.00     0.001 A 
ATOM     75  C   UNL A   1      45.555  35.438  30.247  1.00  0.00     0.001 A 
ATOM     76  C   UNL A   1      45.186  36.416  29.325  1.00  0.00     0.000 A 
ENDBRANCH  58  71
ENDBRANCH  32  33
ENDBRANCH  25  27
ENDBRANCH  24  25
ENDBRANCH  23  24
ENDBRANCH  22  23
ENDBRANCH  21  22
ENDBRANCH   1  21
TORSDOF 17
ENDMDL
MODEL 2
REMARK VINA RESULT:      -9.7      5.660      9.506
REMARK SMILES C[C@@H](C(=O)OCCOCCOC(=O)c1ccc(-c2c3nc(c(-c4ccccc4)c4ccc([nH]4)c(-c4ccccc4)c4nc(c(-c5ccccc5)c5ccc2[nH]5)C=C4)C=C3)cc1)N(C)c1ccc(C(N)=O)nn1
REMARK SMILES IDX 7 1 6 2 5 3 3 4 4 5 2 6 1 7 62 8 63 9 64 10 65 11 72 12
REMARK SMILES IDX 66 13 71 14 67 15 68 16 69 17 70 18 8 21 9 22 10 23 11 24
REMARK SMILES IDX 12 25 13 26 14 27 15 28 61 29 16 30 60 31 17 32 18 33 19 34
REMARK SMILES IDX 54 35 20 36 59 37 53 38 55 39 21 40 58 41 52 42 51 43 22 45
REMARK SMILES IDX 44 46 29 47 43 48 30 49 33 50 42 51 56 52 31 53 32 54 41 56
REMARK SMILES IDX 57 57 34 58 23 59 24 60 28 61 25 62 27 63 26 64 45 65 46 66
REMARK SMILES IDX 50 67 47 68 49 69 48 70 35 71 36 72 40 73 37 74 39 75 38 76
REMARK H PARENT 69 19 69 20 55 44 33 55
REMARK Flexibility Score: inf
ROOT
ATOM      1  C   UNL A   1      33.434  30.525  27.201  1.00  0.00     0.202 C 
ENDROOT
BRANCH   1   2
ATOM      2  C   UNL A   1      33.928  29.158  26.719  1.00  0.00     0.261 C 
BRANCH   2   3
ATOM      3  O   UNL A   1      32.897  28.171  26.909  1.00  0.00    -0.462 OA
BRANCH   3   4
ATOM      4  C   UNL A   1      32.942  27.085  26.086  1.00  0.00     0.328 C 
ATOM      5  O   UNL A   1      33.977  26.515  25.760  1.00  0.00    -0.250 OA
BRANCH   4   6
ATOM      6  C   UNL A   1      31.539  26.689  25.567  1.00  0.00     0.190 C 
ATOM      7  C   UNL A   1      31.110  25.258  25.894  1.00  0.00     0.044 C 
BRANCH   6   8
ATOM      8  N   UNL A   1      31.333  27.041  24.129  1.00  0.00    -0.345 N 
ATOM      9  C   UNL A   1      31.160  25.894  23.230  1.00  0.00     0.146 C 
BRANCH   8  10
ATOM     10  C   UNL A   1      30.522  28.124  23.775  1.00  0.00     0.151 A 
ATOM     11  C   UNL A   1      29.403  27.943  22.968  1.00  0.00     0.051 A 
ATOM     12  N   UNL A   1      30.756  29.356  24.284  1.00  0.00    -0.132 NA
ATOM     13  C   UNL A   1      28.555  29.016  22.677  1.00  0.00     0.040 A 
ATOM     14  N   UNL A   1      29.928  30.432  24.010  1.00  0.00    -0.143 NA
ATOM     15  C   UNL A   1      28.850  30.250  23.221  1.00  0.00     0.150 A 
BRANCH  15  16
ATOM     16  C   UNL A   1      27.990  31.436  22.954  1.00  0.00     0.269 C 
ATOM     17  N   UNL A   1      28.321  32.200  21.867  1.00  0.00    -0.364 N 
ATOM     18  O   UNL A   1      27.036  31.716  23.669  1.00  0.00    -0.268 OA
ATOM     19  H   UNL A   1      29.094  31.953  21.308  1.00  0.00     0.160 HD
ATOM     20  H   UNL A   1      27.787  32.996  21.643  1.00  0.00     0.160 HD
ENDBRANCH  15  16
ENDBRANCH   8  10
ENDBRANCH   6   8
ENDBRANCH   4   6
ENDBRANCH   3   4
ENDBRANCH   2   3
ENDBRANCH   1   2
BRANCH   1  21
ATOM     21  O   UNL A   1      32.019  30.718  27.160  1.00  0.00    -0.374 OA
BRANCH  21  22
ATOM     22  C   UNL A   1      31.550  32.036  26.884  1.00  0.00     0.202 C 
BRANCH  22  23
ATOM     23  C   UNL A   1      32.571  33.163  27.075  1.00  0.00     0.261 C 
BRANCH  23  24
ATOM     24  O   UNL A   1      32.229  34.028  28.170  1.00  0.00    -0.460 OA
BRANCH  24  25
ATOM     25  C   UNL A   1      33.246  34.812  28.594  1.00  0.00     0.338 C 
ATOM     26  O   UNL A   1      33.205  36.009  28.855  1.00  0.00    -0.246 OA
BRANCH  25  27
ATOM     27  C   UNL A   1      34.440  33.998  28.872  1.00  0.00     0.060 A 
ATOM     28  C   UNL A   1      34.349  33.067  29.915  1.00  0.00     0.016 A 
ATOM     29  C   UNL A   1      35.644  34.188  28.190  1.00  0.00     0.016 A 
ATOM     30  C   UNL A   1      35.480  32.366  30.323  1.00  0.00     0.010 A 
ATOM     31  C   UNL A   1      36.782  33.486  28.606  1.00  0.00     0.010 A 
ATOM     32  C   UNL A   1      36.711  32.604  29.699  1.00  0.00    -0.014 A 
BRANCH  32  33
ATOM     33  C   UNL A   1      37.943  32.044  30.302  1.00  0.00     0.031 A 
ATOM     34  C   UNL A   1      38.493  30.750  29.767  1.00  0.00     0.074 A 
ATOM     35  C   UNL A   1      38.595  32.706  31.274  1.00  0.00     0.049 A 
ATOM     36  N   UNL A   1      39.564  30.092  30.130  1.00  0.00    -0.248 NA
ATOM     37  C   UNL A   1      37.735  30.115  28.676  1.00  0.00     0.031 C 
ATOM     38  C   UNL A   1      38.190  33.991  31.842  1.00  0.00     0.029 A 
ATOM     39  N   UNL A   1      39.744  32.384  31.950  1.00  0.00    -0.354 N 
ATOM     40  C   UNL A   1      39.607  28.965  29.317  1.00  0.00     0.074 A 
ATOM     41  C   UNL A   1      38.439  29.013  28.463  1.00  0.00     0.031 C 
ATOM     42  C   UNL A   1      39.080  34.350  32.782  1.00  0.00     0.029 A 
ATOM     43  C   UNL A   1      40.099  33.309  32.900  1.00  0.00     0.049 A 
ATOM     44  H   UNL A   1      40.265  31.568  31.770  1.00  0.00     0.167 HD
ATOM     45  C   UNL A   1      40.537  27.982  29.279  1.00  0.00     0.031 A 
ATOM     46  C   UNL A   1      41.123  33.308  33.775  1.00  0.00     0.031 A 
ATOM     47  C   UNL A   1      41.693  27.929  30.133  1.00  0.00     0.049 A 
ATOM     48  C   UNL A   1      42.102  32.164  33.764  1.00  0.00     0.074 A 
ATOM     49  C   UNL A   1      42.702  26.982  30.159  1.00  0.00     0.029 A 
ATOM     50  N   UNL A   1      41.987  28.858  31.117  1.00  0.00    -0.354 N 
ATOM     51  N   UNL A   1      42.145  31.120  32.973  1.00  0.00    -0.248 NA
ATOM     52  C   UNL A   1      43.176  32.205  34.767  1.00  0.00     0.031 C 
ATOM     53  C   UNL A   1      43.580  27.312  31.197  1.00  0.00     0.029 A 
ATOM     54  C   UNL A   1      43.147  28.492  31.778  1.00  0.00     0.049 A 
ATOM     55  H   UNL A   1      41.452  29.660  31.317  1.00  0.00     0.167 HD
ATOM     56  C   UNL A   1      43.265  30.395  33.363  1.00  0.00     0.074 A 
ATOM     57  C   UNL A   1      43.879  31.125  34.452  1.00  0.00     0.031 C 
ATOM     58  C   UNL A   1      43.743  29.230  32.861  1.00  0.00     0.031 A 
BRANCH  45  59
ATOM     59  C   UNL A   1      40.319  26.864  28.300  1.00  0.00    -0.014 A 
ATOM     60  C   UNL A   1      39.572  25.726  28.644  1.00  0.00     0.009 A 
ATOM     61  C   UNL A   1      40.846  26.965  27.003  1.00  0.00     0.009 A 
ATOM     62  C   UNL A   1      39.385  24.697  27.717  1.00  0.00     0.001 A 
ATOM     63  C   UNL A   1      40.636  25.948  26.070  1.00  0.00     0.001 A 
ATOM     64  C   UNL A   1      39.914  24.811  26.431  1.00  0.00     0.000 A 
ENDBRANCH  45  59
BRANCH  46  65
ATOM     65  C   UNL A   1      41.272  34.420  34.749  1.00  0.00    -0.014 A 
ATOM     66  C   UNL A   1      40.656  34.356  36.008  1.00  0.00     0.009 A 
ATOM     67  C   UNL A   1      42.019  35.560  34.415  1.00  0.00     0.009 A 
ATOM     68  C   UNL A   1      40.765  35.424  36.903  1.00  0.00     0.001 A 
ATOM     69  C   UNL A   1      42.148  36.614  35.322  1.00  0.00     0.001 A 
ATOM     70  C   UNL A   1      41.515  36.548  36.562  1.00  0.00     0.000 A 
ENDBRANCH  46  65
BRANCH  58  71
ATOM     71  C   UNL A   1      45.009  28.690  33.463  1.00  0.00    -0.014 A 
ATOM     72  C   UNL A   1      44.979  27.783  34.532  1.00  0.00     0.009 A 
ATOM     73  C   UNL A   1      46.250  29.066  32.924  1.00  0.00     0.009 A 
ATOM     74  C   UNL A   1      46.169  27.285  35.069  1.00  0.00     0.001 A 
ATOM     75  C   UNL A   1      47.435  28.546  33.444  1.00  0.00     0.001 A 
ATOM     76  C   UNL A   1      47.394  27.663  34.522  1.00  0.00     0.000 A 
ENDBRANCH  58  71
ENDBRANCH  32  33
ENDBRANCH  25  27
ENDBRANCH  24  25
ENDBRANCH  23  24
ENDBRANCH  22  23
ENDBRANCH  21  22
ENDBRANCH   1  21
TORSDOF 17
ENDMDL
MODEL 3
REMARK VINA RESULT:      -9.6      3.634      5.852
REMARK SMILES C[C@@H](C(=O)OCCOCCOC(=O)c1ccc(-c2c3nc(c(-c4ccccc4)c4ccc([nH]4)c(-c4ccccc4)c4nc(c(-c5ccccc5)c5ccc2[nH]5)C=C4)C=C3)cc1)N(C)c1ccc(C(N)=O)nn1
REMARK SMILES IDX 7 1 6 2 5 3 3 4 4 5 2 6 1 7 62 8 63 9 64 10 65 11 72 12
REMARK SMILES IDX 66 13 71 14 67 15 68 16 69 17 70 18 8 21 9 22 10 23 11 24
REMARK SMILES IDX 12 25 13 26 14 27 15 28 61 29 16 30 60 31 17 32 18 33 19 34
REMARK SMILES IDX 54 35 20 36 59 37 53 38 55 39 21 40 58 41 52 42 51 43 22 45
REMARK SMILES IDX 44 46 29 47 43 48 30 49 33 50 42 51 56 52 31 53 32 54 41 56
REMARK SMILES IDX 57 57 34 58 23 59 24 60 28 61 25 62 27 63 26 64 45 65 46 66
REMARK SMILES IDX 50 67 47 68 49 69 48 70 35 71 36 72 40 73 37 74 39 75 38 76
REMARK H PARENT 69 19 69 20 55 44 33 55
REMARK Flexibility Score: inf
ROOT
ATOM      1  C   UNL A   1      38.915  21.435  26.175  1.00  0.00     0.202 C 
ENDROOT
BRANCH   1   2
ATOM      2  C   UNL A   1      37.730  21.365  25.209  1.00  0.00     0.261 C 
BRANCH   2   3
ATOM      3  O   UNL A   1      36.730  22.331  25.590  1.00  0.00    -0.462 OA
BRANCH   3   4
ATOM      4  C   UNL A   1      35.469  21.851  25.779  1.00  0.00     0.328 C 
ATOM      5  O   UNL A   1      35.005  21.556  26.875  1.00  0.00    -0.250 OA
BRANCH   4   6
ATOM      6  C   UNL A   1      34.708  21.670  24.444  1.00  0.00     0.190 C 
ATOM      7  C   UNL A   1      34.622  22.925  23.574  1.00  0.00     0.044 C 
BRANCH   6   8
ATOM      8  N   UNL A   1      33.386  20.995  24.618  1.00  0.00    -0.345 N 
ATOM      9  C   UNL A   1      32.293  21.557  23.815  1.00  0.00     0.146 C 
BRANCH   8  10
ATOM     10  C   UNL A   1      33.311  19.602  24.720  1.00  0.00     0.151 A 
ATOM     11  C   UNL A   1      34.411  18.805  24.417  1.00  0.00     0.051 A 
ATOM     12  N   UNL A   1      32.197  19.004  25.203  1.00  0.00    -0.132 NA
ATOM     13  C   UNL A   1      34.353  17.419  24.590  1.00  0.00     0.040 A 
ATOM     14  N   UNL A   1      32.119  17.634  25.384  1.00  0.00    -0.143 NA
ATOM     15  C   UNL A   1      33.186  16.868  25.080  1.00  0.00     0.150 A 
BRANCH  15  16
ATOM     16  C   UNL A   1      33.056  15.399  25.291  1.00  0.00     0.269 C 
ATOM     17  N   UNL A   1      31.782  14.908  25.403  1.00  0.00    -0.364 N 
ATOM     18  O   UNL A   1      34.035  14.667  25.362  1.00  0.00    -0.268 OA
ATOM     19  H   UNL A   1      31.012  15.518  25.344  1.00  0.00     0.160 HD
ATOM     20  H   UNL A   1      31.637  13.945  25.544  1.00  0.00     0.160 HD
ENDBRANCH  15  16
ENDBRANCH   8  10
ENDBRANCH   6   8
ENDBRANCH   4   6
ENDBRANCH   3   4
ENDBRANCH   2   3
ENDBRANCH   1   2
BRANCH   1  21
ATOM     21  O   UNL A   1      40.190  21.660  25.571  1.00  0.00    -0.374 OA
BRANCH  21  22
ATOM     22  C   UNL A   1      41.337  21.200  26.284  1.00  0.00     0.202 C 
BRANCH  22  23
ATOM     23  C   UNL A   1      42.694  21.646  25.727  1.00  0.00     0.261 C 
BRANCH  23  24
ATOM     24  O   UNL A   1      42.630  22.944  25.115  1.00  0.00    -0.460 OA
BRANCH  24  25
ATOM     25  C   UNL A   1      43.735  23.700  25.306  1.00  0.00     0.338 C 
ATOM     26  O   UNL A   1      44.720  23.778  24.580  1.00  0.00    -0.246 OA
BRANCH  25  27
ATOM     27  C   UNL A   1      43.555  24.586  26.468  1.00  0.00     0.060 A 
ATOM     28  C   UNL A   1      42.943  24.036  27.601  1.00  0.00     0.016 A 
ATOM     29  C   UNL A   1      43.899  25.940  26.430  1.00  0.00     0.016 A 
ATOM     30  C   UNL A   1      42.615  24.851  28.680  1.00  0.00     0.010 A 
ATOM     31  C   UNL A   1      43.562  26.759  27.513  1.00  0.00     0.010 A 
ATOM     32  C   UNL A   1      42.883  26.225  28.624  1.00  0.00    -0.014 A 
BRANCH  32  33
ATOM     33  C   UNL A   1      42.308  27.114  29.660  1.00  0.00     0.031 A 
ATOM     34  C   UNL A   1      43.019  27.250  30.978  1.00  0.00     0.074 A 
ATOM     35  C   UNL A   1      41.199  27.832  29.411  1.00  0.00     0.049 A 
ATOM     36  N   UNL A   1      42.706  27.985  32.016  1.00  0.00    -0.248 NA
ATOM     37  C   UNL A   1      44.246  26.456  31.149  1.00  0.00     0.031 C 
ATOM     38  C   UNL A   1      40.449  27.823  28.156  1.00  0.00     0.029 A 
ATOM     39  N   UNL A   1      40.517  28.716  30.207  1.00  0.00    -0.354 N 
ATOM     40  C   UNL A   1      43.694  27.737  32.963  1.00  0.00     0.074 A 
ATOM     41  C   UNL A   1      44.598  26.764  32.389  1.00  0.00     0.031 C 
ATOM     42  C   UNL A   1      39.408  28.666  28.267  1.00  0.00     0.029 A 
ATOM     43  C   UNL A   1      39.404  29.249  29.607  1.00  0.00     0.049 A 
ATOM     44  H   UNL A   1      40.799  28.946  31.122  1.00  0.00     0.167 HD
ATOM     45  C   UNL A   1      43.838  28.276  34.196  1.00  0.00     0.031 A 
ATOM     46  C   UNL A   1      38.480  30.102  30.089  1.00  0.00     0.031 A 
ATOM     47  C   UNL A   1      42.935  29.236  34.771  1.00  0.00     0.049 A 
ATOM     48  C   UNL A   1      38.622  30.628  31.493  1.00  0.00     0.074 A 
ATOM     49  C   UNL A   1      43.006  29.853  36.008  1.00  0.00     0.029 A 
ATOM     50  N   UNL A   1      41.792  29.710  34.150  1.00  0.00    -0.354 N 
ATOM     51  N   UNL A   1      39.574  30.407  32.366  1.00  0.00    -0.248 NA
ATOM     52  C   UNL A   1      37.562  31.527  31.972  1.00  0.00     0.031 C 
ATOM     53  C   UNL A   1      41.875  30.663  36.155  1.00  0.00     0.029 A 
ATOM     54  C   UNL A   1      41.131  30.591  34.989  1.00  0.00     0.049 A 
ATOM     55  H   UNL A   1      41.493  29.460  33.246  1.00  0.00     0.167 HD
ATOM     56  C   UNL A   1      39.243  31.160  33.486  1.00  0.00     0.074 A 
ATOM     57  C   UNL A   1      38.010  31.853  33.177  1.00  0.00     0.031 C 
ATOM     58  C   UNL A   1      39.903  31.270  34.666  1.00  0.00     0.031 A 
BRANCH  45  59
ATOM     59  C   UNL A   1      45.004  27.808  35.020  1.00  0.00    -0.014 A 
ATOM     60  C   UNL A   1      46.243  28.466  34.974  1.00  0.00     0.009 A 
ATOM     61  C   UNL A   1      44.850  26.709  35.879  1.00  0.00     0.009 A 
ATOM     62  C   UNL A   1      47.314  28.011  35.748  1.00  0.00     0.001 A 
ATOM     63  C   UNL A   1      45.914  26.272  36.671  1.00  0.00     0.001 A 
ATOM     64  C   UNL A   1      47.147  26.917  36.597  1.00  0.00     0.000 A 
ENDBRANCH  45  59
BRANCH  46  65
ATOM     65  C   UNL A   1      37.324  30.504  29.246  1.00  0.00    -0.014 A 
ATOM     66  C   UNL A   1      37.222  31.811  28.747  1.00  0.00     0.009 A 
ATOM     67  C   UNL A   1      36.307  29.582  28.952  1.00  0.00     0.009 A 
ATOM     68  C   UNL A   1      36.111  32.193  27.990  1.00  0.00     0.001 A 
ATOM     69  C   UNL A   1      35.211  29.960  28.173  1.00  0.00     0.001 A 
ATOM     70  C   UNL A   1      35.111  31.267  27.699  1.00  0.00     0.000 A 
ENDBRANCH  46  65
BRANCH  58  71
ATOM     71  C   UNL A   1      39.323  32.198  35.695  1.00  0.00    -0.014 A 
ATOM     72  C   UNL A   1      38.405  31.742  36.651  1.00  0.00     0.009 A 
ATOM     73  C   UNL A   1      39.735  33.540  35.732  1.00  0.00     0.009 A 
ATOM     74  C   UNL A   1      37.887  32.619  37.607  1.00  0.00     0.001 A 
ATOM     75  C   UNL A   1      39.237  34.407  36.703  1.00  0.00     0.001 A 
ATOM     76  C   UNL A   1      38.307  33.949  37.634  1.00  0.00     0.000 A 
ENDBRANCH  58  71
ENDBRANCH  32  33
ENDBRANCH  25  27
ENDBRANCH  24  25
ENDBRANCH  23  24
ENDBRANCH  22  23
ENDBRANCH  21  22
ENDBRANCH   1  21
TORSDOF 17
ENDMDL
