MODEL 1
REMARK VINA RESULT:     -10.5      0.000      0.000
REMARK SMILES O=C(OCCOCCOC(=O)c1cn(C2CN(C(=O)Nc3ccsc3)C2)nn1)c1ccc(-c2c3nc(c(-c4ccccc4)c4ccc([nH]4)c(-c4ccccc4)c4nc(c(-c5ccccc5)c5ccc2[nH]5)C=C4)C=C3)cc1
REMARK SMILES IDX 6 1 5 2 4 3 3 4 2 5 1 6 29 7 30 8 76 9 31 10 75 11 32 12
REMARK SMILES IDX 33 13 34 14 69 15 35 16 74 17 68 18 70 19 36 20 73 21 67 22
REMARK SMILES IDX 66 23 37 25 59 26 44 27 58 28 45 29 48 30 57 31 71 32 46 33
REMARK SMILES IDX 47 34 56 36 72 37 49 38 38 39 39 40 43 41 40 42 42 43 41 44
REMARK SMILES IDX 60 45 61 46 65 47 62 48 64 49 63 50 50 51 51 52 55 53 52 54
REMARK SMILES IDX 54 55 53 56 7 57 8 58 9 59 10 60 11 61 12 62 13 63 28 64
REMARK SMILES IDX 14 65 27 66 15 67 16 68 26 69 17 70 18 71 19 72 20 73 21 75
REMARK SMILES IDX 22 76 25 77 23 78 24 79
REMARK H PARENT 70 24 48 35 20 74
REMARK Flexibility Score: inf
ROOT
ATOM      1  O   UNL A   1      40.218  20.820  25.970  1.00  0.00    -0.374 OA
ENDROOT
BRANCH   1   2
ATOM      2  C   UNL A   1      41.185  20.048  26.686  1.00  0.00     0.202 C 
BRANCH   2   3
ATOM      3  C   UNL A   1      42.151  19.299  25.774  1.00  0.00     0.261 C 
BRANCH   3   4
ATOM      4  O   UNL A   1      43.548  19.623  25.942  1.00  0.00    -0.460 OA
BRANCH   4   5
ATOM      5  C   UNL A   1      44.162  20.398  25.018  1.00  0.00     0.338 C 
ATOM      6  O   UNL A   1      44.467  20.005  23.901  1.00  0.00    -0.246 OA
BRANCH   5   7
ATOM      7  C   UNL A   1      44.162  21.834  25.394  1.00  0.00     0.060 A 
ATOM      8  C   UNL A   1      44.837  22.291  26.527  1.00  0.00     0.016 A 
ATOM      9  C   UNL A   1      43.390  22.727  24.635  1.00  0.00     0.016 A 
ATOM     10  C   UNL A   1      44.652  23.585  26.970  1.00  0.00     0.010 A 
ATOM     11  C   UNL A   1      43.208  24.035  25.077  1.00  0.00     0.010 A 
ATOM     12  C   UNL A   1      43.789  24.438  26.280  1.00  0.00    -0.014 A 
BRANCH  12  13
ATOM     13  C   UNL A   1      43.509  25.709  26.936  1.00  0.00     0.031 A 
ATOM     14  C   UNL A   1      44.505  26.801  26.756  1.00  0.00     0.074 A 
ATOM     15  C   UNL A   1      42.424  25.912  27.705  1.00  0.00     0.049 A 
ATOM     16  N   UNL A   1      45.213  27.398  27.661  1.00  0.00    -0.248 NA
ATOM     17  C   UNL A   1      44.771  27.250  25.384  1.00  0.00     0.031 C 
ATOM     18  C   UNL A   1      41.220  25.087  27.815  1.00  0.00     0.029 A 
ATOM     19  N   UNL A   1      42.147  26.987  28.497  1.00  0.00    -0.354 N 
ATOM     20  C   UNL A   1      45.923  28.396  26.999  1.00  0.00     0.074 A 
ATOM     21  C   UNL A   1      45.670  28.213  25.590  1.00  0.00     0.031 C 
ATOM     22  C   UNL A   1      40.254  25.804  28.427  1.00  0.00     0.029 A 
ATOM     23  C   UNL A   1      40.821  27.064  28.878  1.00  0.00     0.049 A 
ATOM     24  H   UNL A   1      42.826  27.645  28.770  1.00  0.00     0.167 HD
ATOM     25  C   UNL A   1      46.557  29.410  27.649  1.00  0.00     0.031 A 
ATOM     26  C   UNL A   1      40.210  28.123  29.455  1.00  0.00     0.031 A 
ATOM     27  C   UNL A   1      46.776  29.137  29.039  1.00  0.00     0.049 A 
ATOM     28  C   UNL A   1      41.243  28.982  30.073  1.00  0.00     0.074 A 
ATOM     29  C   UNL A   1      47.501  28.207  29.755  1.00  0.00     0.029 A 
ATOM     30  N   UNL A   1      45.955  29.753  29.950  1.00  0.00    -0.354 N 
ATOM     31  N   UNL A   1      41.932  28.650  31.126  1.00  0.00    -0.248 NA
ATOM     32  C   UNL A   1      41.778  30.098  29.307  1.00  0.00     0.031 C 
ATOM     33  C   UNL A   1      46.756  27.994  30.951  1.00  0.00     0.029 A 
ATOM     34  C   UNL A   1      45.625  28.810  30.888  1.00  0.00     0.049 A 
ATOM     35  H   UNL A   1      45.660  30.692  29.933  1.00  0.00     0.167 HD
ATOM     36  C   UNL A   1      43.178  29.228  30.937  1.00  0.00     0.074 A 
ATOM     37  C   UNL A   1      42.980  30.209  29.876  1.00  0.00     0.031 C 
ATOM     38  C   UNL A   1      44.306  28.664  31.461  1.00  0.00     0.031 A 
BRANCH  25  39
ATOM     39  C   UNL A   1      46.706  30.798  27.083  1.00  0.00    -0.014 A 
ATOM     40  C   UNL A   1      47.975  31.407  27.077  1.00  0.00     0.009 A 
ATOM     41  C   UNL A   1      45.602  31.626  26.812  1.00  0.00     0.009 A 
ATOM     42  C   UNL A   1      48.120  32.783  26.857  1.00  0.00     0.001 A 
ATOM     43  C   UNL A   1      45.747  32.990  26.551  1.00  0.00     0.001 A 
ATOM     44  C   UNL A   1      47.006  33.574  26.597  1.00  0.00     0.000 A 
ENDBRANCH  25  39
BRANCH  26  45
ATOM     45  C   UNL A   1      38.814  28.556  29.257  1.00  0.00    -0.014 A 
ATOM     46  C   UNL A   1      37.939  28.696  30.342  1.00  0.00     0.009 A 
ATOM     47  C   UNL A   1      38.405  29.064  28.009  1.00  0.00     0.009 A 
ATOM     48  C   UNL A   1      36.705  29.341  30.185  1.00  0.00     0.001 A 
ATOM     49  C   UNL A   1      37.173  29.701  27.850  1.00  0.00     0.001 A 
ATOM     50  C   UNL A   1      36.328  29.851  28.943  1.00  0.00     0.000 A 
ENDBRANCH  26  45
BRANCH  38  51
ATOM     51  C   UNL A   1      44.141  27.562  32.476  1.00  0.00    -0.014 A 
ATOM     52  C   UNL A   1      44.252  26.204  32.129  1.00  0.00     0.009 A 
ATOM     53  C   UNL A   1      44.048  27.899  33.835  1.00  0.00     0.009 A 
ATOM     54  C   UNL A   1      44.241  25.211  33.112  1.00  0.00     0.001 A 
ATOM     55  C   UNL A   1      44.058  26.907  34.818  1.00  0.00     0.001 A 
ATOM     56  C   UNL A   1      44.149  25.564  34.457  1.00  0.00     0.000 A 
ENDBRANCH  38  51
ENDBRANCH  12  13
ENDBRANCH   5   7
ENDBRANCH   4   5
ENDBRANCH   3   4
ENDBRANCH   2   3
ENDBRANCH   1   2
BRANCH   1  57
ATOM     57  C   UNL A   1      39.645  21.913  26.703  1.00  0.00     0.202 C 
BRANCH  57  58
ATOM     58  C   UNL A   1      38.414  22.594  26.087  1.00  0.00     0.261 C 
BRANCH  58  59
ATOM     59  O   UNL A   1      38.124  22.055  24.784  1.00  0.00    -0.458 OA
BRANCH  59  60
ATOM     60  C   UNL A   1      36.992  21.295  24.716  1.00  0.00     0.360 C 
ATOM     61  O   UNL A   1      36.860  20.199  25.235  1.00  0.00    -0.244 OA
BRANCH  60  62
ATOM     62  C   UNL A   1      35.886  22.029  24.122  1.00  0.00     0.190 A 
ATOM     63  C   UNL A   1      34.526  21.793  24.166  1.00  0.00     0.147 A 
ATOM     64  N   UNL A   1      36.124  23.124  23.327  1.00  0.00    -0.123 NA
ATOM     65  N   UNL A   1      33.998  22.881  23.519  1.00  0.00    -0.245 N 
ATOM     66  N   UNL A   1      34.962  23.582  22.896  1.00  0.00    -0.066 NA
BRANCH  65  67
ATOM     67  C   UNL A   1      32.748  23.528  23.769  1.00  0.00     0.148 C 
ATOM     68  C   UNL A   1      31.854  23.084  24.927  1.00  0.00     0.150 C 
ATOM     69  C   UNL A   1      33.028  24.794  24.615  1.00  0.00     0.150 C 
ATOM     70  N   UNL A   1      31.768  24.515  25.253  1.00  0.00    -0.320 N 
ATOM     71  C   UNL A   1      30.994  25.098  26.199  1.00  0.00     0.322 C 
ATOM     72  O   UNL A   1      30.069  24.471  26.724  1.00  0.00    -0.248 OA
ATOM     73  N   UNL A   1      31.300  26.321  26.709  1.00  0.00    -0.307 N 
ATOM     74  H   UNL A   1      30.853  26.515  27.564  1.00  0.00     0.171 HD
BRANCH  73  75
ATOM     75  C   UNL A   1      32.116  27.344  26.260  1.00  0.00     0.053 A 
ATOM     76  C   UNL A   1      33.440  27.671  26.674  1.00  0.00     0.038 A 
ATOM     77  C   UNL A   1      31.722  28.156  25.216  1.00  0.00     0.091 A 
ATOM     78  C   UNL A   1      33.910  28.829  26.090  1.00  0.00     0.067 A 
ATOM     79  S   UNL A   1      32.822  29.433  24.920  1.00  0.00    -0.150 S 
ENDBRANCH  73  75
ENDBRANCH  65  67
ENDBRANCH  60  62
ENDBRANCH  59  60
ENDBRANCH  58  59
ENDBRANCH  57  58
ENDBRANCH   1  57
TORSDOF 16
ENDMDL
MODEL 2
REMARK VINA RESULT:     -10.4      2.425      3.608
REMARK SMILES O=C(OCCOCCOC(=O)c1cn(C2CN(C(=O)Nc3ccsc3)C2)nn1)c1ccc(-c2c3nc(c(-c4ccccc4)c4ccc([nH]4)c(-c4ccccc4)c4nc(c(-c5ccccc5)c5ccc2[nH]5)C=C4)C=C3)cc1
REMARK SMILES IDX 6 1 5 2 4 3 3 4 2 5 1 6 29 7 30 8 76 9 31 10 75 11 32 12
REMARK SMILES IDX 33 13 34 14 69 15 35 16 74 17 68 18 70 19 36 20 73 21 67 22
REMARK SMILES IDX 66 23 37 25 59 26 44 27 58 28 45 29 48 30 57 31 71 32 46 33
REMARK SMILES IDX 47 34 56 36 72 37 49 38 38 39 39 40 43 41 40 42 42 43 41 44
REMARK SMILES IDX 60 45 61 46 65 47 62 48 64 49 63 50 50 51 51 52 55 53 52 54
REMARK SMILES IDX 54 55 53 56 7 57 8 58 9 59 10 60 11 61 12 62 13 63 28 64
REMARK SMILES IDX 14 65 27 66 15 67 16 68 26 69 17 70 18 71 19 72 20 73 21 75
REMARK SMILES IDX 22 76 25 77 23 78 24 79
REMARK H PARENT 70 24 48 35 20 74
REMARK Flexibility Score: inf
ROOT
ATOM      1  O   UNL A   1      42.592  18.635  27.397  1.00  0.00    -0.374 OA
ENDROOT
BRANCH   1   2
ATOM      2  C   UNL A   1      42.969  18.120  26.118  1.00  0.00     0.202 C 
BRANCH   2   3
ATOM      3  C   UNL A   1      44.221  18.777  25.550  1.00  0.00     0.261 C 
BRANCH   3   4
ATOM      4  O   UNL A   1      43.995  19.892  24.660  1.00  0.00    -0.460 OA
BRANCH   4   5
ATOM      5  C   UNL A   1      44.811  20.970  24.729  1.00  0.00     0.338 C 
ATOM      6  O   UNL A   1      45.849  21.072  24.092  1.00  0.00    -0.246 OA
BRANCH   5   7
ATOM      7  C   UNL A   1      44.175  22.116  25.423  1.00  0.00     0.060 A 
ATOM      8  C   UNL A   1      43.564  23.151  24.713  1.00  0.00     0.016 A 
ATOM      9  C   UNL A   1      44.272  22.194  26.821  1.00  0.00     0.016 A 
ATOM     10  C   UNL A   1      43.167  24.301  25.365  1.00  0.00     0.010 A 
ATOM     11  C   UNL A   1      43.865  23.350  27.482  1.00  0.00     0.010 A 
ATOM     12  C   UNL A   1      43.374  24.425  26.740  1.00  0.00    -0.014 A 
BRANCH  12  13
ATOM     13  C   UNL A   1      43.104  25.745  27.296  1.00  0.00     0.031 A 
ATOM     14  C   UNL A   1      44.127  26.803  27.067  1.00  0.00     0.074 A 
ATOM     15  C   UNL A   1      42.005  26.023  28.021  1.00  0.00     0.049 A 
ATOM     16  N   UNL A   1      44.825  27.448  27.946  1.00  0.00    -0.248 NA
ATOM     17  C   UNL A   1      44.438  27.147  25.674  1.00  0.00     0.031 C 
ATOM     18  C   UNL A   1      40.782  25.231  28.156  1.00  0.00     0.029 A 
ATOM     19  N   UNL A   1      41.730  27.157  28.727  1.00  0.00    -0.354 N 
ATOM     20  C   UNL A   1      45.573  28.382  27.235  1.00  0.00     0.074 A 
ATOM     21  C   UNL A   1      45.351  28.105  25.836  1.00  0.00     0.031 C 
ATOM     22  C   UNL A   1      39.815  26.009  28.690  1.00  0.00     0.029 A 
ATOM     23  C   UNL A   1      40.397  27.287  29.066  1.00  0.00     0.049 A 
ATOM     24  H   UNL A   1      42.416  27.820  28.971  1.00  0.00     0.167 HD
ATOM     25  C   UNL A   1      46.211  29.428  27.828  1.00  0.00     0.031 A 
ATOM     26  C   UNL A   1      39.794  28.396  29.550  1.00  0.00     0.031 A 
ATOM     27  C   UNL A   1      46.389  29.251  29.240  1.00  0.00     0.049 A 
ATOM     28  C   UNL A   1      40.829  29.276  30.133  1.00  0.00     0.074 A 
ATOM     29  C   UNL A   1      47.076  28.360  30.038  1.00  0.00     0.029 A 
ATOM     30  N   UNL A   1      45.558  29.945  30.082  1.00  0.00    -0.354 N 
ATOM     31  N   UNL A   1      41.484  29.006  31.225  1.00  0.00    -0.248 NA
ATOM     32  C   UNL A   1      41.407  30.324  29.306  1.00  0.00     0.031 C 
ATOM     33  C   UNL A   1      46.296  28.246  31.226  1.00  0.00     0.029 A 
ATOM     34  C   UNL A   1      45.185  29.078  31.075  1.00  0.00     0.049 A 
ATOM     35  H   UNL A   1      45.283  30.886  29.992  1.00  0.00     0.167 HD
ATOM     36  C   UNL A   1      42.747  29.545  31.029  1.00  0.00     0.074 A 
ATOM     37  C   UNL A   1      42.597  30.452  29.897  1.00  0.00     0.031 C 
ATOM     38  C   UNL A   1      43.849  28.999  31.622  1.00  0.00     0.031 A 
BRANCH  25  39
ATOM     39  C   UNL A   1      46.404  30.769  27.170  1.00  0.00    -0.014 A 
ATOM     40  C   UNL A   1      47.675  31.371  27.191  1.00  0.00     0.009 A 
ATOM     41  C   UNL A   1      45.323  31.579  26.775  1.00  0.00     0.009 A 
ATOM     42  C   UNL A   1      47.845  32.726  26.879  1.00  0.00     0.001 A 
ATOM     43  C   UNL A   1      45.495  32.919  26.422  1.00  0.00     0.001 A 
ATOM     44  C   UNL A   1      46.754  33.500  26.497  1.00  0.00     0.000 A 
ENDBRANCH  25  39
BRANCH  26  45
ATOM     45  C   UNL A   1      38.414  28.840  29.285  1.00  0.00    -0.014 A 
ATOM     46  C   UNL A   1      37.506  29.048  30.333  1.00  0.00     0.009 A 
ATOM     47  C   UNL A   1      38.054  29.292  28.001  1.00  0.00     0.009 A 
ATOM     48  C   UNL A   1      36.290  29.704  30.103  1.00  0.00     0.001 A 
ATOM     49  C   UNL A   1      36.839  29.939  27.770  1.00  0.00     0.001 A 
ATOM     50  C   UNL A   1      35.962  30.157  28.826  1.00  0.00     0.000 A 
ENDBRANCH  26  45
BRANCH  38  51
ATOM     51  C   UNL A   1      43.636  27.975  32.708  1.00  0.00    -0.014 A 
ATOM     52  C   UNL A   1      43.791  26.596  32.476  1.00  0.00     0.009 A 
ATOM     53  C   UNL A   1      43.448  28.413  34.027  1.00  0.00     0.009 A 
ATOM     54  C   UNL A   1      43.731  25.682  33.531  1.00  0.00     0.001 A 
ATOM     55  C   UNL A   1      43.409  27.500  35.084  1.00  0.00     0.001 A 
ATOM     56  C   UNL A   1      43.545  26.135  34.836  1.00  0.00     0.000 A 
ENDBRANCH  38  51
ENDBRANCH  12  13
ENDBRANCH   5   7
ENDBRANCH   4   5
ENDBRANCH   3   4
ENDBRANCH   2   3
ENDBRANCH   1   2
BRANCH   1  57
ATOM     57  C   UNL A   1      41.571  19.644  27.373  1.00  0.00     0.202 C 
BRANCH  57  58
ATOM     58  C   UNL A   1      40.852  19.875  26.035  1.00  0.00     0.261 C 
BRANCH  58  59
ATOM     59  O   UNL A   1      39.540  20.429  26.244  1.00  0.00    -0.458 OA
BRANCH  59  60
ATOM     60  C   UNL A   1      39.475  21.792  26.182  1.00  0.00     0.360 C 
ATOM     61  O   UNL A   1      40.433  22.537  26.298  1.00  0.00    -0.244 OA
BRANCH  60  62
ATOM     62  C   UNL A   1      38.161  22.249  25.762  1.00  0.00     0.190 A 
ATOM     63  C   UNL A   1      37.205  21.635  24.977  1.00  0.00     0.147 A 
ATOM     64  N   UNL A   1      37.717  23.504  26.105  1.00  0.00    -0.123 NA
ATOM     65  N   UNL A   1      36.146  22.505  25.032  1.00  0.00    -0.245 N 
ATOM     66  N   UNL A   1      36.518  23.677  25.579  1.00  0.00    -0.066 NA
BRANCH  65  67
ATOM     67  C   UNL A   1      34.752  22.193  24.989  1.00  0.00     0.148 C 
ATOM     68  C   UNL A   1      33.926  22.466  23.732  1.00  0.00     0.150 C 
ATOM     69  C   UNL A   1      34.610  20.695  24.625  1.00  0.00     0.150 C 
ATOM     70  N   UNL A   1      33.427  21.093  23.906  1.00  0.00    -0.320 N 
ATOM     71  C   UNL A   1      32.453  20.477  23.196  1.00  0.00     0.322 C 
ATOM     72  O   UNL A   1      31.697  21.131  22.472  1.00  0.00    -0.248 OA
ATOM     73  N   UNL A   1      32.373  19.121  23.134  1.00  0.00    -0.307 N 
ATOM     74  H   UNL A   1      31.826  18.790  22.386  1.00  0.00     0.171 HD
BRANCH  73  75
ATOM     75  C   UNL A   1      32.912  18.115  23.917  1.00  0.00     0.053 A 
ATOM     76  C   UNL A   1      32.530  17.709  25.229  1.00  0.00     0.038 A 
ATOM     77  C   UNL A   1      33.894  17.282  23.421  1.00  0.00     0.091 A 
ATOM     78  C   UNL A   1      33.363  16.741  25.751  1.00  0.00     0.067 A 
ATOM     79  S   UNL A   1      34.507  16.205  24.601  1.00  0.00    -0.150 S 
ENDBRANCH  73  75
ENDBRANCH  65  67
ENDBRANCH  60  62
ENDBRANCH  59  60
ENDBRANCH  58  59
ENDBRANCH  57  58
ENDBRANCH   1  57
TORSDOF 16
ENDMDL
MODEL 3
REMARK VINA RESULT:     -10.3      1.347      1.755
REMARK SMILES O=C(OCCOCCOC(=O)c1cn(C2CN(C(=O)Nc3ccsc3)C2)nn1)c1ccc(-c2c3nc(c(-c4ccccc4)c4ccc([nH]4)c(-c4ccccc4)c4nc(c(-c5ccccc5)c5ccc2[nH]5)C=C4)C=C3)cc1
REMARK SMILES IDX 6 1 5 2 4 3 3 4 2 5 1 6 29 7 30 8 76 9 31 10 75 11 32 12
REMARK SMILES IDX 33 13 34 14 69 15 35 16 74 17 68 18 70 19 36 20 73 21 67 22
REMARK SMILES IDX 66 23 37 25 59 26 44 27 58 28 45 29 48 30 57 31 71 32 46 33
REMARK SMILES IDX 47 34 56 36 72 37 49 38 38 39 39 40 43 41 40 42 42 43 41 44
REMARK SMILES IDX 60 45 61 46 65 47 62 48 64 49 63 50 50 51 51 52 55 53 52 54
REMARK SMILES IDX 54 55 53 56 7 57 8 58 9 59 10 60 11 61 12 62 13 63 28 64
REMARK SMILES IDX 14 65 27 66 15 67 16 68 26 69 17 70 18 71 19 72 20 73 21 75
REMARK SMILES IDX 22 76 25 77 23 78 24 79
REMARK H PARENT 70 24 48 35 20 74
REMARK Flexibility Score: inf
ROOT
ATOM      1  O   UNL A   1      41.215  18.832  26.063  1.00  0.00    -0.374 OA
ENDROOT
BRANCH   1   2
ATOM      2  C   UNL A   1      42.465  19.494  25.857  1.00  0.00     0.202 C 
BRANCH   2   3
ATOM      3  C   UNL A   1      43.579  18.554  25.413  1.00  0.00     0.261 C 
BRANCH   3   4
ATOM      4  O   UNL A   1      44.834  19.185  25.078  1.00  0.00    -0.460 OA
BRANCH   4   5
ATOM      5  C   UNL A   1      44.859  20.142  24.122  1.00  0.00     0.338 C 
ATOM      6  O   UNL A   1      44.625  19.924  22.942  1.00  0.00    -0.246 OA
BRANCH   5   7
ATOM      7  C   UNL A   1      44.910  21.511  24.694  1.00  0.00     0.060 A 
ATOM      8  C   UNL A   1      45.635  21.790  25.853  1.00  0.00     0.016 A 
ATOM      9  C   UNL A   1      44.139  22.518  24.095  1.00  0.00     0.016 A 
ATOM     10  C   UNL A   1      45.499  23.013  26.479  1.00  0.00     0.010 A 
ATOM     11  C   UNL A   1      44.007  23.755  24.720  1.00  0.00     0.010 A 
ATOM     12  C   UNL A   1      44.638  23.973  25.945  1.00  0.00    -0.014 A 
BRANCH  12  13
ATOM     13  C   UNL A   1      44.414  25.147  26.781  1.00  0.00     0.031 A 
ATOM     14  C   UNL A   1      45.517  26.144  26.863  1.00  0.00     0.074 A 
ATOM     15  C   UNL A   1      43.286  25.336  27.488  1.00  0.00     0.049 A 
ATOM     16  N   UNL A   1      46.190  26.512  27.906  1.00  0.00    -0.248 NA
ATOM     17  C   UNL A   1      45.949  26.774  25.609  1.00  0.00     0.031 C 
ATOM     18  C   UNL A   1      42.008  24.635  27.366  1.00  0.00     0.029 A 
ATOM     19  N   UNL A   1      43.035  26.295  28.425  1.00  0.00    -0.354 N 
ATOM     20  C   UNL A   1      47.045  27.522  27.477  1.00  0.00     0.074 A 
ATOM     21  C   UNL A   1      46.908  27.593  26.042  1.00  0.00     0.031 C 
ATOM     22  C   UNL A   1      41.057  25.342  28.014  1.00  0.00     0.029 A 
ATOM     23  C   UNL A   1      41.692  26.449  28.711  1.00  0.00     0.049 A 
ATOM     24  H   UNL A   1      43.742  26.828  28.855  1.00  0.00     0.167 HD
ATOM     25  C   UNL A   1      47.706  28.349  28.333  1.00  0.00     0.031 A 
ATOM     26  C   UNL A   1      41.128  27.461  29.408  1.00  0.00     0.031 A 
ATOM     27  C   UNL A   1      47.769  27.838  29.671  1.00  0.00     0.049 A 
ATOM     28  C   UNL A   1      42.173  28.098  30.238  1.00  0.00     0.074 A 
ATOM     29  C   UNL A   1      48.338  26.736  30.275  1.00  0.00     0.029 A 
ATOM     30  N   UNL A   1      46.926  28.384  30.607  1.00  0.00    -0.354 N 
ATOM     31  N   UNL A   1      42.729  27.533  31.270  1.00  0.00    -0.248 NA
ATOM     32  C   UNL A   1      42.875  29.259  29.713  1.00  0.00     0.031 C 
ATOM     33  C   UNL A   1      47.469  26.414  31.358  1.00  0.00     0.029 A 
ATOM     34  C   UNL A   1      46.427  27.343  31.346  1.00  0.00     0.049 A 
ATOM     35  H   UNL A   1      46.720  29.339  30.724  1.00  0.00     0.167 HD
ATOM     36  C   UNL A   1      44.034  28.000  31.276  1.00  0.00     0.074 A 
ATOM     37  C   UNL A   1      44.025  29.152  30.383  1.00  0.00     0.031 C 
ATOM     38  C   UNL A   1      45.053  27.246  31.784  1.00  0.00     0.031 A 
BRANCH  25  39
ATOM     39  C   UNL A   1      48.031  29.786  28.021  1.00  0.00    -0.014 A 
ATOM     40  C   UNL A   1      46.982  30.701  27.811  1.00  0.00     0.009 A 
ATOM     41  C   UNL A   1      49.323  30.206  27.656  1.00  0.00     0.009 A 
ATOM     42  C   UNL A   1      47.213  31.951  27.224  1.00  0.00     0.001 A 
ATOM     43  C   UNL A   1      49.563  31.469  27.109  1.00  0.00     0.001 A 
ATOM     44  C   UNL A   1      48.504  32.333  26.870  1.00  0.00     0.000 A 
ENDBRANCH  25  39
BRANCH  26  45
ATOM     45  C   UNL A   1      39.802  28.062  29.180  1.00  0.00    -0.014 A 
ATOM     46  C   UNL A   1      38.833  28.086  30.192  1.00  0.00     0.009 A 
ATOM     47  C   UNL A   1      39.568  28.833  28.024  1.00  0.00     0.009 A 
ATOM     48  C   UNL A   1      37.680  28.871  30.058  1.00  0.00     0.001 A 
ATOM     49  C   UNL A   1      38.416  29.610  27.888  1.00  0.00     0.001 A 
ATOM     50  C   UNL A   1      37.478  29.639  28.912  1.00  0.00     0.000 A 
ENDBRANCH  26  45
BRANCH  38  51
ATOM     51  C   UNL A   1      44.697  26.020  32.585  1.00  0.00    -0.014 A 
ATOM     52  C   UNL A   1      44.505  24.764  31.983  1.00  0.00     0.009 A 
ATOM     53  C   UNL A   1      44.727  26.092  33.986  1.00  0.00     0.009 A 
ATOM     54  C   UNL A   1      44.320  23.618  32.761  1.00  0.00     0.001 A 
ATOM     55  C   UNL A   1      44.563  24.942  34.763  1.00  0.00     0.001 A 
ATOM     56  C   UNL A   1      44.355  23.707  34.152  1.00  0.00     0.000 A 
ENDBRANCH  38  51
ENDBRANCH  12  13
ENDBRANCH   5   7
ENDBRANCH   4   5
ENDBRANCH   3   4
ENDBRANCH   2   3
ENDBRANCH   1   2
BRANCH   1  57
ATOM     57  C   UNL A   1      40.051  19.612  25.754  1.00  0.00     0.202 C 
BRANCH  57  58
ATOM     58  C   UNL A   1      39.956  21.004  26.399  1.00  0.00     0.261 C 
BRANCH  58  59
ATOM     59  O   UNL A   1      39.368  21.954  25.490  1.00  0.00    -0.458 OA
BRANCH  59  60
ATOM     60  C   UNL A   1      38.410  22.757  26.040  1.00  0.00     0.360 C 
ATOM     61  O   UNL A   1      38.630  23.825  26.587  1.00  0.00    -0.244 OA
BRANCH  60  62
ATOM     62  C   UNL A   1      37.070  22.290  25.723  1.00  0.00     0.190 A 
ATOM     63  C   UNL A   1      35.871  22.492  26.378  1.00  0.00     0.147 A 
ATOM     64  N   UNL A   1      36.855  21.467  24.644  1.00  0.00    -0.123 NA
ATOM     65  N   UNL A   1      34.954  21.904  25.545  1.00  0.00    -0.245 N 
ATOM     66  N   UNL A   1      35.569  21.170  24.599  1.00  0.00    -0.066 NA
BRANCH  65  67
ATOM     67  C   UNL A   1      33.597  22.293  25.320  1.00  0.00     0.148 C 
ATOM     68  C   UNL A   1      32.541  22.118  26.411  1.00  0.00     0.150 C 
ATOM     69  C   UNL A   1      33.483  23.810  25.607  1.00  0.00     0.150 C 
ATOM     70  N   UNL A   1      32.167  23.507  26.107  1.00  0.00    -0.320 N 
ATOM     71  C   UNL A   1      31.120  24.205  26.606  1.00  0.00     0.322 C 
ATOM     72  O   UNL A   1      30.205  23.623  27.198  1.00  0.00    -0.248 OA
ATOM     73  N   UNL A   1      31.113  25.564  26.612  1.00  0.00    -0.307 N 
ATOM     74  H   UNL A   1      30.460  25.954  27.236  1.00  0.00     0.171 HD
BRANCH  73  75
ATOM     75  C   UNL A   1      31.846  26.506  25.912  1.00  0.00     0.053 A 
ATOM     76  C   UNL A   1      32.982  27.249  26.344  1.00  0.00     0.038 A 
ATOM     77  C   UNL A   1      31.575  26.768  24.584  1.00  0.00     0.091 A 
ATOM     78  C   UNL A   1      33.391  28.185  25.417  1.00  0.00     0.067 A 
ATOM     79  S   UNL A   1      32.509  28.059  23.960  1.00  0.00    -0.150 S 
ENDBRANCH  73  75
ENDBRANCH  65  67
ENDBRANCH  60  62
ENDBRANCH  59  60
ENDBRANCH  58  59
ENDBRANCH  57  58
ENDBRANCH   1  57
TORSDOF 16
ENDMDL
