MODEL 1
REMARK VINA RESULT:      -8.8      0.000      0.000
REMARK SMILES CCC1(CC)C[NH+]([C@H](CCS(C)(=O)=O)C(=O)OCCOCCOC(=O)c2ccc(-c3c4nc(c(-c5ccccc5)c5ccc([nH]5)c(-c5ccccc5)c5nc(c(-c6ccccc6)c6ccc3[nH]6)C=C5)C=C4)cc2)C1
REMARK SMILES IDX 19 1 18 2 17 3 15 4 16 5 8 6 7 7 3 8 6 9 74 10 2 12 1 13
REMARK SMILES IDX 4 14 5 15 9 16 10 17 11 18 12 19 13 20 14 21 20 22 21 23
REMARK SMILES IDX 22 24 23 25 24 26 25 27 26 28 27 29 73 30 28 31 72 32 29 33
REMARK SMILES IDX 30 34 31 35 66 36 32 37 71 38 65 39 67 40 33 41 70 42 64 43
REMARK SMILES IDX 63 44 34 46 56 47 41 48 55 49 42 50 45 51 54 52 68 53 43 54
REMARK SMILES IDX 44 55 53 57 69 58 46 59 35 60 36 61 40 62 37 63 39 64 38 65
REMARK SMILES IDX 57 66 58 67 62 68 59 69 61 70 60 71 47 72 48 73 52 74 49 75
REMARK SMILES IDX 51 76 50 77
REMARK H PARENT 7 11 67 45 45 56
REMARK Flexibility Score: inf
ROOT
ATOM      1  C   UNL A   1      33.732  29.879  27.058  1.00  0.00     0.202 C 
ENDROOT
BRANCH   1   2
ATOM      2  C   UNL A   1      34.034  28.413  26.735  1.00  0.00     0.261 C 
BRANCH   2   3
ATOM      3  O   UNL A   1      33.142  27.917  25.715  1.00  0.00    -0.459 OA
BRANCH   3   4
ATOM      4  C   UNL A   1      32.291  26.922  26.077  1.00  0.00     0.365 C 
ATOM      5  O   UNL A   1      31.663  26.890  27.129  1.00  0.00    -0.245 OA
BRANCH   4   6
ATOM      6  C   UNL A   1      32.174  25.838  24.987  1.00  0.00     0.296 C 
BRANCH   6   7
ATOM      7  N   UNL A   1      33.483  25.190  24.804  1.00  0.00    -0.322 N 
ATOM      8  C   UNL A   1      34.505  23.356  24.530  1.00  0.00     0.068 C 
ATOM      9  C   UNL A   1      33.626  24.318  23.648  1.00  0.00     0.275 C 
ATOM     10  C   UNL A   1      33.795  24.091  25.726  1.00  0.00     0.275 C 
ATOM     11  H   UNL A   1      34.030  26.050  24.844  1.00  0.00     0.348 HD
BRANCH   8  12
ATOM     12  C   UNL A   1      34.163  21.861  24.385  1.00  0.00     0.015 C 
ATOM     13  C   UNL A   1      34.556  21.045  25.608  1.00  0.00     0.005 C 
ENDBRANCH   8  12
BRANCH   8  14
ATOM     14  C   UNL A   1      36.020  23.638  24.423  1.00  0.00     0.015 C 
ATOM     15  C   UNL A   1      36.674  22.914  23.251  1.00  0.00     0.005 C 
ENDBRANCH   8  14
ENDBRANCH   6   7
BRANCH   6  16
ATOM     16  C   UNL A   1      31.183  26.170  23.824  1.00  0.00     0.094 C 
BRANCH  16  17
ATOM     17  C   UNL A   1      30.157  27.306  23.844  1.00  0.00     0.143 C 
BRANCH  17  18
ATOM     18  S   UNL A   1      30.455  28.845  23.007  1.00  0.00     0.147 S 
ATOM     19  C   UNL A   1      32.190  28.913  22.674  1.00  0.00     0.158 C 
ATOM     20  O   UNL A   1      29.817  28.756  21.705  1.00  0.00    -0.229 OA
ATOM     21  O   UNL A   1      30.108  29.927  23.903  1.00  0.00    -0.229 OA
ENDBRANCH  17  18
ENDBRANCH  16  17
ENDBRANCH   6  16
ENDBRANCH   4   6
ENDBRANCH   3   4
ENDBRANCH   2   3
ENDBRANCH   1   2
BRANCH   1  22
ATOM     22  O   UNL A   1      32.355  30.161  27.320  1.00  0.00    -0.374 OA
BRANCH  22  23
ATOM     23  C   UNL A   1      31.752  31.195  26.549  1.00  0.00     0.202 C 
BRANCH  23  24
ATOM     24  C   UNL A   1      31.517  32.512  27.304  1.00  0.00     0.261 C 
BRANCH  24  25
ATOM     25  O   UNL A   1      32.570  33.464  27.056  1.00  0.00    -0.460 OA
BRANCH  25  26
ATOM     26  C   UNL A   1      33.054  34.092  28.159  1.00  0.00     0.338 C 
ATOM     27  O   UNL A   1      32.483  34.921  28.843  1.00  0.00    -0.246 OA
BRANCH  26  28
ATOM     28  C   UNL A   1      34.349  33.492  28.546  1.00  0.00     0.060 A 
ATOM     29  C   UNL A   1      34.354  32.568  29.598  1.00  0.00     0.016 A 
ATOM     30  C   UNL A   1      35.541  33.834  27.910  1.00  0.00     0.016 A 
ATOM     31  C   UNL A   1      35.554  31.995  30.025  1.00  0.00     0.010 A 
ATOM     32  C   UNL A   1      36.743  33.253  28.333  1.00  0.00     0.010 A 
ATOM     33  C   UNL A   1      36.762  32.347  29.407  1.00  0.00    -0.014 A 
BRANCH  33  34
ATOM     34  C   UNL A   1      38.056  31.864  29.956  1.00  0.00     0.031 A 
ATOM     35  C   UNL A   1      38.622  30.562  29.459  1.00  0.00     0.074 A 
ATOM     36  C   UNL A   1      38.733  32.579  30.874  1.00  0.00     0.049 A 
ATOM     37  N   UNL A   1      39.711  29.935  29.829  1.00  0.00    -0.248 NA
ATOM     38  C   UNL A   1      37.865  29.878  28.398  1.00  0.00     0.031 C 
ATOM     39  C   UNL A   1      38.323  33.872  31.417  1.00  0.00     0.029 A 
ATOM     40  N   UNL A   1      39.920  32.307  31.513  1.00  0.00    -0.354 N 
ATOM     41  C   UNL A   1      39.766  28.784  29.052  1.00  0.00     0.074 A 
ATOM     42  C   UNL A   1      38.588  28.784  28.211  1.00  0.00     0.031 C 
ATOM     43  C   UNL A   1      39.245  34.284  32.304  1.00  0.00     0.029 A 
ATOM     44  C   UNL A   1      40.287  33.266  32.426  1.00  0.00     0.049 A 
ATOM     45  H   UNL A   1      40.457  31.501  31.333  1.00  0.00     0.167 HD
ATOM     46  C   UNL A   1      40.713  27.818  29.031  1.00  0.00     0.031 A 
ATOM     47  C   UNL A   1      41.328  33.304  33.282  1.00  0.00     0.031 A 
ATOM     48  C   UNL A   1      41.880  27.801  29.870  1.00  0.00     0.049 A 
ATOM     49  C   UNL A   1      42.306  32.157  33.319  1.00  0.00     0.074 A 
ATOM     50  C   UNL A   1      42.901  26.866  29.907  1.00  0.00     0.029 A 
ATOM     51  N   UNL A   1      42.178  28.758  30.826  1.00  0.00    -0.354 N 
ATOM     52  N   UNL A   1      42.360  31.089  32.561  1.00  0.00    -0.248 NA
ATOM     53  C   UNL A   1      43.365  32.221  34.340  1.00  0.00     0.031 C 
ATOM     54  C   UNL A   1      43.788  27.230  30.924  1.00  0.00     0.029 A 
ATOM     55  C   UNL A   1      43.348  28.418  31.484  1.00  0.00     0.049 A 
ATOM     56  H   UNL A   1      41.638  29.560  31.010  1.00  0.00     0.167 HD
ATOM     57  C   UNL A   1      43.464  30.368  33.000  1.00  0.00     0.074 A 
ATOM     58  C   UNL A   1      44.064  31.126  34.076  1.00  0.00     0.031 C 
ATOM     59  C   UNL A   1      43.937  29.180  32.551  1.00  0.00     0.031 A 
BRANCH  46  60
ATOM     60  C   UNL A   1      40.518  26.677  28.075  1.00  0.00    -0.014 A 
ATOM     61  C   UNL A   1      41.067  26.714  26.783  1.00  0.00     0.009 A 
ATOM     62  C   UNL A   1      39.825  25.530  28.489  1.00  0.00     0.009 A 
ATOM     63  C   UNL A   1      40.903  25.632  25.917  1.00  0.00     0.001 A 
ATOM     64  C   UNL A   1      39.683  24.440  27.629  1.00  0.00     0.001 A 
ATOM     65  C   UNL A   1      40.218  24.493  26.343  1.00  0.00     0.000 A 
ENDBRANCH  46  60
BRANCH  47  66
ATOM     66  C   UNL A   1      41.490  34.446  34.221  1.00  0.00    -0.014 A 
ATOM     67  C   UNL A   1      40.862  34.436  35.476  1.00  0.00     0.009 A 
ATOM     68  C   UNL A   1      42.229  35.578  33.843  1.00  0.00     0.009 A 
ATOM     69  C   UNL A   1      40.944  35.548  36.317  1.00  0.00     0.001 A 
ATOM     70  C   UNL A   1      42.334  36.676  34.698  1.00  0.00     0.001 A 
ATOM     71  C   UNL A   1      41.683  36.665  35.930  1.00  0.00     0.000 A 
ENDBRANCH  47  66
BRANCH  59  72
ATOM     72  C   UNL A   1      45.175  28.633  33.204  1.00  0.00    -0.014 A 
ATOM     73  C   UNL A   1      46.452  28.974  32.734  1.00  0.00     0.009 A 
ATOM     74  C   UNL A   1      45.062  27.817  34.341  1.00  0.00     0.009 A 
ATOM     75  C   UNL A   1      47.593  28.489  33.378  1.00  0.00     0.001 A 
ATOM     76  C   UNL A   1      46.204  27.355  34.998  1.00  0.00     0.001 A 
ATOM     77  C   UNL A   1      47.469  27.686  34.512  1.00  0.00     0.000 A 
ENDBRANCH  59  72
ENDBRANCH  33  34
ENDBRANCH  26  28
ENDBRANCH  25  26
ENDBRANCH  24  25
ENDBRANCH  23  24
ENDBRANCH  22  23
ENDBRANCH   1  22
TORSDOF 20
ENDMDL
MODEL 2
REMARK VINA RESULT:      -8.4      1.341      6.225
REMARK SMILES CCC1(CC)C[NH+]([C@H](CCS(C)(=O)=O)C(=O)OCCOCCOC(=O)c2ccc(-c3c4nc(c(-c5ccccc5)c5ccc([nH]5)c(-c5ccccc5)c5nc(c(-c6ccccc6)c6ccc3[nH]6)C=C5)C=C4)cc2)C1
REMARK SMILES IDX 19 1 18 2 17 3 15 4 16 5 8 6 7 7 3 8 6 9 74 10 2 12 1 13
REMARK SMILES IDX 4 14 5 15 9 16 10 17 11 18 12 19 13 20 14 21 20 22 21 23
REMARK SMILES IDX 22 24 23 25 24 26 25 27 26 28 27 29 73 30 28 31 72 32 29 33
REMARK SMILES IDX 30 34 31 35 66 36 32 37 71 38 65 39 67 40 33 41 70 42 64 43
REMARK SMILES IDX 63 44 34 46 56 47 41 48 55 49 42 50 45 51 54 52 68 53 43 54
REMARK SMILES IDX 44 55 53 57 69 58 46 59 35 60 36 61 40 62 37 63 39 64 38 65
REMARK SMILES IDX 57 66 58 67 62 68 59 69 61 70 60 71 47 72 48 73 52 74 49 75
REMARK SMILES IDX 51 76 50 77
REMARK H PARENT 7 11 67 45 45 56
REMARK Flexibility Score: inf
ROOT
ATOM      1  C   UNL A   1      33.918  29.677  27.137  1.00  0.00     0.202 C 
ENDROOT
BRANCH   1   2
ATOM      2  C   UNL A   1      33.486  28.309  26.600  1.00  0.00     0.261 C 
BRANCH   2   3
ATOM      3  O   UNL A   1      34.245  27.956  25.425  1.00  0.00    -0.459 OA
BRANCH   3   4
ATOM      4  C   UNL A   1      33.617  27.185  24.499  1.00  0.00     0.365 C 
ATOM      5  O   UNL A   1      33.326  27.553  23.367  1.00  0.00    -0.245 OA
BRANCH   4   6
ATOM      6  C   UNL A   1      33.336  25.763  25.027  1.00  0.00     0.296 C 
BRANCH   6   7
ATOM      7  N   UNL A   1      34.489  24.899  24.731  1.00  0.00    -0.322 N 
ATOM      8  C   UNL A   1      35.191  22.907  24.582  1.00  0.00     0.068 C 
ATOM      9  C   UNL A   1      34.295  23.871  23.720  1.00  0.00     0.275 C 
ATOM     10  C   UNL A   1      34.823  23.895  25.749  1.00  0.00     0.275 C 
ATOM     11  H   UNL A   1      35.143  25.659  24.542  1.00  0.00     0.348 HD
BRANCH   8  12
ATOM     12  C   UNL A   1      34.634  21.478  24.734  1.00  0.00     0.015 C 
ATOM     13  C   UNL A   1      35.724  20.443  24.971  1.00  0.00     0.005 C 
ENDBRANCH   8  12
BRANCH   8  14
ATOM     14  C   UNL A   1      36.681  22.929  24.177  1.00  0.00     0.015 C 
ATOM     15  C   UNL A   1      37.613  23.150  25.364  1.00  0.00     0.005 C 
ENDBRANCH   8  14
ENDBRANCH   6   7
BRANCH   6  16
ATOM     16  C   UNL A   1      31.844  25.306  24.941  1.00  0.00     0.094 C 
BRANCH  16  17
ATOM     17  C   UNL A   1      30.960  24.965  26.144  1.00  0.00     0.143 C 
BRANCH  17  18
ATOM     18  S   UNL A   1      30.953  23.340  26.864  1.00  0.00     0.147 S 
ATOM     19  C   UNL A   1      31.147  22.194  25.531  1.00  0.00     0.158 C 
ATOM     20  O   UNL A   1      32.163  23.217  27.657  1.00  0.00    -0.229 OA
ATOM     21  O   UNL A   1      29.663  23.121  27.484  1.00  0.00    -0.229 OA
ENDBRANCH  17  18
ENDBRANCH  16  17
ENDBRANCH   6  16
ENDBRANCH   4   6
ENDBRANCH   3   4
ENDBRANCH   2   3
ENDBRANCH   1   2
BRANCH   1  22
ATOM     22  O   UNL A   1      32.847  30.495  27.614  1.00  0.00    -0.374 OA
BRANCH  22  23
ATOM     23  C   UNL A   1      32.313  31.453  26.704  1.00  0.00     0.202 C 
BRANCH  23  24
ATOM     24  C   UNL A   1      31.721  32.709  27.360  1.00  0.00     0.261 C 
BRANCH  24  25
ATOM     25  O   UNL A   1      32.654  33.806  27.349  1.00  0.00    -0.460 OA
BRANCH  25  26
ATOM     26  C   UNL A   1      33.104  34.194  28.571  1.00  0.00     0.338 C 
ATOM     27  O   UNL A   1      32.521  34.888  29.383  1.00  0.00    -0.246 OA
BRANCH  26  28
ATOM     28  C   UNL A   1      34.372  33.499  28.879  1.00  0.00     0.060 A 
ATOM     29  C   UNL A   1      34.388  32.620  29.969  1.00  0.00     0.016 A 
ATOM     30  C   UNL A   1      35.530  33.708  28.133  1.00  0.00     0.016 A 
ATOM     31  C   UNL A   1      35.568  31.960  30.323  1.00  0.00     0.010 A 
ATOM     32  C   UNL A   1      36.710  33.041  28.484  1.00  0.00     0.010 A 
ATOM     33  C   UNL A   1      36.744  32.179  29.593  1.00  0.00    -0.014 A 
BRANCH  33  34
ATOM     34  C   UNL A   1      38.034  31.606  30.057  1.00  0.00     0.031 A 
ATOM     35  C   UNL A   1      38.804  32.316  31.137  1.00  0.00     0.074 A 
ATOM     36  C   UNL A   1      38.513  30.458  29.542  1.00  0.00     0.049 A 
ATOM     37  N   UNL A   1      39.966  32.017  31.662  1.00  0.00    -0.248 NA
ATOM     38  C   UNL A   1      38.179  33.521  31.707  1.00  0.00     0.031 C 
ATOM     39  C   UNL A   1      37.856  29.646  28.519  1.00  0.00     0.029 A 
ATOM     40  N   UNL A   1      39.676  29.778  29.815  1.00  0.00    -0.354 N 
ATOM     41  C   UNL A   1      40.212  32.995  32.617  1.00  0.00     0.074 A 
ATOM     42  C   UNL A   1      39.095  33.914  32.581  1.00  0.00     0.031 C 
ATOM     43  C   UNL A   1      38.623  28.575  28.254  1.00  0.00     0.029 A 
ATOM     44  C   UNL A   1      39.844  28.647  29.054  1.00  0.00     0.049 A 
ATOM     45  H   UNL A   1      40.326  30.073  30.493  1.00  0.00     0.167 HD
ATOM     46  C   UNL A   1      41.267  33.117  33.457  1.00  0.00     0.031 A 
ATOM     47  C   UNL A   1      40.879  27.784  28.989  1.00  0.00     0.031 A 
ATOM     48  C   UNL A   1      42.389  32.219  33.493  1.00  0.00     0.049 A 
ATOM     49  C   UNL A   1      42.093  28.009  29.853  1.00  0.00     0.074 A 
ATOM     50  C   UNL A   1      43.498  32.259  34.321  1.00  0.00     0.029 A 
ATOM     51  N   UNL A   1      42.550  31.125  32.659  1.00  0.00    -0.354 N 
ATOM     52  N   UNL A   1      42.301  28.923  30.770  1.00  0.00    -0.248 NA
ATOM     53  C   UNL A   1      43.222  27.084  29.665  1.00  0.00     0.031 C 
ATOM     54  C   UNL A   1      44.356  31.219  33.951  1.00  0.00     0.029 A 
ATOM     55  C   UNL A   1      43.757  30.502  32.929  1.00  0.00     0.049 A 
ATOM     56  H   UNL A   1      41.903  30.833  31.977  1.00  0.00     0.167 HD
ATOM     57  C   UNL A   1      43.570  28.670  31.278  1.00  0.00     0.074 A 
ATOM     58  C   UNL A   1      44.080  27.508  30.584  1.00  0.00     0.031 C 
ATOM     59  C   UNL A   1      44.253  29.345  32.234  1.00  0.00     0.031 A 
BRANCH  46  60
ATOM     60  C   UNL A   1      41.269  34.283  34.402  1.00  0.00    -0.014 A 
ATOM     61  C   UNL A   1      41.907  35.487  34.065  1.00  0.00     0.009 A 
ATOM     62  C   UNL A   1      40.578  34.194  35.620  1.00  0.00     0.009 A 
ATOM     63  C   UNL A   1      41.872  36.573  34.942  1.00  0.00     0.001 A 
ATOM     64  C   UNL A   1      40.525  35.290  36.484  1.00  0.00     0.001 A 
ATOM     65  C   UNL A   1      41.176  36.475  36.147  1.00  0.00     0.000 A 
ENDBRANCH  46  60
BRANCH  47  66
ATOM     66  C   UNL A   1      40.849  26.642  28.037  1.00  0.00    -0.014 A 
ATOM     67  C   UNL A   1      40.360  25.389  28.436  1.00  0.00     0.009 A 
ATOM     68  C   UNL A   1      41.365  26.785  26.739  1.00  0.00     0.009 A 
ATOM     69  C   UNL A   1      40.417  24.297  27.567  1.00  0.00     0.001 A 
ATOM     70  C   UNL A   1      41.394  25.699  25.863  1.00  0.00     0.001 A 
ATOM     71  C   UNL A   1      40.930  24.453  26.280  1.00  0.00     0.000 A 
ENDBRANCH  47  66
BRANCH  59  72
ATOM     72  C   UNL A   1      45.617  28.834  32.606  1.00  0.00    -0.014 A 
ATOM     73  C   UNL A   1      46.771  29.331  31.981  1.00  0.00     0.009 A 
ATOM     74  C   UNL A   1      45.752  27.891  33.637  1.00  0.00     0.009 A 
ATOM     75  C   UNL A   1      48.033  28.875  32.368  1.00  0.00     0.001 A 
ATOM     76  C   UNL A   1      47.016  27.457  34.038  1.00  0.00     0.001 A 
ATOM     77  C   UNL A   1      48.156  27.945  33.399  1.00  0.00     0.000 A 
ENDBRANCH  59  72
ENDBRANCH  33  34
ENDBRANCH  26  28
ENDBRANCH  25  26
ENDBRANCH  24  25
ENDBRANCH  23  24
ENDBRANCH  22  23
ENDBRANCH   1  22
TORSDOF 20
ENDMDL
MODEL 3
REMARK VINA RESULT:      -8.3      1.658      2.243
REMARK SMILES CCC1(CC)C[NH+]([C@H](CCS(C)(=O)=O)C(=O)OCCOCCOC(=O)c2ccc(-c3c4nc(c(-c5ccccc5)c5ccc([nH]5)c(-c5ccccc5)c5nc(c(-c6ccccc6)c6ccc3[nH]6)C=C5)C=C4)cc2)C1
REMARK SMILES IDX 19 1 18 2 17 3 15 4 16 5 8 6 7 7 3 8 6 9 74 10 2 12 1 13
REMARK SMILES IDX 4 14 5 15 9 16 10 17 11 18 12 19 13 20 14 21 20 22 21 23
REMARK SMILES IDX 22 24 23 25 24 26 25 27 26 28 27 29 73 30 28 31 72 32 29 33
REMARK SMILES IDX 30 34 31 35 66 36 32 37 71 38 65 39 67 40 33 41 70 42 64 43
REMARK SMILES IDX 63 44 34 46 56 47 41 48 55 49 42 50 45 51 54 52 68 53 43 54
REMARK SMILES IDX 44 55 53 57 69 58 46 59 35 60 36 61 40 62 37 63 39 64 38 65
REMARK SMILES IDX 57 66 58 67 62 68 59 69 61 70 60 71 47 72 48 73 52 74 49 75
REMARK SMILES IDX 51 76 50 77
REMARK H PARENT 7 11 67 45 45 56
REMARK Flexibility Score: inf
ROOT
ATOM      1  C   UNL A   1      33.616  30.177  26.729  1.00  0.00     0.202 C 
ENDROOT
BRANCH   1   2
ATOM      2  C   UNL A   1      33.658  28.701  26.320  1.00  0.00     0.261 C 
BRANCH   2   3
ATOM      3  O   UNL A   1      32.422  28.308  25.687  1.00  0.00    -0.459 OA
BRANCH   3   4
ATOM      4  C   UNL A   1      32.441  28.180  24.334  1.00  0.00     0.365 C 
ATOM      5  O   UNL A   1      33.340  28.587  23.608  1.00  0.00    -0.245 OA
BRANCH   4   6
ATOM      6  C   UNL A   1      31.203  27.424  23.810  1.00  0.00     0.296 C 
BRANCH   6   7
ATOM      7  N   UNL A   1      31.575  26.033  23.507  1.00  0.00    -0.322 N 
ATOM      8  C   UNL A   1      31.972  24.113  24.305  1.00  0.00     0.068 C 
ATOM      9  C   UNL A   1      30.698  24.993  24.023  1.00  0.00     0.275 C 
ATOM     10  C   UNL A   1      32.722  25.494  24.246  1.00  0.00     0.275 C 
ATOM     11  H   UNL A   1      31.644  26.163  22.496  1.00  0.00     0.348 HD
BRANCH   8  12
ATOM     12  C   UNL A   1      31.981  23.421  25.682  1.00  0.00     0.015 C 
ATOM     13  C   UNL A   1      30.607  23.393  26.336  1.00  0.00     0.005 C 
ENDBRANCH   8  12
BRANCH   8  14
ATOM     14  C   UNL A   1      32.321  23.151  23.148  1.00  0.00     0.015 C 
ATOM     15  C   UNL A   1      32.644  21.741  23.628  1.00  0.00     0.005 C 
ENDBRANCH   8  14
ENDBRANCH   6   7
BRANCH   6  16
ATOM     16  C   UNL A   1      30.216  28.281  22.953  1.00  0.00     0.094 C 
BRANCH  16  17
ATOM     17  C   UNL A   1      29.574  29.596  23.407  1.00  0.00     0.143 C 
BRANCH  17  18
ATOM     18  S   UNL A   1      28.165  30.281  22.569  1.00  0.00     0.147 S 
ATOM     19  C   UNL A   1      28.286  32.038  22.725  1.00  0.00     0.158 C 
ATOM     20  O   UNL A   1      28.332  30.009  21.153  1.00  0.00    -0.229 OA
ATOM     21  O   UNL A   1      26.967  29.834  23.249  1.00  0.00    -0.229 OA
ENDBRANCH  17  18
ENDBRANCH  16  17
ENDBRANCH   6  16
ENDBRANCH   4   6
ENDBRANCH   3   4
ENDBRANCH   2   3
ENDBRANCH   1   2
BRANCH   1  22
ATOM     22  O   UNL A   1      32.359  30.614  27.251  1.00  0.00    -0.374 OA
BRANCH  22  23
ATOM     23  C   UNL A   1      31.662  31.608  26.504  1.00  0.00     0.202 C 
BRANCH  23  24
ATOM     24  C   UNL A   1      31.756  33.031  27.074  1.00  0.00     0.261 C 
BRANCH  24  25
ATOM     25  O   UNL A   1      33.124  33.439  27.266  1.00  0.00    -0.460 OA
BRANCH  25  26
ATOM     26  C   UNL A   1      33.352  34.195  28.372  1.00  0.00     0.338 C 
ATOM     27  O   UNL A   1      32.661  35.103  28.797  1.00  0.00    -0.246 OA
BRANCH  26  28
ATOM     28  C   UNL A   1      34.498  33.644  29.126  1.00  0.00     0.060 A 
ATOM     29  C   UNL A   1      35.760  34.206  28.901  1.00  0.00     0.016 A 
ATOM     30  C   UNL A   1      34.354  32.587  30.023  1.00  0.00     0.016 A 
ATOM     31  C   UNL A   1      36.883  33.703  29.564  1.00  0.00     0.010 A 
ATOM     32  C   UNL A   1      35.478  32.088  30.693  1.00  0.00     0.010 A 
ATOM     33  C   UNL A   1      36.753  32.626  30.452  1.00  0.00    -0.014 A 
BRANCH  33  34
ATOM     34  C   UNL A   1      37.959  31.986  31.037  1.00  0.00     0.031 A 
ATOM     35  C   UNL A   1      38.648  30.888  30.274  1.00  0.00     0.074 A 
ATOM     36  C   UNL A   1      38.452  32.383  32.225  1.00  0.00     0.049 A 
ATOM     37  N   UNL A   1      39.687  30.166  30.613  1.00  0.00    -0.248 NA
ATOM     38  C   UNL A   1      38.098  30.564  28.947  1.00  0.00     0.031 C 
ATOM     39  C   UNL A   1      37.910  33.457  33.055  1.00  0.00     0.029 A 
ATOM     40  N   UNL A   1      39.530  31.917  32.940  1.00  0.00    -0.354 N 
ATOM     41  C   UNL A   1      39.911  29.302  29.548  1.00  0.00     0.074 A 
ATOM     42  C   UNL A   1      38.884  29.568  28.564  1.00  0.00     0.031 C 
ATOM     43  C   UNL A   1      38.661  33.572  34.164  1.00  0.00     0.029 A 
ATOM     44  C   UNL A   1      39.708  32.552  34.145  1.00  0.00     0.049 A 
ATOM     45  H   UNL A   1      40.120  31.197  32.618  1.00  0.00     0.167 HD
ATOM     46  C   UNL A   1      40.886  28.377  29.395  1.00  0.00     0.031 A 
ATOM     47  C   UNL A   1      40.596  32.319  35.133  1.00  0.00     0.031 A 
ATOM     48  C   UNL A   1      41.903  28.094  30.372  1.00  0.00     0.049 A 
ATOM     49  C   UNL A   1      41.599  31.203  34.986  1.00  0.00     0.074 A 
ATOM     50  C   UNL A   1      42.940  27.180  30.295  1.00  0.00     0.029 A 
ATOM     51  N   UNL A   1      42.006  28.715  31.605  1.00  0.00    -0.354 N 
ATOM     52  N   UNL A   1      41.816  30.412  33.964  1.00  0.00    -0.248 NA
ATOM     53  C   UNL A   1      42.477  30.944  36.139  1.00  0.00     0.031 C 
ATOM     54  C   UNL A   1      43.638  27.210  31.506  1.00  0.00     0.029 A 
ATOM     55  C   UNL A   1      43.067  28.179  32.314  1.00  0.00     0.049 A 
ATOM     56  H   UNL A   1      41.412  29.430  31.929  1.00  0.00     0.167 HD
ATOM     57  C   UNL A   1      42.863  29.580  34.342  1.00  0.00     0.074 A 
ATOM     58  C   UNL A   1      43.252  29.971  35.679  1.00  0.00     0.031 C 
ATOM     59  C   UNL A   1      43.447  28.577  33.643  1.00  0.00     0.031 A 
BRANCH  46  60
ATOM     60  C   UNL A   1      40.892  27.579  28.123  1.00  0.00    -0.014 A 
ATOM     61  C   UNL A   1      41.599  28.023  26.995  1.00  0.00     0.009 A 
ATOM     62  C   UNL A   1      40.227  26.345  28.071  1.00  0.00     0.009 A 
ATOM     63  C   UNL A   1      41.620  27.254  25.830  1.00  0.00     0.001 A 
ATOM     64  C   UNL A   1      40.271  25.567  26.912  1.00  0.00     0.001 A 
ATOM     65  C   UNL A   1      40.962  26.024  25.791  1.00  0.00     0.000 A 
ENDBRANCH  46  60
BRANCH  47  66
ATOM     66  C   UNL A   1      40.561  33.122  36.384  1.00  0.00    -0.014 A 
ATOM     67  C   UNL A   1      41.414  34.224  36.553  1.00  0.00     0.009 A 
ATOM     68  C   UNL A   1      39.712  32.755  37.441  1.00  0.00     0.009 A 
ATOM     69  C   UNL A   1      41.439  34.920  37.764  1.00  0.00     0.001 A 
ATOM     70  C   UNL A   1      39.719  33.471  38.639  1.00  0.00     0.001 A 
ATOM     71  C   UNL A   1      40.590  34.546  38.804  1.00  0.00     0.000 A 
ENDBRANCH  47  66
BRANCH  59  72
ATOM     72  C   UNL A   1      44.585  27.844  34.297  1.00  0.00    -0.014 A 
ATOM     73  C   UNL A   1      45.903  28.312  34.191  1.00  0.00     0.009 A 
ATOM     74  C   UNL A   1      44.325  26.708  35.079  1.00  0.00     0.009 A 
ATOM     75  C   UNL A   1      46.943  27.642  34.840  1.00  0.00     0.001 A 
ATOM     76  C   UNL A   1      45.363  26.055  35.747  1.00  0.00     0.001 A 
ATOM     77  C   UNL A   1      46.672  26.519  35.621  1.00  0.00     0.000 A 
ENDBRANCH  59  72
ENDBRANCH  33  34
ENDBRANCH  26  28
ENDBRANCH  25  26
ENDBRANCH  24  25
ENDBRANCH  23  24
ENDBRANCH  22  23
ENDBRANCH   1  22
TORSDOF 20
ENDMDL
