MODEL 1
REMARK VINA RESULT:      -9.9      0.000      0.000
REMARK SMILES CC(C)[NH2+][C@@]1(C(=O)OCCOCCOC(=O)c2ccc(-c3c4nc(c(-c5ccccc5)c5ccc([nH]5)c(-c5ccccc5)c5nc(c(-c6ccccc6)c6ccc3[nH]6)C=C5)C=C4)cc2)CC[C@H](Oc2ccccc2F)C1
REMARK SMILES IDX 11 1 10 2 9 3 8 4 6 5 7 6 5 7 65 8 76 9 66 10 67 11 4 12
REMARK SMILES IDX 2 15 1 16 3 17 68 18 69 19 70 20 74 21 71 22 73 23 75 24
REMARK SMILES IDX 72 25 12 26 13 27 14 28 15 29 16 30 17 31 18 32 64 33 19 34
REMARK SMILES IDX 63 35 20 36 21 37 22 38 57 39 23 40 62 41 56 42 58 43 24 44
REMARK SMILES IDX 61 45 55 46 54 47 25 49 47 50 32 51 46 52 33 53 36 54 45 55
REMARK SMILES IDX 59 56 34 57 35 58 44 60 60 61 37 62 26 63 27 64 31 65 28 66
REMARK SMILES IDX 30 67 29 68 48 69 49 70 53 71 50 72 52 73 51 74 38 75 39 76
REMARK SMILES IDX 43 77 40 78 42 79 41 80
REMARK H PARENT 4 13 4 14 58 48 36 59
REMARK Flexibility Score: inf
ROOT
ATOM      1  O   UNL A   1      32.915  30.796  27.538  1.00  0.00    -0.374 OA
ENDROOT
BRANCH   1   2
ATOM      2  C   UNL A   1      33.797  30.079  26.680  1.00  0.00     0.202 C 
BRANCH   2   3
ATOM      3  C   UNL A   1      33.869  28.559  26.840  1.00  0.00     0.261 C 
BRANCH   3   4
ATOM      4  O   UNL A   1      33.601  27.873  25.607  1.00  0.00    -0.459 OA
BRANCH   4   5
ATOM      5  C   UNL A   1      32.293  27.570  25.399  1.00  0.00     0.368 C 
ATOM      6  O   UNL A   1      31.400  27.805  26.209  1.00  0.00    -0.245 OA
BRANCH   5   7
ATOM      7  C   UNL A   1      32.018  26.904  24.001  1.00  0.00     0.198 C 
ATOM      8  C   UNL A   1      32.860  27.719  23.010  1.00  0.00     0.085 C 
ATOM      9  C   UNL A   1      30.601  27.078  23.425  1.00  0.00     0.126 C 
ATOM     10  C   UNL A   1      31.996  28.960  22.769  1.00  0.00     0.052 C 
ATOM     11  C   UNL A   1      30.564  28.431  22.692  1.00  0.00     0.180 C 
BRANCH   7  12
ATOM     12  N   UNL A   1      32.440  25.498  24.176  1.00  0.00    -0.330 N 
ATOM     13  H   UNL A   1      32.475  25.338  25.182  1.00  0.00     0.347 HD
ATOM     14  H   UNL A   1      31.751  25.005  23.608  1.00  0.00     0.347 HD
BRANCH  12  15
ATOM     15  C   UNL A   1      33.687  24.978  23.642  1.00  0.00     0.176 C 
ATOM     16  C   UNL A   1      34.514  24.545  24.862  1.00  0.00     0.075 C 
ATOM     17  C   UNL A   1      33.513  23.743  22.749  1.00  0.00     0.075 C 
ENDBRANCH  12  15
ENDBRANCH   7  12
BRANCH  11  18
ATOM     18  O   UNL A   1      29.596  29.222  23.364  1.00  0.00    -0.487 OA
BRANCH  18  19
ATOM     19  C   UNL A   1      28.962  30.238  22.717  1.00  0.00     0.155 A 
ATOM     20  C   UNL A   1      28.349  30.167  21.472  1.00  0.00     0.049 A 
ATOM     21  C   UNL A   1      29.035  31.477  23.354  1.00  0.00     0.165 A 
ATOM     22  C   UNL A   1      27.911  31.340  20.841  1.00  0.00     0.004 A 
ATOM     23  C   UNL A   1      28.608  32.648  22.737  1.00  0.00     0.043 A 
ATOM     24  F   UNL A   1      29.507  31.538  24.603  1.00  0.00    -0.203 F 
ATOM     25  C   UNL A   1      28.066  32.582  21.459  1.00  0.00     0.003 A 
ENDBRANCH  18  19
ENDBRANCH  11  18
ENDBRANCH   5   7
ENDBRANCH   4   5
ENDBRANCH   3   4
ENDBRANCH   2   3
ENDBRANCH   1   2
BRANCH   1  26
ATOM     26  C   UNL A   1      31.831  31.499  26.935  1.00  0.00     0.202 C 
BRANCH  26  27
ATOM     27  C   UNL A   1      31.864  33.036  26.956  1.00  0.00     0.261 C 
BRANCH  27  28
ATOM     28  O   UNL A   1      33.172  33.579  27.207  1.00  0.00    -0.460 OA
BRANCH  28  29
ATOM     29  C   UNL A   1      33.334  34.171  28.417  1.00  0.00     0.338 C 
ATOM     30  O   UNL A   1      32.570  34.946  28.976  1.00  0.00    -0.246 OA
BRANCH  29  31
ATOM     31  C   UNL A   1      34.530  33.618  29.077  1.00  0.00     0.060 A 
ATOM     32  C   UNL A   1      35.791  34.125  28.736  1.00  0.00     0.016 A 
ATOM     33  C   UNL A   1      34.414  32.586  30.001  1.00  0.00     0.016 A 
ATOM     34  C   UNL A   1      36.940  33.622  29.352  1.00  0.00     0.010 A 
ATOM     35  C   UNL A   1      35.566  32.085  30.616  1.00  0.00     0.010 A 
ATOM     36  C   UNL A   1      36.839  32.597  30.302  1.00  0.00    -0.014 A 
BRANCH  36  37
ATOM     37  C   UNL A   1      38.049  31.992  30.920  1.00  0.00     0.031 A 
ATOM     38  C   UNL A   1      38.776  30.898  30.184  1.00  0.00     0.074 A 
ATOM     39  C   UNL A   1      38.479  32.375  32.140  1.00  0.00     0.049 A 
ATOM     40  N   UNL A   1      39.769  30.147  30.585  1.00  0.00    -0.248 NA
ATOM     41  C   UNL A   1      38.311  30.601  28.819  1.00  0.00     0.031 C 
ATOM     42  C   UNL A   1      37.891  33.435  32.958  1.00  0.00     0.029 A 
ATOM     43  N   UNL A   1      39.511  31.894  32.913  1.00  0.00    -0.354 N 
ATOM     44  C   UNL A   1      40.026  29.271  29.537  1.00  0.00     0.074 A 
ATOM     45  C   UNL A   1      39.068  29.564  28.494  1.00  0.00     0.031 C 
ATOM     46  C   UNL A   1      38.570  33.526  34.115  1.00  0.00     0.029 A 
ATOM     47  C   UNL A   1      39.610  32.500  34.143  1.00  0.00     0.049 A 
ATOM     48  H   UNL A   1      40.122  31.183  32.612  1.00  0.00     0.167 HD
ATOM     49  C   UNL A   1      40.979  28.315  29.445  1.00  0.00     0.031 A 
ATOM     50  C   UNL A   1      40.425  32.239  35.186  1.00  0.00     0.031 A 
ATOM     51  C   UNL A   1      41.952  28.036  30.465  1.00  0.00     0.049 A 
ATOM     52  C   UNL A   1      41.428  31.117  35.082  1.00  0.00     0.074 A 
ATOM     53  C   UNL A   1      42.997  27.129  30.429  1.00  0.00     0.029 A 
ATOM     54  N   UNL A   1      41.998  28.655  31.702  1.00  0.00    -0.354 N 
ATOM     55  N   UNL A   1      41.696  30.338  34.062  1.00  0.00    -0.248 NA
ATOM     56  C   UNL A   1      42.237  30.835  36.278  1.00  0.00     0.031 C 
ATOM     57  C   UNL A   1      43.632  27.147  31.674  1.00  0.00     0.029 A 
ATOM     58  C   UNL A   1      43.023  28.112  32.459  1.00  0.00     0.049 A 
ATOM     59  H   UNL A   1      41.393  29.373  32.000  1.00  0.00     0.167 HD
ATOM     60  C   UNL A   1      42.720  29.498  34.485  1.00  0.00     0.074 A 
ATOM     61  C   UNL A   1      43.040  29.874  35.844  1.00  0.00     0.031 C 
ATOM     62  C   UNL A   1      43.337  28.499  33.809  1.00  0.00     0.031 A 
BRANCH  49  63
ATOM     63  C   UNL A   1      41.008  27.470  28.202  1.00  0.00    -0.014 A 
ATOM     64  C   UNL A   1      40.298  26.262  28.121  1.00  0.00     0.009 A 
ATOM     65  C   UNL A   1      41.699  27.931  27.070  1.00  0.00     0.009 A 
ATOM     66  C   UNL A   1      40.302  25.522  26.937  1.00  0.00     0.001 A 
ATOM     67  C   UNL A   1      41.676  27.205  25.880  1.00  0.00     0.001 A 
ATOM     68  C   UNL A   1      40.983  25.997  25.816  1.00  0.00     0.000 A 
ENDBRANCH  49  63
BRANCH  50  69
ATOM     69  C   UNL A   1      40.317  33.017  36.452  1.00  0.00    -0.014 A 
ATOM     70  C   UNL A   1      41.147  34.127  36.681  1.00  0.00     0.009 A 
ATOM     71  C   UNL A   1      39.439  32.611  37.469  1.00  0.00     0.009 A 
ATOM     72  C   UNL A   1      41.128  34.787  37.913  1.00  0.00     0.001 A 
ATOM     73  C   UNL A   1      39.398  33.294  38.687  1.00  0.00     0.001 A 
ATOM     74  C   UNL A   1      40.253  34.371  38.913  1.00  0.00     0.000 A 
ENDBRANCH  50  69
BRANCH  62  75
ATOM     75  C   UNL A   1      44.439  27.756  34.511  1.00  0.00    -0.014 A 
ATOM     76  C   UNL A   1      44.179  26.578  35.227  1.00  0.00     0.009 A 
ATOM     77  C   UNL A   1      45.765  28.206  34.399  1.00  0.00     0.009 A 
ATOM     78  C   UNL A   1      45.224  25.878  35.836  1.00  0.00     0.001 A 
ATOM     79  C   UNL A   1      46.809  27.487  34.983  1.00  0.00     0.001 A 
ATOM     80  C   UNL A   1      46.537  26.328  35.707  1.00  0.00     0.000 A 
ENDBRANCH  62  75
ENDBRANCH  36  37
ENDBRANCH  29  31
ENDBRANCH  28  29
ENDBRANCH  27  28
ENDBRANCH  26  27
ENDBRANCH   1  26
TORSDOF 18
ENDMDL
MODEL 2
REMARK VINA RESULT:      -9.8      5.381     10.232
REMARK SMILES CC(C)[NH2+][C@@]1(C(=O)OCCOCCOC(=O)c2ccc(-c3c4nc(c(-c5ccccc5)c5ccc([nH]5)c(-c5ccccc5)c5nc(c(-c6ccccc6)c6ccc3[nH]6)C=C5)C=C4)cc2)CC[C@H](Oc2ccccc2F)C1
REMARK SMILES IDX 11 1 10 2 9 3 8 4 6 5 7 6 5 7 65 8 76 9 66 10 67 11 4 12
REMARK SMILES IDX 2 15 1 16 3 17 68 18 69 19 70 20 74 21 71 22 73 23 75 24
REMARK SMILES IDX 72 25 12 26 13 27 14 28 15 29 16 30 17 31 18 32 64 33 19 34
REMARK SMILES IDX 63 35 20 36 21 37 22 38 57 39 23 40 62 41 56 42 58 43 24 44
REMARK SMILES IDX 61 45 55 46 54 47 25 49 47 50 32 51 46 52 33 53 36 54 45 55
REMARK SMILES IDX 59 56 34 57 35 58 44 60 60 61 37 62 26 63 27 64 31 65 28 66
REMARK SMILES IDX 30 67 29 68 48 69 49 70 53 71 50 72 52 73 51 74 38 75 39 76
REMARK SMILES IDX 43 77 40 78 42 79 41 80
REMARK H PARENT 4 13 4 14 58 48 36 59
REMARK Flexibility Score: inf
ROOT
ATOM      1  O   UNL A   1      37.821  21.853  24.747  1.00  0.00    -0.374 OA
ENDROOT
BRANCH   1   2
ATOM      2  C   UNL A   1      37.190  22.771  25.634  1.00  0.00     0.202 C 
BRANCH   2   3
ATOM      3  C   UNL A   1      36.428  23.947  25.021  1.00  0.00     0.261 C 
BRANCH   3   4
ATOM      4  O   UNL A   1      35.034  23.926  25.368  1.00  0.00    -0.459 OA
BRANCH   4   5
ATOM      5  C   UNL A   1      34.264  23.136  24.577  1.00  0.00     0.368 C 
ATOM      6  O   UNL A   1      34.611  22.730  23.471  1.00  0.00    -0.245 OA
BRANCH   5   7
ATOM      7  C   UNL A   1      32.878  22.762  25.221  1.00  0.00     0.198 C 
ATOM      8  C   UNL A   1      33.211  22.404  26.676  1.00  0.00     0.085 C 
ATOM      9  C   UNL A   1      32.218  21.465  24.722  1.00  0.00     0.126 C 
ATOM     10  C   UNL A   1      33.728  20.966  26.563  1.00  0.00     0.052 C 
ATOM     11  C   UNL A   1      32.812  20.301  25.535  1.00  0.00     0.180 C 
BRANCH   7  12
ATOM     12  N   UNL A   1      32.054  23.977  25.047  1.00  0.00    -0.330 N 
ATOM     13  H   UNL A   1      32.604  24.609  24.467  1.00  0.00     0.347 HD
ATOM     14  H   UNL A   1      31.185  23.585  24.686  1.00  0.00     0.347 HD
BRANCH  12  15
ATOM     15  C   UNL A   1      31.576  24.771  26.166  1.00  0.00     0.176 C 
ATOM     16  C   UNL A   1      32.301  26.121  26.058  1.00  0.00     0.075 C 
ATOM     17  C   UNL A   1      30.069  25.060  26.123  1.00  0.00     0.075 C 
ENDBRANCH  12  15
ENDBRANCH   7  12
BRANCH  11  18
ATOM     18  O   UNL A   1      33.472  19.459  24.602  1.00  0.00    -0.487 OA
BRANCH  18  19
ATOM     19  C   UNL A   1      33.452  18.107  24.756  1.00  0.00     0.155 A 
ATOM     20  C   UNL A   1      32.352  17.331  25.098  1.00  0.00     0.049 A 
ATOM     21  C   UNL A   1      34.696  17.485  24.641  1.00  0.00     0.165 A 
ATOM     22  C   UNL A   1      32.524  15.977  25.417  1.00  0.00     0.004 A 
ATOM     23  C   UNL A   1      34.881  16.143  24.958  1.00  0.00     0.043 A 
ATOM     24  F   UNL A   1      35.737  18.193  24.190  1.00  0.00    -0.203 F 
ATOM     25  C   UNL A   1      33.790  15.390  25.375  1.00  0.00     0.003 A 
ENDBRANCH  18  19
ENDBRANCH  11  18
ENDBRANCH   5   7
ENDBRANCH   4   5
ENDBRANCH   3   4
ENDBRANCH   2   3
ENDBRANCH   1   2
BRANCH   1  26
ATOM     26  C   UNL A   1      37.638  20.461  24.995  1.00  0.00     0.202 C 
BRANCH  26  27
ATOM     27  C   UNL A   1      38.876  19.551  24.962  1.00  0.00     0.261 C 
BRANCH  27  28
ATOM     28  O   UNL A   1      39.578  19.490  26.216  1.00  0.00    -0.460 OA
BRANCH  28  29
ATOM     29  C   UNL A   1      40.927  19.601  26.134  1.00  0.00     0.338 C 
ATOM     30  O   UNL A   1      41.709  18.826  25.601  1.00  0.00    -0.246 OA
BRANCH  29  31
ATOM     31  C   UNL A   1      41.342  20.914  26.658  1.00  0.00     0.060 A 
ATOM     32  C   UNL A   1      41.698  21.926  25.756  1.00  0.00     0.016 A 
ATOM     33  C   UNL A   1      41.413  21.138  28.029  1.00  0.00     0.016 A 
ATOM     34  C   UNL A   1      42.090  23.182  26.228  1.00  0.00     0.010 A 
ATOM     35  C   UNL A   1      41.805  22.396  28.497  1.00  0.00     0.010 A 
ATOM     36  C   UNL A   1      42.145  23.431  27.605  1.00  0.00    -0.014 A 
BRANCH  36  37
ATOM     37  C   UNL A   1      42.628  24.733  28.138  1.00  0.00     0.031 A 
ATOM     38  C   UNL A   1      41.630  25.828  28.405  1.00  0.00     0.074 A 
ATOM     39  C   UNL A   1      43.941  24.961  28.347  1.00  0.00     0.049 A 
ATOM     40  N   UNL A   1      41.839  27.074  28.748  1.00  0.00    -0.248 NA
ATOM     41  C   UNL A   1      40.210  25.478  28.250  1.00  0.00     0.031 C 
ATOM     42  C   UNL A   1      45.017  23.989  28.156  1.00  0.00     0.029 A 
ATOM     43  N   UNL A   1      44.595  26.103  28.751  1.00  0.00    -0.354 N 
ATOM     44  C   UNL A   1      40.581  27.661  28.818  1.00  0.00     0.074 A 
ATOM     45  C   UNL A   1      39.617  26.645  28.456  1.00  0.00     0.031 C 
ATOM     46  C   UNL A   1      46.193  24.573  28.444  1.00  0.00     0.029 A 
ATOM     47  C   UNL A   1      45.963  25.972  28.792  1.00  0.00     0.049 A 
ATOM     48  H   UNL A   1      44.125  26.935  28.990  1.00  0.00     0.167 HD
ATOM     49  C   UNL A   1      40.253  28.927  29.162  1.00  0.00     0.031 A 
ATOM     50  C   UNL A   1      46.923  26.884  29.051  1.00  0.00     0.031 A 
ATOM     51  C   UNL A   1      41.203  29.936  29.550  1.00  0.00     0.049 A 
ATOM     52  C   UNL A   1      46.531  28.308  29.359  1.00  0.00     0.074 A 
ATOM     53  C   UNL A   1      40.954  31.228  29.978  1.00  0.00     0.029 A 
ATOM     54  N   UNL A   1      42.576  29.768  29.551  1.00  0.00    -0.354 N 
ATOM     55  N   UNL A   1      45.334  28.830  29.478  1.00  0.00    -0.248 NA
ATOM     56  C   UNL A   1      47.626  29.270  29.561  1.00  0.00     0.031 C 
ATOM     57  C   UNL A   1      42.182  31.867  30.170  1.00  0.00     0.029 A 
ATOM     58  C   UNL A   1      43.192  30.950  29.924  1.00  0.00     0.049 A 
ATOM     59  H   UNL A   1      43.045  28.933  29.321  1.00  0.00     0.167 HD
ATOM     60  C   UNL A   1      45.534  30.169  29.796  1.00  0.00     0.074 A 
ATOM     61  C   UNL A   1      46.964  30.375  29.872  1.00  0.00     0.031 C 
ATOM     62  C   UNL A   1      44.615  31.143  30.002  1.00  0.00     0.031 A 
BRANCH  49  63
ATOM     63  C   UNL A   1      38.802  29.316  29.113  1.00  0.00    -0.014 A 
ATOM     64  C   UNL A   1      38.210  29.790  27.933  1.00  0.00     0.009 A 
ATOM     65  C   UNL A   1      38.000  29.133  30.251  1.00  0.00     0.009 A 
ATOM     66  C   UNL A   1      36.848  30.096  27.901  1.00  0.00     0.001 A 
ATOM     67  C   UNL A   1      36.635  29.411  30.208  1.00  0.00     0.001 A 
ATOM     68  C   UNL A   1      36.061  29.899  29.035  1.00  0.00     0.000 A 
ENDBRANCH  49  63
BRANCH  50  69
ATOM     69  C   UNL A   1      48.364  26.511  28.996  1.00  0.00    -0.014 A 
ATOM     70  C   UNL A   1      49.073  26.575  27.786  1.00  0.00     0.009 A 
ATOM     71  C   UNL A   1      49.019  26.017  30.135  1.00  0.00     0.009 A 
ATOM     72  C   UNL A   1      50.391  26.115  27.708  1.00  0.00     0.001 A 
ATOM     73  C   UNL A   1      50.347  25.591  30.064  1.00  0.00     0.001 A 
ATOM     74  C   UNL A   1      51.026  25.626  28.847  1.00  0.00     0.000 A 
ENDBRANCH  50  69
BRANCH  62  75
ATOM     75  C   UNL A   1      45.117  32.515  30.356  1.00  0.00    -0.014 A 
ATOM     76  C   UNL A   1      45.453  33.444  29.360  1.00  0.00     0.009 A 
ATOM     77  C   UNL A   1      45.193  32.904  31.703  1.00  0.00     0.009 A 
ATOM     78  C   UNL A   1      45.876  34.729  29.708  1.00  0.00     0.001 A 
ATOM     79  C   UNL A   1      45.586  34.198  32.046  1.00  0.00     0.001 A 
ATOM     80  C   UNL A   1      45.935  35.108  31.049  1.00  0.00     0.000 A 
ENDBRANCH  62  75
ENDBRANCH  36  37
ENDBRANCH  29  31
ENDBRANCH  28  29
ENDBRANCH  27  28
ENDBRANCH  26  27
ENDBRANCH   1  26
TORSDOF 18
ENDMDL
MODEL 3
REMARK VINA RESULT:      -9.7      1.513      5.980
REMARK SMILES CC(C)[NH2+][C@@]1(C(=O)OCCOCCOC(=O)c2ccc(-c3c4nc(c(-c5ccccc5)c5ccc([nH]5)c(-c5ccccc5)c5nc(c(-c6ccccc6)c6ccc3[nH]6)C=C5)C=C4)cc2)CC[C@H](Oc2ccccc2F)C1
REMARK SMILES IDX 11 1 10 2 9 3 8 4 6 5 7 6 5 7 65 8 76 9 66 10 67 11 4 12
REMARK SMILES IDX 2 15 1 16 3 17 68 18 69 19 70 20 74 21 71 22 73 23 75 24
REMARK SMILES IDX 72 25 12 26 13 27 14 28 15 29 16 30 17 31 18 32 64 33 19 34
REMARK SMILES IDX 63 35 20 36 21 37 22 38 57 39 23 40 62 41 56 42 58 43 24 44
REMARK SMILES IDX 61 45 55 46 54 47 25 49 47 50 32 51 46 52 33 53 36 54 45 55
REMARK SMILES IDX 59 56 34 57 35 58 44 60 60 61 37 62 26 63 27 64 31 65 28 66
REMARK SMILES IDX 30 67 29 68 48 69 49 70 53 71 50 72 52 73 51 74 38 75 39 76
REMARK SMILES IDX 43 77 40 78 42 79 41 80
REMARK H PARENT 4 13 4 14 58 48 36 59
REMARK Flexibility Score: inf
ROOT
ATOM      1  O   UNL A   1      32.770  30.900  27.660  1.00  0.00    -0.374 OA
ENDROOT
BRANCH   1   2
ATOM      2  C   UNL A   1      33.992  30.448  27.085  1.00  0.00     0.202 C 
BRANCH   2   3
ATOM      3  C   UNL A   1      34.295  28.949  27.139  1.00  0.00     0.261 C 
BRANCH   3   4
ATOM      4  O   UNL A   1      33.930  28.281  25.920  1.00  0.00    -0.459 OA
BRANCH   4   5
ATOM      5  C   UNL A   1      32.698  27.711  25.933  1.00  0.00     0.368 C 
ATOM      6  O   UNL A   1      31.930  27.763  26.890  1.00  0.00    -0.245 OA
BRANCH   5   7
ATOM      7  C   UNL A   1      32.327  26.988  24.585  1.00  0.00     0.198 C 
ATOM      8  C   UNL A   1      33.266  27.607  23.542  1.00  0.00     0.085 C 
ATOM      9  C   UNL A   1      30.944  27.311  23.993  1.00  0.00     0.126 C 
ATOM     10  C   UNL A   1      32.577  28.934  23.207  1.00  0.00     0.052 C 
ATOM     11  C   UNL A   1      31.086  28.600  23.162  1.00  0.00     0.180 C 
BRANCH   7  12
ATOM     12  N   UNL A   1      32.556  25.555  24.864  1.00  0.00    -0.330 N 
ATOM     13  H   UNL A   1      31.688  25.205  25.267  1.00  0.00     0.347 HD
ATOM     14  H   UNL A   1      32.865  25.216  23.954  1.00  0.00     0.347 HD
BRANCH  12  15
ATOM     15  C   UNL A   1      33.622  25.082  25.732  1.00  0.00     0.176 C 
ATOM     16  C   UNL A   1      33.049  23.863  26.468  1.00  0.00     0.075 C 
ATOM     17  C   UNL A   1      34.873  24.612  24.977  1.00  0.00     0.075 C 
ENDBRANCH  12  15
ENDBRANCH   7  12
BRANCH  11  18
ATOM     18  O   UNL A   1      30.238  29.561  23.771  1.00  0.00    -0.487 OA
BRANCH  18  19
ATOM     19  C   UNL A   1      29.398  30.320  23.015  1.00  0.00     0.155 A 
ATOM     20  C   UNL A   1      28.860  29.976  21.782  1.00  0.00     0.049 A 
ATOM     21  C   UNL A   1      29.149  31.598  23.517  1.00  0.00     0.165 A 
ATOM     22  C   UNL A   1      28.172  30.936  21.027  1.00  0.00     0.004 A 
ATOM     23  C   UNL A   1      28.472  32.561  22.777  1.00  0.00     0.043 A 
ATOM     24  F   UNL A   1      29.553  31.899  24.756  1.00  0.00    -0.203 F 
ATOM     25  C   UNL A   1      28.003  32.235  21.510  1.00  0.00     0.003 A 
ENDBRANCH  18  19
ENDBRANCH  11  18
ENDBRANCH   5   7
ENDBRANCH   4   5
ENDBRANCH   3   4
ENDBRANCH   2   3
ENDBRANCH   1   2
BRANCH   1  26
ATOM     26  C   UNL A   1      31.972  31.800  26.895  1.00  0.00     0.202 C 
BRANCH  26  27
ATOM     27  C   UNL A   1      32.329  33.294  26.932  1.00  0.00     0.261 C 
BRANCH  27  28
ATOM     28  O   UNL A   1      32.234  33.876  28.244  1.00  0.00    -0.460 OA
BRANCH  28  29
ATOM     29  C   UNL A   1      33.218  34.752  28.565  1.00  0.00     0.338 C 
ATOM     30  O   UNL A   1      33.134  35.970  28.652  1.00  0.00    -0.246 OA
BRANCH  29  31
ATOM     31  C   UNL A   1      34.424  34.008  28.967  1.00  0.00     0.060 A 
ATOM     32  C   UNL A   1      34.388  33.231  30.132  1.00  0.00     0.016 A 
ATOM     33  C   UNL A   1      35.594  34.101  28.220  1.00  0.00     0.016 A 
ATOM     34  C   UNL A   1      35.518  32.511  30.532  1.00  0.00     0.010 A 
ATOM     35  C   UNL A   1      36.722  33.379  28.623  1.00  0.00     0.010 A 
ATOM     36  C   UNL A   1      36.697  32.576  29.779  1.00  0.00    -0.014 A 
BRANCH  36  37
ATOM     37  C   UNL A   1      37.937  31.880  30.218  1.00  0.00     0.031 A 
ATOM     38  C   UNL A   1      38.840  32.556  31.215  1.00  0.00     0.074 A 
ATOM     39  C   UNL A   1      38.283  30.679  29.711  1.00  0.00     0.049 A 
ATOM     40  N   UNL A   1      40.024  32.195  31.639  1.00  0.00    -0.248 NA
ATOM     41  C   UNL A   1      38.351  33.816  31.798  1.00  0.00     0.031 C 
ATOM     42  C   UNL A   1      37.496  29.896  28.758  1.00  0.00     0.029 A 
ATOM     43  N   UNL A   1      39.409  29.915  29.918  1.00  0.00    -0.354 N 
ATOM     44  C   UNL A   1      40.432  33.195  32.513  1.00  0.00     0.074 A 
ATOM     45  C   UNL A   1      39.384  34.192  32.537  1.00  0.00     0.031 C 
ATOM     46  C   UNL A   1      38.161  28.764  28.466  1.00  0.00     0.029 A 
ATOM     47  C   UNL A   1      39.441  28.762  29.170  1.00  0.00     0.049 A 
ATOM     48  H   UNL A   1      40.124  30.170  30.545  1.00  0.00     0.167 HD
ATOM     49  C   UNL A   1      41.570  33.275  33.239  1.00  0.00     0.031 A 
ATOM     50  C   UNL A   1      40.404  27.826  29.043  1.00  0.00     0.031 A 
ATOM     51  C   UNL A   1      42.604  32.276  33.242  1.00  0.00     0.049 A 
ATOM     52  C   UNL A   1      41.695  27.980  29.808  1.00  0.00     0.074 A 
ATOM     53  C   UNL A   1      43.764  32.244  33.998  1.00  0.00     0.029 A 
ATOM     54  N   UNL A   1      42.607  31.141  32.451  1.00  0.00    -0.354 N 
ATOM     55  N   UNL A   1      42.039  28.902  30.674  1.00  0.00    -0.248 NA
ATOM     56  C   UNL A   1      42.733  26.965  29.571  1.00  0.00     0.031 C 
ATOM     57  C   UNL A   1      44.504  31.124  33.611  1.00  0.00     0.029 A 
ATOM     58  C   UNL A   1      43.774  30.426  32.662  1.00  0.00     0.049 A 
ATOM     59  H   UNL A   1      41.888  30.881  31.830  1.00  0.00     0.167 HD
ATOM     60  C   UNL A   1      43.317  28.562  31.103  1.00  0.00     0.074 A 
ATOM     61  C   UNL A   1      43.680  27.339  30.420  1.00  0.00     0.031 C 
ATOM     62  C   UNL A   1      44.122  29.207  31.982  1.00  0.00     0.031 A 
BRANCH  49  63
ATOM     63  C   UNL A   1      41.782  34.502  34.081  1.00  0.00    -0.014 A 
ATOM     64  C   UNL A   1      42.401  35.649  33.562  1.00  0.00     0.009 A 
ATOM     65  C   UNL A   1      41.286  34.532  35.394  1.00  0.00     0.009 A 
ATOM     66  C   UNL A   1      42.539  36.793  34.350  1.00  0.00     0.001 A 
ATOM     67  C   UNL A   1      41.400  35.685  36.170  1.00  0.00     0.001 A 
ATOM     68  C   UNL A   1      42.032  36.813  35.649  1.00  0.00     0.000 A 
ENDBRANCH  49  63
BRANCH  50  69
ATOM     69  C   UNL A   1      40.224  26.666  28.125  1.00  0.00    -0.014 A 
ATOM     70  C   UNL A   1      39.607  25.487  28.576  1.00  0.00     0.009 A 
ATOM     71  C   UNL A   1      40.733  26.702  26.818  1.00  0.00     0.009 A 
ATOM     72  C   UNL A   1      39.542  24.359  27.754  1.00  0.00     0.001 A 
ATOM     73  C   UNL A   1      40.636  25.585  25.986  1.00  0.00     0.001 A 
ATOM     74  C   UNL A   1      40.054  24.410  26.459  1.00  0.00     0.000 A 
ENDBRANCH  50  69
BRANCH  62  75
ATOM     75  C   UNL A   1      45.462  28.597  32.281  1.00  0.00    -0.014 A 
ATOM     76  C   UNL A   1      46.607  28.972  31.561  1.00  0.00     0.009 A 
ATOM     77  C   UNL A   1      45.593  27.684  33.339  1.00  0.00     0.009 A 
ATOM     78  C   UNL A   1      47.853  28.427  31.883  1.00  0.00     0.001 A 
ATOM     79  C   UNL A   1      46.843  27.164  33.677  1.00  0.00     0.001 A 
ATOM     80  C   UNL A   1      47.971  27.531  32.944  1.00  0.00     0.000 A 
ENDBRANCH  62  75
ENDBRANCH  36  37
ENDBRANCH  29  31
ENDBRANCH  28  29
ENDBRANCH  27  28
ENDBRANCH  26  27
ENDBRANCH   1  26
TORSDOF 18
ENDMDL
