MODEL 1
REMARK VINA RESULT:     -12.0      0.000      0.000
REMARK SMILES COc1ccc(-n2c(SCc3cn(-c4ccc(C(=O)OCCOCCOC(=O)c5ccc(-c6c7nc(c(-c8ccccc8)c8ccc([nH]8)c(-c8ccccc8)c8nc(c(-c9ccccc9)c9ccc6[nH]9)C=C8)C=C7)cc5)cc4)nn3)nc3ccccc3c2=O)cc1
REMARK SMILES IDX 21 1 20 2 18 3 19 4 17 5 14 6 15 7 78 8 16 9 77 10 13 11
REMARK SMILES IDX 11 12 12 13 80 14 79 15 10 16 9 17 8 18 7 19 88 20 81 21
REMARK SMILES IDX 87 22 89 23 82 24 86 25 83 26 85 27 84 28 6 29 3 30 4 31
REMARK SMILES IDX 91 32 5 33 90 34 2 35 1 36 22 37 23 38 24 39 25 40 26 41
REMARK SMILES IDX 27 42 28 43 29 44 30 45 76 46 31 47 75 48 32 49 33 50 34 51
REMARK SMILES IDX 69 52 35 53 74 54 68 55 70 56 36 57 73 58 67 59 66 60 37 62
REMARK SMILES IDX 59 63 44 64 58 65 45 66 48 67 57 68 71 69 46 70 47 71 56 73
REMARK SMILES IDX 72 74 49 75 38 76 39 77 43 78 40 79 42 80 41 81 60 82 61 83
REMARK SMILES IDX 65 84 62 85 64 86 63 87 50 88 51 89 55 90 52 91 54 92 53 93
REMARK H PARENT 70 61 48 72
REMARK Flexibility Score: inf
ROOT
ATOM      1  C   UNL A   1      32.867  33.276  28.042  1.00  0.00     0.261 C 
ENDROOT
BRANCH   1   2
ATOM      2  O   UNL A   1      32.994  32.212  27.094  1.00  0.00    -0.460 OA
BRANCH   2   3
ATOM      3  C   UNL A   1      33.723  31.155  27.530  1.00  0.00     0.338 C 
ATOM      4  O   UNL A   1      34.621  31.154  28.347  1.00  0.00    -0.246 OA
BRANCH   3   5
ATOM      5  C   UNL A   1      33.118  29.923  26.990  1.00  0.00     0.060 A 
ATOM      6  C   UNL A   1      32.098  27.585  25.953  1.00  0.00     0.066 A 
ATOM      7  C   UNL A   1      33.262  27.530  26.725  1.00  0.00     0.029 A 
ATOM      8  C   UNL A   1      31.406  28.787  25.750  1.00  0.00     0.029 A 
ATOM      9  C   UNL A   1      33.788  28.714  27.222  1.00  0.00     0.018 A 
ATOM     10  C   UNL A   1      31.910  29.959  26.290  1.00  0.00     0.018 A 
BRANCH   6  11
ATOM     11  N   UNL A   1      31.664  26.427  25.298  1.00  0.00    -0.220 N 
ATOM     12  C   UNL A   1      31.093  24.399  24.815  1.00  0.00     0.093 A 
ATOM     13  C   UNL A   1      31.771  25.139  25.749  1.00  0.00     0.141 A 
ATOM     14  N   UNL A   1      30.678  25.230  23.810  1.00  0.00    -0.134 NA
ATOM     15  N   UNL A   1      30.978  26.470  24.143  1.00  0.00    -0.062 NA
BRANCH  12  16
ATOM     16  C   UNL A   1      30.756  22.969  24.867  1.00  0.00     0.138 C 
BRANCH  16  17
ATOM     17  S   UNL A   1      32.022  21.952  25.592  1.00  0.00    -0.081 SA
BRANCH  17  18
ATOM     18  C   UNL A   1      32.905  21.256  24.167  1.00  0.00     0.176 A 
ATOM     19  N   UNL A   1      33.799  20.262  24.524  1.00  0.00    -0.255 N 
ATOM     20  C   UNL A   1      35.102  20.673  24.784  1.00  0.00     0.266 A 
ATOM     21  N   UNL A   1      33.281  22.143  23.294  1.00  0.00    -0.223 NA
ATOM     22  C   UNL A   1      35.292  22.155  24.656  1.00  0.00     0.066 A 
ATOM     23  O   UNL A   1      36.035  19.960  25.135  1.00  0.00    -0.268 OA
ATOM     24  C   UNL A   1      34.394  22.838  23.811  1.00  0.00     0.079 A 
ATOM     25  C   UNL A   1      36.096  22.864  25.541  1.00  0.00     0.016 A 
ATOM     26  C   UNL A   1      34.374  24.230  23.777  1.00  0.00     0.029 A 
ATOM     27  C   UNL A   1      35.996  24.259  25.574  1.00  0.00     0.001 A 
ATOM     28  C   UNL A   1      35.159  24.941  24.680  1.00  0.00     0.002 A 
BRANCH  19  29
ATOM     29  C   UNL A   1      33.382  18.907  24.555  1.00  0.00     0.052 A 
ATOM     30  C   UNL A   1      33.210  16.122  24.798  1.00  0.00     0.119 A 
ATOM     31  C   UNL A   1      32.832  16.932  25.865  1.00  0.00     0.048 A 
ATOM     32  C   UNL A   1      33.541  16.699  23.572  1.00  0.00     0.048 A 
ATOM     33  C   UNL A   1      32.951  18.323  25.756  1.00  0.00     0.030 A 
ATOM     34  C   UNL A   1      33.591  18.093  23.440  1.00  0.00     0.030 A 
BRANCH  30  35
ATOM     35  O   UNL A   1      33.165  14.766  24.971  1.00  0.00    -0.497 OA
ATOM     36  C   UNL A   1      32.113  14.349  25.844  1.00  0.00     0.278 C 
ENDBRANCH  30  35
ENDBRANCH  19  29
ENDBRANCH  17  18
ENDBRANCH  16  17
ENDBRANCH  12  16
ENDBRANCH   6  11
ENDBRANCH   3   5
ENDBRANCH   2   3
ENDBRANCH   1   2
BRANCH   1  37
ATOM     37  C   UNL A   1      33.806  34.438  27.721  1.00  0.00     0.202 C 
BRANCH  37  38
ATOM     38  O   UNL A   1      33.583  35.691  28.366  1.00  0.00    -0.374 OA
BRANCH  38  39
ATOM     39  C   UNL A   1      34.003  35.897  29.710  1.00  0.00     0.202 C 
BRANCH  39  40
ATOM     40  C   UNL A   1      33.070  36.626  30.666  1.00  0.00     0.261 C 
BRANCH  40  41
ATOM     41  O   UNL A   1      33.440  36.443  32.023  1.00  0.00    -0.460 OA
BRANCH  41  42
ATOM     42  C   UNL A   1      33.030  35.258  32.533  1.00  0.00     0.338 C 
ATOM     43  O   UNL A   1      31.890  34.885  32.716  1.00  0.00    -0.246 OA
BRANCH  42  44
ATOM     44  C   UNL A   1      34.209  34.543  33.031  1.00  0.00     0.060 A 
ATOM     45  C   UNL A   1      35.377  35.301  33.096  1.00  0.00     0.016 A 
ATOM     46  C   UNL A   1      34.220  33.140  33.051  1.00  0.00     0.016 A 
ATOM     47  C   UNL A   1      36.569  34.652  32.894  1.00  0.00     0.010 A 
ATOM     48  C   UNL A   1      35.412  32.494  32.840  1.00  0.00     0.010 A 
ATOM     49  C   UNL A   1      36.552  33.271  32.663  1.00  0.00    -0.014 A 
BRANCH  49  50
ATOM     50  C   UNL A   1      37.813  32.633  32.376  1.00  0.00     0.031 A 
ATOM     51  C   UNL A   1      38.638  32.512  33.594  1.00  0.00     0.074 A 
ATOM     52  C   UNL A   1      38.152  32.165  31.162  1.00  0.00     0.049 A 
ATOM     53  N   UNL A   1      39.684  33.206  33.885  1.00  0.00    -0.248 NA
ATOM     54  C   UNL A   1      38.109  31.707  34.707  1.00  0.00     0.031 C 
ATOM     55  C   UNL A   1      37.320  32.028  29.965  1.00  0.00     0.029 A 
ATOM     56  N   UNL A   1      39.329  31.608  30.777  1.00  0.00    -0.354 N 
ATOM     57  C   UNL A   1      40.082  32.756  35.134  1.00  0.00     0.074 A 
ATOM     58  C   UNL A   1      38.971  32.017  35.675  1.00  0.00     0.031 C 
ATOM     59  C   UNL A   1      37.940  31.203  29.087  1.00  0.00     0.029 A 
ATOM     60  C   UNL A   1      39.258  30.869  29.604  1.00  0.00     0.049 A 
ATOM     61  H   UNL A   1      40.164  31.720  31.286  1.00  0.00     0.167 HD
ATOM     62  C   UNL A   1      41.399  32.741  35.468  1.00  0.00     0.031 A 
ATOM     63  C   UNL A   1      40.194  29.998  29.149  1.00  0.00     0.031 A 
ATOM     64  C   UNL A   1      42.173  33.610  34.615  1.00  0.00     0.049 A 
ATOM     65  C   UNL A   1      41.471  30.315  29.834  1.00  0.00     0.074 A 
ATOM     66  C   UNL A   1      42.137  34.958  34.311  1.00  0.00     0.029 A 
ATOM     67  N   UNL A   1      42.893  33.013  33.607  1.00  0.00    -0.354 N 
ATOM     68  N   UNL A   1      42.145  31.405  29.608  1.00  0.00    -0.248 NA
ATOM     69  C   UNL A   1      41.745  29.667  31.109  1.00  0.00     0.031 C 
ATOM     70  C   UNL A   1      42.426  35.030  32.915  1.00  0.00     0.029 A 
ATOM     71  C   UNL A   1      42.698  33.739  32.460  1.00  0.00     0.049 A 
ATOM     72  H   UNL A   1      43.449  32.206  33.693  1.00  0.00     0.167 HD
ATOM     73  C   UNL A   1      42.550  31.832  30.865  1.00  0.00     0.074 A 
ATOM     74  C   UNL A   1      42.361  30.673  31.738  1.00  0.00     0.031 C 
ATOM     75  C   UNL A   1      42.711  33.162  31.135  1.00  0.00     0.031 A 
BRANCH  62  76
ATOM     76  C   UNL A   1      42.015  31.573  36.198  1.00  0.00    -0.014 A 
ATOM     77  C   UNL A   1      43.047  31.832  37.113  1.00  0.00     0.009 A 
ATOM     78  C   UNL A   1      41.844  30.232  35.799  1.00  0.00     0.009 A 
ATOM     79  C   UNL A   1      43.915  30.818  37.530  1.00  0.00     0.001 A 
ATOM     80  C   UNL A   1      42.681  29.210  36.244  1.00  0.00     0.001 A 
ATOM     81  C   UNL A   1      43.738  29.510  37.087  1.00  0.00     0.000 A 
ENDBRANCH  62  76
BRANCH  63  82
ATOM     82  C   UNL A   1      40.005  28.730  28.408  1.00  0.00    -0.014 A 
ATOM     83  C   UNL A   1      40.647  28.512  27.177  1.00  0.00     0.009 A 
ATOM     84  C   UNL A   1      39.425  27.617  29.045  1.00  0.00     0.009 A 
ATOM     85  C   UNL A   1      40.740  27.224  26.628  1.00  0.00     0.001 A 
ATOM     86  C   UNL A   1      39.515  26.334  28.496  1.00  0.00     0.001 A 
ATOM     87  C   UNL A   1      40.187  26.134  27.295  1.00  0.00     0.000 A 
ENDBRANCH  63  82
BRANCH  75  88
ATOM     88  C   UNL A   1      42.666  34.125  29.973  1.00  0.00    -0.014 A 
ATOM     89  C   UNL A   1      41.482  34.716  29.496  1.00  0.00     0.009 A 
ATOM     90  C   UNL A   1      43.885  34.546  29.420  1.00  0.00     0.009 A 
ATOM     91  C   UNL A   1      41.517  35.665  28.468  1.00  0.00     0.001 A 
ATOM     92  C   UNL A   1      43.921  35.510  28.411  1.00  0.00     0.001 A 
ATOM     93  C   UNL A   1      42.738  36.063  27.927  1.00  0.00     0.000 A 
ENDBRANCH  75  88
ENDBRANCH  49  50
ENDBRANCH  42  44
ENDBRANCH  41  42
ENDBRANCH  40  41
ENDBRANCH  39  40
ENDBRANCH  38  39
ENDBRANCH  37  38
ENDBRANCH   1  37
TORSDOF 20
ENDMDL
MODEL 2
REMARK VINA RESULT:     -11.6      3.868      7.207
REMARK SMILES COc1ccc(-n2c(SCc3cn(-c4ccc(C(=O)OCCOCCOC(=O)c5ccc(-c6c7nc(c(-c8ccccc8)c8ccc([nH]8)c(-c8ccccc8)c8nc(c(-c9ccccc9)c9ccc6[nH]9)C=C8)C=C7)cc5)cc4)nn3)nc3ccccc3c2=O)cc1
REMARK SMILES IDX 21 1 20 2 18 3 19 4 17 5 14 6 15 7 78 8 16 9 77 10 13 11
REMARK SMILES IDX 11 12 12 13 80 14 79 15 10 16 9 17 8 18 7 19 88 20 81 21
REMARK SMILES IDX 87 22 89 23 82 24 86 25 83 26 85 27 84 28 6 29 3 30 4 31
REMARK SMILES IDX 91 32 5 33 90 34 2 35 1 36 22 37 23 38 24 39 25 40 26 41
REMARK SMILES IDX 27 42 28 43 29 44 30 45 76 46 31 47 75 48 32 49 33 50 34 51
REMARK SMILES IDX 69 52 35 53 74 54 68 55 70 56 36 57 73 58 67 59 66 60 37 62
REMARK SMILES IDX 59 63 44 64 58 65 45 66 48 67 57 68 71 69 46 70 47 71 56 73
REMARK SMILES IDX 72 74 49 75 38 76 39 77 43 78 40 79 42 80 41 81 60 82 61 83
REMARK SMILES IDX 65 84 62 85 64 86 63 87 50 88 51 89 55 90 52 91 54 92 53 93
REMARK H PARENT 70 61 48 72
REMARK Flexibility Score: inf
ROOT
ATOM      1  C   UNL A   1      35.738  32.948  31.937  1.00  0.00     0.261 C 
ENDROOT
BRANCH   1   2
ATOM      2  O   UNL A   1      35.772  34.041  31.013  1.00  0.00    -0.460 OA
BRANCH   2   3
ATOM      3  C   UNL A   1      36.488  33.802  29.887  1.00  0.00     0.338 C 
ATOM      4  O   UNL A   1      37.602  34.199  29.613  1.00  0.00    -0.246 OA
BRANCH   3   5
ATOM      5  C   UNL A   1      35.769  32.793  29.088  1.00  0.00     0.060 A 
ATOM      6  C   UNL A   1      34.326  30.935  27.656  1.00  0.00     0.066 A 
ATOM      7  C   UNL A   1      33.744  32.175  27.932  1.00  0.00     0.029 A 
ATOM      8  C   UNL A   1      35.644  30.641  28.033  1.00  0.00     0.029 A 
ATOM      9  C   UNL A   1      34.464  33.098  28.678  1.00  0.00     0.018 A 
ATOM     10  C   UNL A   1      36.375  31.585  28.735  1.00  0.00     0.018 A 
BRANCH   6  11
ATOM     11  N   UNL A   1      33.545  29.935  27.066  1.00  0.00    -0.220 N 
ATOM     12  C   UNL A   1      32.738  28.042  26.407  1.00  0.00     0.093 A 
ATOM     13  C   UNL A   1      33.873  28.614  26.921  1.00  0.00     0.141 A 
ATOM     14  N   UNL A   1      31.810  29.022  26.185  1.00  0.00    -0.134 NA
ATOM     15  N   UNL A   1      32.288  30.161  26.646  1.00  0.00    -0.062 NA
BRANCH  12  16
ATOM     16  C   UNL A   1      32.467  26.613  26.190  1.00  0.00     0.138 C 
BRANCH  16  17
ATOM     17  S   UNL A   1      33.813  25.725  25.440  1.00  0.00    -0.081 SA
BRANCH  17  18
ATOM     18  C   UNL A   1      33.393  25.689  23.674  1.00  0.00     0.176 A 
ATOM     19  N   UNL A   1      32.029  25.645  23.447  1.00  0.00    -0.255 N 
ATOM     20  C   UNL A   1      31.468  24.378  23.328  1.00  0.00     0.266 A 
ATOM     21  N   UNL A   1      34.165  24.918  22.964  1.00  0.00    -0.223 NA
ATOM     22  C   UNL A   1      32.464  23.270  23.500  1.00  0.00     0.066 A 
ATOM     23  O   UNL A   1      30.282  24.120  23.150  1.00  0.00    -0.268 OA
ATOM     24  C   UNL A   1      33.808  23.577  23.210  1.00  0.00     0.079 A 
ATOM     25  C   UNL A   1      32.144  22.107  24.192  1.00  0.00     0.016 A 
ATOM     26  C   UNL A   1      34.822  22.674  23.520  1.00  0.00     0.029 A 
ATOM     27  C   UNL A   1      33.179  21.254  24.590  1.00  0.00     0.001 A 
ATOM     28  C   UNL A   1      34.508  21.521  24.235  1.00  0.00     0.002 A 
BRANCH  19  29
ATOM     29  C   UNL A   1      31.294  26.847  23.296  1.00  0.00     0.052 A 
ATOM     30  C   UNL A   1      29.716  28.971  22.374  1.00  0.00     0.119 A 
ATOM     31  C   UNL A   1      29.133  27.955  23.128  1.00  0.00     0.048 A 
ATOM     32  C   UNL A   1      31.100  28.997  22.198  1.00  0.00     0.048 A 
ATOM     33  C   UNL A   1      29.916  26.876  23.559  1.00  0.00     0.030 A 
ATOM     34  C   UNL A   1      31.894  27.954  22.692  1.00  0.00     0.030 A 
BRANCH  30  35
ATOM     35  O   UNL A   1      28.906  29.962  21.894  1.00  0.00    -0.497 OA
ATOM     36  C   UNL A   1      27.655  30.043  22.581  1.00  0.00     0.278 C 
ENDBRANCH  30  35
ENDBRANCH  19  29
ENDBRANCH  17  18
ENDBRANCH  16  17
ENDBRANCH  12  16
ENDBRANCH   6  11
ENDBRANCH   3   5
ENDBRANCH   2   3
ENDBRANCH   1   2
BRANCH   1  37
ATOM     37  C   UNL A   1      35.214  33.379  33.307  1.00  0.00     0.202 C 
BRANCH  37  38
ATOM     38  O   UNL A   1      36.040  33.163  34.450  1.00  0.00    -0.374 OA
BRANCH  38  39
ATOM     39  C   UNL A   1      37.291  33.830  34.575  1.00  0.00     0.202 C 
BRANCH  39  40
ATOM     40  C   UNL A   1      38.568  33.049  34.308  1.00  0.00     0.261 C 
BRANCH  40  41
ATOM     41  O   UNL A   1      38.618  32.534  32.987  1.00  0.00    -0.460 OA
BRANCH  41  42
ATOM     42  C   UNL A   1      39.621  33.062  32.245  1.00  0.00     0.338 C 
ATOM     43  O   UNL A   1      40.033  34.204  32.265  1.00  0.00    -0.246 OA
BRANCH  42  44
ATOM     44  C   UNL A   1      40.018  32.070  31.242  1.00  0.00     0.060 A 
ATOM     45  C   UNL A   1      39.096  31.048  31.022  1.00  0.00     0.016 A 
ATOM     46  C   UNL A   1      41.363  31.967  30.855  1.00  0.00     0.016 A 
ATOM     47  C   UNL A   1      39.584  29.815  30.673  1.00  0.00     0.010 A 
ATOM     48  C   UNL A   1      41.850  30.730  30.514  1.00  0.00     0.010 A 
ATOM     49  C   UNL A   1      40.968  29.655  30.529  1.00  0.00    -0.014 A 
BRANCH  49  50
ATOM     50  C   UNL A   1      41.454  28.329  30.240  1.00  0.00     0.031 A 
ATOM     51  C   UNL A   1      42.265  27.805  31.356  1.00  0.00     0.074 A 
ATOM     52  C   UNL A   1      41.152  27.652  29.118  1.00  0.00     0.049 A 
ATOM     53  N   UNL A   1      43.547  27.673  31.378  1.00  0.00    -0.248 NA
ATOM     54  C   UNL A   1      41.610  27.636  32.663  1.00  0.00     0.031 C 
ATOM     55  C   UNL A   1      40.179  27.988  28.076  1.00  0.00     0.029 A 
ATOM     56  N   UNL A   1      41.605  26.434  28.726  1.00  0.00    -0.354 N 
ATOM     57  C   UNL A   1      43.839  27.180  32.640  1.00  0.00     0.074 A 
ATOM     58  C   UNL A   1      42.662  27.390  33.443  1.00  0.00     0.031 C 
ATOM     59  C   UNL A   1      39.939  26.888  27.323  1.00  0.00     0.029 A 
ATOM     60  C   UNL A   1      40.834  25.822  27.746  1.00  0.00     0.049 A 
ATOM     61  H   UNL A   1      42.413  26.018  29.105  1.00  0.00     0.167 HD
ATOM     62  C   UNL A   1      44.892  26.340  32.820  1.00  0.00     0.031 A 
ATOM     63  C   UNL A   1      40.896  24.517  27.378  1.00  0.00     0.031 A 
ATOM     64  C   UNL A   1      45.828  26.420  31.725  1.00  0.00     0.049 A 
ATOM     65  C   UNL A   1      42.202  23.984  27.836  1.00  0.00     0.074 A 
ATOM     66  C   UNL A   1      46.574  27.435  31.155  1.00  0.00     0.029 A 
ATOM     67  N   UNL A   1      45.776  25.416  30.787  1.00  0.00    -0.354 N 
ATOM     68  N   UNL A   1      43.338  24.349  27.316  1.00  0.00    -0.248 NA
ATOM     69  C   UNL A   1      42.283  23.426  29.178  1.00  0.00     0.031 C 
ATOM     70  C   UNL A   1      46.530  27.183  29.751  1.00  0.00     0.029 A 
ATOM     71  C   UNL A   1      45.831  25.993  29.545  1.00  0.00     0.049 A 
ATOM     72  H   UNL A   1      45.711  24.452  30.974  1.00  0.00     0.167 HD
ATOM     73  C   UNL A   1      44.183  24.515  28.404  1.00  0.00     0.074 A 
ATOM     74  C   UNL A   1      43.511  23.837  29.512  1.00  0.00     0.031 C 
ATOM     75  C   UNL A   1      45.191  25.437  28.374  1.00  0.00     0.031 A 
BRANCH  62  76
ATOM     76  C   UNL A   1      44.788  25.120  33.701  1.00  0.00    -0.014 A 
ATOM     77  C   UNL A   1      45.920  24.730  34.433  1.00  0.00     0.009 A 
ATOM     78  C   UNL A   1      43.744  24.178  33.599  1.00  0.00     0.009 A 
ATOM     79  C   UNL A   1      46.035  23.437  34.952  1.00  0.00     0.001 A 
ATOM     80  C   UNL A   1      43.837  22.900  34.151  1.00  0.00     0.001 A 
ATOM     81  C   UNL A   1      44.999  22.519  34.801  1.00  0.00     0.000 A 
ENDBRANCH  62  76
BRANCH  63  82
ATOM     82  C   UNL A   1      39.802  23.620  26.941  1.00  0.00    -0.014 A 
ATOM     83  C   UNL A   1      38.548  24.138  26.574  1.00  0.00     0.009 A 
ATOM     84  C   UNL A   1      40.075  22.280  26.607  1.00  0.00     0.009 A 
ATOM     85  C   UNL A   1      37.623  23.358  25.863  1.00  0.00     0.001 A 
ATOM     86  C   UNL A   1      39.151  21.502  25.901  1.00  0.00     0.001 A 
ATOM     87  C   UNL A   1      37.931  22.046  25.515  1.00  0.00     0.000 A 
ENDBRANCH  63  82
BRANCH  75  88
ATOM     88  C   UNL A   1      45.503  26.094  27.051  1.00  0.00    -0.014 A 
ATOM     89  C   UNL A   1      44.882  27.274  26.601  1.00  0.00     0.009 A 
ATOM     90  C   UNL A   1      46.555  25.568  26.286  1.00  0.00     0.009 A 
ATOM     91  C   UNL A   1      45.275  27.880  25.402  1.00  0.00     0.001 A 
ATOM     92  C   UNL A   1      46.962  26.185  25.102  1.00  0.00     0.001 A 
ATOM     93  C   UNL A   1      46.316  27.335  24.655  1.00  0.00     0.000 A 
ENDBRANCH  75  88
ENDBRANCH  49  50
ENDBRANCH  42  44
ENDBRANCH  41  42
ENDBRANCH  40  41
ENDBRANCH  39  40
ENDBRANCH  38  39
ENDBRANCH  37  38
ENDBRANCH   1  37
TORSDOF 20
ENDMDL
MODEL 3
REMARK VINA RESULT:     -11.2      3.437      6.219
REMARK SMILES COc1ccc(-n2c(SCc3cn(-c4ccc(C(=O)OCCOCCOC(=O)c5ccc(-c6c7nc(c(-c8ccccc8)c8ccc([nH]8)c(-c8ccccc8)c8nc(c(-c9ccccc9)c9ccc6[nH]9)C=C8)C=C7)cc5)cc4)nn3)nc3ccccc3c2=O)cc1
REMARK SMILES IDX 21 1 20 2 18 3 19 4 17 5 14 6 15 7 78 8 16 9 77 10 13 11
REMARK SMILES IDX 11 12 12 13 80 14 79 15 10 16 9 17 8 18 7 19 88 20 81 21
REMARK SMILES IDX 87 22 89 23 82 24 86 25 83 26 85 27 84 28 6 29 3 30 4 31
REMARK SMILES IDX 91 32 5 33 90 34 2 35 1 36 22 37 23 38 24 39 25 40 26 41
REMARK SMILES IDX 27 42 28 43 29 44 30 45 76 46 31 47 75 48 32 49 33 50 34 51
REMARK SMILES IDX 69 52 35 53 74 54 68 55 70 56 36 57 73 58 67 59 66 60 37 62
REMARK SMILES IDX 59 63 44 64 58 65 45 66 48 67 57 68 71 69 46 70 47 71 56 73
REMARK SMILES IDX 72 74 49 75 38 76 39 77 43 78 40 79 42 80 41 81 60 82 61 83
REMARK SMILES IDX 65 84 62 85 64 86 63 87 50 88 51 89 55 90 52 91 54 92 53 93
REMARK H PARENT 70 61 48 72
REMARK Flexibility Score: inf
ROOT
ATOM      1  C   UNL A   1      33.014  35.842  31.614  1.00  0.00     0.261 C 
ENDROOT
BRANCH   1   2
ATOM      2  O   UNL A   1      33.793  35.610  30.435  1.00  0.00    -0.460 OA
BRANCH   2   3
ATOM      3  C   UNL A   1      33.068  35.498  29.295  1.00  0.00     0.338 C 
ATOM      4  O   UNL A   1      32.455  36.369  28.712  1.00  0.00    -0.246 OA
BRANCH   3   5
ATOM      5  C   UNL A   1      33.293  34.153  28.736  1.00  0.00     0.060 A 
ATOM      6  C   UNL A   1      33.597  31.622  27.693  1.00  0.00     0.066 A 
ATOM      7  C   UNL A   1      32.548  32.421  27.231  1.00  0.00     0.029 A 
ATOM      8  C   UNL A   1      34.532  32.100  28.622  1.00  0.00     0.029 A 
ATOM      9  C   UNL A   1      32.382  33.686  27.779  1.00  0.00     0.018 A 
ATOM     10  C   UNL A   1      34.389  33.381  29.130  1.00  0.00     0.018 A 
BRANCH   6  11
ATOM     11  N   UNL A   1      33.663  30.286  27.283  1.00  0.00    -0.220 N 
ATOM     12  C   UNL A   1      33.230  28.345  26.436  1.00  0.00     0.093 A 
ATOM     13  C   UNL A   1      32.630  29.517  26.818  1.00  0.00     0.141 A 
ATOM     14  N   UNL A   1      34.560  28.407  26.750  1.00  0.00    -0.134 NA
ATOM     15  N   UNL A   1      34.825  29.614  27.209  1.00  0.00    -0.062 NA
BRANCH  12  16
ATOM     16  C   UNL A   1      32.623  27.210  25.726  1.00  0.00     0.138 C 
BRANCH  16  17
ATOM     17  S   UNL A   1      33.776  25.928  25.290  1.00  0.00    -0.081 SA
BRANCH  17  18
ATOM     18  C   UNL A   1      33.430  25.594  23.539  1.00  0.00     0.176 A 
ATOM     19  N   UNL A   1      32.166  25.070  23.333  1.00  0.00    -0.255 N 
ATOM     20  C   UNL A   1      32.069  23.682  23.336  1.00  0.00     0.266 A 
ATOM     21  N   UNL A   1      34.430  25.070  22.893  1.00  0.00    -0.223 NA
ATOM     22  C   UNL A   1      33.378  22.998  23.597  1.00  0.00     0.066 A 
ATOM     23  O   UNL A   1      31.045  23.022  23.197  1.00  0.00    -0.268 OA
ATOM     24  C   UNL A   1      34.545  23.715  23.266  1.00  0.00     0.079 A 
ATOM     25  C   UNL A   1      33.457  21.862  24.396  1.00  0.00     0.016 A 
ATOM     26  C   UNL A   1      35.798  23.241  23.644  1.00  0.00     0.029 A 
ATOM     27  C   UNL A   1      34.712  21.450  24.859  1.00  0.00     0.001 A 
ATOM     28  C   UNL A   1      35.878  22.119  24.465  1.00  0.00     0.002 A 
BRANCH  19  29
ATOM     29  C   UNL A   1      31.070  25.933  23.082  1.00  0.00     0.052 A 
ATOM     30  C   UNL A   1      29.143  27.965  23.138  1.00  0.00     0.119 A 
ATOM     31  C   UNL A   1      30.263  28.100  22.322  1.00  0.00     0.048 A 
ATOM     32  C   UNL A   1      28.918  26.767  23.816  1.00  0.00     0.048 A 
ATOM     33  C   UNL A   1      31.244  27.099  22.321  1.00  0.00     0.030 A 
ATOM     34  C   UNL A   1      29.864  25.736  23.758  1.00  0.00     0.030 A 
BRANCH  30  35
ATOM     35  O   UNL A   1      28.251  29.001  23.182  1.00  0.00    -0.497 OA
ATOM     36  C   UNL A   1      28.883  30.281  23.242  1.00  0.00     0.278 C 
ENDBRANCH  30  35
ENDBRANCH  19  29
ENDBRANCH  17  18
ENDBRANCH  16  17
ENDBRANCH  12  16
ENDBRANCH   6  11
ENDBRANCH   3   5
ENDBRANCH   2   3
ENDBRANCH   1   2
BRANCH   1  37
ATOM     37  C   UNL A   1      33.861  35.749  32.882  1.00  0.00     0.202 C 
BRANCH  37  38
ATOM     38  O   UNL A   1      35.135  35.111  32.805  1.00  0.00    -0.374 OA
BRANCH  38  39
ATOM     39  C   UNL A   1      35.425  33.977  33.615  1.00  0.00     0.202 C 
BRANCH  39  40
ATOM     40  C   UNL A   1      36.825  33.384  33.571  1.00  0.00     0.261 C 
BRANCH  40  41
ATOM     41  O   UNL A   1      37.223  33.040  32.254  1.00  0.00    -0.460 OA
BRANCH  41  42
ATOM     42  C   UNL A   1      36.555  31.973  31.755  1.00  0.00     0.338 C 
ATOM     43  O   UNL A   1      35.440  31.594  32.051  1.00  0.00    -0.246 OA
BRANCH  42  44
ATOM     44  C   UNL A   1      37.480  31.204  30.920  1.00  0.00     0.060 A 
ATOM     45  C   UNL A   1      37.149  29.860  30.752  1.00  0.00     0.016 A 
ATOM     46  C   UNL A   1      38.768  31.699  30.662  1.00  0.00     0.016 A 
ATOM     47  C   UNL A   1      38.178  28.965  30.600  1.00  0.00     0.010 A 
ATOM     48  C   UNL A   1      39.795  30.802  30.519  1.00  0.00     0.010 A 
ATOM     49  C   UNL A   1      39.492  29.447  30.593  1.00  0.00    -0.014 A 
BRANCH  49  50
ATOM     50  C   UNL A   1      40.553  28.473  30.512  1.00  0.00     0.031 A 
ATOM     51  C   UNL A   1      41.214  28.296  31.819  1.00  0.00     0.074 A 
ATOM     52  C   UNL A   1      40.851  27.786  29.394  1.00  0.00     0.049 A 
ATOM     53  N   UNL A   1      42.382  28.726  32.154  1.00  0.00    -0.248 NA
ATOM     54  C   UNL A   1      40.399  27.800  32.941  1.00  0.00     0.031 C 
ATOM     55  C   UNL A   1      40.111  27.721  28.132  1.00  0.00     0.029 A 
ATOM     56  N   UNL A   1      41.861  26.900  29.199  1.00  0.00    -0.354 N 
ATOM     57  C   UNL A   1      42.541  28.348  33.478  1.00  0.00     0.074 A 
ATOM     58  C   UNL A   1      41.232  27.994  33.963  1.00  0.00     0.031 C 
ATOM     59  C   UNL A   1      40.555  26.661  27.414  1.00  0.00     0.029 A 
ATOM     60  C   UNL A   1      41.688  26.064  28.105  1.00  0.00     0.049 A 
ATOM     61  H   UNL A   1      42.651  26.854  29.785  1.00  0.00     0.167 HD
ATOM     62  C   UNL A   1      43.774  28.034  33.957  1.00  0.00     0.031 A 
ATOM     63  C   UNL A   1      42.388  24.930  27.844  1.00  0.00     0.031 A 
ATOM     64  C   UNL A   1      44.820  28.560  33.113  1.00  0.00     0.049 A 
ATOM     65  C   UNL A   1      43.644  24.989  28.633  1.00  0.00     0.074 A 
ATOM     66  C   UNL A   1      45.174  29.822  32.675  1.00  0.00     0.029 A 
ATOM     67  N   UNL A   1      45.431  27.676  32.255  1.00  0.00    -0.354 N 
ATOM     68  N   UNL A   1      44.602  25.831  28.376  1.00  0.00    -0.248 NA
ATOM     69  C   UNL A   1      43.628  24.457  29.988  1.00  0.00     0.031 C 
ATOM     70  C   UNL A   1      45.583  29.642  31.320  1.00  0.00     0.029 A 
ATOM     71  C   UNL A   1      45.532  28.279  31.028  1.00  0.00     0.049 A 
ATOM     72  H   UNL A   1      45.740  26.770  32.481  1.00  0.00     0.167 HD
ATOM     73  C   UNL A   1      45.004  26.291  29.622  1.00  0.00     0.074 A 
ATOM     74  C   UNL A   1      44.441  25.339  30.579  1.00  0.00     0.031 C 
ATOM     75  C   UNL A   1      45.496  27.558  29.776  1.00  0.00     0.031 A 
BRANCH  62  76
ATOM     76  C   UNL A   1      43.991  26.847  34.862  1.00  0.00    -0.014 A 
ATOM     77  C   UNL A   1      44.986  26.937  35.848  1.00  0.00     0.009 A 
ATOM     78  C   UNL A   1      43.486  25.560  34.587  1.00  0.00     0.009 A 
ATOM     79  C   UNL A   1      45.509  25.790  36.454  1.00  0.00     0.001 A 
ATOM     80  C   UNL A   1      43.976  24.417  35.219  1.00  0.00     0.001 A 
ATOM     81  C   UNL A   1      45.012  24.531  36.131  1.00  0.00     0.000 A 
ENDBRANCH  62  76
BRANCH  63  82
ATOM     82  C   UNL A   1      41.924  23.672  27.216  1.00  0.00    -0.014 A 
ATOM     83  C   UNL A   1      42.634  23.096  26.149  1.00  0.00     0.009 A 
ATOM     84  C   UNL A   1      40.947  22.882  27.849  1.00  0.00     0.009 A 
ATOM     85  C   UNL A   1      42.403  21.767  25.761  1.00  0.00     0.001 A 
ATOM     86  C   UNL A   1      40.715  21.559  27.461  1.00  0.00     0.001 A 
ATOM     87  C   UNL A   1      41.454  20.995  26.426  1.00  0.00     0.000 A 
ENDBRANCH  63  82
BRANCH  75  88
ATOM     88  C   UNL A   1      45.807  28.347  28.526  1.00  0.00    -0.014 A 
ATOM     89  C   UNL A   1      44.850  29.103  27.824  1.00  0.00     0.009 A 
ATOM     90  C   UNL A   1      47.146  28.428  28.115  1.00  0.00     0.009 A 
ATOM     91  C   UNL A   1      45.219  29.880  26.720  1.00  0.00     0.001 A 
ATOM     92  C   UNL A   1      47.517  29.221  27.028  1.00  0.00     0.001 A 
ATOM     93  C   UNL A   1      46.553  29.940  26.324  1.00  0.00     0.000 A 
ENDBRANCH  75  88
ENDBRANCH  49  50
ENDBRANCH  42  44
ENDBRANCH  41  42
ENDBRANCH  40  41
ENDBRANCH  39  40
ENDBRANCH  38  39
ENDBRANCH  37  38
ENDBRANCH   1  37
TORSDOF 20
ENDMDL
