MODEL 1
REMARK VINA RESULT:     -11.9      0.000      0.000
REMARK SMILES Cc1ccc(-c2nc(NC(=O)[C@H]3[C@@H](C(=O)OCCOCCOC(=O)c4ccc(-c5c6nc(c(-c7ccccc7)c7ccc([nH]7)c(-c7ccccc7)c7nc(c(-c8ccccc8)c8ccc5[nH]8)C=C7)C=C6)cc4)[C@@H]4CC[C@H]3O4)sc2C)cc1
REMARK SMILES IDX 18 1 17 2 16 3 14 4 15 5 13 6 12 7 76 8 73 9 75 10 77 11
REMARK SMILES IDX 74 12 10 13 9 14 11 16 8 17 6 18 7 19 79 20 78 21 80 22 5 23
REMARK SMILES IDX 1 24 2 25 3 26 82 27 4 28 81 29 19 30 20 31 21 32 22 33
REMARK SMILES IDX 23 34 24 35 25 36 26 37 72 38 27 39 71 40 28 41 29 42 30 43
REMARK SMILES IDX 65 44 31 45 70 46 64 47 66 48 32 49 69 50 63 51 62 52 33 54
REMARK SMILES IDX 55 55 40 56 54 57 41 58 44 59 53 60 67 61 42 62 43 63 52 65
REMARK SMILES IDX 68 66 45 67 34 68 35 69 39 70 36 71 38 72 37 73 56 74 57 75
REMARK SMILES IDX 61 76 58 77 60 78 59 79 46 80 47 81 51 82 48 83 50 84 49 85
REMARK H PARENT 9 15 66 53 44 64
REMARK Flexibility Score: inf
ROOT
ATOM      1  C   UNL A   1      36.786  22.569  23.545  1.00  0.00     0.202 C 
ENDROOT
BRANCH   1   2
ATOM      2  C   UNL A   1      35.427  23.282  23.794  1.00  0.00     0.261 C 
BRANCH   2   3
ATOM      3  O   UNL A   1      34.772  23.797  25.047  1.00  0.00    -0.463 OA
BRANCH   3   4
ATOM      4  C   UNL A   1      34.044  24.616  25.820  1.00  0.00     0.312 C 
ATOM      5  O   UNL A   1      33.590  24.261  26.909  1.00  0.00    -0.252 OA
BRANCH   4   6
ATOM      6  C   UNL A   1      33.656  25.946  25.330  1.00  0.00     0.143 C 
ATOM      7  C   UNL A   1      32.454  26.452  26.019  1.00  0.00     0.124 C 
ATOM      8  C   UNL A   1      32.100  27.609  25.083  1.00  0.00     0.132 C 
ATOM      9  C   UNL A   1      33.248  26.229  23.853  1.00  0.00     0.133 C 
ATOM     10  C   UNL A   1      33.272  28.469  24.537  1.00  0.00     0.035 C 
ATOM     11  O   UNL A   1      31.874  26.752  23.934  1.00  0.00    -0.373 OA
ATOM     12  C   UNL A   1      33.833  27.563  23.418  1.00  0.00     0.036 C 
BRANCH   7  13
ATOM     13  C   UNL A   1      31.200  25.536  26.028  1.00  0.00     0.232 C 
ATOM     14  N   UNL A   1      30.934  24.288  25.546  1.00  0.00    -0.302 N 
ATOM     15  H   UNL A   1      30.034  24.046  25.862  1.00  0.00     0.172 HD
ATOM     16  O   UNL A   1      30.296  25.999  26.760  1.00  0.00    -0.274 OA
BRANCH  14  17
ATOM     17  C   UNL A   1      31.397  23.218  24.800  1.00  0.00     0.190 A 
ATOM     18  C   UNL A   1      32.010  21.069  24.461  1.00  0.00     0.086 A 
ATOM     19  N   UNL A   1      31.580  22.041  25.372  1.00  0.00    -0.220 NA
ATOM     20  C   UNL A   1      31.866  21.465  23.148  1.00  0.00     0.031 A 
ATOM     21  S   UNL A   1      31.365  23.141  23.098  1.00  0.00    -0.101 S 
ATOM     22  C   UNL A   1      32.162  20.703  21.909  1.00  0.00     0.059 C 
BRANCH  18  23
ATOM     23  C   UNL A   1      32.799  19.893  24.939  1.00  0.00     0.001 A 
ATOM     24  C   UNL A   1      35.703  15.795  25.319  1.00  0.00     0.044 C 
ATOM     25  C   UNL A   1      34.926  16.915  24.641  1.00  0.00    -0.051 A 
ATOM     26  C   UNL A   1      35.659  18.553  24.798  1.00  0.00     0.004 A 
ATOM     27  C   UNL A   1      33.130  16.727  24.571  1.00  0.00     0.004 A 
ATOM     28  C   UNL A   1      34.594  20.038  24.885  1.00  0.00     0.010 A 
ATOM     29  C   UNL A   1      32.072  18.212  24.887  1.00  0.00     0.010 A 
ENDBRANCH  18  23
ENDBRANCH  14  17
ENDBRANCH   7  13
ENDBRANCH   4   6
ENDBRANCH   3   4
ENDBRANCH   2   3
ENDBRANCH   1   2
BRANCH   1  30
ATOM     30  O   UNL A   1      37.702  22.740  24.630  1.00  0.00    -0.374 OA
BRANCH  30  31
ATOM     31  C   UNL A   1      38.218  21.610  25.343  1.00  0.00     0.202 C 
BRANCH  31  32
ATOM     32  C   UNL A   1      39.363  21.823  26.335  1.00  0.00     0.261 C 
BRANCH  32  33
ATOM     33  O   UNL A   1      40.123  20.617  26.557  1.00  0.00    -0.460 OA
BRANCH  33  34
ATOM     34  C   UNL A   1      41.396  20.605  26.066  1.00  0.00     0.338 C 
ATOM     35  O   UNL A   1      41.846  19.751  25.323  1.00  0.00    -0.246 OA
BRANCH  34  36
ATOM     36  C   UNL A   1      42.217  21.641  26.771  1.00  0.00     0.060 A 
ATOM     37  C   UNL A   1      42.389  21.669  28.165  1.00  0.00     0.016 A 
ATOM     38  C   UNL A   1      42.441  22.794  26.066  1.00  0.00     0.016 A 
ATOM     39  C   UNL A   1      42.655  22.900  28.833  1.00  0.00     0.010 A 
ATOM     40  C   UNL A   1      42.250  23.957  26.767  1.00  0.00     0.010 A 
ATOM     41  C   UNL A   1      42.498  24.118  28.141  1.00  0.00    -0.014 A 
BRANCH  41  42
ATOM     42  C   UNL A   1      42.369  25.694  28.782  1.00  0.00     0.031 A 
ATOM     43  C   UNL A   1      40.630  26.937  29.094  1.00  0.00     0.074 A 
ATOM     44  C   UNL A   1      43.788  25.795  29.192  1.00  0.00     0.049 A 
ATOM     45  N   UNL A   1      40.489  28.310  28.931  1.00  0.00    -0.248 NA
ATOM     46  C   UNL A   1      39.064  26.717  29.639  1.00  0.00     0.031 C 
ATOM     47  C   UNL A   1      44.424  26.494  30.371  1.00  0.00     0.029 A 
ATOM     48  N   UNL A   1      44.969  25.556  28.451  1.00  0.00    -0.354 N 
ATOM     49  C   UNL A   1      39.616  28.901  29.773  1.00  0.00     0.074 A 
ATOM     50  C   UNL A   1      38.640  27.905  30.070  1.00  0.00     0.031 C 
ATOM     51  C   UNL A   1      45.640  26.941  30.121  1.00  0.00     0.029 A 
ATOM     52  C   UNL A   1      45.983  26.427  28.848  1.00  0.00     0.049 A 
ATOM     53  H   UNL A   1      45.064  24.869  27.752  1.00  0.00     0.167 HD
ATOM     54  C   UNL A   1      39.867  30.153  30.253  1.00  0.00     0.031 A 
ATOM     55  C   UNL A   1      46.997  26.990  28.178  1.00  0.00     0.031 A 
ATOM     56  C   UNL A   1      41.300  30.576  30.240  1.00  0.00     0.049 A 
ATOM     57  C   UNL A   1      46.761  28.479  28.159  1.00  0.00     0.074 A 
ATOM     58  C   UNL A   1      42.214  30.722  31.280  1.00  0.00     0.029 A 
ATOM     59  N   UNL A   1      42.072  30.692  29.070  1.00  0.00    -0.354 N 
ATOM     60  N   UNL A   1      45.587  29.001  28.472  1.00  0.00    -0.248 NA
ATOM     61  C   UNL A   1      47.743  29.495  27.816  1.00  0.00     0.031 C 
ATOM     62  C   UNL A   1      43.527  30.848  30.736  1.00  0.00     0.029 A 
ATOM     63  C   UNL A   1      43.444  30.848  29.351  1.00  0.00     0.049 A 
ATOM     64  H   UNL A   1      41.697  30.667  28.160  1.00  0.00     0.167 HD
ATOM     65  C   UNL A   1      45.613  30.351  28.288  1.00  0.00     0.074 A 
ATOM     66  C   UNL A   1      46.997  30.611  27.896  1.00  0.00     0.031 C 
ATOM     67  C   UNL A   1      44.486  31.135  28.333  1.00  0.00     0.031 A 
BRANCH  54  68
ATOM     68  C   UNL A   1      38.766  30.864  31.001  1.00  0.00    -0.014 A 
ATOM     69  C   UNL A   1      38.161  32.028  30.515  1.00  0.00     0.009 A 
ATOM     70  C   UNL A   1      38.221  30.326  32.189  1.00  0.00     0.009 A 
ATOM     71  C   UNL A   1      37.120  32.653  31.219  1.00  0.00     0.001 A 
ATOM     72  C   UNL A   1      37.236  30.977  32.931  1.00  0.00     0.001 A 
ATOM     73  C   UNL A   1      36.678  32.143  32.439  1.00  0.00     0.000 A 
ENDBRANCH  54  68
BRANCH  55  74
ATOM     74  C   UNL A   1      47.896  25.980  27.595  1.00  0.00    -0.014 A 
ATOM     75  C   UNL A   1      48.233  26.157  26.227  1.00  0.00     0.009 A 
ATOM     76  C   UNL A   1      48.861  25.402  28.434  1.00  0.00     0.009 A 
ATOM     77  C   UNL A   1      49.538  25.920  25.763  1.00  0.00     0.001 A 
ATOM     78  C   UNL A   1      50.173  25.208  27.976  1.00  0.00     0.001 A 
ATOM     79  C   UNL A   1      50.518  25.495  26.655  1.00  0.00     0.000 A 
ENDBRANCH  55  74
BRANCH  67  80
ATOM     80  C   UNL A   1      44.367  32.348  27.440  1.00  0.00    -0.014 A 
ATOM     81  C   UNL A   1      44.242  32.267  26.040  1.00  0.00     0.009 A 
ATOM     82  C   UNL A   1      44.199  33.622  28.011  1.00  0.00     0.009 A 
ATOM     83  C   UNL A   1      44.018  33.399  25.251  1.00  0.00     0.001 A 
ATOM     84  C   UNL A   1      43.909  34.746  27.233  1.00  0.00     0.001 A 
ATOM     85  C   UNL A   1      43.835  34.636  25.850  1.00  0.00     0.000 A 
ENDBRANCH  67  80
ENDBRANCH  41  42
ENDBRANCH  34  36
ENDBRANCH  33  34
ENDBRANCH  32  33
ENDBRANCH  31  32
ENDBRANCH  30  31
ENDBRANCH   1  30
TORSDOF 17
ENDMDL
MODEL 2
REMARK VINA RESULT:     -11.6      3.105      8.377
REMARK SMILES Cc1ccc(-c2nc(NC(=O)[C@H]3[C@@H](C(=O)OCCOCCOC(=O)c4ccc(-c5c6nc(c(-c7ccccc7)c7ccc([nH]7)c(-c7ccccc7)c7nc(c(-c8ccccc8)c8ccc5[nH]8)C=C7)C=C6)cc4)[C@@H]4CC[C@H]3O4)sc2C)cc1
REMARK SMILES IDX 18 1 17 2 16 3 14 4 15 5 13 6 12 7 76 8 73 9 75 10 77 11
REMARK SMILES IDX 74 12 10 13 9 14 11 16 8 17 6 18 7 19 79 20 78 21 80 22 5 23
REMARK SMILES IDX 1 24 2 25 3 26 82 27 4 28 81 29 19 30 20 31 21 32 22 33
REMARK SMILES IDX 23 34 24 35 25 36 26 37 72 38 27 39 71 40 28 41 29 42 30 43
REMARK SMILES IDX 65 44 31 45 70 46 64 47 66 48 32 49 69 50 63 51 62 52 33 54
REMARK SMILES IDX 55 55 40 56 54 57 41 58 44 59 53 60 67 61 42 62 43 63 52 65
REMARK SMILES IDX 68 66 45 67 34 68 35 69 39 70 36 71 38 72 37 73 56 74 57 75
REMARK SMILES IDX 61 76 58 77 60 78 59 79 46 80 47 81 51 82 48 83 50 84 49 85
REMARK H PARENT 9 15 66 53 44 64
REMARK Flexibility Score: inf
ROOT
ATOM      1  C   UNL A   1      32.592  28.902  27.625  1.00  0.00     0.202 C 
ENDROOT
BRANCH   1   2
ATOM      2  C   UNL A   1      33.861  28.293  26.964  1.00  0.00     0.261 C 
BRANCH   2   3
ATOM      3  O   UNL A   1      34.057  27.482  25.712  1.00  0.00    -0.463 OA
BRANCH   3   4
ATOM      4  C   UNL A   1      33.722  26.704  24.673  1.00  0.00     0.312 C 
ATOM      5  O   UNL A   1      34.483  25.844  24.224  1.00  0.00    -0.252 OA
BRANCH   4   6
ATOM      6  C   UNL A   1      32.465  26.935  23.949  1.00  0.00     0.143 C 
ATOM      7  C   UNL A   1      31.326  27.103  24.871  1.00  0.00     0.124 C 
ATOM      8  C   UNL A   1      30.175  26.953  23.875  1.00  0.00     0.132 C 
ATOM      9  C   UNL A   1      31.846  25.903  22.959  1.00  0.00     0.133 C 
ATOM     10  C   UNL A   1      30.338  27.633  22.489  1.00  0.00     0.035 C 
ATOM     11  O   UNL A   1      30.520  25.590  23.517  1.00  0.00    -0.373 OA
ATOM     12  C   UNL A   1      31.271  26.641  21.759  1.00  0.00     0.036 C 
BRANCH   7  13
ATOM     13  C   UNL A   1      31.098  25.991  25.931  1.00  0.00     0.232 C 
ATOM     14  N   UNL A   1      31.587  24.729  26.101  1.00  0.00    -0.302 N 
ATOM     15  H   UNL A   1      31.251  24.408  26.969  1.00  0.00     0.172 HD
ATOM     16  O   UNL A   1      30.430  26.411  26.904  1.00  0.00    -0.274 OA
BRANCH  14  17
ATOM     17  C   UNL A   1      32.357  23.710  25.569  1.00  0.00     0.190 A 
ATOM     18  C   UNL A   1      34.217  22.443  25.359  1.00  0.00     0.086 A 
ATOM     19  N   UNL A   1      33.605  23.543  25.971  1.00  0.00    -0.220 NA
ATOM     20  C   UNL A   1      33.318  21.620  24.714  1.00  0.00     0.031 A 
ATOM     21  S   UNL A   1      31.733  22.362  24.735  1.00  0.00    -0.101 S 
ATOM     22  C   UNL A   1      33.572  20.345  23.998  1.00  0.00     0.059 C 
BRANCH  18  23
ATOM     23  C   UNL A   1      35.704  22.400  25.210  1.00  0.00     0.001 A 
ATOM     24  C   UNL A   1      40.663  21.856  25.903  1.00  0.00     0.044 C 
ATOM     25  C   UNL A   1      39.183  21.873  26.259  1.00  0.00    -0.051 A 
ATOM     26  C   UNL A   1      38.218  20.518  25.567  1.00  0.00     0.004 A 
ATOM     27  C   UNL A   1      38.426  23.496  26.497  1.00  0.00     0.004 A 
ATOM     28  C   UNL A   1      36.466  20.772  25.102  1.00  0.00     0.010 A 
ATOM     29  C   UNL A   1      36.731  23.792  25.814  1.00  0.00     0.010 A 
ENDBRANCH  18  23
ENDBRANCH  14  17
ENDBRANCH   7  13
ENDBRANCH   4   6
ENDBRANCH   3   4
ENDBRANCH   2   3
ENDBRANCH   1   2
BRANCH   1  30
ATOM     30  O   UNL A   1      32.051  29.991  26.872  1.00  0.00    -0.374 OA
BRANCH  30  31
ATOM     31  C   UNL A   1      32.853  31.134  26.551  1.00  0.00     0.202 C 
BRANCH  31  32
ATOM     32  C   UNL A   1      33.485  31.937  27.689  1.00  0.00     0.261 C 
BRANCH  32  33
ATOM     33  O   UNL A   1      34.924  31.976  27.595  1.00  0.00    -0.460 OA
BRANCH  33  34
ATOM     34  C   UNL A   1      35.611  31.816  28.763  1.00  0.00     0.338 C 
ATOM     35  O   UNL A   1      35.816  32.702  29.575  1.00  0.00    -0.246 OA
BRANCH  34  36
ATOM     36  C   UNL A   1      36.283  30.478  28.773  1.00  0.00     0.060 A 
ATOM     37  C   UNL A   1      36.526  29.747  29.948  1.00  0.00     0.016 A 
ATOM     38  C   UNL A   1      37.030  30.186  27.662  1.00  0.00     0.016 A 
ATOM     39  C   UNL A   1      37.612  28.825  30.012  1.00  0.00     0.010 A 
ATOM     40  C   UNL A   1      38.272  29.660  27.910  1.00  0.00     0.010 A 
ATOM     41  C   UNL A   1      38.589  28.828  28.997  1.00  0.00    -0.014 A 
BRANCH  41  42
ATOM     42  C   UNL A   1      40.147  28.133  29.023  1.00  0.00     0.031 A 
ATOM     43  C   UNL A   1      40.954  26.469  27.906  1.00  0.00     0.074 A 
ATOM     44  C   UNL A   1      40.746  29.163  29.903  1.00  0.00     0.049 A 
ATOM     45  N   UNL A   1      41.840  25.479  28.317  1.00  0.00    -0.248 NA
ATOM     46  C   UNL A   1      40.860  25.903  26.334  1.00  0.00     0.031 C 
ATOM     47  C   UNL A   1      42.142  29.740  29.933  1.00  0.00     0.029 A 
ATOM     48  N   UNL A   1      40.304  29.664  31.150  1.00  0.00    -0.354 N 
ATOM     49  C   UNL A   1      42.664  25.012  27.357  1.00  0.00     0.074 A 
ATOM     50  C   UNL A   1      41.942  25.150  26.135  1.00  0.00     0.031 C 
ATOM     51  C   UNL A   1      42.532  30.102  31.141  1.00  0.00     0.029 A 
ATOM     52  C   UNL A   1      41.389  29.976  31.967  1.00  0.00     0.049 A 
ATOM     53  H   UNL A   1      39.360  29.777  31.405  1.00  0.00     0.167 HD
ATOM     54  C   UNL A   1      43.947  24.665  27.663  1.00  0.00     0.031 A 
ATOM     55  C   UNL A   1      41.556  29.930  33.294  1.00  0.00     0.031 A 
ATOM     56  C   UNL A   1      44.512  25.297  28.894  1.00  0.00     0.049 A 
ATOM     57  C   UNL A   1      42.604  28.886  33.587  1.00  0.00     0.074 A 
ATOM     58  C   UNL A   1      45.459  26.306  29.044  1.00  0.00     0.029 A 
ATOM     59  N   UNL A   1      43.980  25.114  30.183  1.00  0.00    -0.354 N 
ATOM     60  N   UNL A   1      42.979  28.004  32.676  1.00  0.00    -0.248 NA
ATOM     61  C   UNL A   1      43.312  28.716  34.846  1.00  0.00     0.031 C 
ATOM     62  C   UNL A   1      45.438  26.771  30.393  1.00  0.00     0.029 A 
ATOM     63  C   UNL A   1      44.527  26.016  31.118  1.00  0.00     0.049 A 
ATOM     64  H   UNL A   1      43.305  24.433  30.407  1.00  0.00     0.167 HD
ATOM     65  C   UNL A   1      43.865  27.121  33.220  1.00  0.00     0.074 A 
ATOM     66  C   UNL A   1      44.055  27.627  34.578  1.00  0.00     0.031 C 
ATOM     67  C   UNL A   1      44.270  25.976  32.579  1.00  0.00     0.031 A 
BRANCH  54  68
ATOM     68  C   UNL A   1      44.758  23.936  26.620  1.00  0.00    -0.014 A 
ATOM     69  C   UNL A   1      44.644  22.558  26.411  1.00  0.00     0.009 A 
ATOM     70  C   UNL A   1      45.603  24.635  25.729  1.00  0.00     0.009 A 
ATOM     71  C   UNL A   1      45.391  21.911  25.414  1.00  0.00     0.001 A 
ATOM     72  C   UNL A   1      46.401  23.993  24.783  1.00  0.00     0.001 A 
ATOM     73  C   UNL A   1      46.289  22.623  24.621  1.00  0.00     0.000 A 
ENDBRANCH  54  68
BRANCH  55  74
ATOM     74  C   UNL A   1      40.594  30.796  33.998  1.00  0.00    -0.014 A 
ATOM     75  C   UNL A   1      40.315  32.046  33.386  1.00  0.00     0.009 A 
ATOM     76  C   UNL A   1      39.559  30.176  34.714  1.00  0.00     0.009 A 
ATOM     77  C   UNL A   1      39.011  32.565  33.355  1.00  0.00     0.001 A 
ATOM     78  C   UNL A   1      38.250  30.677  34.644  1.00  0.00     0.001 A 
ATOM     79  C   UNL A   1      37.971  31.849  33.941  1.00  0.00     0.000 A 
ENDBRANCH  55  74
BRANCH  67  80
ATOM     80  C   UNL A   1      44.568  24.725  33.372  1.00  0.00    -0.014 A 
ATOM     81  C   UNL A   1      45.864  24.194  33.518  1.00  0.00     0.009 A 
ATOM     82  C   UNL A   1      43.558  24.134  34.151  1.00  0.00     0.009 A 
ATOM     83  C   UNL A   1      46.126  23.103  34.351  1.00  0.00     0.001 A 
ATOM     84  C   UNL A   1      43.827  23.085  35.035  1.00  0.00     0.001 A 
ATOM     85  C   UNL A   1      45.110  22.559  35.122  1.00  0.00     0.000 A 
ENDBRANCH  67  80
ENDBRANCH  41  42
ENDBRANCH  34  36
ENDBRANCH  33  34
ENDBRANCH  32  33
ENDBRANCH  31  32
ENDBRANCH  30  31
ENDBRANCH   1  30
TORSDOF 17
ENDMDL
MODEL 3
REMARK VINA RESULT:     -11.6      3.686      8.802
REMARK SMILES Cc1ccc(-c2nc(NC(=O)[C@H]3[C@@H](C(=O)OCCOCCOC(=O)c4ccc(-c5c6nc(c(-c7ccccc7)c7ccc([nH]7)c(-c7ccccc7)c7nc(c(-c8ccccc8)c8ccc5[nH]8)C=C7)C=C6)cc4)[C@@H]4CC[C@H]3O4)sc2C)cc1
REMARK SMILES IDX 18 1 17 2 16 3 14 4 15 5 13 6 12 7 76 8 73 9 75 10 77 11
REMARK SMILES IDX 74 12 10 13 9 14 11 16 8 17 6 18 7 19 79 20 78 21 80 22 5 23
REMARK SMILES IDX 1 24 2 25 3 26 82 27 4 28 81 29 19 30 20 31 21 32 22 33
REMARK SMILES IDX 23 34 24 35 25 36 26 37 72 38 27 39 71 40 28 41 29 42 30 43
REMARK SMILES IDX 65 44 31 45 70 46 64 47 66 48 32 49 69 50 63 51 62 52 33 54
REMARK SMILES IDX 55 55 40 56 54 57 41 58 44 59 53 60 67 61 42 62 43 63 52 65
REMARK SMILES IDX 68 66 45 67 34 68 35 69 39 70 36 71 38 72 37 73 56 74 57 75
REMARK SMILES IDX 61 76 58 77 60 78 59 79 46 80 47 81 51 82 48 83 50 84 49 85
REMARK H PARENT 9 15 66 53 44 64
REMARK Flexibility Score: inf
ROOT
ATOM      1  C   UNL A   1      33.310  28.493  27.428  1.00  0.00     0.202 C 
ENDROOT
BRANCH   1   2
ATOM      2  C   UNL A   1      34.073  27.918  26.201  1.00  0.00     0.261 C 
BRANCH   2   3
ATOM      3  O   UNL A   1      34.018  28.246  24.733  1.00  0.00    -0.463 OA
BRANCH   3   4
ATOM      4  C   UNL A   1      33.468  28.559  23.551  1.00  0.00     0.312 C 
ATOM      5  O   UNL A   1      34.146  28.878  22.574  1.00  0.00    -0.252 OA
BRANCH   4   6
ATOM      6  C   UNL A   1      32.007  28.647  23.415  1.00  0.00     0.143 C 
ATOM      7  C   UNL A   1      31.353  27.356  23.695  1.00  0.00     0.124 C 
ATOM      8  C   UNL A   1      29.962  27.654  23.132  1.00  0.00     0.132 C 
ATOM      9  C   UNL A   1      31.294  29.016  22.080  1.00  0.00     0.133 C 
ATOM     10  C   UNL A   1      29.367  29.061  23.411  1.00  0.00     0.035 C 
ATOM     11  O   UNL A   1      30.437  27.858  21.776  1.00  0.00    -0.373 OA
ATOM     12  C   UNL A   1      30.115  29.931  22.377  1.00  0.00     0.036 C 
BRANCH   7  13
ATOM     13  C   UNL A   1      31.856  26.116  22.904  1.00  0.00     0.232 C 
ATOM     14  N   UNL A   1      32.583  25.011  23.238  1.00  0.00    -0.302 N 
ATOM     15  H   UNL A   1      32.589  24.425  22.448  1.00  0.00     0.172 HD
ATOM     16  O   UNL A   1      31.361  26.070  21.755  1.00  0.00    -0.274 OA
BRANCH  14  17
ATOM     17  C   UNL A   1      33.316  24.367  24.219  1.00  0.00     0.190 A 
ATOM     18  C   UNL A   1      35.189  23.868  25.381  1.00  0.00     0.086 A 
ATOM     19  N   UNL A   1      34.620  24.565  24.309  1.00  0.00    -0.220 NA
ATOM     20  C   UNL A   1      34.249  23.379  26.263  1.00  0.00     0.031 A 
ATOM     21  S   UNL A   1      32.647  23.650  25.611  1.00  0.00    -0.101 S 
ATOM     22  C   UNL A   1      34.460  22.638  27.531  1.00  0.00     0.059 C 
BRANCH  18  23
ATOM     23  C   UNL A   1      36.634  23.484  25.341  1.00  0.00     0.001 A 
ATOM     24  C   UNL A   1      41.201  21.571  26.261  1.00  0.00     0.044 C 
ATOM     25  C   UNL A   1      39.730  21.885  26.497  1.00  0.00    -0.051 A 
ATOM     26  C   UNL A   1      38.582  20.996  25.431  1.00  0.00     0.004 A 
ATOM     27  C   UNL A   1      39.340  23.559  27.054  1.00  0.00     0.004 A 
ATOM     28  C   UNL A   1      37.012  21.777  24.908  1.00  0.00     0.010 A 
ATOM     29  C   UNL A   1      37.863  24.411  26.334  1.00  0.00     0.010 A 
ENDBRANCH  18  23
ENDBRANCH  14  17
ENDBRANCH   7  13
ENDBRANCH   4   6
ENDBRANCH   3   4
ENDBRANCH   2   3
ENDBRANCH   1   2
BRANCH   1  30
ATOM     30  O   UNL A   1      32.303  29.437  27.053  1.00  0.00    -0.374 OA
BRANCH  30  31
ATOM     31  C   UNL A   1      32.612  30.829  26.918  1.00  0.00     0.202 C 
BRANCH  31  32
ATOM     32  C   UNL A   1      33.980  31.331  27.385  1.00  0.00     0.261 C 
BRANCH  32  33
ATOM     33  O   UNL A   1      33.976  31.704  28.779  1.00  0.00    -0.460 OA
BRANCH  33  34
ATOM     34  C   UNL A   1      34.408  32.966  29.068  1.00  0.00     0.338 C 
ATOM     35  O   UNL A   1      33.849  33.990  28.712  1.00  0.00    -0.246 OA
BRANCH  34  36
ATOM     36  C   UNL A   1      35.784  32.906  29.655  1.00  0.00     0.060 A 
ATOM     37  C   UNL A   1      36.893  33.556  29.087  1.00  0.00     0.016 A 
ATOM     38  C   UNL A   1      36.013  31.861  30.512  1.00  0.00     0.016 A 
ATOM     39  C   UNL A   1      38.210  33.049  29.294  1.00  0.00     0.010 A 
ATOM     40  C   UNL A   1      37.189  31.184  30.311  1.00  0.00     0.010 A 
ATOM     41  C   UNL A   1      38.383  31.766  29.852  1.00  0.00    -0.014 A 
BRANCH  41  42
ATOM     42  C   UNL A   1      39.780  30.786  29.845  1.00  0.00     0.031 A 
ATOM     43  C   UNL A   1      40.307  29.114  28.582  1.00  0.00     0.074 A 
ATOM     44  C   UNL A   1      40.522  31.592  30.841  1.00  0.00     0.049 A 
ATOM     45  N   UNL A   1      40.971  27.938  28.910  1.00  0.00    -0.248 NA
ATOM     46  C   UNL A   1      40.178  28.732  26.958  1.00  0.00     0.031 C 
ATOM     47  C   UNL A   1      41.999  31.885  30.965  1.00  0.00     0.029 A 
ATOM     48  N   UNL A   1      40.128  32.045  32.121  1.00  0.00    -0.354 N 
ATOM     49  C   UNL A   1      41.734  27.416  27.928  1.00  0.00     0.074 A 
ATOM     50  C   UNL A   1      41.105  27.808  26.710  1.00  0.00     0.031 C 
ATOM     51  C   UNL A   1      42.396  32.047  32.213  1.00  0.00     0.029 A 
ATOM     52  C   UNL A   1      41.215  32.063  32.993  1.00  0.00     0.049 A 
ATOM     53  H   UNL A   1      39.211  32.312  32.364  1.00  0.00     0.167 HD
ATOM     54  C   UNL A   1      42.914  26.802  28.228  1.00  0.00     0.031 A 
ATOM     55  C   UNL A   1      41.312  31.857  34.313  1.00  0.00     0.031 A 
ATOM     56  C   UNL A   1      43.533  27.192  29.531  1.00  0.00     0.049 A 
ATOM     57  C   UNL A   1      42.130  30.608  34.522  1.00  0.00     0.074 A 
ATOM     58  C   UNL A   1      44.646  27.981  29.809  1.00  0.00     0.029 A 
ATOM     59  N   UNL A   1      42.920  26.990  30.781  1.00  0.00    -0.354 N 
ATOM     60  N   UNL A   1      42.373  29.763  33.534  1.00  0.00    -0.248 NA
ATOM     61  C   UNL A   1      42.737  30.185  35.774  1.00  0.00     0.031 C 
ATOM     62  C   UNL A   1      44.654  28.309  31.197  1.00  0.00     0.029 A 
ATOM     63  C   UNL A   1      43.585  27.676  31.818  1.00  0.00     0.049 A 
ATOM     64  H   UNL A   1      42.120  26.433  30.917  1.00  0.00     0.167 HD
ATOM     65  C   UNL A   1      43.051  28.679  34.006  1.00  0.00     0.074 A 
ATOM     66  C   UNL A   1      43.273  29.005  35.413  1.00  0.00     0.031 C 
ATOM     67  C   UNL A   1      43.261  27.545  33.260  1.00  0.00     0.031 A 
BRANCH  54  68
ATOM     68  C   UNL A   1      43.618  26.035  27.136  1.00  0.00    -0.014 A 
ATOM     69  C   UNL A   1      43.298  24.710  26.824  1.00  0.00     0.009 A 
ATOM     70  C   UNL A   1      44.574  26.660  26.302  1.00  0.00     0.009 A 
ATOM     71  C   UNL A   1      43.951  24.031  25.784  1.00  0.00     0.001 A 
ATOM     72  C   UNL A   1      45.277  25.973  25.313  1.00  0.00     0.001 A 
ATOM     73  C   UNL A   1      44.959  24.653  25.049  1.00  0.00     0.000 A 
ENDBRANCH  54  68
BRANCH  55  74
ATOM     74  C   UNL A   1      40.500  32.820  35.078  1.00  0.00    -0.014 A 
ATOM     75  C   UNL A   1      40.595  34.177  34.674  1.00  0.00     0.009 A 
ATOM     76  C   UNL A   1      39.271  32.376  35.589  1.00  0.00     0.009 A 
ATOM     77  C   UNL A   1      39.460  35.003  34.630  1.00  0.00     0.001 A 
ATOM     78  C   UNL A   1      38.132  33.192  35.503  1.00  0.00     0.001 A 
ATOM     79  C   UNL A   1      38.220  34.489  34.997  1.00  0.00     0.000 A 
ENDBRANCH  55  74
BRANCH  67  80
ATOM     80  C   UNL A   1      43.283  26.189  33.926  1.00  0.00    -0.014 A 
ATOM     81  C   UNL A   1      42.318  25.773  34.864  1.00  0.00     0.009 A 
ATOM     82  C   UNL A   1      44.195  25.211  33.491  1.00  0.00     0.009 A 
ATOM     83  C   UNL A   1      42.298  24.473  35.377  1.00  0.00     0.001 A 
ATOM     84  C   UNL A   1      44.137  23.892  33.951  1.00  0.00     0.001 A 
ATOM     85  C   UNL A   1      43.199  23.528  34.907  1.00  0.00     0.000 A 
ENDBRANCH  67  80
ENDBRANCH  41  42
ENDBRANCH  34  36
ENDBRANCH  33  34
ENDBRANCH  32  33
ENDBRANCH  31  32
ENDBRANCH  30  31
ENDBRANCH   1  30
TORSDOF 17
ENDMDL
