MODEL 1
REMARK VINA RESULT:     -11.8      0.000      0.000
REMARK SMILES O=C(OCCOCCOC(=O)c1ccc(-c2c3nc(c(-c4ccccc4)c4ccc([nH]4)c(-c4ccccc4)c4nc(c(-c5ccccc5)c5ccc2[nH]5)C=C4)C=C3)cc1)c1ccc(NC(=O)[C@@H]2CC=CC[C@H]2C(=O)Nc2cccc([N+](=O)[O-])c2)cc1
REMARK SMILES IDX 4 1 3 2 2 3 1 4 60 5 61 6 86 7 62 8 85 9 63 10 64 11 65 12
REMARK SMILES IDX 66 14 67 15 68 16 72 17 69 18 71 19 70 20 73 21 74 22 75 23
REMARK SMILES IDX 76 25 77 26 84 27 78 28 80 29 79 30 81 31 82 32 83 33 5 34
REMARK SMILES IDX 6 35 7 36 8 37 9 38 10 39 11 40 12 41 13 42 59 43 14 44
REMARK SMILES IDX 58 45 15 46 16 47 17 48 52 49 18 50 57 51 51 52 53 53 19 54
REMARK SMILES IDX 56 55 50 56 49 57 20 59 42 60 27 61 41 62 28 63 31 64 40 65
REMARK SMILES IDX 54 66 29 67 30 68 39 70 55 71 32 72 21 73 22 74 26 75 23 76
REMARK SMILES IDX 25 77 24 78 43 79 44 80 48 81 45 82 47 83 46 84 33 85 34 86
REMARK SMILES IDX 38 87 35 88 37 89 36 90
REMARK H PARENT 64 13 75 24 53 58 31 69
REMARK Flexibility Score: inf
ROOT
ATOM      1  C   UNL A   1      34.975  32.431  28.072  1.00  0.00     0.261 C 
ENDROOT
BRANCH   1   2
ATOM      2  O   UNL A   1      34.202  31.289  27.658  1.00  0.00    -0.460 OA
BRANCH   2   3
ATOM      3  C   UNL A   1      34.605  30.049  27.290  1.00  0.00     0.338 C 
ATOM      4  O   UNL A   1      35.816  29.826  27.255  1.00  0.00    -0.246 OA
BRANCH   3   5
ATOM      5  C   UNL A   1      33.689  28.937  26.873  1.00  0.00     0.060 A 
ATOM      6  C   UNL A   1      34.093  27.729  26.333  1.00  0.00     0.018 A 
ATOM      7  C   UNL A   1      32.315  29.068  27.138  1.00  0.00     0.018 A 
ATOM      8  C   UNL A   1      33.192  26.686  26.115  1.00  0.00     0.027 A 
ATOM      9  C   UNL A   1      31.431  27.977  26.994  1.00  0.00     0.027 A 
ATOM     10  C   UNL A   1      31.900  26.735  26.563  1.00  0.00     0.041 A 
BRANCH  10  11
ATOM     11  N   UNL A   1      31.092  25.600  26.714  1.00  0.00    -0.326 N 
ATOM     12  C   UNL A   1      31.247  24.246  26.589  1.00  0.00     0.228 C 
ATOM     13  H   UNL A   1      30.175  25.838  26.978  1.00  0.00     0.169 HD
ATOM     14  O   UNL A   1      30.281  23.601  27.027  1.00  0.00    -0.274 OA
BRANCH  12  15
ATOM     15  C   UNL A   1      32.429  23.493  25.910  1.00  0.00     0.095 C 
ATOM     16  C   UNL A   1      33.515  23.325  27.020  1.00  0.00     0.041 C 
ATOM     17  C   UNL A   1      33.043  24.125  24.622  1.00  0.00     0.095 C 
ATOM     18  C   UNL A   1      34.867  22.881  26.575  1.00  0.00    -0.030 C 
ATOM     19  C   UNL A   1      34.555  23.885  24.334  1.00  0.00     0.041 C 
ATOM     20  C   UNL A   1      35.342  23.154  25.360  1.00  0.00    -0.030 C 
BRANCH  17  21
ATOM     21  C   UNL A   1      32.360  23.931  23.255  1.00  0.00     0.228 C 
ATOM     22  O   UNL A   1      32.381  22.801  22.748  1.00  0.00    -0.274 OA
ATOM     23  N   UNL A   1      31.601  24.883  22.613  1.00  0.00    -0.326 N 
ATOM     24  H   UNL A   1      31.024  24.498  21.913  1.00  0.00     0.169 HD
BRANCH  23  25
ATOM     25  C   UNL A   1      31.457  26.285  22.724  1.00  0.00     0.048 A 
ATOM     26  C   UNL A   1      32.611  27.071  22.682  1.00  0.00     0.026 A 
ATOM     27  C   UNL A   1      30.256  26.942  22.956  1.00  0.00     0.111 A 
ATOM     28  C   UNL A   1      32.550  28.471  22.791  1.00  0.00     0.009 A 
ATOM     29  C   UNL A   1      30.173  28.339  23.027  1.00  0.00     0.271 A 
ATOM     30  C   UNL A   1      31.323  29.116  22.942  1.00  0.00     0.086 A 
BRANCH  29  31
ATOM     31  N   UNL A   1      28.855  28.966  23.201  1.00  0.00     0.062 N 
ATOM     32  O   UNL A   1      27.863  28.226  23.221  1.00  0.00    -0.258 OA
ATOM     33  O   UNL A   1      28.816  30.200  23.322  1.00  0.00    -0.258 OA
ENDBRANCH  29  31
ENDBRANCH  23  25
ENDBRANCH  17  21
ENDBRANCH  12  15
ENDBRANCH  10  11
ENDBRANCH   3   5
ENDBRANCH   2   3
ENDBRANCH   1   2
BRANCH   1  34
ATOM     34  C   UNL A   1      34.427  33.039  29.370  1.00  0.00     0.202 C 
BRANCH  34  35
ATOM     35  O   UNL A   1      33.299  33.896  29.178  1.00  0.00    -0.374 OA
BRANCH  35  36
ATOM     36  C   UNL A   1      33.643  35.260  28.874  1.00  0.00     0.202 C 
BRANCH  36  37
ATOM     37  C   UNL A   1      32.898  36.245  29.784  1.00  0.00     0.261 C 
BRANCH  37  38
ATOM     38  O   UNL A   1      32.336  35.539  30.902  1.00  0.00    -0.460 OA
BRANCH  38  39
ATOM     39  C   UNL A   1      32.820  35.920  32.107  1.00  0.00     0.338 C 
ATOM     40  O   UNL A   1      32.330  36.712  32.898  1.00  0.00    -0.246 OA
BRANCH  39  41
ATOM     41  C   UNL A   1      33.934  35.017  32.465  1.00  0.00     0.060 A 
ATOM     42  C   UNL A   1      35.232  35.497  32.257  1.00  0.00     0.016 A 
ATOM     43  C   UNL A   1      33.730  33.770  33.060  1.00  0.00     0.016 A 
ATOM     44  C   UNL A   1      36.334  34.748  32.649  1.00  0.00     0.010 A 
ATOM     45  C   UNL A   1      34.834  33.013  33.447  1.00  0.00     0.010 A 
ATOM     46  C   UNL A   1      36.137  33.497  33.238  1.00  0.00    -0.014 A 
BRANCH  46  47
ATOM     47  C   UNL A   1      37.292  32.634  33.545  1.00  0.00     0.031 A 
ATOM     48  C   UNL A   1      38.051  32.887  34.812  1.00  0.00     0.074 A 
ATOM     49  C   UNL A   1      37.668  31.670  32.686  1.00  0.00     0.049 A 
ATOM     50  N   UNL A   1      39.177  32.364  35.216  1.00  0.00    -0.248 NA
ATOM     51  C   UNL A   1      37.468  33.869  35.743  1.00  0.00     0.031 C 
ATOM     52  C   UNL A   1      36.968  31.314  31.451  1.00  0.00     0.029 A 
ATOM     53  N   UNL A   1      38.754  30.836  32.710  1.00  0.00    -0.354 N 
ATOM     54  C   UNL A   1      39.453  32.974  36.432  1.00  0.00     0.074 A 
ATOM     55  C   UNL A   1      38.383  33.907  36.700  1.00  0.00     0.031 C 
ATOM     56  C   UNL A   1      37.664  30.354  30.818  1.00  0.00     0.029 A 
ATOM     57  C   UNL A   1      38.877  30.066  31.579  1.00  0.00     0.049 A 
ATOM     58  H   UNL A   1      39.385  30.791  33.466  1.00  0.00     0.167 HD
ATOM     59  C   UNL A   1      40.516  32.775  37.243  1.00  0.00     0.031 A 
ATOM     60  C   UNL A   1      39.883  29.262  31.184  1.00  0.00     0.031 A 
ATOM     61  C   UNL A   1      41.576  31.848  36.959  1.00  0.00     0.049 A 
ATOM     62  C   UNL A   1      41.091  29.121  32.075  1.00  0.00     0.074 A 
ATOM     63  C   UNL A   1      42.678  31.539  37.735  1.00  0.00     0.029 A 
ATOM     64  N   UNL A   1      41.672  31.095  35.800  1.00  0.00    -0.354 N 
ATOM     65  N   UNL A   1      41.322  29.661  33.247  1.00  0.00    -0.248 NA
ATOM     66  C   UNL A   1      42.180  28.264  31.583  1.00  0.00     0.031 C 
ATOM     67  C   UNL A   1      43.477  30.646  37.014  1.00  0.00     0.029 A 
ATOM     68  C   UNL A   1      42.839  30.354  35.819  1.00  0.00     0.049 A 
ATOM     69  H   UNL A   1      41.008  31.087  35.073  1.00  0.00     0.167 HD
ATOM     70  C   UNL A   1      42.569  29.195  33.641  1.00  0.00     0.074 A 
ATOM     71  C   UNL A   1      43.035  28.309  32.595  1.00  0.00     0.031 C 
ATOM     72  C   UNL A   1      43.275  29.476  34.764  1.00  0.00     0.031 A 
BRANCH  59  73
ATOM     73  C   UNL A   1      40.614  33.605  38.489  1.00  0.00    -0.014 A 
ATOM     74  C   UNL A   1      41.228  34.866  38.484  1.00  0.00     0.009 A 
ATOM     75  C   UNL A   1      40.022  33.139  39.674  1.00  0.00     0.009 A 
ATOM     76  C   UNL A   1      41.260  35.639  39.648  1.00  0.00     0.001 A 
ATOM     77  C   UNL A   1      40.033  33.923  40.827  1.00  0.00     0.001 A 
ATOM     78  C   UNL A   1      40.656  35.171  40.815  1.00  0.00     0.000 A 
ENDBRANCH  59  73
BRANCH  60  79
ATOM     79  C   UNL A   1      39.835  28.582  29.862  1.00  0.00    -0.014 A 
ATOM     80  C   UNL A   1      39.382  27.260  29.747  1.00  0.00     0.009 A 
ATOM     81  C   UNL A   1      40.295  29.239  28.709  1.00  0.00     0.009 A 
ATOM     82  C   UNL A   1      39.426  26.598  28.518  1.00  0.00     0.001 A 
ATOM     83  C   UNL A   1      40.307  28.588  27.474  1.00  0.00     0.001 A 
ATOM     84  C   UNL A   1      39.885  27.263  27.381  1.00  0.00     0.000 A 
ENDBRANCH  60  79
BRANCH  72  85
ATOM     85  C   UNL A   1      44.607  28.802  34.929  1.00  0.00    -0.014 A 
ATOM     86  C   UNL A   1      44.708  27.532  35.517  1.00  0.00     0.009 A 
ATOM     87  C   UNL A   1      45.764  29.420  34.431  1.00  0.00     0.009 A 
ATOM     88  C   UNL A   1      45.950  26.906  35.627  1.00  0.00     0.001 A 
ATOM     89  C   UNL A   1      46.999  28.778  34.515  1.00  0.00     0.001 A 
ATOM     90  C   UNL A   1      47.092  27.525  35.120  1.00  0.00     0.000 A 
ENDBRANCH  72  85
ENDBRANCH  46  47
ENDBRANCH  39  41
ENDBRANCH  38  39
ENDBRANCH  37  38
ENDBRANCH  36  37
ENDBRANCH  35  36
ENDBRANCH  34  35
ENDBRANCH   1  34
TORSDOF 19
ENDMDL
MODEL 2
REMARK VINA RESULT:     -11.4      6.103     11.533
REMARK SMILES O=C(OCCOCCOC(=O)c1ccc(-c2c3nc(c(-c4ccccc4)c4ccc([nH]4)c(-c4ccccc4)c4nc(c(-c5ccccc5)c5ccc2[nH]5)C=C4)C=C3)cc1)c1ccc(NC(=O)[C@@H]2CC=CC[C@H]2C(=O)Nc2cccc([N+](=O)[O-])c2)cc1
REMARK SMILES IDX 4 1 3 2 2 3 1 4 60 5 61 6 86 7 62 8 85 9 63 10 64 11 65 12
REMARK SMILES IDX 66 14 67 15 68 16 72 17 69 18 71 19 70 20 73 21 74 22 75 23
REMARK SMILES IDX 76 25 77 26 84 27 78 28 80 29 79 30 81 31 82 32 83 33 5 34
REMARK SMILES IDX 6 35 7 36 8 37 9 38 10 39 11 40 12 41 13 42 59 43 14 44
REMARK SMILES IDX 58 45 15 46 16 47 17 48 52 49 18 50 57 51 51 52 53 53 19 54
REMARK SMILES IDX 56 55 50 56 49 57 20 59 42 60 27 61 41 62 28 63 31 64 40 65
REMARK SMILES IDX 54 66 29 67 30 68 39 70 55 71 32 72 21 73 22 74 26 75 23 76
REMARK SMILES IDX 25 77 24 78 43 79 44 80 48 81 45 82 47 83 46 84 33 85 34 86
REMARK SMILES IDX 38 87 35 88 37 89 36 90
REMARK H PARENT 64 13 75 24 53 58 31 69
REMARK Flexibility Score: inf
ROOT
ATOM      1  C   UNL A   1      39.714  20.846  25.694  1.00  0.00     0.261 C 
ENDROOT
BRANCH   1   2
ATOM      2  O   UNL A   1      38.524  21.518  26.147  1.00  0.00    -0.460 OA
BRANCH   2   3
ATOM      3  C   UNL A   1      38.137  22.808  25.991  1.00  0.00     0.338 C 
ATOM      4  O   UNL A   1      38.702  23.663  26.674  1.00  0.00    -0.246 OA
BRANCH   3   5
ATOM      5  C   UNL A   1      37.036  23.270  25.083  1.00  0.00     0.060 A 
ATOM      6  C   UNL A   1      36.714  22.700  23.863  1.00  0.00     0.018 A 
ATOM      7  C   UNL A   1      36.185  24.295  25.532  1.00  0.00     0.018 A 
ATOM      8  C   UNL A   1      35.580  23.090  23.151  1.00  0.00     0.027 A 
ATOM      9  C   UNL A   1      34.996  24.617  24.843  1.00  0.00     0.027 A 
ATOM     10  C   UNL A   1      34.641  23.933  23.679  1.00  0.00     0.041 A 
BRANCH  10  11
ATOM     11  N   UNL A   1      33.336  24.044  23.182  1.00  0.00    -0.326 N 
ATOM     12  C   UNL A   1      32.367  25.008  23.142  1.00  0.00     0.228 C 
ATOM     13  H   UNL A   1      33.038  23.211  22.750  1.00  0.00     0.169 HD
ATOM     14  O   UNL A   1      31.414  24.714  22.403  1.00  0.00    -0.274 OA
BRANCH  12  15
ATOM     15  C   UNL A   1      32.323  26.333  23.960  1.00  0.00     0.095 C 
ATOM     16  C   UNL A   1      33.259  27.327  23.201  1.00  0.00     0.041 C 
ATOM     17  C   UNL A   1      32.698  26.260  25.473  1.00  0.00     0.095 C 
ATOM     18  C   UNL A   1      33.621  28.586  23.915  1.00  0.00    -0.030 C 
ATOM     19  C   UNL A   1      33.357  27.510  26.129  1.00  0.00     0.041 C 
ATOM     20  C   UNL A   1      33.682  28.659  25.244  1.00  0.00    -0.030 C 
BRANCH  17  21
ATOM     21  C   UNL A   1      31.664  25.786  26.511  1.00  0.00     0.228 C 
ATOM     22  O   UNL A   1      30.889  26.627  26.988  1.00  0.00    -0.274 OA
ATOM     23  N   UNL A   1      31.434  24.472  26.850  1.00  0.00    -0.326 N 
ATOM     24  H   UNL A   1      30.568  24.343  27.301  1.00  0.00     0.169 HD
BRANCH  23  25
ATOM     25  C   UNL A   1      32.154  23.265  26.703  1.00  0.00     0.048 A 
ATOM     26  C   UNL A   1      33.223  23.023  27.570  1.00  0.00     0.026 A 
ATOM     27  C   UNL A   1      31.932  22.328  25.702  1.00  0.00     0.111 A 
ATOM     28  C   UNL A   1      33.988  21.848  27.482  1.00  0.00     0.009 A 
ATOM     29  C   UNL A   1      32.660  21.133  25.625  1.00  0.00     0.271 A 
ATOM     30  C   UNL A   1      33.695  20.883  26.520  1.00  0.00     0.086 A 
BRANCH  29  31
ATOM     31  N   UNL A   1      32.319  20.156  24.581  1.00  0.00     0.062 N 
ATOM     32  O   UNL A   1      32.116  18.986  24.931  1.00  0.00    -0.258 OA
ATOM     33  O   UNL A   1      32.250  20.563  23.411  1.00  0.00    -0.258 OA
ENDBRANCH  29  31
ENDBRANCH  23  25
ENDBRANCH  17  21
ENDBRANCH  12  15
ENDBRANCH  10  11
ENDBRANCH   3   5
ENDBRANCH   2   3
ENDBRANCH   1   2
BRANCH   1  34
ATOM     34  C   UNL A   1      40.806  20.851  26.772  1.00  0.00     0.202 C 
BRANCH  34  35
ATOM     35  O   UNL A   1      41.136  19.552  27.269  1.00  0.00    -0.374 OA
BRANCH  35  36
ATOM     36  C   UNL A   1      42.523  19.199  27.114  1.00  0.00     0.202 C 
BRANCH  36  37
ATOM     37  C   UNL A   1      42.869  18.904  25.649  1.00  0.00     0.261 C 
BRANCH  37  38
ATOM     38  O   UNL A   1      44.295  18.932  25.476  1.00  0.00    -0.460 OA
BRANCH  38  39
ATOM     39  C   UNL A   1      44.713  19.591  24.369  1.00  0.00     0.338 C 
ATOM     40  O   UNL A   1      44.807  19.161  23.229  1.00  0.00    -0.246 OA
BRANCH  39  41
ATOM     41  C   UNL A   1      44.797  21.030  24.691  1.00  0.00     0.060 A 
ATOM     42  C   UNL A   1      45.297  21.370  25.954  1.00  0.00     0.016 A 
ATOM     43  C   UNL A   1      44.476  22.028  23.768  1.00  0.00     0.016 A 
ATOM     44  C   UNL A   1      45.491  22.701  26.303  1.00  0.00     0.010 A 
ATOM     45  C   UNL A   1      44.663  23.364  24.118  1.00  0.00     0.010 A 
ATOM     46  C   UNL A   1      45.165  23.703  25.387  1.00  0.00    -0.014 A 
BRANCH  46  47
ATOM     47  C   UNL A   1      45.246  25.121  25.782  1.00  0.00     0.031 A 
ATOM     48  C   UNL A   1      46.586  25.789  25.762  1.00  0.00     0.074 A 
ATOM     49  C   UNL A   1      44.143  25.778  26.183  1.00  0.00     0.049 A 
ATOM     50  N   UNL A   1      46.925  26.969  26.206  1.00  0.00    -0.248 NA
ATOM     51  C   UNL A   1      47.696  25.020  25.172  1.00  0.00     0.031 C 
ATOM     52  C   UNL A   1      42.786  25.232  26.193  1.00  0.00     0.029 A 
ATOM     53  N   UNL A   1      44.001  27.043  26.690  1.00  0.00    -0.354 N 
ATOM     54  C   UNL A   1      48.291  27.073  25.978  1.00  0.00     0.074 A 
ATOM     55  C   UNL A   1      48.720  25.839  25.360  1.00  0.00     0.031 C 
ATOM     56  C   UNL A   1      41.952  26.147  26.716  1.00  0.00     0.029 A 
ATOM     57  C   UNL A   1      42.725  27.319  27.117  1.00  0.00     0.049 A 
ATOM     58  H   UNL A   1      44.741  27.691  26.743  1.00  0.00     0.167 HD
ATOM     59  C   UNL A   1      49.110  28.108  26.272  1.00  0.00     0.031 A 
ATOM     60  C   UNL A   1      42.251  28.379  27.802  1.00  0.00     0.031 A 
ATOM     61  C   UNL A   1      48.669  29.325  26.892  1.00  0.00     0.049 A 
ATOM     62  C   UNL A   1      43.206  29.481  28.183  1.00  0.00     0.074 A 
ATOM     63  C   UNL A   1      49.410  30.453  27.195  1.00  0.00     0.029 A 
ATOM     64  N   UNL A   1      47.373  29.565  27.320  1.00  0.00    -0.354 N 
ATOM     65  N   UNL A   1      44.486  29.595  27.919  1.00  0.00    -0.248 NA
ATOM     66  C   UNL A   1      42.652  30.597  28.964  1.00  0.00     0.031 C 
ATOM     67  C   UNL A   1      48.575  31.351  27.867  1.00  0.00     0.029 A 
ATOM     68  C   UNL A   1      47.301  30.806  27.925  1.00  0.00     0.049 A 
ATOM     69  H   UNL A   1      46.616  28.945  27.209  1.00  0.00     0.167 HD
ATOM     70  C   UNL A   1      44.883  30.802  28.481  1.00  0.00     0.074 A 
ATOM     71  C   UNL A   1      43.705  31.393  29.081  1.00  0.00     0.031 C 
ATOM     72  C   UNL A   1      46.113  31.371  28.509  1.00  0.00     0.031 A 
BRANCH  59  73
ATOM     73  C   UNL A   1      50.571  27.952  25.971  1.00  0.00    -0.014 A 
ATOM     74  C   UNL A   1      51.105  28.303  24.722  1.00  0.00     0.009 A 
ATOM     75  C   UNL A   1      51.437  27.506  26.982  1.00  0.00     0.009 A 
ATOM     76  C   UNL A   1      52.478  28.195  24.487  1.00  0.00     0.001 A 
ATOM     77  C   UNL A   1      52.811  27.423  26.753  1.00  0.00     0.001 A 
ATOM     78  C   UNL A   1      53.330  27.764  25.504  1.00  0.00     0.000 A 
ENDBRANCH  59  73
BRANCH  60  79
ATOM     79  C   UNL A   1      40.830  28.427  28.236  1.00  0.00    -0.014 A 
ATOM     80  C   UNL A   1      39.864  29.094  27.469  1.00  0.00     0.009 A 
ATOM     81  C   UNL A   1      40.439  27.846  29.454  1.00  0.00     0.009 A 
ATOM     82  C   UNL A   1      38.550  29.213  27.928  1.00  0.00     0.001 A 
ATOM     83  C   UNL A   1      39.118  27.935  29.896  1.00  0.00     0.001 A 
ATOM     84  C   UNL A   1      38.177  28.631  29.139  1.00  0.00     0.000 A 
ENDBRANCH  60  79
BRANCH  72  85
ATOM     85  C   UNL A   1      46.240  32.706  29.185  1.00  0.00    -0.014 A 
ATOM     86  C   UNL A   1      46.507  32.801  30.559  1.00  0.00     0.009 A 
ATOM     87  C   UNL A   1      46.154  33.881  28.422  1.00  0.00     0.009 A 
ATOM     88  C   UNL A   1      46.660  34.050  31.160  1.00  0.00     0.001 A 
ATOM     89  C   UNL A   1      46.338  35.127  29.020  1.00  0.00     0.001 A 
ATOM     90  C   UNL A   1      46.582  35.211  30.390  1.00  0.00     0.000 A 
ENDBRANCH  72  85
ENDBRANCH  46  47
ENDBRANCH  39  41
ENDBRANCH  38  39
ENDBRANCH  37  38
ENDBRANCH  36  37
ENDBRANCH  35  36
ENDBRANCH  34  35
ENDBRANCH   1  34
TORSDOF 19
ENDMDL
MODEL 3
REMARK VINA RESULT:     -11.0      4.342      6.408
REMARK SMILES O=C(OCCOCCOC(=O)c1ccc(-c2c3nc(c(-c4ccccc4)c4ccc([nH]4)c(-c4ccccc4)c4nc(c(-c5ccccc5)c5ccc2[nH]5)C=C4)C=C3)cc1)c1ccc(NC(=O)[C@@H]2CC=CC[C@H]2C(=O)Nc2cccc([N+](=O)[O-])c2)cc1
REMARK SMILES IDX 4 1 3 2 2 3 1 4 60 5 61 6 86 7 62 8 85 9 63 10 64 11 65 12
REMARK SMILES IDX 66 14 67 15 68 16 72 17 69 18 71 19 70 20 73 21 74 22 75 23
REMARK SMILES IDX 76 25 77 26 84 27 78 28 80 29 79 30 81 31 82 32 83 33 5 34
REMARK SMILES IDX 6 35 7 36 8 37 9 38 10 39 11 40 12 41 13 42 59 43 14 44
REMARK SMILES IDX 58 45 15 46 16 47 17 48 52 49 18 50 57 51 51 52 53 53 19 54
REMARK SMILES IDX 56 55 50 56 49 57 20 59 42 60 27 61 41 62 28 63 31 64 40 65
REMARK SMILES IDX 54 66 29 67 30 68 39 70 55 71 32 72 21 73 22 74 26 75 23 76
REMARK SMILES IDX 25 77 24 78 43 79 44 80 48 81 45 82 47 83 46 84 33 85 34 86
REMARK SMILES IDX 38 87 35 88 37 89 36 90
REMARK H PARENT 64 13 75 24 53 58 31 69
REMARK Flexibility Score: inf
ROOT
ATOM      1  C   UNL A   1      33.651  30.885  27.883  1.00  0.00     0.261 C 
ENDROOT
BRANCH   1   2
ATOM      2  O   UNL A   1      33.799  30.014  26.746  1.00  0.00    -0.460 OA
BRANCH   2   3
ATOM      3  C   UNL A   1      32.874  29.278  26.083  1.00  0.00     0.338 C 
ATOM      4  O   UNL A   1      31.956  29.880  25.524  1.00  0.00    -0.246 OA
BRANCH   3   5
ATOM      5  C   UNL A   1      32.855  27.780  26.017  1.00  0.00     0.060 A 
ATOM      6  C   UNL A   1      33.923  26.982  25.647  1.00  0.00     0.018 A 
ATOM      7  C   UNL A   1      31.703  27.106  26.459  1.00  0.00     0.018 A 
ATOM      8  C   UNL A   1      33.872  25.593  25.759  1.00  0.00     0.027 A 
ATOM      9  C   UNL A   1      31.697  25.708  26.649  1.00  0.00     0.027 A 
ATOM     10  C   UNL A   1      32.839  24.950  26.382  1.00  0.00     0.041 A 
BRANCH  10  11
ATOM     11  N   UNL A   1      32.921  23.633  26.855  1.00  0.00    -0.326 N 
ATOM     12  C   UNL A   1      33.580  22.489  26.498  1.00  0.00     0.228 C 
ATOM     13  H   UNL A   1      32.358  23.496  27.650  1.00  0.00     0.169 HD
ATOM     14  O   UNL A   1      33.498  21.591  27.352  1.00  0.00    -0.274 OA
BRANCH  12  15
ATOM     15  C   UNL A   1      34.314  22.206  25.153  1.00  0.00     0.095 C 
ATOM     16  C   UNL A   1      35.833  22.418  25.450  1.00  0.00     0.041 C 
ATOM     17  C   UNL A   1      33.871  23.026  23.902  1.00  0.00     0.095 C 
ATOM     18  C   UNL A   1      36.744  22.483  24.271  1.00  0.00    -0.030 C 
ATOM     19  C   UNL A   1      34.937  23.335  22.810  1.00  0.00     0.041 C 
ATOM     20  C   UNL A   1      36.337  22.917  23.079  1.00  0.00    -0.030 C 
BRANCH  17  21
ATOM     21  C   UNL A   1      32.617  22.619  23.106  1.00  0.00     0.228 C 
ATOM     22  O   UNL A   1      32.504  21.433  22.763  1.00  0.00    -0.274 OA
ATOM     23  N   UNL A   1      31.537  23.438  22.864  1.00  0.00    -0.326 N 
ATOM     24  H   UNL A   1      30.733  22.935  22.598  1.00  0.00     0.169 HD
BRANCH  23  25
ATOM     25  C   UNL A   1      31.316  24.833  22.907  1.00  0.00     0.048 A 
ATOM     26  C   UNL A   1      30.059  25.289  23.315  1.00  0.00     0.026 A 
ATOM     27  C   UNL A   1      32.230  25.793  22.495  1.00  0.00     0.111 A 
ATOM     28  C   UNL A   1      29.761  26.661  23.379  1.00  0.00     0.009 A 
ATOM     29  C   UNL A   1      31.963  27.165  22.591  1.00  0.00     0.271 A 
ATOM     30  C   UNL A   1      30.724  27.610  23.038  1.00  0.00     0.086 A 
BRANCH  29  31
ATOM     31  N   UNL A   1      33.009  28.123  22.204  1.00  0.00     0.062 N 
ATOM     32  O   UNL A   1      32.823  29.318  22.470  1.00  0.00    -0.258 OA
ATOM     33  O   UNL A   1      34.019  27.677  21.638  1.00  0.00    -0.258 OA
ENDBRANCH  29  31
ENDBRANCH  23  25
ENDBRANCH  17  21
ENDBRANCH  12  15
ENDBRANCH  10  11
ENDBRANCH   3   5
ENDBRANCH   2   3
ENDBRANCH   1   2
BRANCH   1  34
ATOM     34  C   UNL A   1      34.847  31.837  28.020  1.00  0.00     0.202 C 
BRANCH  34  35
ATOM     35  O   UNL A   1      34.503  33.220  27.909  1.00  0.00    -0.374 OA
BRANCH  35  36
ATOM     36  C   UNL A   1      33.894  33.769  29.092  1.00  0.00     0.202 C 
BRANCH  36  37
ATOM     37  C   UNL A   1      34.409  33.083  30.363  1.00  0.00     0.261 C 
BRANCH  37  38
ATOM     38  O   UNL A   1      35.438  33.888  30.961  1.00  0.00    -0.460 OA
BRANCH  38  39
ATOM     39  C   UNL A   1      36.128  33.272  31.950  1.00  0.00     0.338 C 
ATOM     40  O   UNL A   1      35.772  33.070  33.102  1.00  0.00    -0.246 OA
BRANCH  39  41
ATOM     41  C   UNL A   1      37.313  32.623  31.353  1.00  0.00     0.060 A 
ATOM     42  C   UNL A   1      38.035  31.744  32.170  1.00  0.00     0.016 A 
ATOM     43  C   UNL A   1      37.672  32.797  30.015  1.00  0.00     0.016 A 
ATOM     44  C   UNL A   1      39.109  31.026  31.660  1.00  0.00     0.010 A 
ATOM     45  C   UNL A   1      38.753  32.083  29.502  1.00  0.00     0.010 A 
ATOM     46  C   UNL A   1      39.477  31.201  30.324  1.00  0.00    -0.014 A 
BRANCH  46  47
ATOM     47  C   UNL A   1      40.687  30.545  29.798  1.00  0.00     0.031 A 
ATOM     48  C   UNL A   1      41.936  31.362  29.659  1.00  0.00     0.074 A 
ATOM     49  C   UNL A   1      40.651  29.254  29.422  1.00  0.00     0.049 A 
ATOM     50  N   UNL A   1      43.066  31.048  29.086  1.00  0.00    -0.248 NA
ATOM     51  C   UNL A   1      41.901  32.718  30.233  1.00  0.00     0.031 C 
ATOM     52  C   UNL A   1      39.500  28.361  29.561  1.00  0.00     0.029 A 
ATOM     53  N   UNL A   1      41.606  28.481  28.815  1.00  0.00    -0.354 N 
ATOM     54  C   UNL A   1      43.867  32.176  29.203  1.00  0.00     0.074 A 
ATOM     55  C   UNL A   1      43.095  33.182  29.897  1.00  0.00     0.031 C 
ATOM     56  C   UNL A   1      39.807  27.169  29.021  1.00  0.00     0.029 A 
ATOM     57  C   UNL A   1      41.154  27.234  28.459  1.00  0.00     0.049 A 
ATOM     58  H   UNL A   1      42.527  28.790  28.650  1.00  0.00     0.167 HD
ATOM     59  C   UNL A   1      45.131  32.353  28.758  1.00  0.00     0.031 A 
ATOM     60  C   UNL A   1      41.746  26.277  27.719  1.00  0.00     0.031 A 
ATOM     61  C   UNL A   1      45.882  31.344  28.065  1.00  0.00     0.049 A 
ATOM     62  C   UNL A   1      43.126  26.534  27.171  1.00  0.00     0.074 A 
ATOM     63  C   UNL A   1      47.186  31.405  27.608  1.00  0.00     0.029 A 
ATOM     64  N   UNL A   1      45.388  30.098  27.714  1.00  0.00    -0.354 N 
ATOM     65  N   UNL A   1      43.896  27.583  27.329  1.00  0.00    -0.248 NA
ATOM     66  C   UNL A   1      43.714  25.477  26.335  1.00  0.00     0.031 C 
ATOM     67  C   UNL A   1      47.459  30.218  26.922  1.00  0.00     0.029 A 
ATOM     68  C   UNL A   1      46.346  29.396  27.006  1.00  0.00     0.049 A 
ATOM     69  H   UNL A   1      44.489  29.762  27.936  1.00  0.00     0.167 HD
ATOM     70  C   UNL A   1      45.065  27.305  26.632  1.00  0.00     0.074 A 
ATOM     71  C   UNL A   1      44.912  25.979  26.071  1.00  0.00     0.031 C 
ATOM     72  C   UNL A   1      46.167  28.075  26.463  1.00  0.00     0.031 A 
BRANCH  59  73
ATOM     73  C   UNL A   1      45.766  33.696  28.963  1.00  0.00    -0.014 A 
ATOM     74  C   UNL A   1      46.408  34.029  30.165  1.00  0.00     0.009 A 
ATOM     75  C   UNL A   1      45.774  34.621  27.906  1.00  0.00     0.009 A 
ATOM     76  C   UNL A   1      47.034  35.269  30.309  1.00  0.00     0.001 A 
ATOM     77  C   UNL A   1      46.422  35.849  28.044  1.00  0.00     0.001 A 
ATOM     78  C   UNL A   1      47.047  36.173  29.247  1.00  0.00     0.000 A 
ENDBRANCH  59  73
BRANCH  60  79
ATOM     79  C   UNL A   1      41.023  25.019  27.388  1.00  0.00    -0.014 A 
ATOM     80  C   UNL A   1      39.914  25.030  26.530  1.00  0.00     0.009 A 
ATOM     81  C   UNL A   1      41.411  23.802  27.974  1.00  0.00     0.009 A 
ATOM     82  C   UNL A   1      39.186  23.861  26.295  1.00  0.00     0.001 A 
ATOM     83  C   UNL A   1      40.703  22.627  27.712  1.00  0.00     0.001 A 
ATOM     84  C   UNL A   1      39.582  22.660  26.883  1.00  0.00     0.000 A 
ENDBRANCH  60  79
BRANCH  72  85
ATOM     85  C   UNL A   1      47.298  27.496  25.662  1.00  0.00    -0.014 A 
ATOM     86  C   UNL A   1      48.314  26.750  26.279  1.00  0.00     0.009 A 
ATOM     87  C   UNL A   1      47.310  27.646  24.267  1.00  0.00     0.009 A 
ATOM     88  C   UNL A   1      49.336  26.187  25.513  1.00  0.00     0.001 A 
ATOM     89  C   UNL A   1      48.315  27.055  23.502  1.00  0.00     0.001 A 
ATOM     90  C   UNL A   1      49.332  26.334  24.126  1.00  0.00     0.000 A 
ENDBRANCH  72  85
ENDBRANCH  46  47
ENDBRANCH  39  41
ENDBRANCH  38  39
ENDBRANCH  37  38
ENDBRANCH  36  37
ENDBRANCH  35  36
ENDBRANCH  34  35
ENDBRANCH   1  34
TORSDOF 19
ENDMDL
