MODEL 1
REMARK VINA RESULT:     -11.9      0.000      0.000
REMARK SMILES CC(=O)Nc1cnc(N2CC=C(c3ccccc3C)CC2)c(C(=O)OCCOCCOC(=O)c2ccc(-c3c4nc(c(-c5ccccc5)c5ccc([nH]5)c(-c5ccccc5)c5nc(c(-c6ccccc6)c6ccc3[nH]6)C=C5)C=C4)cc2)c1
REMARK SMILES IDX 28 1 27 2 26 3 25 4 23 5 24 6 22 7 5 8 6 9 82 10 7 11 8 12
REMARK SMILES IDX 4 13 1 14 2 15 3 16 9 18 10 19 21 20 11 21 20 22 12 23 13 24
REMARK SMILES IDX 14 25 18 26 15 27 17 28 19 29 16 30 29 31 30 32 31 33 32 34
REMARK SMILES IDX 33 35 34 36 35 37 81 38 36 39 80 40 37 41 38 42 39 43 74 44
REMARK SMILES IDX 40 45 79 46 73 47 75 48 41 49 78 50 72 51 71 52 42 54 64 55
REMARK SMILES IDX 49 56 63 57 50 58 53 59 62 60 76 61 51 62 52 63 61 65 77 66
REMARK SMILES IDX 54 67 43 68 44 69 48 70 45 71 47 72 46 73 65 74 66 75 70 76
REMARK SMILES IDX 67 77 69 78 68 79 55 80 56 81 60 82 57 83 59 84 58 85
REMARK H PARENT 4 17 75 53 53 64
REMARK Flexibility Score: inf
ROOT
ATOM      1  O   UNL A   1      34.273  29.984  27.575  1.00  0.00    -0.374 OA
ENDROOT
BRANCH   1   2
ATOM      2  C   UNL A   1      32.969  29.723  27.085  1.00  0.00     0.202 C 
BRANCH   2   3
ATOM      3  C   UNL A   1      32.828  28.242  27.185  1.00  0.00     0.261 C 
BRANCH   3   4
ATOM      4  O   UNL A   1      31.484  27.870  26.827  1.00  0.00    -0.460 OA
BRANCH   4   5
ATOM      5  C   UNL A   1      31.149  26.822  26.017  1.00  0.00     0.342 C 
ATOM      6  O   UNL A   1      30.997  25.669  26.334  1.00  0.00    -0.246 OA
BRANCH   5   7
ATOM      7  C   UNL A   1      31.018  27.386  24.657  1.00  0.00     0.104 A 
ATOM      8  C   UNL A   1      29.594  28.760  23.247  1.00  0.00     0.060 A 
ATOM      9  C   UNL A   1      30.359  28.304  22.191  1.00  0.00     0.139 A 
ATOM     10  C   UNL A   1      29.957  28.287  24.481  1.00  0.00     0.047 A 
ATOM     11  N   UNL A   1      31.461  27.509  22.332  1.00  0.00    -0.236 NA
ATOM     12  C   UNL A   1      31.801  27.029  23.562  1.00  0.00     0.143 A 
BRANCH   8  13
ATOM     13  N   UNL A   1      28.430  29.537  23.092  1.00  0.00    -0.325 N 
ATOM     14  C   UNL A   1      29.296  31.750  23.906  1.00  0.00     0.114 C 
ATOM     15  C   UNL A   1      28.164  30.803  23.559  1.00  0.00     0.221 C 
ATOM     16  O   UNL A   1      26.993  31.177  23.648  1.00  0.00    -0.275 OA
ATOM     17  H   UNL A   1      27.706  29.115  22.577  1.00  0.00     0.169 HD
ENDBRANCH   8  13
BRANCH  12  18
ATOM     18  N   UNL A   1      32.851  26.137  23.581  1.00  0.00    -0.352 N 
ATOM     19  C   UNL A   1      33.105  25.346  22.380  1.00  0.00     0.146 C 
ATOM     20  C   UNL A   1      33.994  26.355  24.456  1.00  0.00     0.123 C 
ATOM     21  C   UNL A   1      33.963  24.144  22.725  1.00  0.00    -0.002 C 
ATOM     22  C   UNL A   1      34.475  25.013  25.000  1.00  0.00     0.057 C 
ATOM     23  C   UNL A   1      34.564  23.961  23.919  1.00  0.00    -0.041 C 
BRANCH  23  24
ATOM     24  C   UNL A   1      35.331  22.740  24.245  1.00  0.00    -0.020 A 
ATOM     25  C   UNL A   1      36.735  22.794  24.220  1.00  0.00     0.008 A 
ATOM     26  C   UNL A   1      34.701  21.537  24.632  1.00  0.00    -0.044 A 
ATOM     27  C   UNL A   1      37.503  21.693  24.605  1.00  0.00     0.001 A 
ATOM     28  C   UNL A   1      35.488  20.444  25.036  1.00  0.00     0.004 A 
ATOM     29  C   UNL A   1      33.204  21.377  24.665  1.00  0.00     0.045 C 
ATOM     30  C   UNL A   1      36.879  20.522  25.021  1.00  0.00     0.000 A 
ENDBRANCH  23  24
ENDBRANCH  12  18
ENDBRANCH   5   7
ENDBRANCH   4   5
ENDBRANCH   3   4
ENDBRANCH   2   3
ENDBRANCH   1   2
BRANCH   1  31
ATOM     31  C   UNL A   1      34.644  31.341  27.628  1.00  0.00     0.202 C 
BRANCH  31  32
ATOM     32  C   UNL A   1      33.455  32.237  27.972  1.00  0.00     0.261 C 
BRANCH  32  33
ATOM     33  O   UNL A   1      33.905  33.604  28.115  1.00  0.00    -0.460 OA
BRANCH  33  34
ATOM     34  C   UNL A   1      34.014  34.065  29.394  1.00  0.00     0.338 C 
ATOM     35  O   UNL A   1      33.169  34.727  29.976  1.00  0.00    -0.246 OA
BRANCH  34  36
ATOM     36  C   UNL A   1      35.418  33.903  29.882  1.00  0.00     0.060 A 
ATOM     37  C   UNL A   1      36.498  34.208  29.029  1.00  0.00     0.016 A 
ATOM     38  C   UNL A   1      35.634  33.131  31.017  1.00  0.00     0.016 A 
ATOM     39  C   UNL A   1      37.746  33.591  29.216  1.00  0.00     0.010 A 
ATOM     40  C   UNL A   1      36.820  32.434  31.119  1.00  0.00     0.010 A 
ATOM     41  C   UNL A   1      37.876  32.626  30.211  1.00  0.00    -0.014 A 
BRANCH  41  42
ATOM     42  C   UNL A   1      39.019  31.721  30.399  1.00  0.00     0.031 A 
ATOM     43  C   UNL A   1      38.910  30.358  29.841  1.00  0.00     0.074 A 
ATOM     44  C   UNL A   1      40.235  32.149  30.828  1.00  0.00     0.049 A 
ATOM     45  N   UNL A   1      39.688  29.390  30.175  1.00  0.00    -0.248 NA
ATOM     46  C   UNL A   1      37.872  29.944  28.897  1.00  0.00     0.031 C 
ATOM     47  C   UNL A   1      41.556  31.562  30.572  1.00  0.00     0.029 A 
ATOM     48  N   UNL A   1      40.557  33.284  31.571  1.00  0.00    -0.354 N 
ATOM     49  C   UNL A   1      39.517  28.398  29.241  1.00  0.00     0.074 A 
ATOM     50  C   UNL A   1      38.278  28.713  28.580  1.00  0.00     0.031 C 
ATOM     51  C   UNL A   1      42.478  32.175  31.340  1.00  0.00     0.029 A 
ATOM     52  C   UNL A   1      41.771  33.075  32.238  1.00  0.00     0.049 A 
ATOM     53  H   UNL A   1      40.016  34.105  31.619  1.00  0.00     0.167 HD
ATOM     54  C   UNL A   1      40.539  27.522  29.029  1.00  0.00     0.031 A 
ATOM     55  C   UNL A   1      41.809  33.122  33.598  1.00  0.00     0.031 A 
ATOM     56  C   UNL A   1      41.669  27.784  29.939  1.00  0.00     0.049 A 
ATOM     57  C   UNL A   1      42.074  31.741  34.137  1.00  0.00     0.074 A 
ATOM     58  C   UNL A   1      42.945  28.294  29.766  1.00  0.00     0.029 A 
ATOM     59  N   UNL A   1      41.434  27.826  31.309  1.00  0.00    -0.354 N 
ATOM     60  N   UNL A   1      42.160  30.699  33.359  1.00  0.00    -0.248 NA
ATOM     61  C   UNL A   1      42.210  31.386  35.543  1.00  0.00     0.031 C 
ATOM     62  C   UNL A   1      43.465  28.638  31.054  1.00  0.00     0.029 A 
ATOM     63  C   UNL A   1      42.523  28.304  32.012  1.00  0.00     0.049 A 
ATOM     64  H   UNL A   1      40.589  27.547  31.730  1.00  0.00     0.167 HD
ATOM     65  C   UNL A   1      42.340  29.573  34.083  1.00  0.00     0.074 A 
ATOM     66  C   UNL A   1      42.324  30.045  35.462  1.00  0.00     0.031 C 
ATOM     67  C   UNL A   1      42.469  28.359  33.473  1.00  0.00     0.031 A 
BRANCH  54  68
ATOM     68  C   UNL A   1      40.617  26.576  27.850  1.00  0.00    -0.014 A 
ATOM     69  C   UNL A   1      39.595  25.627  27.663  1.00  0.00     0.009 A 
ATOM     70  C   UNL A   1      41.658  26.534  26.904  1.00  0.00     0.009 A 
ATOM     71  C   UNL A   1      39.638  24.674  26.633  1.00  0.00     0.001 A 
ATOM     72  C   UNL A   1      41.719  25.577  25.880  1.00  0.00     0.001 A 
ATOM     73  C   UNL A   1      40.706  24.641  25.748  1.00  0.00     0.000 A 
ENDBRANCH  54  68
BRANCH  55  74
ATOM     74  C   UNL A   1      40.878  34.159  34.156  1.00  0.00    -0.014 A 
ATOM     75  C   UNL A   1      39.721  33.718  34.838  1.00  0.00     0.009 A 
ATOM     76  C   UNL A   1      41.345  35.455  34.432  1.00  0.00     0.009 A 
ATOM     77  C   UNL A   1      39.129  34.498  35.844  1.00  0.00     0.001 A 
ATOM     78  C   UNL A   1      40.765  36.220  35.457  1.00  0.00     0.001 A 
ATOM     79  C   UNL A   1      39.681  35.731  36.183  1.00  0.00     0.000 A 
ENDBRANCH  55  74
BRANCH  67  80
ATOM     80  C   UNL A   1      42.533  27.086  34.250  1.00  0.00    -0.014 A 
ATOM     81  C   UNL A   1      41.490  26.652  35.073  1.00  0.00     0.009 A 
ATOM     82  C   UNL A   1      43.699  26.298  34.205  1.00  0.00     0.009 A 
ATOM     83  C   UNL A   1      41.560  25.416  35.718  1.00  0.00     0.001 A 
ATOM     84  C   UNL A   1      43.790  25.085  34.879  1.00  0.00     0.001 A 
ATOM     85  C   UNL A   1      42.705  24.630  35.611  1.00  0.00     0.000 A 
ENDBRANCH  67  80
ENDBRANCH  41  42
ENDBRANCH  34  36
ENDBRANCH  33  34
ENDBRANCH  32  33
ENDBRANCH  31  32
ENDBRANCH   1  31
TORSDOF 17
ENDMDL
MODEL 2
REMARK VINA RESULT:     -11.8      3.924      8.449
REMARK SMILES CC(=O)Nc1cnc(N2CC=C(c3ccccc3C)CC2)c(C(=O)OCCOCCOC(=O)c2ccc(-c3c4nc(c(-c5ccccc5)c5ccc([nH]5)c(-c5ccccc5)c5nc(c(-c6ccccc6)c6ccc3[nH]6)C=C5)C=C4)cc2)c1
REMARK SMILES IDX 28 1 27 2 26 3 25 4 23 5 24 6 22 7 5 8 6 9 82 10 7 11 8 12
REMARK SMILES IDX 4 13 1 14 2 15 3 16 9 18 10 19 21 20 11 21 20 22 12 23 13 24
REMARK SMILES IDX 14 25 18 26 15 27 17 28 19 29 16 30 29 31 30 32 31 33 32 34
REMARK SMILES IDX 33 35 34 36 35 37 81 38 36 39 80 40 37 41 38 42 39 43 74 44
REMARK SMILES IDX 40 45 79 46 73 47 75 48 41 49 78 50 72 51 71 52 42 54 64 55
REMARK SMILES IDX 49 56 63 57 50 58 53 59 62 60 76 61 51 62 52 63 61 65 77 66
REMARK SMILES IDX 54 67 43 68 44 69 48 70 45 71 47 72 46 73 65 74 66 75 70 76
REMARK SMILES IDX 67 77 69 78 68 79 55 80 56 81 60 82 57 83 59 84 58 85
REMARK H PARENT 4 17 75 53 53 64
REMARK Flexibility Score: inf
ROOT
ATOM      1  O   UNL A   1      37.649  22.570  26.198  1.00  0.00    -0.374 OA
ENDROOT
BRANCH   1   2
ATOM      2  C   UNL A   1      37.156  23.813  25.727  1.00  0.00     0.202 C 
BRANCH   2   3
ATOM      3  C   UNL A   1      35.688  23.595  25.583  1.00  0.00     0.261 C 
BRANCH   3   4
ATOM      4  O   UNL A   1      35.077  24.801  25.086  1.00  0.00    -0.460 OA
BRANCH   4   5
ATOM      5  C   UNL A   1      34.441  24.920  23.883  1.00  0.00     0.342 C 
ATOM      6  O   UNL A   1      34.897  24.712  22.787  1.00  0.00    -0.246 OA
BRANCH   5   7
ATOM      7  C   UNL A   1      33.068  25.370  24.194  1.00  0.00     0.104 A 
ATOM      8  C   UNL A   1      31.738  27.328  24.747  1.00  0.00     0.060 A 
ATOM      9  C   UNL A   1      30.736  26.438  25.080  1.00  0.00     0.139 A 
ATOM     10  C   UNL A   1      32.900  26.760  24.293  1.00  0.00     0.047 A 
ATOM     11  N   UNL A   1      30.823  25.085  24.902  1.00  0.00    -0.236 NA
ATOM     12  C   UNL A   1      31.990  24.531  24.469  1.00  0.00     0.143 A 
BRANCH   8  13
ATOM     13  N   UNL A   1      31.662  28.714  24.979  1.00  0.00    -0.325 N 
ATOM     14  C   UNL A   1      32.698  28.812  27.266  1.00  0.00     0.114 C 
ATOM     15  C   UNL A   1      31.868  29.411  26.147  1.00  0.00     0.221 C 
ATOM     16  O   UNL A   1      31.411  30.550  26.257  1.00  0.00    -0.275 OA
ATOM     17  H   UNL A   1      31.429  29.261  24.195  1.00  0.00     0.169 HD
ENDBRANCH   8  13
BRANCH  12  18
ATOM     18  N   UNL A   1      32.018  23.153  24.442  1.00  0.00    -0.352 N 
ATOM     19  C   UNL A   1      31.724  22.434  25.678  1.00  0.00     0.146 C 
ATOM     20  C   UNL A   1      31.759  22.431  23.205  1.00  0.00     0.123 C 
ATOM     21  C   UNL A   1      32.233  21.009  25.579  1.00  0.00    -0.002 C 
ATOM     22  C   UNL A   1      32.667  21.206  23.137  1.00  0.00     0.057 C 
ATOM     23  C   UNL A   1      32.695  20.447  24.443  1.00  0.00    -0.041 C 
BRANCH  23  24
ATOM     24  C   UNL A   1      33.254  19.079  24.402  1.00  0.00    -0.020 A 
ATOM     25  C   UNL A   1      32.403  18.009  24.077  1.00  0.00     0.008 A 
ATOM     26  C   UNL A   1      34.624  18.819  24.624  1.00  0.00    -0.044 A 
ATOM     27  C   UNL A   1      32.902  16.711  23.940  1.00  0.00     0.001 A 
ATOM     28  C   UNL A   1      35.113  17.511  24.463  1.00  0.00     0.004 A 
ATOM     29  C   UNL A   1      35.606  19.897  25.001  1.00  0.00     0.045 C 
ATOM     30  C   UNL A   1      34.258  16.465  24.124  1.00  0.00     0.000 A 
ENDBRANCH  23  24
ENDBRANCH  12  18
ENDBRANCH   5   7
ENDBRANCH   4   5
ENDBRANCH   3   4
ENDBRANCH   2   3
ENDBRANCH   1   2
BRANCH   1  31
ATOM     31  C   UNL A   1      39.050  22.434  26.204  1.00  0.00     0.202 C 
BRANCH  31  32
ATOM     32  C   UNL A   1      39.485  21.066  25.681  1.00  0.00     0.261 C 
BRANCH  32  33
ATOM     33  O   UNL A   1      40.492  20.511  26.560  1.00  0.00    -0.460 OA
BRANCH  33  34
ATOM     34  C   UNL A   1      41.781  20.610  26.126  1.00  0.00     0.338 C 
ATOM     35  O   UNL A   1      42.351  19.787  25.426  1.00  0.00    -0.246 OA
BRANCH  34  36
ATOM     36  C   UNL A   1      42.490  21.704  26.859  1.00  0.00     0.060 A 
ATOM     37  C   UNL A   1      42.347  21.820  28.256  1.00  0.00     0.016 A 
ATOM     38  C   UNL A   1      42.975  22.779  26.125  1.00  0.00     0.016 A 
ATOM     39  C   UNL A   1      42.517  23.064  28.886  1.00  0.00     0.010 A 
ATOM     40  C   UNL A   1      43.016  24.019  26.728  1.00  0.00     0.010 A 
ATOM     41  C   UNL A   1      42.759  24.187  28.100  1.00  0.00    -0.014 A 
BRANCH  41  42
ATOM     42  C   UNL A   1      42.733  25.585  28.553  1.00  0.00     0.031 A 
ATOM     43  C   UNL A   1      41.506  26.365  28.291  1.00  0.00     0.074 A 
ATOM     44  C   UNL A   1      43.659  26.103  29.400  1.00  0.00     0.049 A 
ATOM     45  N   UNL A   1      41.451  27.648  28.363  1.00  0.00    -0.248 NA
ATOM     46  C   UNL A   1      40.239  25.773  27.863  1.00  0.00     0.031 C 
ATOM     47  C   UNL A   1      43.519  27.221  30.340  1.00  0.00     0.029 A 
ATOM     48  N   UNL A   1      44.965  25.678  29.644  1.00  0.00    -0.354 N 
ATOM     49  C   UNL A   1      40.122  27.992  28.388  1.00  0.00     0.074 A 
ATOM     50  C   UNL A   1      39.423  26.828  27.910  1.00  0.00     0.031 C 
ATOM     51  C   UNL A   1      44.727  27.541  30.845  1.00  0.00     0.029 A 
ATOM     52  C   UNL A   1      45.720  26.750  30.137  1.00  0.00     0.049 A 
ATOM     53  H   UNL A   1      45.303  24.765  29.494  1.00  0.00     0.167 HD
ATOM     54  C   UNL A   1      39.766  29.168  28.974  1.00  0.00     0.031 A 
ATOM     55  C   UNL A   1      46.814  27.177  29.447  1.00  0.00     0.031 A 
ATOM     56  C   UNL A   1      40.949  29.918  29.437  1.00  0.00     0.049 A 
ATOM     57  C   UNL A   1      46.537  28.540  28.871  1.00  0.00     0.074 A 
ATOM     58  C   UNL A   1      41.472  30.214  30.685  1.00  0.00     0.029 A 
ATOM     59  N   UNL A   1      41.968  30.194  28.532  1.00  0.00    -0.354 N 
ATOM     60  N   UNL A   1      45.376  29.120  28.991  1.00  0.00    -0.248 NA
ATOM     61  C   UNL A   1      47.470  29.341  28.090  1.00  0.00     0.031 C 
ATOM     62  C   UNL A   1      42.816  30.673  30.507  1.00  0.00     0.029 A 
ATOM     63  C   UNL A   1      43.098  30.690  29.152  1.00  0.00     0.049 A 
ATOM     64  H   UNL A   1      41.892  30.053  27.560  1.00  0.00     0.167 HD
ATOM     65  C   UNL A   1      45.361  30.304  28.340  1.00  0.00     0.074 A 
ATOM     66  C   UNL A   1      46.691  30.386  27.748  1.00  0.00     0.031 C 
ATOM     67  C   UNL A   1      44.247  31.091  28.340  1.00  0.00     0.031 A 
BRANCH  54  68
ATOM     68  C   UNL A   1      38.345  29.542  29.337  1.00  0.00    -0.014 A 
ATOM     69  C   UNL A   1      37.433  29.849  28.312  1.00  0.00     0.009 A 
ATOM     70  C   UNL A   1      37.835  29.639  30.646  1.00  0.00     0.009 A 
ATOM     71  C   UNL A   1      36.121  30.270  28.579  1.00  0.00     0.001 A 
ATOM     72  C   UNL A   1      36.531  30.073  30.925  1.00  0.00     0.001 A 
ATOM     73  C   UNL A   1      35.672  30.394  29.887  1.00  0.00     0.000 A 
ENDBRANCH  54  68
BRANCH  55  74
ATOM     74  C   UNL A   1      47.554  26.043  28.800  1.00  0.00    -0.014 A 
ATOM     75  C   UNL A   1      47.347  25.812  27.421  1.00  0.00     0.009 A 
ATOM     76  C   UNL A   1      48.739  25.552  29.373  1.00  0.00     0.009 A 
ATOM     77  C   UNL A   1      48.341  25.222  26.625  1.00  0.00     0.001 A 
ATOM     78  C   UNL A   1      49.741  24.986  28.569  1.00  0.00     0.001 A 
ATOM     79  C   UNL A   1      49.557  24.851  27.194  1.00  0.00     0.000 A 
ENDBRANCH  55  74
BRANCH  67  80
ATOM     80  C   UNL A   1      44.158  32.336  27.520  1.00  0.00    -0.014 A 
ATOM     81  C   UNL A   1      43.969  33.599  28.087  1.00  0.00     0.009 A 
ATOM     82  C   UNL A   1      44.217  32.253  26.116  1.00  0.00     0.009 A 
ATOM     83  C   UNL A   1      43.971  34.745  27.289  1.00  0.00     0.001 A 
ATOM     84  C   UNL A   1      44.179  33.388  25.313  1.00  0.00     0.001 A 
ATOM     85  C   UNL A   1      44.087  34.638  25.904  1.00  0.00     0.000 A 
ENDBRANCH  67  80
ENDBRANCH  41  42
ENDBRANCH  34  36
ENDBRANCH  33  34
ENDBRANCH  32  33
ENDBRANCH  31  32
ENDBRANCH   1  31
TORSDOF 17
ENDMDL
MODEL 3
REMARK VINA RESULT:     -11.8      2.162      3.496
REMARK SMILES CC(=O)Nc1cnc(N2CC=C(c3ccccc3C)CC2)c(C(=O)OCCOCCOC(=O)c2ccc(-c3c4nc(c(-c5ccccc5)c5ccc([nH]5)c(-c5ccccc5)c5nc(c(-c6ccccc6)c6ccc3[nH]6)C=C5)C=C4)cc2)c1
REMARK SMILES IDX 28 1 27 2 26 3 25 4 23 5 24 6 22 7 5 8 6 9 82 10 7 11 8 12
REMARK SMILES IDX 4 13 1 14 2 15 3 16 9 18 10 19 21 20 11 21 20 22 12 23 13 24
REMARK SMILES IDX 14 25 18 26 15 27 17 28 19 29 16 30 29 31 30 32 31 33 32 34
REMARK SMILES IDX 33 35 34 36 35 37 81 38 36 39 80 40 37 41 38 42 39 43 74 44
REMARK SMILES IDX 40 45 79 46 73 47 75 48 41 49 78 50 72 51 71 52 42 54 64 55
REMARK SMILES IDX 49 56 63 57 50 58 53 59 62 60 76 61 51 62 52 63 61 65 77 66
REMARK SMILES IDX 54 67 43 68 44 69 48 70 45 71 47 72 46 73 65 74 66 75 70 76
REMARK SMILES IDX 67 77 69 78 68 79 55 80 56 81 60 82 57 83 59 84 58 85
REMARK H PARENT 4 17 75 53 53 64
REMARK Flexibility Score: inf
ROOT
ATOM      1  O   UNL A   1      34.040  28.746  26.706  1.00  0.00    -0.374 OA
ENDROOT
BRANCH   1   2
ATOM      2  C   UNL A   1      34.027  28.319  25.355  1.00  0.00     0.202 C 
BRANCH   2   3
ATOM      3  C   UNL A   1      32.934  29.117  24.728  1.00  0.00     0.261 C 
BRANCH   3   4
ATOM      4  O   UNL A   1      33.102  29.106  23.297  1.00  0.00    -0.460 OA
BRANCH   4   5
ATOM      5  C   UNL A   1      32.800  28.053  22.480  1.00  0.00     0.342 C 
ATOM      6  O   UNL A   1      33.531  27.495  21.702  1.00  0.00    -0.246 OA
BRANCH   5   7
ATOM      7  C   UNL A   1      31.378  27.739  22.734  1.00  0.00     0.104 A 
ATOM      8  C   UNL A   1      29.147  28.702  22.777  1.00  0.00     0.060 A 
ATOM      9  C   UNL A   1      28.760  27.542  23.419  1.00  0.00     0.139 A 
ATOM     10  C   UNL A   1      30.473  28.768  22.435  1.00  0.00     0.047 A 
ATOM     11  N   UNL A   1      29.586  26.475  23.637  1.00  0.00    -0.236 NA
ATOM     12  C   UNL A   1      30.907  26.561  23.310  1.00  0.00     0.143 A 
BRANCH   8  13
ATOM     13  N   UNL A   1      28.306  29.816  22.600  1.00  0.00    -0.325 N 
ATOM     14  C   UNL A   1      29.395  31.421  24.196  1.00  0.00     0.114 C 
ATOM     15  C   UNL A   1      28.225  30.971  23.344  1.00  0.00     0.221 C 
ATOM     16  O   UNL A   1      27.207  31.661  23.274  1.00  0.00    -0.275 OA
ATOM     17  H   UNL A   1      27.689  29.762  21.835  1.00  0.00     0.169 HD
ENDBRANCH   8  13
BRANCH  12  18
ATOM     18  N   UNL A   1      31.681  25.484  23.684  1.00  0.00    -0.352 N 
ATOM     19  C   UNL A   1      31.940  25.283  25.107  1.00  0.00     0.146 C 
ATOM     20  C   UNL A   1      31.750  24.295  22.847  1.00  0.00     0.123 C 
ATOM     21  C   UNL A   1      33.135  24.366  25.288  1.00  0.00    -0.002 C 
ATOM     22  C   UNL A   1      33.170  23.736  22.882  1.00  0.00     0.057 C 
ATOM     23  C   UNL A   1      33.725  23.684  24.286  1.00  0.00    -0.041 C 
BRANCH  23  24
ATOM     24  C   UNL A   1      34.935  22.858  24.489  1.00  0.00    -0.020 A 
ATOM     25  C   UNL A   1      36.192  23.486  24.483  1.00  0.00     0.008 A 
ATOM     26  C   UNL A   1      34.865  21.471  24.742  1.00  0.00    -0.044 A 
ATOM     27  C   UNL A   1      37.357  22.764  24.756  1.00  0.00     0.001 A 
ATOM     28  C   UNL A   1      36.044  20.763  25.035  1.00  0.00     0.004 A 
ATOM     29  C   UNL A   1      33.567  20.709  24.744  1.00  0.00     0.045 C 
ATOM     30  C   UNL A   1      37.281  21.405  25.041  1.00  0.00     0.000 A 
ENDBRANCH  23  24
ENDBRANCH  12  18
ENDBRANCH   5   7
ENDBRANCH   4   5
ENDBRANCH   3   4
ENDBRANCH   2   3
ENDBRANCH   1   2
BRANCH   1  31
ATOM     31  C   UNL A   1      33.103  29.743  27.039  1.00  0.00     0.202 C 
BRANCH  31  32
ATOM     32  C   UNL A   1      33.785  31.071  27.366  1.00  0.00     0.261 C 
BRANCH  32  33
ATOM     33  O   UNL A   1      34.614  30.912  28.540  1.00  0.00    -0.460 OA
BRANCH  33  34
ATOM     34  C   UNL A   1      35.922  31.275  28.399  1.00  0.00     0.338 C 
ATOM     35  O   UNL A   1      36.309  32.370  28.024  1.00  0.00    -0.246 OA
BRANCH  34  36
ATOM     36  C   UNL A   1      36.802  30.069  28.480  1.00  0.00     0.060 A 
ATOM     37  C   UNL A   1      36.846  29.310  29.667  1.00  0.00     0.016 A 
ATOM     38  C   UNL A   1      37.811  29.928  27.535  1.00  0.00     0.016 A 
ATOM     39  C   UNL A   1      37.986  28.552  29.982  1.00  0.00     0.010 A 
ATOM     40  C   UNL A   1      38.974  29.288  27.908  1.00  0.00     0.010 A 
ATOM     41  C   UNL A   1      39.092  28.620  29.140  1.00  0.00    -0.014 A 
BRANCH  41  42
ATOM     42  C   UNL A   1      40.434  28.091  29.425  1.00  0.00     0.031 A 
ATOM     43  C   UNL A   1      40.810  26.809  28.796  1.00  0.00     0.074 A 
ATOM     44  C   UNL A   1      41.407  28.829  30.019  1.00  0.00     0.049 A 
ATOM     45  N   UNL A   1      41.811  26.096  29.177  1.00  0.00    -0.248 NA
ATOM     46  C   UNL A   1      40.054  26.179  27.713  1.00  0.00     0.031 C 
ATOM     47  C   UNL A   1      42.863  28.692  29.901  1.00  0.00     0.029 A 
ATOM     48  N   UNL A   1      41.284  29.944  30.848  1.00  0.00    -0.354 N 
ATOM     49  C   UNL A   1      42.052  25.179  28.185  1.00  0.00     0.074 A 
ATOM     50  C   UNL A   1      40.851  25.158  27.392  1.00  0.00     0.031 C 
ATOM     51  C   UNL A   1      43.466  29.490  30.804  1.00  0.00     0.029 A 
ATOM     52  C   UNL A   1      42.428  30.057  31.649  1.00  0.00     0.049 A 
ATOM     53  H   UNL A   1      40.513  30.556  30.867  1.00  0.00     0.167 HD
ATOM     54  C   UNL A   1      43.311  24.673  28.060  1.00  0.00     0.031 A 
ATOM     55  C   UNL A   1      42.309  30.003  33.004  1.00  0.00     0.031 A 
ATOM     56  C   UNL A   1      44.205  25.189  29.113  1.00  0.00     0.049 A 
ATOM     57  C   UNL A   1      42.931  28.727  33.506  1.00  0.00     0.074 A 
ATOM     58  C   UNL A   1      45.271  26.073  29.122  1.00  0.00     0.029 A 
ATOM     59  N   UNL A   1      43.829  25.046  30.444  1.00  0.00    -0.354 N 
ATOM     60  N   UNL A   1      43.416  27.827  32.698  1.00  0.00    -0.248 NA
ATOM     61  C   UNL A   1      43.026  28.317  34.901  1.00  0.00     0.031 C 
ATOM     62  C   UNL A   1      45.524  26.451  30.479  1.00  0.00     0.029 A 
ATOM     63  C   UNL A   1      44.638  25.772  31.297  1.00  0.00     0.049 A 
ATOM     64  H   UNL A   1      43.073  24.492  30.745  1.00  0.00     0.167 HD
ATOM     65  C   UNL A   1      43.860  26.752  33.386  1.00  0.00     0.074 A 
ATOM     66  C   UNL A   1      43.556  27.084  34.773  1.00  0.00     0.031 C 
ATOM     67  C   UNL A   1      44.420  25.689  32.741  1.00  0.00     0.031 A 
BRANCH  54  68
ATOM     68  C   UNL A   1      43.798  23.894  26.857  1.00  0.00    -0.014 A 
ATOM     69  C   UNL A   1      45.004  23.176  26.947  1.00  0.00     0.009 A 
ATOM     70  C   UNL A   1      43.154  23.834  25.607  1.00  0.00     0.009 A 
ATOM     71  C   UNL A   1      45.551  22.490  25.852  1.00  0.00     0.001 A 
ATOM     72  C   UNL A   1      43.698  23.163  24.502  1.00  0.00     0.001 A 
ATOM     73  C   UNL A   1      44.903  22.492  24.624  1.00  0.00     0.000 A 
ENDBRANCH  54  68
BRANCH  55  74
ATOM     74  C   UNL A   1      41.051  30.661  33.491  1.00  0.00    -0.014 A 
ATOM     75  C   UNL A   1      40.912  32.055  33.305  1.00  0.00     0.009 A 
ATOM     76  C   UNL A   1      39.879  29.906  33.664  1.00  0.00     0.009 A 
ATOM     77  C   UNL A   1      39.647  32.649  33.177  1.00  0.00     0.001 A 
ATOM     78  C   UNL A   1      38.617  30.500  33.509  1.00  0.00     0.001 A 
ATOM     79  C   UNL A   1      38.501  31.861  33.234  1.00  0.00     0.000 A 
ENDBRANCH  55  74
BRANCH  67  80
ATOM     80  C   UNL A   1      44.795  24.436  33.461  1.00  0.00    -0.014 A 
ATOM     81  C   UNL A   1      43.864  23.443  33.781  1.00  0.00     0.009 A 
ATOM     82  C   UNL A   1      46.124  24.245  33.885  1.00  0.00     0.009 A 
ATOM     83  C   UNL A   1      44.273  22.252  34.383  1.00  0.00     0.001 A 
ATOM     84  C   UNL A   1      46.529  23.076  34.522  1.00  0.00     0.001 A 
ATOM     85  C   UNL A   1      45.606  22.066  34.742  1.00  0.00     0.000 A 
ENDBRANCH  67  80
ENDBRANCH  41  42
ENDBRANCH  34  36
ENDBRANCH  33  34
ENDBRANCH  32  33
ENDBRANCH  31  32
ENDBRANCH   1  31
TORSDOF 17
ENDMDL
