MODEL 1
REMARK VINA RESULT:      -8.9      0.000      0.000
REMARK SMILES Cc1nc(C[C@@H](C(=O)OCCOCCOC(=O)c2ccc(-c3c4nc(c(-c5ccccc5)c5ccc([nH]5)c(-c5ccccc5)c5nc(c(-c6ccccc6)c6ccc3[nH]6)C=C5)C=C4)cc2)[C@@H]2CCS(=O)(=O)C2)sc1C
REMARK SMILES IDX 12 1 11 2 10 3 9 4 7 5 8 6 6 7 5 8 4 9 1 10 2 11 3 12 74 13
REMARK SMILES IDX 73 14 75 15 66 16 67 17 72 18 68 19 69 20 70 21 71 22 13 23
REMARK SMILES IDX 14 24 15 25 16 26 17 27 18 28 19 29 65 30 20 31 64 32 21 33
REMARK SMILES IDX 22 34 23 35 58 36 24 37 63 38 57 39 59 40 25 41 62 42 56 43
REMARK SMILES IDX 55 44 26 46 48 47 33 48 47 49 34 50 37 51 46 52 60 53 35 54
REMARK SMILES IDX 36 55 45 57 61 58 38 59 27 60 28 61 32 62 29 63 31 64 30 65
REMARK SMILES IDX 49 66 50 67 54 68 51 69 53 70 52 71 39 72 40 73 44 74 41 75
REMARK SMILES IDX 43 76 42 77
REMARK H PARENT 59 45 37 56
REMARK Flexibility Score: inf
ROOT
ATOM      1  O   UNL A   1      34.951  35.892  33.080  1.00  0.00    -0.374 OA
ENDROOT
BRANCH   1   2
ATOM      2  C   UNL A   1      34.734  34.662  33.782  1.00  0.00     0.202 C 
BRANCH   2   3
ATOM      3  C   UNL A   1      35.822  34.313  34.802  1.00  0.00     0.261 C 
BRANCH   3   4
ATOM      4  O   UNL A   1      37.126  34.618  34.273  1.00  0.00    -0.463 OA
BRANCH   4   5
ATOM      5  C   UNL A   1      38.167  34.482  35.107  1.00  0.00     0.309 C 
ATOM      6  O   UNL A   1      38.864  35.426  35.451  1.00  0.00    -0.252 OA
BRANCH   5   7
ATOM      7  C   UNL A   1      38.452  33.044  35.547  1.00  0.00     0.110 C 
BRANCH   7   8
ATOM      8  C   UNL A   1      39.206  32.842  36.894  1.00  0.00     0.083 C 
BRANCH   8   9
ATOM      9  C   UNL A   1      38.369  32.842  38.142  1.00  0.00     0.094 A 
ATOM     10  C   UNL A   1      35.595  31.435  39.909  1.00  0.00     0.068 C 
ATOM     11  C   UNL A   1      36.731  32.310  39.538  1.00  0.00     0.051 A 
ATOM     12  N   UNL A   1      37.240  32.185  38.264  1.00  0.00    -0.246 NA
ATOM     13  C   UNL A   1      37.375  33.246  40.323  1.00  0.00     0.024 A 
ATOM     14  S   UNL A   1      38.755  33.837  39.490  1.00  0.00    -0.124 S 
ATOM     15  C   UNL A   1      37.027  33.705  41.694  1.00  0.00     0.058 C 
ENDBRANCH   8   9
ENDBRANCH   7   8
BRANCH   7  16
ATOM     16  C   UNL A   1      39.244  32.287  34.408  1.00  0.00     0.020 C 
ATOM     17  C   UNL A   1      38.453  31.209  33.617  1.00  0.00     0.021 C 
ATOM     18  C   UNL A   1      40.586  31.662  34.855  1.00  0.00     0.141 C 
ATOM     19  C   UNL A   1      38.788  29.816  34.139  1.00  0.00     0.137 C 
ATOM     20  S   UNL A   1      40.514  29.895  34.558  1.00  0.00     0.150 S 
ATOM     21  O   UNL A   1      40.767  29.168  35.783  1.00  0.00    -0.229 OA
ATOM     22  O   UNL A   1      41.265  29.619  33.347  1.00  0.00    -0.229 OA
ENDBRANCH   7  16
ENDBRANCH   5   7
ENDBRANCH   4   5
ENDBRANCH   3   4
ENDBRANCH   2   3
ENDBRANCH   1   2
BRANCH   1  23
ATOM     23  C   UNL A   1      33.769  36.615  32.742  1.00  0.00     0.202 C 
BRANCH  23  24
ATOM     24  C   UNL A   1      33.337  36.518  31.277  1.00  0.00     0.261 C 
BRANCH  24  25
ATOM     25  O   UNL A   1      33.001  35.167  30.936  1.00  0.00    -0.460 OA
BRANCH  25  26
ATOM     26  C   UNL A   1      33.274  34.830  29.655  1.00  0.00     0.338 C 
ATOM     27  O   UNL A   1      32.691  35.206  28.651  1.00  0.00    -0.246 OA
BRANCH  26  28
ATOM     28  C   UNL A   1      34.525  34.049  29.610  1.00  0.00     0.060 A 
ATOM     29  C   UNL A   1      34.710  33.079  30.605  1.00  0.00     0.016 A 
ATOM     30  C   UNL A   1      35.498  34.251  28.629  1.00  0.00     0.016 A 
ATOM     31  C   UNL A   1      35.889  32.340  30.650  1.00  0.00     0.010 A 
ATOM     32  C   UNL A   1      36.682  33.509  28.675  1.00  0.00     0.010 A 
ATOM     33  C   UNL A   1      36.896  32.574  29.705  1.00  0.00    -0.014 A 
BRANCH  33  34
ATOM     34  C   UNL A   1      38.237  31.974  29.901  1.00  0.00     0.031 A 
ATOM     35  C   UNL A   1      39.267  32.768  30.655  1.00  0.00     0.074 A 
ATOM     36  C   UNL A   1      38.530  30.741  29.447  1.00  0.00     0.049 A 
ATOM     37  N   UNL A   1      40.506  32.460  30.939  1.00  0.00    -0.248 NA
ATOM     38  C   UNL A   1      38.843  34.086  31.156  1.00  0.00     0.031 C 
ATOM     39  C   UNL A   1      37.609  29.848  28.747  1.00  0.00     0.029 A 
ATOM     40  N   UNL A   1      39.703  30.030  29.509  1.00  0.00    -0.354 N 
ATOM     41  C   UNL A   1      41.007  33.545  31.648  1.00  0.00     0.074 A 
ATOM     42  C   UNL A   1      39.957  34.538  31.709  1.00  0.00     0.031 C 
ATOM     43  C   UNL A   1      38.256  28.715  28.424  1.00  0.00     0.029 A 
ATOM     44  C   UNL A   1      39.639  28.806  28.890  1.00  0.00     0.049 A 
ATOM     45  H   UNL A   1      40.513  30.365  29.956  1.00  0.00     0.167 HD
ATOM     46  C   UNL A   1      42.225  33.698  32.215  1.00  0.00     0.031 A 
ATOM     47  C   UNL A   1      40.589  27.867  28.716  1.00  0.00     0.031 A 
ATOM     48  C   UNL A   1      43.270  32.714  32.160  1.00  0.00     0.049 A 
ATOM     49  C   UNL A   1      41.961  28.091  29.296  1.00  0.00     0.074 A 
ATOM     50  C   UNL A   1      44.533  32.767  32.723  1.00  0.00     0.029 A 
ATOM     51  N   UNL A   1      43.173  31.500  31.499  1.00  0.00    -0.354 N 
ATOM     52  N   UNL A   1      42.408  29.105  29.997  1.00  0.00    -0.248 NA
ATOM     53  C   UNL A   1      42.955  27.030  29.074  1.00  0.00     0.031 C 
ATOM     54  C   UNL A   1      45.218  31.603  32.359  1.00  0.00     0.029 A 
ATOM     55  C   UNL A   1      44.362  30.804  31.618  1.00  0.00     0.049 A 
ATOM     56  H   UNL A   1      42.377  31.182  31.016  1.00  0.00     0.167 HD
ATOM     57  C   UNL A   1      43.718  28.786  30.335  1.00  0.00     0.074 A 
ATOM     58  C   UNL A   1      43.991  27.482  29.766  1.00  0.00     0.031 C 
ATOM     59  C   UNL A   1      44.613  29.504  31.054  1.00  0.00     0.031 A 
BRANCH  46  60
ATOM     60  C   UNL A   1      42.492  34.991  32.928  1.00  0.00    -0.014 A 
ATOM     61  C   UNL A   1      42.026  35.212  34.234  1.00  0.00     0.009 A 
ATOM     62  C   UNL A   1      43.234  35.997  32.291  1.00  0.00     0.009 A 
ATOM     63  C   UNL A   1      42.268  36.429  34.874  1.00  0.00     0.001 A 
ATOM     64  C   UNL A   1      43.499  37.202  32.944  1.00  0.00     0.001 A 
ATOM     65  C   UNL A   1      43.007  37.420  34.230  1.00  0.00     0.000 A 
ENDBRANCH  46  60
BRANCH  47  66
ATOM     66  C   UNL A   1      40.289  26.622  27.962  1.00  0.00    -0.014 A 
ATOM     67  C   UNL A   1      40.711  26.470  26.632  1.00  0.00     0.009 A 
ATOM     68  C   UNL A   1      39.539  25.595  28.555  1.00  0.00     0.009 A 
ATOM     69  C   UNL A   1      40.359  25.333  25.902  1.00  0.00     0.001 A 
ATOM     70  C   UNL A   1      39.211  24.446  27.831  1.00  0.00     0.001 A 
ATOM     71  C   UNL A   1      39.610  24.321  26.502  1.00  0.00     0.000 A 
ENDBRANCH  47  66
BRANCH  59  72
ATOM     72  C   UNL A   1      45.955  28.880  31.310  1.00  0.00    -0.014 A 
ATOM     73  C   UNL A   1      46.160  27.998  32.381  1.00  0.00     0.009 A 
ATOM     74  C   UNL A   1      47.016  29.137  30.427  1.00  0.00     0.009 A 
ATOM     75  C   UNL A   1      47.410  27.410  32.582  1.00  0.00     0.001 A 
ATOM     76  C   UNL A   1      48.256  28.524  30.612  1.00  0.00     0.001 A 
ATOM     77  C   UNL A   1      48.455  27.669  31.694  1.00  0.00     0.000 A 
ENDBRANCH  59  72
ENDBRANCH  33  34
ENDBRANCH  26  28
ENDBRANCH  25  26
ENDBRANCH  24  25
ENDBRANCH  23  24
ENDBRANCH   1  23
TORSDOF 17
ENDMDL
MODEL 2
REMARK VINA RESULT:      -8.8      5.624      8.979
REMARK SMILES Cc1nc(C[C@@H](C(=O)OCCOCCOC(=O)c2ccc(-c3c4nc(c(-c5ccccc5)c5ccc([nH]5)c(-c5ccccc5)c5nc(c(-c6ccccc6)c6ccc3[nH]6)C=C5)C=C4)cc2)[C@@H]2CCS(=O)(=O)C2)sc1C
REMARK SMILES IDX 12 1 11 2 10 3 9 4 7 5 8 6 6 7 5 8 4 9 1 10 2 11 3 12 74 13
REMARK SMILES IDX 73 14 75 15 66 16 67 17 72 18 68 19 69 20 70 21 71 22 13 23
REMARK SMILES IDX 14 24 15 25 16 26 17 27 18 28 19 29 65 30 20 31 64 32 21 33
REMARK SMILES IDX 22 34 23 35 58 36 24 37 63 38 57 39 59 40 25 41 62 42 56 43
REMARK SMILES IDX 55 44 26 46 48 47 33 48 47 49 34 50 37 51 46 52 60 53 35 54
REMARK SMILES IDX 36 55 45 57 61 58 38 59 27 60 28 61 32 62 29 63 31 64 30 65
REMARK SMILES IDX 49 66 50 67 54 68 51 69 53 70 52 71 39 72 40 73 44 74 41 75
REMARK SMILES IDX 43 76 42 77
REMARK H PARENT 59 45 37 56
REMARK Flexibility Score: inf
ROOT
ATOM      1  O   UNL A   1      32.311  30.420  26.301  1.00  0.00    -0.374 OA
ENDROOT
BRANCH   1   2
ATOM      2  C   UNL A   1      31.935  29.415  27.251  1.00  0.00     0.202 C 
BRANCH   2   3
ATOM      3  C   UNL A   1      32.255  27.981  26.817  1.00  0.00     0.261 C 
BRANCH   3   4
ATOM      4  O   UNL A   1      31.181  27.093  27.182  1.00  0.00    -0.463 OA
BRANCH   4   5
ATOM      5  C   UNL A   1      30.809  26.184  26.270  1.00  0.00     0.309 C 
ATOM      6  O   UNL A   1      29.779  25.533  26.369  1.00  0.00    -0.252 OA
BRANCH   5   7
ATOM      7  C   UNL A   1      31.805  25.980  25.126  1.00  0.00     0.110 C 
BRANCH   7   8
ATOM      8  C   UNL A   1      31.261  26.090  23.672  1.00  0.00     0.083 C 
BRANCH   8   9
ATOM      9  C   UNL A   1      30.370  27.263  23.372  1.00  0.00     0.094 A 
ATOM     10  C   UNL A   1      27.047  28.588  23.325  1.00  0.00     0.068 C 
ATOM     11  C   UNL A   1      28.507  28.441  23.127  1.00  0.00     0.051 A 
ATOM     12  N   UNL A   1      29.059  27.201  23.361  1.00  0.00    -0.246 NA
ATOM     13  C   UNL A   1      29.415  29.410  22.746  1.00  0.00     0.024 A 
ATOM     14  S   UNL A   1      31.008  28.779  22.867  1.00  0.00    -0.124 S 
ATOM     15  C   UNL A   1      29.154  30.811  22.322  1.00  0.00     0.058 C 
ENDBRANCH   8   9
ENDBRANCH   7   8
BRANCH   7  16
ATOM     16  C   UNL A   1      32.524  24.582  25.289  1.00  0.00     0.020 C 
ATOM     17  C   UNL A   1      34.062  24.617  25.502  1.00  0.00     0.021 C 
ATOM     18  C   UNL A   1      32.221  23.561  24.168  1.00  0.00     0.141 C 
ATOM     19  C   UNL A   1      34.785  24.318  24.194  1.00  0.00     0.137 C 
ATOM     20  S   UNL A   1      33.768  23.106  23.384  1.00  0.00     0.150 S 
ATOM     21  O   UNL A   1      33.708  23.370  21.963  1.00  0.00    -0.229 OA
ATOM     22  O   UNL A   1      34.156  21.804  23.894  1.00  0.00    -0.229 OA
ENDBRANCH   7  16
ENDBRANCH   5   7
ENDBRANCH   4   5
ENDBRANCH   3   4
ENDBRANCH   2   3
ENDBRANCH   1   2
BRANCH   1  23
ATOM     23  C   UNL A   1      31.354  31.459  26.108  1.00  0.00     0.202 C 
BRANCH  23  24
ATOM     24  C   UNL A   1      31.490  32.659  27.048  1.00  0.00     0.261 C 
BRANCH  24  25
ATOM     25  O   UNL A   1      32.761  33.298  26.874  1.00  0.00    -0.460 OA
BRANCH  25  26
ATOM     26  C   UNL A   1      33.273  33.842  28.002  1.00  0.00     0.338 C 
ATOM     27  O   UNL A   1      32.756  34.684  28.718  1.00  0.00    -0.246 OA
BRANCH  26  28
ATOM     28  C   UNL A   1      34.516  33.135  28.366  1.00  0.00     0.060 A 
ATOM     29  C   UNL A   1      34.414  31.767  28.651  1.00  0.00     0.016 A 
ATOM     30  C   UNL A   1      35.753  33.782  28.431  1.00  0.00     0.016 A 
ATOM     31  C   UNL A   1      35.540  31.049  29.048  1.00  0.00     0.010 A 
ATOM     32  C   UNL A   1      36.882  33.061  28.829  1.00  0.00     0.010 A 
ATOM     33  C   UNL A   1      36.774  31.700  29.171  1.00  0.00    -0.014 A 
BRANCH  33  34
ATOM     34  C   UNL A   1      37.905  31.004  29.828  1.00  0.00     0.031 A 
ATOM     35  C   UNL A   1      38.163  31.284  31.283  1.00  0.00     0.074 A 
ATOM     36  C   UNL A   1      38.672  30.122  29.161  1.00  0.00     0.049 A 
ATOM     37  N   UNL A   1      39.097  30.808  32.066  1.00  0.00    -0.248 NA
ATOM     38  C   UNL A   1      37.245  32.227  31.943  1.00  0.00     0.031 C 
ATOM     39  C   UNL A   1      38.498  29.723  27.766  1.00  0.00     0.029 A 
ATOM     40  N   UNL A   1      39.763  29.401  29.581  1.00  0.00    -0.354 N 
ATOM     41  C   UNL A   1      38.879  31.395  33.305  1.00  0.00     0.074 A 
ATOM     42  C   UNL A   1      37.758  32.297  33.161  1.00  0.00     0.031 C 
ATOM     43  C   UNL A   1      39.461  28.845  27.436  1.00  0.00     0.029 A 
ATOM     44  C   UNL A   1      40.323  28.625  28.596  1.00  0.00     0.049 A 
ATOM     45  H   UNL A   1      40.110  29.436  30.501  1.00  0.00     0.167 HD
ATOM     46  C   UNL A   1      39.539  31.190  34.468  1.00  0.00     0.031 A 
ATOM     47  C   UNL A   1      41.409  27.829  28.627  1.00  0.00     0.031 A 
ATOM     48  C   UNL A   1      40.650  30.293  34.618  1.00  0.00     0.049 A 
ATOM     49  C   UNL A   1      42.171  27.672  29.917  1.00  0.00     0.074 A 
ATOM     50  C   UNL A   1      41.372  30.000  35.761  1.00  0.00     0.029 A 
ATOM     51  N   UNL A   1      41.203  29.547  33.589  1.00  0.00    -0.354 N 
ATOM     52  N   UNL A   1      41.930  28.203  31.091  1.00  0.00    -0.248 NA
ATOM     53  C   UNL A   1      43.348  26.789  29.888  1.00  0.00     0.031 C 
ATOM     54  C   UNL A   1      42.395  29.112  35.413  1.00  0.00     0.029 A 
ATOM     55  C   UNL A   1      42.273  28.813  34.065  1.00  0.00     0.049 A 
ATOM     56  H   UNL A   1      40.882  29.543  32.659  1.00  0.00     0.167 HD
ATOM     57  C   UNL A   1      42.895  27.687  31.947  1.00  0.00     0.074 A 
ATOM     58  C   UNL A   1      43.723  26.798  31.159  1.00  0.00     0.031 C 
ATOM     59  C   UNL A   1      43.079  27.925  33.269  1.00  0.00     0.031 A 
BRANCH  46  60
ATOM     60  C   UNL A   1      39.078  31.971  35.664  1.00  0.00    -0.014 A 
ATOM     61  C   UNL A   1      38.152  31.433  36.573  1.00  0.00     0.009 A 
ATOM     62  C   UNL A   1      39.590  33.256  35.896  1.00  0.00     0.009 A 
ATOM     63  C   UNL A   1      37.722  32.182  37.669  1.00  0.00     0.001 A 
ATOM     64  C   UNL A   1      39.179  33.992  37.009  1.00  0.00     0.001 A 
ATOM     65  C   UNL A   1      38.239  33.459  37.888  1.00  0.00     0.000 A 
ENDBRANCH  46  60
BRANCH  47  66
ATOM     66  C   UNL A   1      41.853  27.112  27.403  1.00  0.00    -0.014 A 
ATOM     67  C   UNL A   1      41.416  25.804  27.141  1.00  0.00     0.009 A 
ATOM     68  C   UNL A   1      42.752  27.716  26.512  1.00  0.00     0.009 A 
ATOM     69  C   UNL A   1      41.897  25.105  26.031  1.00  0.00     0.001 A 
ATOM     70  C   UNL A   1      43.211  27.025  25.388  1.00  0.00     0.001 A 
ATOM     71  C   UNL A   1      42.793  25.716  25.155  1.00  0.00     0.000 A 
ENDBRANCH  47  66
BRANCH  59  72
ATOM     72  C   UNL A   1      44.186  27.180  33.958  1.00  0.00    -0.014 A 
ATOM     73  C   UNL A   1      43.978  25.906  34.509  1.00  0.00     0.009 A 
ATOM     74  C   UNL A   1      45.472  27.740  34.005  1.00  0.00     0.009 A 
ATOM     75  C   UNL A   1      45.029  25.222  35.121  1.00  0.00     0.001 A 
ATOM     76  C   UNL A   1      46.529  27.041  34.591  1.00  0.00     0.001 A 
ATOM     77  C   UNL A   1      46.305  25.787  35.156  1.00  0.00     0.000 A 
ENDBRANCH  59  72
ENDBRANCH  33  34
ENDBRANCH  26  28
ENDBRANCH  25  26
ENDBRANCH  24  25
ENDBRANCH  23  24
ENDBRANCH   1  23
TORSDOF 17
ENDMDL
MODEL 3
REMARK VINA RESULT:      -8.6      4.731     10.224
REMARK SMILES Cc1nc(C[C@@H](C(=O)OCCOCCOC(=O)c2ccc(-c3c4nc(c(-c5ccccc5)c5ccc([nH]5)c(-c5ccccc5)c5nc(c(-c6ccccc6)c6ccc3[nH]6)C=C5)C=C4)cc2)[C@@H]2CCS(=O)(=O)C2)sc1C
REMARK SMILES IDX 12 1 11 2 10 3 9 4 7 5 8 6 6 7 5 8 4 9 1 10 2 11 3 12 74 13
REMARK SMILES IDX 73 14 75 15 66 16 67 17 72 18 68 19 69 20 70 21 71 22 13 23
REMARK SMILES IDX 14 24 15 25 16 26 17 27 18 28 19 29 65 30 20 31 64 32 21 33
REMARK SMILES IDX 22 34 23 35 58 36 24 37 63 38 57 39 59 40 25 41 62 42 56 43
REMARK SMILES IDX 55 44 26 46 48 47 33 48 47 49 34 50 37 51 46 52 60 53 35 54
REMARK SMILES IDX 36 55 45 57 61 58 38 59 27 60 28 61 32 62 29 63 31 64 30 65
REMARK SMILES IDX 49 66 50 67 54 68 51 69 53 70 52 71 39 72 40 73 44 74 41 75
REMARK SMILES IDX 43 76 42 77
REMARK H PARENT 59 45 37 56
REMARK Flexibility Score: inf
ROOT
ATOM      1  O   UNL A   1      31.633  30.791  25.585  1.00  0.00    -0.374 OA
ENDROOT
BRANCH   1   2
ATOM      2  C   UNL A   1      32.785  29.960  25.770  1.00  0.00     0.202 C 
BRANCH   2   3
ATOM      3  C   UNL A   1      33.071  29.586  27.228  1.00  0.00     0.261 C 
BRANCH   3   4
ATOM      4  O   UNL A   1      33.201  28.158  27.367  1.00  0.00    -0.463 OA
BRANCH   4   5
ATOM      5  C   UNL A   1      32.150  27.414  26.997  1.00  0.00     0.309 C 
ATOM      6  O   UNL A   1      31.036  27.558  27.482  1.00  0.00    -0.252 OA
BRANCH   5   7
ATOM      7  C   UNL A   1      32.464  26.327  25.966  1.00  0.00     0.110 C 
BRANCH   7   8
ATOM      8  C   UNL A   1      33.957  26.119  25.576  1.00  0.00     0.083 C 
BRANCH   8   9
ATOM      9  C   UNL A   1      34.379  24.713  25.251  1.00  0.00     0.094 A 
ATOM     10  C   UNL A   1      36.654  22.580  23.499  1.00  0.00     0.068 C 
ATOM     11  C   UNL A   1      35.506  23.055  24.305  1.00  0.00     0.051 A 
ATOM     12  N   UNL A   1      35.267  24.411  24.334  1.00  0.00    -0.246 NA
ATOM     13  C   UNL A   1      34.631  22.302  25.064  1.00  0.00     0.024 A 
ATOM     14  S   UNL A   1      33.612  23.349  25.966  1.00  0.00    -0.124 S 
ATOM     15  C   UNL A   1      34.536  20.822  25.176  1.00  0.00     0.058 C 
ENDBRANCH   8   9
ENDBRANCH   7   8
BRANCH   7  16
ATOM     16  C   UNL A   1      31.632  26.587  24.648  1.00  0.00     0.020 C 
ATOM     17  C   UNL A   1      30.798  25.392  24.112  1.00  0.00     0.021 C 
ATOM     18  C   UNL A   1      32.446  27.167  23.469  1.00  0.00     0.141 C 
ATOM     19  C   UNL A   1      31.530  24.706  22.964  1.00  0.00     0.137 C 
ATOM     20  S   UNL A   1      32.332  26.029  22.088  1.00  0.00     0.150 S 
ATOM     21  O   UNL A   1      33.653  25.620  21.662  1.00  0.00    -0.229 OA
ATOM     22  O   UNL A   1      31.369  26.571  21.147  1.00  0.00    -0.229 OA
ENDBRANCH   7  16
ENDBRANCH   5   7
ENDBRANCH   4   5
ENDBRANCH   3   4
ENDBRANCH   2   3
ENDBRANCH   1   2
BRANCH   1  23
ATOM     23  C   UNL A   1      31.225  31.527  26.737  1.00  0.00     0.202 C 
BRANCH  23  24
ATOM     24  C   UNL A   1      31.730  32.970  26.806  1.00  0.00     0.261 C 
BRANCH  24  25
ATOM     25  O   UNL A   1      33.070  33.014  27.315  1.00  0.00    -0.460 OA
BRANCH  25  26
ATOM     26  C   UNL A   1      33.270  33.940  28.280  1.00  0.00     0.338 C 
ATOM     27  O   UNL A   1      32.529  34.858  28.591  1.00  0.00    -0.246 OA
BRANCH  26  28
ATOM     28  C   UNL A   1      34.474  33.585  29.056  1.00  0.00     0.060 A 
ATOM     29  C   UNL A   1      35.713  33.983  28.535  1.00  0.00     0.016 A 
ATOM     30  C   UNL A   1      34.407  32.882  30.262  1.00  0.00     0.016 A 
ATOM     31  C   UNL A   1      36.892  33.638  29.192  1.00  0.00     0.010 A 
ATOM     32  C   UNL A   1      35.590  32.536  30.920  1.00  0.00     0.010 A 
ATOM     33  C   UNL A   1      36.838  32.884  30.371  1.00  0.00    -0.014 A 
BRANCH  33  34
ATOM     34  C   UNL A   1      38.085  32.308  30.927  1.00  0.00     0.031 A 
ATOM     35  C   UNL A   1      38.632  31.056  30.299  1.00  0.00     0.074 A 
ATOM     36  C   UNL A   1      38.737  32.894  31.949  1.00  0.00     0.049 A 
ATOM     37  N   UNL A   1      39.695  30.364  30.619  1.00  0.00    -0.248 NA
ATOM     38  C   UNL A   1      37.878  30.512  29.157  1.00  0.00     0.031 C 
ATOM     39  C   UNL A   1      38.343  34.135  32.613  1.00  0.00     0.029 A 
ATOM     40  N   UNL A   1      39.878  32.510  32.609  1.00  0.00    -0.354 N 
ATOM     41  C   UNL A   1      39.734  29.305  29.721  1.00  0.00     0.074 A 
ATOM     42  C   UNL A   1      38.566  29.416  28.876  1.00  0.00     0.031 C 
ATOM     43  C   UNL A   1      39.215  34.400  33.601  1.00  0.00     0.029 A 
ATOM     44  C   UNL A   1      40.225  33.344  33.643  1.00  0.00     0.049 A 
ATOM     45  H   UNL A   1      40.399  31.711  32.364  1.00  0.00     0.167 HD
ATOM     46  C   UNL A   1      40.668  28.334  29.595  1.00  0.00     0.031 A 
ATOM     47  C   UNL A   1      41.241  33.264  34.523  1.00  0.00     0.031 A 
ATOM     48  C   UNL A   1      41.831  28.221  30.430  1.00  0.00     0.049 A 
ATOM     49  C   UNL A   1      42.229  32.133  34.407  1.00  0.00     0.074 A 
ATOM     50  C   UNL A   1      42.847  27.285  30.367  1.00  0.00     0.029 A 
ATOM     51  N   UNL A   1      42.130  29.071  31.482  1.00  0.00    -0.354 N 
ATOM     52  N   UNL A   1      42.275  31.161  33.529  1.00  0.00    -0.248 NA
ATOM     53  C   UNL A   1      43.316  32.100  35.398  1.00  0.00     0.031 C 
ATOM     54  C   UNL A   1      43.737  27.540  31.415  1.00  0.00     0.029 A 
ATOM     55  C   UNL A   1      43.302  28.667  32.094  1.00  0.00     0.049 A 
ATOM     56  H   UNL A   1      41.587  29.846  31.754  1.00  0.00     0.167 HD
ATOM     57  C   UNL A   1      43.415  30.427  33.833  1.00  0.00     0.074 A 
ATOM     58  C   UNL A   1      44.035  31.070  34.974  1.00  0.00     0.031 C 
ATOM     59  C   UNL A   1      43.909  29.324  33.222  1.00  0.00     0.031 A 
BRANCH  46  60
ATOM     60  C   UNL A   1      40.450  27.309  28.522  1.00  0.00    -0.014 A 
ATOM     61  C   UNL A   1      41.042  27.442  27.256  1.00  0.00     0.009 A 
ATOM     62  C   UNL A   1      39.653  26.184  28.785  1.00  0.00     0.009 A 
ATOM     63  C   UNL A   1      40.812  26.487  26.264  1.00  0.00     0.001 A 
ATOM     64  C   UNL A   1      39.448  25.216  27.800  1.00  0.00     0.001 A 
ATOM     65  C   UNL A   1      40.019  25.373  26.539  1.00  0.00     0.000 A 
ENDBRANCH  46  60
BRANCH  47  66
ATOM     66  C   UNL A   1      41.388  34.280  35.598  1.00  0.00    -0.014 A 
ATOM     67  C   UNL A   1      40.753  34.108  36.838  1.00  0.00     0.009 A 
ATOM     68  C   UNL A   1      42.129  35.450  35.374  1.00  0.00     0.009 A 
ATOM     69  C   UNL A   1      40.829  35.102  37.817  1.00  0.00     0.001 A 
ATOM     70  C   UNL A   1      42.226  36.430  36.364  1.00  0.00     0.001 A 
ATOM     71  C   UNL A   1      41.566  36.261  37.580  1.00  0.00     0.000 A 
ENDBRANCH  47  66
BRANCH  59  72
ATOM     72  C   UNL A   1      45.204  28.766  33.740  1.00  0.00    -0.014 A 
ATOM     73  C   UNL A   1      46.441  29.223  33.261  1.00  0.00     0.009 A 
ATOM     74  C   UNL A   1      45.183  27.808  34.766  1.00  0.00     0.009 A 
ATOM     75  C   UNL A   1      47.631  28.708  33.778  1.00  0.00     0.001 A 
ATOM     76  C   UNL A   1      46.374  27.318  35.302  1.00  0.00     0.001 A 
ATOM     77  C   UNL A   1      47.596  27.761  34.802  1.00  0.00     0.000 A 
ENDBRANCH  59  72
ENDBRANCH  33  34
ENDBRANCH  26  28
ENDBRANCH  25  26
ENDBRANCH  24  25
ENDBRANCH  23  24
ENDBRANCH   1  23
TORSDOF 17
ENDMDL
