MODEL 1
REMARK VINA RESULT:      -9.6      0.000      0.000
REMARK SMILES C[C@@]1(CN2C[C@H](C(=O)OCCOCCOC(=O)c3ccc(-c4c5nc(c(-c6ccccc6)c6ccc([nH]6)c(-c6ccccc6)c6nc(c(-c7ccccc7)c7ccc4[nH]7)C=C6)C=C5)cc3)CCC2=O)CCCO1
REMARK SMILES IDX 12 1 11 2 10 3 9 4 7 5 8 6 6 7 4 8 5 9 68 10 67 11 69 12
REMARK SMILES IDX 66 13 3 14 2 15 1 16 70 17 73 18 71 19 72 20 13 21 14 22
REMARK SMILES IDX 15 23 16 24 17 25 18 26 19 27 65 28 20 29 64 30 21 31 22 32
REMARK SMILES IDX 23 33 58 34 24 35 63 36 57 37 59 38 25 39 62 40 56 41 55 42
REMARK SMILES IDX 26 44 48 45 33 46 47 47 34 48 37 49 46 50 60 51 35 52 36 53
REMARK SMILES IDX 45 55 61 56 38 57 27 58 28 59 32 60 29 61 31 62 30 63 49 64
REMARK SMILES IDX 50 65 54 66 51 67 53 68 52 69 39 70 40 71 44 72 41 73 43 74
REMARK SMILES IDX 42 75
REMARK H PARENT 59 43 37 54
REMARK Flexibility Score: inf
ROOT
ATOM      1  O   UNL A   1      38.564  22.221  25.909  1.00  0.00    -0.374 OA
ENDROOT
BRANCH   1   2
ATOM      2  C   UNL A   1      37.669  23.325  25.977  1.00  0.00     0.202 C 
BRANCH   2   3
ATOM      3  C   UNL A   1      36.870  23.727  24.730  1.00  0.00     0.261 C 
BRANCH   3   4
ATOM      4  O   UNL A   1      35.450  23.641  24.891  1.00  0.00    -0.463 OA
BRANCH   4   5
ATOM      5  C   UNL A   1      34.802  23.413  23.714  1.00  0.00     0.310 C 
ATOM      6  O   UNL A   1      35.364  23.149  22.658  1.00  0.00    -0.252 OA
BRANCH   5   7
ATOM      7  C   UNL A   1      33.294  23.434  23.896  1.00  0.00     0.119 C 
ATOM      8  N   UNL A   1      33.222  25.890  23.963  1.00  0.00    -0.339 N 
ATOM      9  C   UNL A   1      32.862  24.667  24.665  1.00  0.00     0.134 C 
ATOM     10  C   UNL A   1      33.378  25.935  22.585  1.00  0.00     0.222 C 
ATOM     11  C   UNL A   1      32.842  24.758  21.780  1.00  0.00     0.101 C 
ATOM     12  O   UNL A   1      33.879  26.901  22.009  1.00  0.00    -0.275 OA
ATOM     13  C   UNL A   1      32.595  23.457  22.541  1.00  0.00     0.027 C 
BRANCH   8  14
ATOM     14  C   UNL A   1      33.368  27.118  24.749  1.00  0.00     0.154 C 
BRANCH  14  15
ATOM     15  C   UNL A   1      32.030  27.686  25.305  1.00  0.00     0.083 C 
ATOM     16  C   UNL A   1      30.838  27.379  24.399  1.00  0.00     0.044 C 
ATOM     17  C   UNL A   1      32.146  29.201  25.532  1.00  0.00     0.039 C 
ATOM     18  O   UNL A   1      31.778  27.108  26.610  1.00  0.00    -0.373 OA
ATOM     19  C   UNL A   1      32.552  29.300  26.982  1.00  0.00     0.031 C 
ATOM     20  C   UNL A   1      31.804  28.142  27.597  1.00  0.00     0.161 C 
ENDBRANCH  14  15
ENDBRANCH   8  14
ENDBRANCH   5   7
ENDBRANCH   4   5
ENDBRANCH   3   4
ENDBRANCH   2   3
ENDBRANCH   1   2
BRANCH   1  21
ATOM     21  C   UNL A   1      38.182  21.054  25.186  1.00  0.00     0.202 C 
BRANCH  21  22
ATOM     22  C   UNL A   1      38.996  19.771  25.381  1.00  0.00     0.261 C 
BRANCH  22  23
ATOM     23  O   UNL A   1      39.922  19.871  26.477  1.00  0.00    -0.460 OA
BRANCH  23  24
ATOM     24  C   UNL A   1      41.222  19.895  26.102  1.00  0.00     0.338 C 
ATOM     25  O   UNL A   1      41.790  19.125  25.339  1.00  0.00    -0.246 OA
BRANCH  24  26
ATOM     26  C   UNL A   1      41.868  21.124  26.586  1.00  0.00     0.060 A 
ATOM     27  C   UNL A   1      41.959  21.291  27.974  1.00  0.00     0.016 A 
ATOM     28  C   UNL A   1      42.286  22.131  25.715  1.00  0.00     0.016 A 
ATOM     29  C   UNL A   1      42.407  22.497  28.500  1.00  0.00     0.010 A 
ATOM     30  C   UNL A   1      42.724  23.350  26.245  1.00  0.00     0.010 A 
ATOM     31  C   UNL A   1      42.741  23.549  27.638  1.00  0.00    -0.014 A 
BRANCH  31  32
ATOM     32  C   UNL A   1      42.932  24.896  28.220  1.00  0.00     0.031 A 
ATOM     33  C   UNL A   1      44.322  25.341  28.579  1.00  0.00     0.074 A 
ATOM     34  C   UNL A   1      41.896  25.742  28.338  1.00  0.00     0.049 A 
ATOM     35  N   UNL A   1      44.735  26.510  29.000  1.00  0.00    -0.248 NA
ATOM     36  C   UNL A   1      45.390  24.338  28.438  1.00  0.00     0.031 C 
ATOM     37  C   UNL A   1      40.509  25.435  27.990  1.00  0.00     0.029 A 
ATOM     38  N   UNL A   1      41.859  27.042  28.771  1.00  0.00    -0.354 N 
ATOM     39  C   UNL A   1      46.109  26.386  29.162  1.00  0.00     0.074 A 
ATOM     40  C   UNL A   1      46.454  25.019  28.836  1.00  0.00     0.031 C 
ATOM     41  C   UNL A   1      39.754  26.524  28.220  1.00  0.00     0.029 A 
ATOM     42  C   UNL A   1      40.602  27.593  28.742  1.00  0.00     0.049 A 
ATOM     43  H   UNL A   1      42.657  27.533  29.073  1.00  0.00     0.167 HD
ATOM     44  C   UNL A   1      47.007  27.328  29.536  1.00  0.00     0.031 A 
ATOM     45  C   UNL A   1      40.186  28.824  29.095  1.00  0.00     0.031 A 
ATOM     46  C   UNL A   1      46.662  28.679  29.888  1.00  0.00     0.049 A 
ATOM     47  C   UNL A   1      41.193  29.838  29.560  1.00  0.00     0.074 A 
ATOM     48  C   UNL A   1      47.497  29.708  30.289  1.00  0.00     0.029 A 
ATOM     49  N   UNL A   1      45.372  29.187  29.887  1.00  0.00    -0.354 N 
ATOM     50  N   UNL A   1      42.494  29.716  29.686  1.00  0.00    -0.248 NA
ATOM     51  C   UNL A   1      40.676  31.166  29.914  1.00  0.00     0.031 C 
ATOM     52  C   UNL A   1      46.705  30.826  30.576  1.00  0.00     0.029 A 
ATOM     53  C   UNL A   1      45.384  30.507  30.301  1.00  0.00     0.049 A 
ATOM     54  H   UNL A   1      44.567  28.681  29.631  1.00  0.00     0.167 HD
ATOM     55  C   UNL A   1      42.952  30.956  30.112  1.00  0.00     0.074 A 
ATOM     56  C   UNL A   1      41.792  31.821  30.204  1.00  0.00     0.031 C 
ATOM     57  C   UNL A   1      44.217  31.347  30.402  1.00  0.00     0.031 A 
BRANCH  44  58
ATOM     58  C   UNL A   1      48.448  26.906  29.608  1.00  0.00    -0.014 A 
ATOM     59  C   UNL A   1      49.315  27.092  28.519  1.00  0.00     0.009 A 
ATOM     60  C   UNL A   1      48.947  26.321  30.781  1.00  0.00     0.009 A 
ATOM     61  C   UNL A   1      50.643  26.664  28.591  1.00  0.00     0.001 A 
ATOM     62  C   UNL A   1      50.281  25.918  30.859  1.00  0.00     0.001 A 
ATOM     63  C   UNL A   1      51.124  26.080  29.762  1.00  0.00     0.000 A 
ENDBRANCH  44  58
BRANCH  45  64
ATOM     64  C   UNL A   1      38.742  29.161  29.022  1.00  0.00    -0.014 A 
ATOM     65  C   UNL A   1      37.917  29.045  30.150  1.00  0.00     0.009 A 
ATOM     66  C   UNL A   1      38.183  29.602  27.812  1.00  0.00     0.009 A 
ATOM     67  C   UNL A   1      36.555  29.346  30.062  1.00  0.00     0.001 A 
ATOM     68  C   UNL A   1      36.827  29.925  27.734  1.00  0.00     0.001 A 
ATOM     69  C   UNL A   1      36.013  29.789  28.856  1.00  0.00     0.000 A 
ENDBRANCH  45  64
BRANCH  57  70
ATOM     70  C   UNL A   1      44.408  32.775  30.827  1.00  0.00    -0.014 A 
ATOM     71  C   UNL A   1      44.651  33.789  29.886  1.00  0.00     0.009 A 
ATOM     72  C   UNL A   1      44.328  33.114  32.187  1.00  0.00     0.009 A 
ATOM     73  C   UNL A   1      44.854  35.106  30.304  1.00  0.00     0.001 A 
ATOM     74  C   UNL A   1      44.504  34.436  32.598  1.00  0.00     0.001 A 
ATOM     75  C   UNL A   1      44.778  35.428  31.659  1.00  0.00     0.000 A 
ENDBRANCH  57  70
ENDBRANCH  31  32
ENDBRANCH  24  26
ENDBRANCH  23  24
ENDBRANCH  22  23
ENDBRANCH  21  22
ENDBRANCH   1  21
TORSDOF 16
ENDMDL
MODEL 2
REMARK VINA RESULT:      -9.5      3.343      8.427
REMARK SMILES C[C@@]1(CN2C[C@H](C(=O)OCCOCCOC(=O)c3ccc(-c4c5nc(c(-c6ccccc6)c6ccc([nH]6)c(-c6ccccc6)c6nc(c(-c7ccccc7)c7ccc4[nH]7)C=C6)C=C5)cc3)CCC2=O)CCCO1
REMARK SMILES IDX 12 1 11 2 10 3 9 4 7 5 8 6 6 7 4 8 5 9 68 10 67 11 69 12
REMARK SMILES IDX 66 13 3 14 2 15 1 16 70 17 73 18 71 19 72 20 13 21 14 22
REMARK SMILES IDX 15 23 16 24 17 25 18 26 19 27 65 28 20 29 64 30 21 31 22 32
REMARK SMILES IDX 23 33 58 34 24 35 63 36 57 37 59 38 25 39 62 40 56 41 55 42
REMARK SMILES IDX 26 44 48 45 33 46 47 47 34 48 37 49 46 50 60 51 35 52 36 53
REMARK SMILES IDX 45 55 61 56 38 57 27 58 28 59 32 60 29 61 31 62 30 63 49 64
REMARK SMILES IDX 50 65 54 66 51 67 53 68 52 69 39 70 40 71 44 72 41 73 43 74
REMARK SMILES IDX 42 75
REMARK H PARENT 59 43 37 54
REMARK Flexibility Score: inf
ROOT
ATOM      1  O   UNL A   1      33.017  30.191  27.501  1.00  0.00    -0.374 OA
ENDROOT
BRANCH   1   2
ATOM      2  C   UNL A   1      33.984  29.596  26.643  1.00  0.00     0.202 C 
BRANCH   2   3
ATOM      3  C   UNL A   1      34.090  28.066  26.573  1.00  0.00     0.261 C 
BRANCH   3   4
ATOM      4  O   UNL A   1      33.359  27.477  25.491  1.00  0.00    -0.463 OA
BRANCH   4   5
ATOM      5  C   UNL A   1      33.121  26.149  25.682  1.00  0.00     0.310 C 
ATOM      6  O   UNL A   1      33.862  25.254  25.295  1.00  0.00    -0.252 OA
BRANCH   5   7
ATOM      7  C   UNL A   1      31.872  25.921  26.517  1.00  0.00     0.119 C 
ATOM      8  N   UNL A   1      30.394  26.107  24.562  1.00  0.00    -0.339 N 
ATOM      9  C   UNL A   1      30.677  26.616  25.896  1.00  0.00     0.134 C 
ATOM     10  C   UNL A   1      30.752  24.827  24.166  1.00  0.00     0.222 C 
ATOM     11  C   UNL A   1      31.150  23.841  25.258  1.00  0.00     0.101 C 
ATOM     12  O   UNL A   1      30.705  24.462  22.991  1.00  0.00    -0.275 OA
ATOM     13  C   UNL A   1      31.556  24.433  26.607  1.00  0.00     0.027 C 
BRANCH   8  14
ATOM     14  C   UNL A   1      29.658  26.972  23.636  1.00  0.00     0.154 C 
BRANCH  14  15
ATOM     15  C   UNL A   1      30.524  28.080  22.969  1.00  0.00     0.083 C 
ATOM     16  C   UNL A   1      31.885  27.564  22.504  1.00  0.00     0.044 C 
ATOM     17  C   UNL A   1      30.707  29.265  23.928  1.00  0.00     0.039 C 
ATOM     18  O   UNL A   1      29.813  28.606  21.819  1.00  0.00    -0.373 OA
ATOM     19  C   UNL A   1      29.584  30.197  23.539  1.00  0.00     0.031 C 
ATOM     20  C   UNL A   1      29.500  29.982  22.048  1.00  0.00     0.161 C 
ENDBRANCH  14  15
ENDBRANCH   8  14
ENDBRANCH   5   7
ENDBRANCH   4   5
ENDBRANCH   3   4
ENDBRANCH   2   3
ENDBRANCH   1   2
BRANCH   1  21
ATOM     21  C   UNL A   1      31.875  30.828  26.934  1.00  0.00     0.202 C 
BRANCH  21  22
ATOM     22  C   UNL A   1      31.753  32.351  27.045  1.00  0.00     0.261 C 
BRANCH  22  23
ATOM     23  O   UNL A   1      33.034  33.003  27.053  1.00  0.00    -0.460 OA
BRANCH  23  24
ATOM     24  C   UNL A   1      33.219  33.847  28.094  1.00  0.00     0.338 C 
ATOM     25  O   UNL A   1      32.415  34.647  28.555  1.00  0.00    -0.246 OA
BRANCH  24  26
ATOM     26  C   UNL A   1      34.492  33.551  28.769  1.00  0.00     0.060 A 
ATOM     27  C   UNL A   1      35.667  33.937  28.112  1.00  0.00     0.016 A 
ATOM     28  C   UNL A   1      34.543  32.829  29.963  1.00  0.00     0.016 A 
ATOM     29  C   UNL A   1      36.902  33.544  28.612  1.00  0.00     0.010 A 
ATOM     30  C   UNL A   1      35.787  32.422  30.457  1.00  0.00     0.010 A 
ATOM     31  C   UNL A   1      36.965  32.740  29.757  1.00  0.00    -0.014 A 
BRANCH  31  32
ATOM     32  C   UNL A   1      38.257  32.103  30.094  1.00  0.00     0.031 A 
ATOM     33  C   UNL A   1      39.154  32.768  31.100  1.00  0.00     0.074 A 
ATOM     34  C   UNL A   1      38.582  30.904  29.582  1.00  0.00     0.049 A 
ATOM     35  N   UNL A   1      40.275  32.339  31.623  1.00  0.00    -0.248 NA
ATOM     36  C   UNL A   1      38.727  34.090  31.588  1.00  0.00     0.031 C 
ATOM     37  C   UNL A   1      37.775  30.147  28.625  1.00  0.00     0.029 A 
ATOM     38  N   UNL A   1      39.673  30.109  29.814  1.00  0.00    -0.354 N 
ATOM     39  C   UNL A   1      40.680  33.330  32.508  1.00  0.00     0.074 A 
ATOM     40  C   UNL A   1      39.709  34.400  32.421  1.00  0.00     0.031 C 
ATOM     41  C   UNL A   1      38.402  28.989  28.353  1.00  0.00     0.029 A 
ATOM     42  C   UNL A   1      39.653  28.933  29.107  1.00  0.00     0.049 A 
ATOM     43  H   UNL A   1      40.401  30.356  30.429  1.00  0.00     0.167 HD
ATOM     44  C   UNL A   1      41.755  33.344  33.331  1.00  0.00     0.031 A 
ATOM     45  C   UNL A   1      40.545  27.925  29.073  1.00  0.00     0.031 A 
ATOM     46  C   UNL A   1      42.736  32.295  33.397  1.00  0.00     0.049 A 
ATOM     47  C   UNL A   1      41.761  27.987  29.954  1.00  0.00     0.074 A 
ATOM     48  C   UNL A   1      43.867  32.218  34.190  1.00  0.00     0.029 A 
ATOM     49  N   UNL A   1      42.703  31.139  32.633  1.00  0.00    -0.354 N 
ATOM     50  N   UNL A   1      42.120  28.919  30.805  1.00  0.00    -0.248 NA
ATOM     51  C   UNL A   1      42.685  26.847  29.883  1.00  0.00     0.031 C 
ATOM     52  C   UNL A   1      44.545  31.035  33.871  1.00  0.00     0.029 A 
ATOM     53  C   UNL A   1      43.805  30.352  32.919  1.00  0.00     0.049 A 
ATOM     54  H   UNL A   1      42.000  30.913  31.981  1.00  0.00     0.167 HD
ATOM     55  C   UNL A   1      43.299  28.469  31.386  1.00  0.00     0.074 A 
ATOM     56  C   UNL A   1      43.583  27.172  30.804  1.00  0.00     0.031 C 
ATOM     57  C   UNL A   1      44.079  29.072  32.317  1.00  0.00     0.031 A 
BRANCH  44  58
ATOM     58  C   UNL A   1      41.932  34.557  34.201  1.00  0.00    -0.014 A 
ATOM     59  C   UNL A   1      41.401  34.603  35.500  1.00  0.00     0.009 A 
ATOM     60  C   UNL A   1      42.642  35.666  33.718  1.00  0.00     0.009 A 
ATOM     61  C   UNL A   1      41.547  35.750  36.284  1.00  0.00     0.001 A 
ATOM     62  C   UNL A   1      42.808  36.801  34.513  1.00  0.00     0.001 A 
ATOM     63  C   UNL A   1      42.252  36.847  35.790  1.00  0.00     0.000 A 
ENDBRANCH  44  58
BRANCH  45  64
ATOM     64  C   UNL A   1      40.317  26.770  28.169  1.00  0.00    -0.014 A 
ATOM     65  C   UNL A   1      39.575  25.658  28.594  1.00  0.00     0.009 A 
ATOM     66  C   UNL A   1      40.848  26.778  26.870  1.00  0.00     0.009 A 
ATOM     67  C   UNL A   1      39.386  24.568  27.740  1.00  0.00     0.001 A 
ATOM     68  C   UNL A   1      40.636  25.698  26.011  1.00  0.00     0.001 A 
ATOM     69  C   UNL A   1      39.912  24.590  26.450  1.00  0.00     0.000 A 
ENDBRANCH  45  64
BRANCH  57  70
ATOM     70  C   UNL A   1      45.299  28.322  32.771  1.00  0.00    -0.014 A 
ATOM     71  C   UNL A   1      45.244  27.424  33.849  1.00  0.00     0.009 A 
ATOM     72  C   UNL A   1      46.519  28.507  32.102  1.00  0.00     0.009 A 
ATOM     73  C   UNL A   1      46.396  26.759  34.274  1.00  0.00     0.001 A 
ATOM     74  C   UNL A   1      47.662  27.819  32.512  1.00  0.00     0.001 A 
ATOM     75  C   UNL A   1      47.603  26.956  33.604  1.00  0.00     0.000 A 
ENDBRANCH  57  70
ENDBRANCH  31  32
ENDBRANCH  24  26
ENDBRANCH  23  24
ENDBRANCH  22  23
ENDBRANCH  21  22
ENDBRANCH   1  21
TORSDOF 16
ENDMDL
MODEL 3
REMARK VINA RESULT:      -9.5      1.934      3.622
REMARK SMILES C[C@@]1(CN2C[C@H](C(=O)OCCOCCOC(=O)c3ccc(-c4c5nc(c(-c6ccccc6)c6ccc([nH]6)c(-c6ccccc6)c6nc(c(-c7ccccc7)c7ccc4[nH]7)C=C6)C=C5)cc3)CCC2=O)CCCO1
REMARK SMILES IDX 12 1 11 2 10 3 9 4 7 5 8 6 6 7 4 8 5 9 68 10 67 11 69 12
REMARK SMILES IDX 66 13 3 14 2 15 1 16 70 17 73 18 71 19 72 20 13 21 14 22
REMARK SMILES IDX 15 23 16 24 17 25 18 26 19 27 65 28 20 29 64 30 21 31 22 32
REMARK SMILES IDX 23 33 58 34 24 35 63 36 57 37 59 38 25 39 62 40 56 41 55 42
REMARK SMILES IDX 26 44 48 45 33 46 47 47 34 48 37 49 46 50 60 51 35 52 36 53
REMARK SMILES IDX 45 55 61 56 38 57 27 58 28 59 32 60 29 61 31 62 30 63 49 64
REMARK SMILES IDX 50 65 54 66 51 67 53 68 52 69 39 70 40 71 44 72 41 73 43 74
REMARK SMILES IDX 42 75
REMARK H PARENT 59 43 37 54
REMARK Flexibility Score: inf
ROOT
ATOM      1  O   UNL A   1      38.755  22.412  25.963  1.00  0.00    -0.374 OA
ENDROOT
BRANCH   1   2
ATOM      2  C   UNL A   1      37.853  23.388  26.471  1.00  0.00     0.202 C 
BRANCH   2   3
ATOM      3  C   UNL A   1      36.667  23.842  25.608  1.00  0.00     0.261 C 
BRANCH   3   4
ATOM      4  O   UNL A   1      35.410  23.272  25.992  1.00  0.00    -0.463 OA
BRANCH   4   5
ATOM      5  C   UNL A   1      34.366  23.775  25.275  1.00  0.00     0.310 C 
ATOM      6  O   UNL A   1      33.610  24.649  25.680  1.00  0.00    -0.252 OA
BRANCH   5   7
ATOM      7  C   UNL A   1      34.316  23.183  23.876  1.00  0.00     0.119 C 
ATOM      8  N   UNL A   1      33.372  21.062  24.684  1.00  0.00    -0.339 N 
ATOM      9  C   UNL A   1      34.453  21.674  23.925  1.00  0.00     0.134 C 
ATOM     10  C   UNL A   1      32.130  21.664  24.821  1.00  0.00     0.222 C 
ATOM     11  C   UNL A   1      31.806  22.824  23.886  1.00  0.00     0.101 C 
ATOM     12  O   UNL A   1      31.286  21.262  25.621  1.00  0.00    -0.275 OA
ATOM     13  C   UNL A   1      32.987  23.513  23.207  1.00  0.00     0.027 C 
BRANCH   8  14
ATOM     14  C   UNL A   1      33.605  19.740  25.271  1.00  0.00     0.154 C 
BRANCH  14  15
ATOM     15  C   UNL A   1      33.200  18.550  24.353  1.00  0.00     0.083 C 
ATOM     16  C   UNL A   1      32.453  19.002  23.099  1.00  0.00     0.044 C 
ATOM     17  C   UNL A   1      32.354  17.536  25.136  1.00  0.00     0.039 C 
ATOM     18  O   UNL A   1      34.396  17.840  23.946  1.00  0.00    -0.373 OA
ATOM     19  C   UNL A   1      33.378  16.541  25.626  1.00  0.00     0.031 C 
ATOM     20  C   UNL A   1      34.361  16.514  24.481  1.00  0.00     0.161 C 
ENDBRANCH  14  15
ENDBRANCH   8  14
ENDBRANCH   5   7
ENDBRANCH   4   5
ENDBRANCH   3   4
ENDBRANCH   2   3
ENDBRANCH   1   2
BRANCH   1  21
ATOM     21  C   UNL A   1      38.240  21.265  25.291  1.00  0.00     0.202 C 
BRANCH  21  22
ATOM     22  C   UNL A   1      39.040  19.960  25.350  1.00  0.00     0.261 C 
BRANCH  22  23
ATOM     23  O   UNL A   1      39.965  19.934  26.450  1.00  0.00    -0.460 OA
BRANCH  23  24
ATOM     24  C   UNL A   1      41.266  19.959  26.079  1.00  0.00     0.338 C 
ATOM     25  O   UNL A   1      41.834  19.198  25.307  1.00  0.00    -0.246 OA
BRANCH  24  26
ATOM     26  C   UNL A   1      41.916  21.179  26.584  1.00  0.00     0.060 A 
ATOM     27  C   UNL A   1      41.961  21.349  27.973  1.00  0.00     0.016 A 
ATOM     28  C   UNL A   1      42.380  22.177  25.725  1.00  0.00     0.016 A 
ATOM     29  C   UNL A   1      42.409  22.548  28.511  1.00  0.00     0.010 A 
ATOM     30  C   UNL A   1      42.818  23.390  26.267  1.00  0.00     0.010 A 
ATOM     31  C   UNL A   1      42.791  23.593  27.659  1.00  0.00    -0.014 A 
BRANCH  31  32
ATOM     32  C   UNL A   1      42.982  24.938  28.245  1.00  0.00     0.031 A 
ATOM     33  C   UNL A   1      44.373  25.380  28.608  1.00  0.00     0.074 A 
ATOM     34  C   UNL A   1      41.948  25.786  28.363  1.00  0.00     0.049 A 
ATOM     35  N   UNL A   1      44.787  26.546  29.032  1.00  0.00    -0.248 NA
ATOM     36  C   UNL A   1      45.439  24.375  28.467  1.00  0.00     0.031 C 
ATOM     37  C   UNL A   1      40.561  25.482  28.011  1.00  0.00     0.029 A 
ATOM     38  N   UNL A   1      41.912  27.085  28.798  1.00  0.00    -0.354 N 
ATOM     39  C   UNL A   1      46.161  26.419  29.197  1.00  0.00     0.074 A 
ATOM     40  C   UNL A   1      46.504  25.053  28.868  1.00  0.00     0.031 C 
ATOM     41  C   UNL A   1      39.807  26.572  28.243  1.00  0.00     0.029 A 
ATOM     42  C   UNL A   1      40.657  27.638  28.768  1.00  0.00     0.049 A 
ATOM     43  H   UNL A   1      42.711  27.574  29.103  1.00  0.00     0.167 HD
ATOM     44  C   UNL A   1      47.060  27.360  29.574  1.00  0.00     0.031 A 
ATOM     45  C   UNL A   1      40.242  28.869  29.124  1.00  0.00     0.031 A 
ATOM     46  C   UNL A   1      46.717  28.710  29.929  1.00  0.00     0.049 A 
ATOM     47  C   UNL A   1      41.251  29.880  29.593  1.00  0.00     0.074 A 
ATOM     48  C   UNL A   1      47.552  29.736  30.334  1.00  0.00     0.029 A 
ATOM     49  N   UNL A   1      45.428  29.220  29.927  1.00  0.00    -0.354 N 
ATOM     50  N   UNL A   1      42.550  29.755  29.721  1.00  0.00    -0.248 NA
ATOM     51  C   UNL A   1      40.735  31.209  29.948  1.00  0.00     0.031 C 
ATOM     52  C   UNL A   1      46.762  30.855  30.622  1.00  0.00     0.029 A 
ATOM     53  C   UNL A   1      45.441  30.540  30.343  1.00  0.00     0.049 A 
ATOM     54  H   UNL A   1      44.622  28.717  29.668  1.00  0.00     0.167 HD
ATOM     55  C   UNL A   1      43.010  30.993  30.151  1.00  0.00     0.074 A 
ATOM     56  C   UNL A   1      41.852  31.861  30.242  1.00  0.00     0.031 C 
ATOM     57  C   UNL A   1      44.276  31.381  30.444  1.00  0.00     0.031 A 
BRANCH  44  58
ATOM     58  C   UNL A   1      48.500  26.934  29.648  1.00  0.00    -0.014 A 
ATOM     59  C   UNL A   1      49.358  27.082  28.547  1.00  0.00     0.009 A 
ATOM     60  C   UNL A   1      49.006  26.385  30.836  1.00  0.00     0.009 A 
ATOM     61  C   UNL A   1      50.685  26.652  28.623  1.00  0.00     0.001 A 
ATOM     62  C   UNL A   1      50.339  25.980  30.916  1.00  0.00     0.001 A 
ATOM     63  C   UNL A   1      51.174  26.104  29.807  1.00  0.00     0.000 A 
ENDBRANCH  44  58
BRANCH  45  64
ATOM     64  C   UNL A   1      38.799  29.210  29.048  1.00  0.00    -0.014 A 
ATOM     65  C   UNL A   1      38.230  29.676  27.854  1.00  0.00     0.009 A 
ATOM     66  C   UNL A   1      37.983  29.070  30.182  1.00  0.00     0.009 A 
ATOM     67  C   UNL A   1      36.876  30.013  27.803  1.00  0.00     0.001 A 
ATOM     68  C   UNL A   1      36.625  29.384  30.120  1.00  0.00     0.001 A 
ATOM     69  C   UNL A   1      36.074  29.863  28.933  1.00  0.00     0.000 A 
ENDBRANCH  45  64
BRANCH  57  70
ATOM     70  C   UNL A   1      44.468  32.809  30.872  1.00  0.00    -0.014 A 
ATOM     71  C   UNL A   1      44.374  33.184  32.221  1.00  0.00     0.009 A 
ATOM     72  C   UNL A   1      44.762  33.789  29.911  1.00  0.00     0.009 A 
ATOM     73  C   UNL A   1      44.527  34.522  32.594  1.00  0.00     0.001 A 
ATOM     74  C   UNL A   1      44.942  35.120  30.291  1.00  0.00     0.001 A 
ATOM     75  C   UNL A   1      44.813  35.487  31.629  1.00  0.00     0.000 A 
ENDBRANCH  57  70
ENDBRANCH  31  32
ENDBRANCH  24  26
ENDBRANCH  23  24
ENDBRANCH  22  23
ENDBRANCH  21  22
ENDBRANCH   1  21
TORSDOF 16
ENDMDL
