MODEL 1
REMARK VINA RESULT:     -12.3      0.000      0.000
REMARK SMILES Cc1ccccc1C(=O)Nc1ccc(OCC(=O)OCCOCCOC(=O)c2ccc(-c3c4nc(c(-c5ccccc5)c5ccc([nH]5)c(-c5ccccc5)c5nc(c(-c6ccccc6)c6ccc3[nH]6)C=C5)C=C4)cc2)c(-c2nc3ccccc3s2)c1
REMARK SMILES IDX 21 1 20 2 19 3 17 4 18 5 16 6 15 7 14 8 11 9 12 10 86 11
REMARK SMILES IDX 13 12 76 13 10 14 8 15 9 16 7 18 1 19 2 20 3 21 4 22 6 23
REMARK SMILES IDX 5 24 77 25 78 26 85 27 79 28 84 29 80 30 83 31 81 32 82 33
REMARK SMILES IDX 22 34 23 35 24 36 25 37 26 38 27 39 28 40 29 41 75 42 30 43
REMARK SMILES IDX 74 44 31 45 32 46 33 47 68 48 34 49 73 50 67 51 69 52 35 53
REMARK SMILES IDX 72 54 66 55 65 56 36 58 58 59 43 60 57 61 44 62 47 63 56 64
REMARK SMILES IDX 70 65 45 66 46 67 55 69 71 70 48 71 37 72 38 73 42 74 39 75
REMARK SMILES IDX 41 76 40 77 59 78 60 79 64 80 61 81 63 82 62 83 49 84 50 85
REMARK SMILES IDX 54 86 51 87 53 88 52 89
REMARK H PARENT 10 17 69 57 47 68
REMARK Flexibility Score: inf
ROOT
ATOM      1  C   UNL A   1      34.349  31.173  27.520  1.00  0.00     0.202 C 
ENDROOT
BRANCH   1   2
ATOM      2  C   UNL A   1      32.856  31.057  27.383  1.00  0.00     0.261 C 
BRANCH   2   3
ATOM      3  O   UNL A   1      32.444  29.722  27.101  1.00  0.00    -0.461 OA
BRANCH   3   4
ATOM      4  C   UNL A   1      32.118  29.655  25.772  1.00  0.00     0.344 C 
ATOM      5  O   UNL A   1      31.265  30.313  25.234  1.00  0.00    -0.248 OA
BRANCH   4   6
ATOM      6  C   UNL A   1      32.922  28.596  25.021  1.00  0.00     0.352 C 
BRANCH   6   7
ATOM      7  O   UNL A   1      33.107  28.423  23.632  1.00  0.00    -0.481 OA
BRANCH   7   8
ATOM      8  C   UNL A   1      32.833  27.242  23.000  1.00  0.00     0.130 A 
ATOM      9  C   UNL A   1      32.176  24.506  22.592  1.00  0.00     0.042 A 
ATOM     10  C   UNL A   1      33.498  24.912  22.817  1.00  0.00     0.030 A 
ATOM     11  C   UNL A   1      31.194  25.493  22.498  1.00  0.00     0.041 A 
ATOM     12  C   UNL A   1      33.833  26.264  22.998  1.00  0.00     0.049 A 
ATOM     13  C   UNL A   1      31.495  26.878  22.713  1.00  0.00     0.055 A 
BRANCH   9  14
ATOM     14  N   UNL A   1      31.921  23.116  22.638  1.00  0.00    -0.322 N 
ATOM     15  C   UNL A   1      32.331  22.074  23.447  1.00  0.00     0.255 C 
ATOM     16  O   UNL A   1      32.323  20.925  23.004  1.00  0.00    -0.269 OA
ATOM     17  H   UNL A   1      31.308  22.822  21.926  1.00  0.00     0.170 HD
BRANCH  15  18
ATOM     18  C   UNL A   1      32.601  22.256  24.894  1.00  0.00     0.043 A 
ATOM     19  C   UNL A   1      35.111  22.116  24.549  1.00  0.00     0.045 C 
ATOM     20  C   UNL A   1      33.883  22.107  25.431  1.00  0.00    -0.038 A 
ATOM     21  C   UNL A   1      34.038  22.158  26.830  1.00  0.00     0.004 A 
ATOM     22  C   UNL A   1      32.996  22.549  27.659  1.00  0.00     0.000 A 
ATOM     23  C   UNL A   1      31.613  22.836  25.704  1.00  0.00     0.014 A 
ATOM     24  C   UNL A   1      31.818  22.995  27.080  1.00  0.00     0.001 A 
ENDBRANCH  15  18
ENDBRANCH   9  14
BRANCH  13  25
ATOM     25  C   UNL A   1      30.375  27.843  22.526  1.00  0.00     0.128 A 
ATOM     26  N   UNL A   1      30.449  28.893  21.730  1.00  0.00    -0.236 NA
ATOM     27  S   UNL A   1      28.972  27.847  23.524  1.00  0.00    -0.114 S 
ATOM     28  C   UNL A   1      29.474  29.825  22.057  1.00  0.00     0.082 A 
ATOM     29  C   UNL A   1      28.604  29.449  23.077  1.00  0.00     0.055 A 
ATOM     30  C   UNL A   1      29.335  31.106  21.493  1.00  0.00     0.030 A 
ATOM     31  C   UNL A   1      27.628  30.318  23.594  1.00  0.00     0.021 A 
ATOM     32  C   UNL A   1      28.373  31.987  22.002  1.00  0.00     0.002 A 
ATOM     33  C   UNL A   1      27.539  31.600  23.047  1.00  0.00     0.002 A 
ENDBRANCH  13  25
ENDBRANCH   7   8
ENDBRANCH   6   7
ENDBRANCH   4   6
ENDBRANCH   3   4
ENDBRANCH   2   3
ENDBRANCH   1   2
BRANCH   1  34
ATOM     34  O   UNL A   1      34.584  31.922  28.696  1.00  0.00    -0.374 OA
BRANCH  34  35
ATOM     35  C   UNL A   1      35.292  33.107  28.484  1.00  0.00     0.202 C 
BRANCH  35  36
ATOM     36  C   UNL A   1      34.366  34.286  28.549  1.00  0.00     0.261 C 
BRANCH  36  37
ATOM     37  O   UNL A   1      33.951  34.867  29.832  1.00  0.00    -0.460 OA
BRANCH  37  38
ATOM     38  C   UNL A   1      33.881  34.588  31.156  1.00  0.00     0.338 C 
ATOM     39  O   UNL A   1      32.894  34.920  31.804  1.00  0.00    -0.246 OA
BRANCH  38  40
ATOM     40  C   UNL A   1      34.983  33.936  31.877  1.00  0.00     0.060 A 
ATOM     41  C   UNL A   1      36.148  34.665  32.150  1.00  0.00     0.016 A 
ATOM     42  C   UNL A   1      34.923  32.589  32.180  1.00  0.00     0.016 A 
ATOM     43  C   UNL A   1      37.348  33.986  32.378  1.00  0.00     0.010 A 
ATOM     44  C   UNL A   1      36.128  31.912  32.316  1.00  0.00     0.010 A 
ATOM     45  C   UNL A   1      37.357  32.591  32.303  1.00  0.00    -0.014 A 
BRANCH  45  46
ATOM     46  C   UNL A   1      38.568  31.817  31.969  1.00  0.00     0.031 A 
ATOM     47  C   UNL A   1      38.487  30.643  31.110  1.00  0.00     0.074 A 
ATOM     48  C   UNL A   1      39.797  32.147  32.429  1.00  0.00     0.049 A 
ATOM     49  N   UNL A   1      38.994  29.503  31.448  1.00  0.00    -0.248 NA
ATOM     50  C   UNL A   1      37.805  30.632  29.825  1.00  0.00     0.031 C 
ATOM     51  C   UNL A   1      41.134  31.707  32.052  1.00  0.00     0.029 A 
ATOM     52  N   UNL A   1      40.057  33.042  33.424  1.00  0.00    -0.354 N 
ATOM     53  C   UNL A   1      39.015  28.767  30.293  1.00  0.00     0.074 A 
ATOM     54  C   UNL A   1      38.060  29.393  29.408  1.00  0.00     0.031 C 
ATOM     55  C   UNL A   1      42.045  32.233  32.903  1.00  0.00     0.029 A 
ATOM     56  C   UNL A   1      41.347  33.028  33.908  1.00  0.00     0.049 A 
ATOM     57  H   UNL A   1      39.370  33.656  33.773  1.00  0.00     0.167 HD
ATOM     58  C   UNL A   1      40.054  27.934  30.016  1.00  0.00     0.031 A 
ATOM     59  C   UNL A   1      41.538  33.061  35.257  1.00  0.00     0.031 A 
ATOM     60  C   UNL A   1      41.165  28.112  30.967  1.00  0.00     0.049 A 
ATOM     61  C   UNL A   1      41.744  31.628  35.668  1.00  0.00     0.074 A 
ATOM     62  C   UNL A   1      42.436  28.655  30.828  1.00  0.00     0.029 A 
ATOM     63  N   UNL A   1      40.942  28.025  32.345  1.00  0.00    -0.354 N 
ATOM     64  N   UNL A   1      41.399  30.646  34.880  1.00  0.00    -0.248 NA
ATOM     65  C   UNL A   1      42.461  31.166  36.852  1.00  0.00     0.031 C 
ATOM     66  C   UNL A   1      42.956  28.919  32.127  1.00  0.00     0.029 A 
ATOM     67  C   UNL A   1      42.011  28.528  33.064  1.00  0.00     0.049 A 
ATOM     68  H   UNL A   1      40.127  27.652  32.752  1.00  0.00     0.167 HD
ATOM     69  C   UNL A   1      42.003  29.510  35.293  1.00  0.00     0.074 A 
ATOM     70  C   UNL A   1      42.574  29.849  36.587  1.00  0.00     0.031 C 
ATOM     71  C   UNL A   1      42.064  28.397  34.517  1.00  0.00     0.031 A 
BRANCH  58  72
ATOM     72  C   UNL A   1      40.166  27.269  28.660  1.00  0.00    -0.014 A 
ATOM     73  C   UNL A   1      39.575  26.022  28.416  1.00  0.00     0.009 A 
ATOM     74  C   UNL A   1      40.836  27.857  27.565  1.00  0.00     0.009 A 
ATOM     75  C   UNL A   1      39.725  25.362  27.187  1.00  0.00     0.001 A 
ATOM     76  C   UNL A   1      41.046  27.179  26.359  1.00  0.00     0.001 A 
ATOM     77  C   UNL A   1      40.486  25.926  26.170  1.00  0.00     0.000 A 
ENDBRANCH  58  72
BRANCH  59  78
ATOM     78  C   UNL A   1      40.748  34.148  35.930  1.00  0.00    -0.014 A 
ATOM     79  C   UNL A   1      39.554  33.745  36.574  1.00  0.00     0.009 A 
ATOM     80  C   UNL A   1      41.301  35.377  36.321  1.00  0.00     0.009 A 
ATOM     81  C   UNL A   1      39.019  34.461  37.659  1.00  0.00     0.001 A 
ATOM     82  C   UNL A   1      40.750  36.103  37.399  1.00  0.00     0.001 A 
ATOM     83  C   UNL A   1      39.638  35.626  38.093  1.00  0.00     0.000 A 
ENDBRANCH  59  78
BRANCH  71  84
ATOM     84  C   UNL A   1      42.234  27.035  35.096  1.00  0.00    -0.014 A 
ATOM     85  C   UNL A   1      41.318  26.503  36.011  1.00  0.00     0.009 A 
ATOM     86  C   UNL A   1      43.184  26.168  34.525  1.00  0.00     0.009 A 
ATOM     87  C   UNL A   1      41.365  25.155  36.360  1.00  0.00     0.001 A 
ATOM     88  C   UNL A   1      43.195  24.812  34.829  1.00  0.00     0.001 A 
ATOM     89  C   UNL A   1      42.290  24.309  35.755  1.00  0.00     0.000 A 
ENDBRANCH  71  84
ENDBRANCH  45  46
ENDBRANCH  38  40
ENDBRANCH  37  38
ENDBRANCH  36  37
ENDBRANCH  35  36
ENDBRANCH  34  35
ENDBRANCH   1  34
TORSDOF 19
ENDMDL
MODEL 2
REMARK VINA RESULT:     -12.1      3.890      9.208
REMARK SMILES Cc1ccccc1C(=O)Nc1ccc(OCC(=O)OCCOCCOC(=O)c2ccc(-c3c4nc(c(-c5ccccc5)c5ccc([nH]5)c(-c5ccccc5)c5nc(c(-c6ccccc6)c6ccc3[nH]6)C=C5)C=C4)cc2)c(-c2nc3ccccc3s2)c1
REMARK SMILES IDX 21 1 20 2 19 3 17 4 18 5 16 6 15 7 14 8 11 9 12 10 86 11
REMARK SMILES IDX 13 12 76 13 10 14 8 15 9 16 7 18 1 19 2 20 3 21 4 22 6 23
REMARK SMILES IDX 5 24 77 25 78 26 85 27 79 28 84 29 80 30 83 31 81 32 82 33
REMARK SMILES IDX 22 34 23 35 24 36 25 37 26 38 27 39 28 40 29 41 75 42 30 43
REMARK SMILES IDX 74 44 31 45 32 46 33 47 68 48 34 49 73 50 67 51 69 52 35 53
REMARK SMILES IDX 72 54 66 55 65 56 36 58 58 59 43 60 57 61 44 62 47 63 56 64
REMARK SMILES IDX 70 65 45 66 46 67 55 69 71 70 48 71 37 72 38 73 42 74 39 75
REMARK SMILES IDX 41 76 40 77 59 78 60 79 64 80 61 81 63 82 62 83 49 84 50 85
REMARK SMILES IDX 54 86 51 87 53 88 52 89
REMARK H PARENT 10 17 69 57 47 68
REMARK Flexibility Score: inf
ROOT
ATOM      1  C   UNL A   1      41.295  21.290  26.379  1.00  0.00     0.202 C 
ENDROOT
BRANCH   1   2
ATOM      2  C   UNL A   1      39.912  21.493  25.824  1.00  0.00     0.261 C 
BRANCH   2   3
ATOM      3  O   UNL A   1      39.065  22.196  26.730  1.00  0.00    -0.461 OA
BRANCH   3   4
ATOM      4  C   UNL A   1      38.086  22.811  25.998  1.00  0.00     0.344 C 
ATOM      5  O   UNL A   1      38.081  23.975  25.688  1.00  0.00    -0.248 OA
BRANCH   4   6
ATOM      6  C   UNL A   1      36.934  21.873  25.647  1.00  0.00     0.352 C 
BRANCH   6   7
ATOM      7  O   UNL A   1      35.933  22.005  24.660  1.00  0.00    -0.481 OA
BRANCH   7   8
ATOM      8  C   UNL A   1      34.840  22.808  24.831  1.00  0.00     0.130 A 
ATOM      9  C   UNL A   1      32.766  24.673  24.276  1.00  0.00     0.042 A 
ATOM     10  C   UNL A   1      34.040  25.098  24.674  1.00  0.00     0.030 A 
ATOM     11  C   UNL A   1      32.516  23.300  24.231  1.00  0.00     0.041 A 
ATOM     12  C   UNL A   1      35.063  24.182  24.971  1.00  0.00     0.049 A 
ATOM     13  C   UNL A   1      33.547  22.339  24.493  1.00  0.00     0.055 A 
BRANCH   9  14
ATOM     14  N   UNL A   1      31.884  25.669  23.798  1.00  0.00    -0.322 N 
ATOM     15  C   UNL A   1      31.295  26.795  24.341  1.00  0.00     0.255 C 
ATOM     16  O   UNL A   1      30.242  27.217  23.862  1.00  0.00    -0.269 OA
ATOM     17  H   UNL A   1      31.628  25.526  22.858  1.00  0.00     0.170 HD
BRANCH  15  18
ATOM     18  C   UNL A   1      31.979  27.632  25.356  1.00  0.00     0.043 A 
ATOM     19  C   UNL A   1      33.285  28.896  23.586  1.00  0.00     0.045 C 
ATOM     20  C   UNL A   1      33.027  28.493  25.020  1.00  0.00    -0.038 A 
ATOM     21  C   UNL A   1      33.718  29.151  26.056  1.00  0.00     0.004 A 
ATOM     22  C   UNL A   1      33.257  29.121  27.365  1.00  0.00     0.000 A 
ATOM     23  C   UNL A   1      31.406  27.762  26.631  1.00  0.00     0.014 A 
ATOM     24  C   UNL A   1      32.037  28.517  27.626  1.00  0.00     0.001 A 
ENDBRANCH  15  18
ENDBRANCH   9  14
BRANCH  13  25
ATOM     25  C   UNL A   1      33.144  20.904  24.473  1.00  0.00     0.128 A 
ATOM     26  N   UNL A   1      33.372  20.074  25.474  1.00  0.00    -0.236 NA
ATOM     27  S   UNL A   1      32.585  20.113  23.050  1.00  0.00    -0.114 S 
ATOM     28  C   UNL A   1      33.293  18.757  25.045  1.00  0.00     0.082 A 
ATOM     29  C   UNL A   1      32.936  18.582  23.710  1.00  0.00     0.055 A 
ATOM     30  C   UNL A   1      33.591  17.618  25.815  1.00  0.00     0.030 A 
ATOM     31  C   UNL A   1      32.910  17.318  23.096  1.00  0.00     0.021 A 
ATOM     32  C   UNL A   1      33.578  16.353  25.216  1.00  0.00     0.002 A 
ATOM     33  C   UNL A   1      33.253  16.208  23.870  1.00  0.00     0.002 A 
ENDBRANCH  13  25
ENDBRANCH   7   8
ENDBRANCH   6   7
ENDBRANCH   4   6
ENDBRANCH   3   4
ENDBRANCH   2   3
ENDBRANCH   1   2
BRANCH   1  34
ATOM     34  O   UNL A   1      42.194  21.715  25.375  1.00  0.00    -0.374 OA
BRANCH  34  35
ATOM     35  C   UNL A   1      43.151  22.631  25.818  1.00  0.00     0.202 C 
BRANCH  35  36
ATOM     36  C   UNL A   1      42.696  24.034  25.540  1.00  0.00     0.261 C 
BRANCH  36  37
ATOM     37  O   UNL A   1      42.164  24.894  26.605  1.00  0.00    -0.460 OA
BRANCH  37  38
ATOM     38  C   UNL A   1      41.278  24.897  27.630  1.00  0.00     0.338 C 
ATOM     39  O   UNL A   1      41.267  23.972  28.437  1.00  0.00    -0.246 OA
BRANCH  38  40
ATOM     40  C   UNL A   1      40.275  25.957  27.794  1.00  0.00     0.060 A 
ATOM     41  C   UNL A   1      40.269  27.037  26.901  1.00  0.00     0.016 A 
ATOM     42  C   UNL A   1      39.421  25.954  28.880  1.00  0.00     0.016 A 
ATOM     43  C   UNL A   1      39.689  28.248  27.288  1.00  0.00     0.010 A 
ATOM     44  C   UNL A   1      38.924  27.180  29.305  1.00  0.00     0.010 A 
ATOM     45  C   UNL A   1      39.150  28.356  28.572  1.00  0.00    -0.014 A 
BRANCH  45  46
ATOM     46  C   UNL A   1      39.033  29.644  29.284  1.00  0.00     0.031 A 
ATOM     47  C   UNL A   1      37.957  30.574  28.968  1.00  0.00     0.074 A 
ATOM     48  C   UNL A   1      39.898  30.025  30.252  1.00  0.00     0.049 A 
ATOM     49  N   UNL A   1      38.177  31.818  28.696  1.00  0.00    -0.248 NA
ATOM     50  C   UNL A   1      36.557  30.188  28.891  1.00  0.00     0.031 C 
ATOM     51  C   UNL A   1      39.850  31.094  31.241  1.00  0.00     0.029 A 
ATOM     52  N   UNL A   1      41.094  29.430  30.526  1.00  0.00    -0.354 N 
ATOM     53  C   UNL A   1      36.951  32.422  28.781  1.00  0.00     0.074 A 
ATOM     54  C   UNL A   1      35.978  31.363  28.648  1.00  0.00     0.031 C 
ATOM     55  C   UNL A   1      41.027  31.152  31.908  1.00  0.00     0.029 A 
ATOM     56  C   UNL A   1      41.925  30.136  31.369  1.00  0.00     0.049 A 
ATOM     57  H   UNL A   1      41.346  28.556  30.149  1.00  0.00     0.167 HD
ATOM     58  C   UNL A   1      36.823  33.670  29.307  1.00  0.00     0.031 A 
ATOM     59  C   UNL A   1      43.244  30.246  31.042  1.00  0.00     0.031 A 
ATOM     60  C   UNL A   1      38.077  34.132  29.928  1.00  0.00     0.049 A 
ATOM     61  C   UNL A   1      43.378  31.583  30.364  1.00  0.00     0.074 A 
ATOM     62  C   UNL A   1      38.443  34.339  31.251  1.00  0.00     0.029 A 
ATOM     63  N   UNL A   1      39.273  34.126  29.203  1.00  0.00    -0.354 N 
ATOM     64  N   UNL A   1      42.331  32.213  29.903  1.00  0.00    -0.248 NA
ATOM     65  C   UNL A   1      44.594  32.386  30.277  1.00  0.00     0.031 C 
ATOM     66  C   UNL A   1      39.863  34.425  31.316  1.00  0.00     0.029 A 
ATOM     67  C   UNL A   1      40.369  34.284  30.033  1.00  0.00     0.049 A 
ATOM     68  H   UNL A   1      39.328  34.024  28.225  1.00  0.00     0.167 HD
ATOM     69  C   UNL A   1      42.651  33.507  29.684  1.00  0.00     0.074 A 
ATOM     70  C   UNL A   1      44.098  33.556  29.827  1.00  0.00     0.031 C 
ATOM     71  C   UNL A   1      41.707  34.463  29.479  1.00  0.00     0.031 A 
BRANCH  58  72
ATOM     72  C   UNL A   1      35.453  34.257  29.572  1.00  0.00    -0.014 A 
ATOM     73  C   UNL A   1      34.672  34.771  28.527  1.00  0.00     0.009 A 
ATOM     74  C   UNL A   1      34.867  34.301  30.855  1.00  0.00     0.009 A 
ATOM     75  C   UNL A   1      33.430  35.378  28.763  1.00  0.00     0.001 A 
ATOM     76  C   UNL A   1      33.659  34.960  31.110  1.00  0.00     0.001 A 
ATOM     77  C   UNL A   1      32.937  35.501  30.058  1.00  0.00     0.000 A 
ENDBRANCH  58  72
BRANCH  59  78
ATOM     78  C   UNL A   1      43.868  28.926  30.692  1.00  0.00    -0.014 A 
ATOM     79  C   UNL A   1      44.101  28.038  31.770  1.00  0.00     0.009 A 
ATOM     80  C   UNL A   1      43.829  28.368  29.404  1.00  0.00     0.009 A 
ATOM     81  C   UNL A   1      44.143  26.646  31.589  1.00  0.00     0.001 A 
ATOM     82  C   UNL A   1      43.890  26.970  29.224  1.00  0.00     0.001 A 
ATOM     83  C   UNL A   1      44.005  26.109  30.315  1.00  0.00     0.000 A 
ENDBRANCH  59  78
BRANCH  71  84
ATOM     84  C   UNL A   1      42.003  35.724  28.745  1.00  0.00    -0.014 A 
ATOM     85  C   UNL A   1      42.564  36.836  29.384  1.00  0.00     0.009 A 
ATOM     86  C   UNL A   1      41.960  35.718  27.338  1.00  0.00     0.009 A 
ATOM     87  C   UNL A   1      43.045  37.913  28.644  1.00  0.00     0.001 A 
ATOM     88  C   UNL A   1      42.491  36.766  26.597  1.00  0.00     0.001 A 
ATOM     89  C   UNL A   1      43.025  37.869  27.252  1.00  0.00     0.000 A 
ENDBRANCH  71  84
ENDBRANCH  45  46
ENDBRANCH  38  40
ENDBRANCH  37  38
ENDBRANCH  36  37
ENDBRANCH  35  36
ENDBRANCH  34  35
ENDBRANCH   1  34
TORSDOF 19
ENDMDL
MODEL 3
REMARK VINA RESULT:     -12.1      5.005     10.348
REMARK SMILES Cc1ccccc1C(=O)Nc1ccc(OCC(=O)OCCOCCOC(=O)c2ccc(-c3c4nc(c(-c5ccccc5)c5ccc([nH]5)c(-c5ccccc5)c5nc(c(-c6ccccc6)c6ccc3[nH]6)C=C5)C=C4)cc2)c(-c2nc3ccccc3s2)c1
REMARK SMILES IDX 21 1 20 2 19 3 17 4 18 5 16 6 15 7 14 8 11 9 12 10 86 11
REMARK SMILES IDX 13 12 76 13 10 14 8 15 9 16 7 18 1 19 2 20 3 21 4 22 6 23
REMARK SMILES IDX 5 24 77 25 78 26 85 27 79 28 84 29 80 30 83 31 81 32 82 33
REMARK SMILES IDX 22 34 23 35 24 36 25 37 26 38 27 39 28 40 29 41 75 42 30 43
REMARK SMILES IDX 74 44 31 45 32 46 33 47 68 48 34 49 73 50 67 51 69 52 35 53
REMARK SMILES IDX 72 54 66 55 65 56 36 58 58 59 43 60 57 61 44 62 47 63 56 64
REMARK SMILES IDX 70 65 45 66 46 67 55 69 71 70 48 71 37 72 38 73 42 74 39 75
REMARK SMILES IDX 41 76 40 77 59 78 60 79 64 80 61 81 63 82 62 83 49 84 50 85
REMARK SMILES IDX 54 86 51 87 53 88 52 89
REMARK H PARENT 10 17 69 57 47 68
REMARK Flexibility Score: inf
ROOT
ATOM      1  C   UNL A   1      39.017  21.092  25.692  1.00  0.00     0.202 C 
ENDROOT
BRANCH   1   2
ATOM      2  C   UNL A   1      37.608  21.617  25.749  1.00  0.00     0.261 C 
BRANCH   2   3
ATOM      3  O   UNL A   1      37.526  22.982  25.348  1.00  0.00    -0.461 OA
BRANCH   3   4
ATOM      4  C   UNL A   1      36.213  23.364  25.423  1.00  0.00     0.344 C 
ATOM      5  O   UNL A   1      35.819  24.501  25.390  1.00  0.00    -0.248 OA
BRANCH   4   6
ATOM      6  C   UNL A   1      35.265  22.182  25.614  1.00  0.00     0.352 C 
BRANCH   6   7
ATOM      7  O   UNL A   1      34.199  22.020  26.524  1.00  0.00    -0.481 OA
BRANCH   7   8
ATOM      8  C   UNL A   1      32.954  22.533  26.290  1.00  0.00     0.130 A 
ATOM      9  C   UNL A   1      30.858  24.072  25.138  1.00  0.00     0.042 A 
ATOM     10  C   UNL A   1      31.671  24.593  26.153  1.00  0.00     0.030 A 
ATOM     11  C   UNL A   1      31.055  22.745  24.756  1.00  0.00     0.041 A 
ATOM     12  C   UNL A   1      32.694  23.831  26.742  1.00  0.00     0.049 A 
ATOM     13  C   UNL A   1      32.113  21.950  25.311  1.00  0.00     0.055 A 
BRANCH   9  14
ATOM     14  N   UNL A   1      30.009  24.985  24.472  1.00  0.00    -0.322 N 
ATOM     15  C   UNL A   1      30.133  26.287  24.027  1.00  0.00     0.255 C 
ATOM     16  O   UNL A   1      29.122  26.979  23.892  1.00  0.00    -0.269 OA
ATOM     17  H   UNL A   1      29.121  24.605  24.281  1.00  0.00     0.170 HD
BRANCH  15  18
ATOM     18  C   UNL A   1      31.416  26.830  23.518  1.00  0.00     0.043 A 
ATOM     19  C   UNL A   1      31.788  28.201  25.621  1.00  0.00     0.045 C 
ATOM     20  C   UNL A   1      32.103  27.849  24.185  1.00  0.00    -0.038 A 
ATOM     21  C   UNL A   1      33.240  28.409  23.571  1.00  0.00     0.004 A 
ATOM     22  C   UNL A   1      33.801  27.841  22.436  1.00  0.00     0.000 A 
ATOM     23  C   UNL A   1      32.088  26.145  22.495  1.00  0.00     0.014 A 
ATOM     24  C   UNL A   1      33.286  26.643  21.967  1.00  0.00     0.001 A 
ENDBRANCH  15  18
ENDBRANCH   9  14
BRANCH  13  25
ATOM     25  C   UNL A   1      32.184  20.530  24.868  1.00  0.00     0.128 A 
ATOM     26  N   UNL A   1      32.205  19.510  25.707  1.00  0.00    -0.236 NA
ATOM     27  S   UNL A   1      32.517  20.076  23.241  1.00  0.00    -0.114 S 
ATOM     28  C   UNL A   1      32.692  18.372  25.081  1.00  0.00     0.082 A 
ATOM     29  C   UNL A   1      32.987  18.511  23.727  1.00  0.00     0.055 A 
ATOM     30  C   UNL A   1      32.959  17.138  25.701  1.00  0.00     0.030 A 
ATOM     31  C   UNL A   1      33.582  17.485  22.975  1.00  0.00     0.021 A 
ATOM     32  C   UNL A   1      33.558  16.107  24.968  1.00  0.00     0.002 A 
ATOM     33  C   UNL A   1      33.876  16.284  23.625  1.00  0.00     0.002 A 
ENDBRANCH  13  25
ENDBRANCH   7   8
ENDBRANCH   6   7
ENDBRANCH   4   6
ENDBRANCH   3   4
ENDBRANCH   2   3
ENDBRANCH   1   2
BRANCH   1  34
ATOM     34  O   UNL A   1      39.723  21.732  26.736  1.00  0.00    -0.374 OA
BRANCH  34  35
ATOM     35  C   UNL A   1      40.763  20.968  27.270  1.00  0.00     0.202 C 
BRANCH  35  36
ATOM     36  C   UNL A   1      41.636  20.435  26.171  1.00  0.00     0.261 C 
BRANCH  36  37
ATOM     37  O   UNL A   1      42.497  21.319  25.377  1.00  0.00    -0.460 OA
BRANCH  37  38
ATOM     38  C   UNL A   1      43.800  21.621  25.155  1.00  0.00     0.338 C 
ATOM     39  O   UNL A   1      44.503  20.866  24.493  1.00  0.00    -0.246 OA
BRANCH  38  40
ATOM     40  C   UNL A   1      44.433  22.816  25.729  1.00  0.00     0.060 A 
ATOM     41  C   UNL A   1      44.952  22.757  27.030  1.00  0.00     0.016 A 
ATOM     42  C   UNL A   1      44.417  24.016  25.045  1.00  0.00     0.016 A 
ATOM     43  C   UNL A   1      45.109  23.936  27.763  1.00  0.00     0.010 A 
ATOM     44  C   UNL A   1      44.486  25.181  25.799  1.00  0.00     0.010 A 
ATOM     45  C   UNL A   1      44.720  25.146  27.183  1.00  0.00    -0.014 A 
BRANCH  45  46
ATOM     46  C   UNL A   1      44.310  26.319  27.980  1.00  0.00     0.031 A 
ATOM     47  C   UNL A   1      42.913  26.729  28.037  1.00  0.00     0.074 A 
ATOM     48  C   UNL A   1      45.188  27.064  28.690  1.00  0.00     0.049 A 
ATOM     49  N   UNL A   1      42.538  27.941  27.795  1.00  0.00    -0.248 NA
ATOM     50  C   UNL A   1      41.818  25.816  28.330  1.00  0.00     0.031 C 
ATOM     51  C   UNL A   1      45.004  28.078  29.720  1.00  0.00     0.029 A 
ATOM     52  N   UNL A   1      46.546  27.007  28.580  1.00  0.00    -0.354 N 
ATOM     53  C   UNL A   1      41.251  28.014  28.258  1.00  0.00     0.074 A 
ATOM     54  C   UNL A   1      40.780  26.651  28.334  1.00  0.00     0.031 C 
ATOM     55  C   UNL A   1      46.197  28.634  30.033  1.00  0.00     0.029 A 
ATOM     56  C   UNL A   1      47.232  28.029  29.200  1.00  0.00     0.049 A 
ATOM     57  H   UNL A   1      47.006  26.285  28.093  1.00  0.00     0.167 HD
ATOM     58  C   UNL A   1      40.795  29.136  28.877  1.00  0.00     0.031 A 
ATOM     59  C   UNL A   1      48.250  28.634  28.525  1.00  0.00     0.031 A 
ATOM     60  C   UNL A   1      41.884  30.090  29.151  1.00  0.00     0.049 A 
ATOM     61  C   UNL A   1      47.650  29.876  27.924  1.00  0.00     0.074 A 
ATOM     62  C   UNL A   1      42.495  30.496  30.330  1.00  0.00     0.029 A 
ATOM     63  N   UNL A   1      42.728  30.519  28.122  1.00  0.00    -0.354 N 
ATOM     64  N   UNL A   1      46.355  30.014  27.816  1.00  0.00    -0.248 NA
ATOM     65  C   UNL A   1      48.371  31.089  27.552  1.00  0.00     0.031 C 
ATOM     66  C   UNL A   1      43.722  31.141  30.001  1.00  0.00     0.029 A 
ATOM     67  C   UNL A   1      43.858  31.142  28.621  1.00  0.00     0.049 A 
ATOM     68  H   UNL A   1      42.542  30.393  27.164  1.00  0.00     0.167 HD
ATOM     69  C   UNL A   1      46.062  31.315  27.599  1.00  0.00     0.074 A 
ATOM     70  C   UNL A   1      47.349  31.940  27.335  1.00  0.00     0.031 C 
ATOM     71  C   UNL A   1      44.802  31.806  27.728  1.00  0.00     0.031 A 
BRANCH  58  72
ATOM     72  C   UNL A   1      39.439  29.146  29.552  1.00  0.00    -0.014 A 
ATOM     73  C   UNL A   1      38.295  29.580  28.868  1.00  0.00     0.009 A 
ATOM     74  C   UNL A   1      39.233  28.703  30.876  1.00  0.00     0.009 A 
ATOM     75  C   UNL A   1      37.044  29.657  29.498  1.00  0.00     0.001 A 
ATOM     76  C   UNL A   1      38.004  28.836  31.532  1.00  0.00     0.001 A 
ATOM     77  C   UNL A   1      36.904  29.316  30.839  1.00  0.00     0.000 A 
ENDBRANCH  58  72
BRANCH  59  78
ATOM     78  C   UNL A   1      49.219  27.652  27.931  1.00  0.00    -0.014 A 
ATOM     79  C   UNL A   1      49.847  26.766  28.839  1.00  0.00     0.009 A 
ATOM     80  C   UNL A   1      49.210  27.278  26.578  1.00  0.00     0.009 A 
ATOM     81  C   UNL A   1      50.311  25.501  28.440  1.00  0.00     0.001 A 
ATOM     82  C   UNL A   1      49.694  26.014  26.178  1.00  0.00     0.001 A 
ATOM     83  C   UNL A   1      50.204  25.112  27.111  1.00  0.00     0.000 A 
ENDBRANCH  59  78
BRANCH  71  84
ATOM     84  C   UNL A   1      44.357  33.039  27.022  1.00  0.00    -0.014 A 
ATOM     85  C   UNL A   1      44.148  33.063  25.638  1.00  0.00     0.009 A 
ATOM     86  C   UNL A   1      43.890  34.127  27.784  1.00  0.00     0.009 A 
ATOM     87  C   UNL A   1      43.514  34.146  25.034  1.00  0.00     0.001 A 
ATOM     88  C   UNL A   1      43.207  35.181  27.190  1.00  0.00     0.001 A 
ATOM     89  C   UNL A   1      43.029  35.194  25.813  1.00  0.00     0.000 A 
ENDBRANCH  71  84
ENDBRANCH  45  46
ENDBRANCH  38  40
ENDBRANCH  37  38
ENDBRANCH  36  37
ENDBRANCH  35  36
ENDBRANCH  34  35
ENDBRANCH   1  34
TORSDOF 19
ENDMDL
