MODEL 1
REMARK VINA RESULT:     -10.5      0.000      0.000
REMARK SMILES O=C(CCCN1C(=O)/C(=C/c2cc(Br)ccc2O)SC1=S)OCCOCCOC(=O)c1ccc(-c2c3nc(c(-c4ccccc4)c4ccc([nH]4)c(-c4ccccc4)c4nc(c(-c5ccccc5)c5ccc2[nH]5)C=C4)C=C3)cc1
REMARK SMILES IDX 23 1 22 2 2 3 1 4 3 5 4 6 5 7 6 8 7 9 20 10 8 11 9 12 19 13
REMARK SMILES IDX 21 14 10 15 11 16 12 17 17 18 13 19 16 20 14 21 15 22 18 23
REMARK SMILES IDX 24 25 25 26 26 27 27 28 28 29 29 30 30 31 31 32 32 33 78 34
REMARK SMILES IDX 33 35 77 36 34 37 35 38 36 39 71 40 37 41 76 42 70 43 72 44
REMARK SMILES IDX 38 45 75 46 69 47 68 48 39 50 61 51 46 52 60 53 47 54 50 55
REMARK SMILES IDX 59 56 73 57 48 58 49 59 58 61 74 62 51 63 40 64 41 65 45 66
REMARK SMILES IDX 42 67 44 68 43 69 62 70 63 71 67 72 64 73 66 74 65 75 52 76
REMARK SMILES IDX 53 77 57 78 54 79 56 80 55 81
REMARK H PARENT 18 24 72 49 50 60
REMARK Flexibility Score: inf
ROOT
ATOM      1  C   UNL A   1      32.643  30.846  26.566  1.00  0.00     0.261 C 
ENDROOT
BRANCH   1   2
ATOM      2  O   UNL A   1      33.247  29.756  25.841  1.00  0.00    -0.463 OA
BRANCH   2   3
ATOM      3  C   UNL A   1      32.742  28.562  25.496  1.00  0.00     0.305 C 
ATOM      4  O   UNL A   1      31.620  28.513  24.992  1.00  0.00    -0.252 OA
BRANCH   3   5
ATOM      5  C   UNL A   1      33.541  27.296  25.667  1.00  0.00     0.124 C 
BRANCH   5   6
ATOM      6  C   UNL A   1      32.809  26.024  25.252  1.00  0.00     0.034 C 
BRANCH   6   7
ATOM      7  C   UNL A   1      32.837  24.826  26.218  1.00  0.00     0.128 C 
BRANCH   7   8
ATOM      8  N   UNL A   1      33.340  23.530  25.724  1.00  0.00    -0.293 N 
ATOM      9  C   UNL A   1      32.462  22.455  25.703  1.00  0.00     0.266 C 
ATOM     10  C   UNL A   1      34.654  23.212  25.442  1.00  0.00     0.148 C 
ATOM     11  O   UNL A   1      31.286  22.474  26.044  1.00  0.00    -0.268 OA
ATOM     12  C   UNL A   1      33.116  21.241  25.151  1.00  0.00     0.081 C 
ATOM     13  S   UNL A   1      34.761  21.561  24.821  1.00  0.00    -0.054 SA
ATOM     14  S   UNL A   1      36.020  24.147  25.636  1.00  0.00    -0.052 S 
ATOM     15  C   UNL A   1      32.416  20.119  24.938  1.00  0.00     0.033 C 
BRANCH  15  16
ATOM     16  C   UNL A   1      32.890  18.879  24.316  1.00  0.00     0.019 A 
ATOM     17  C   UNL A   1      33.751  18.042  25.035  1.00  0.00     0.027 A 
ATOM     18  C   UNL A   1      32.571  18.556  22.991  1.00  0.00     0.122 A 
ATOM     19  C   UNL A   1      34.286  16.906  24.428  1.00  0.00     0.018 A 
ATOM     20  C   UNL A   1      33.100  17.414  22.388  1.00  0.00     0.048 A 
ATOM     21  Br  UNL A   1      35.479  15.800  25.392  1.00  0.00    -0.051 Br
ATOM     22  C   UNL A   1      33.965  16.588  23.109  1.00  0.00     0.019 A 
BRANCH  18  23
ATOM     23  O   UNL A   1      31.752  19.391  22.282  1.00  0.00    -0.507 OA
ATOM     24  H   UNL A   1      31.070  19.861  22.719  1.00  0.00     0.293 HD
ENDBRANCH  18  23
ENDBRANCH  15  16
ENDBRANCH   7   8
ENDBRANCH   6   7
ENDBRANCH   5   6
ENDBRANCH   3   5
ENDBRANCH   2   3
ENDBRANCH   1   2
BRANCH   1  25
ATOM     25  C   UNL A   1      33.586  31.710  27.395  1.00  0.00     0.202 C 
BRANCH  25  26
ATOM     26  O   UNL A   1      32.984  32.845  27.999  1.00  0.00    -0.374 OA
BRANCH  26  27
ATOM     27  C   UNL A   1      33.869  33.890  28.410  1.00  0.00     0.202 C 
BRANCH  27  28
ATOM     28  C   UNL A   1      34.222  33.850  29.899  1.00  0.00     0.261 C 
BRANCH  28  29
ATOM     29  O   UNL A   1      34.368  32.486  30.342  1.00  0.00    -0.460 OA
BRANCH  29  30
ATOM     30  C   UNL A   1      35.149  32.293  31.428  1.00  0.00     0.338 C 
ATOM     31  O   UNL A   1      34.923  32.610  32.581  1.00  0.00    -0.246 OA
BRANCH  30  32
ATOM     32  C   UNL A   1      36.303  31.475  31.038  1.00  0.00     0.060 A 
ATOM     33  C   UNL A   1      37.038  30.815  32.031  1.00  0.00     0.016 A 
ATOM     34  C   UNL A   1      36.708  31.447  29.707  1.00  0.00     0.016 A 
ATOM     35  C   UNL A   1      38.228  30.166  31.701  1.00  0.00     0.010 A 
ATOM     36  C   UNL A   1      37.890  30.791  29.378  1.00  0.00     0.010 A 
ATOM     37  C   UNL A   1      38.672  30.178  30.376  1.00  0.00    -0.014 A 
BRANCH  37  38
ATOM     38  C   UNL A   1      40.005  29.666  29.988  1.00  0.00     0.031 A 
ATOM     39  C   UNL A   1      41.133  30.643  29.860  1.00  0.00     0.074 A 
ATOM     40  C   UNL A   1      40.172  28.380  29.641  1.00  0.00     0.049 A 
ATOM     41  N   UNL A   1      42.256  30.532  29.201  1.00  0.00    -0.248 NA
ATOM     42  C   UNL A   1      40.954  31.931  30.549  1.00  0.00     0.031 C 
ATOM     43  C   UNL A   1      39.174  27.324  29.787  1.00  0.00     0.029 A 
ATOM     44  N   UNL A   1      41.239  27.764  29.038  1.00  0.00    -0.354 N 
ATOM     45  C   UNL A   1      42.890  31.759  29.344  1.00  0.00     0.074 A 
ATOM     46  C   UNL A   1      42.037  32.591  30.165  1.00  0.00     0.031 C 
ATOM     47  C   UNL A   1      39.659  26.193  29.245  1.00  0.00     0.029 A 
ATOM     48  C   UNL A   1      40.966  26.474  28.657  1.00  0.00     0.049 A 
ATOM     49  H   UNL A   1      42.109  28.202  28.894  1.00  0.00     0.167 HD
ATOM     50  C   UNL A   1      44.070  32.158  28.811  1.00  0.00     0.031 A 
ATOM     51  C   UNL A   1      41.659  25.639  27.861  1.00  0.00     0.031 A 
ATOM     52  C   UNL A   1      44.907  31.317  28.000  1.00  0.00     0.049 A 
ATOM     53  C   UNL A   1      42.942  26.111  27.237  1.00  0.00     0.074 A 
ATOM     54  C   UNL A   1      46.124  31.613  27.414  1.00  0.00     0.029 A 
ATOM     55  N   UNL A   1      44.606  30.006  27.663  1.00  0.00    -0.354 N 
ATOM     56  N   UNL A   1      43.523  27.283  27.332  1.00  0.00    -0.248 NA
ATOM     57  C   UNL A   1      43.657  25.150  26.386  1.00  0.00     0.031 C 
ATOM     58  C   UNL A   1      46.543  30.489  26.693  1.00  0.00     0.029 A 
ATOM     59  C   UNL A   1      45.607  29.482  26.866  1.00  0.00     0.049 A 
ATOM     60  H   UNL A   1      43.799  29.520  27.949  1.00  0.00     0.167 HD
ATOM     61  C   UNL A   1      44.679  27.197  26.568  1.00  0.00     0.074 A 
ATOM     62  C   UNL A   1      44.720  25.855  26.021  1.00  0.00     0.031 C 
ATOM     63  C   UNL A   1      45.624  28.142  26.338  1.00  0.00     0.031 A 
BRANCH  50  64
ATOM     64  C   UNL A   1      44.475  33.585  29.040  1.00  0.00    -0.014 A 
ATOM     65  C   UNL A   1      44.064  34.615  28.181  1.00  0.00     0.009 A 
ATOM     66  C   UNL A   1      45.298  33.899  30.134  1.00  0.00     0.009 A 
ATOM     67  C   UNL A   1      44.500  35.926  28.392  1.00  0.00     0.001 A 
ATOM     68  C   UNL A   1      45.713  35.214  30.355  1.00  0.00     0.001 A 
ATOM     69  C   UNL A   1      45.323  36.224  29.477  1.00  0.00     0.000 A 
ENDBRANCH  50  64
BRANCH  51  70
ATOM     70  C   UNL A   1      41.106  24.295  27.561  1.00  0.00    -0.014 A 
ATOM     71  C   UNL A   1      41.611  23.157  28.206  1.00  0.00     0.009 A 
ATOM     72  C   UNL A   1      40.038  24.150  26.661  1.00  0.00     0.009 A 
ATOM     73  C   UNL A   1      41.058  21.900  27.955  1.00  0.00     0.001 A 
ATOM     74  C   UNL A   1      39.473  22.895  26.428  1.00  0.00     0.001 A 
ATOM     75  C   UNL A   1      39.985  21.771  27.072  1.00  0.00     0.000 A 
ENDBRANCH  51  70
BRANCH  63  76
ATOM     76  C   UNL A   1      46.799  27.745  25.495  1.00  0.00    -0.014 A 
ATOM     77  C   UNL A   1      47.910  27.098  26.058  1.00  0.00     0.009 A 
ATOM     78  C   UNL A   1      46.767  27.971  24.111  1.00  0.00     0.009 A 
ATOM     79  C   UNL A   1      48.977  26.703  25.248  1.00  0.00     0.001 A 
ATOM     80  C   UNL A   1      47.825  27.558  23.303  1.00  0.00     0.001 A 
ATOM     81  C   UNL A   1      48.932  26.929  23.872  1.00  0.00     0.000 A 
ENDBRANCH  63  76
ENDBRANCH  37  38
ENDBRANCH  30  32
ENDBRANCH  29  30
ENDBRANCH  28  29
ENDBRANCH  27  28
ENDBRANCH  26  27
ENDBRANCH  25  26
ENDBRANCH   1  25
TORSDOF 19
ENDMDL
MODEL 2
REMARK VINA RESULT:     -10.1      2.784      8.436
REMARK SMILES O=C(CCCN1C(=O)/C(=C/c2cc(Br)ccc2O)SC1=S)OCCOCCOC(=O)c1ccc(-c2c3nc(c(-c4ccccc4)c4ccc([nH]4)c(-c4ccccc4)c4nc(c(-c5ccccc5)c5ccc2[nH]5)C=C4)C=C3)cc1
REMARK SMILES IDX 23 1 22 2 2 3 1 4 3 5 4 6 5 7 6 8 7 9 20 10 8 11 9 12 19 13
REMARK SMILES IDX 21 14 10 15 11 16 12 17 17 18 13 19 16 20 14 21 15 22 18 23
REMARK SMILES IDX 24 25 25 26 26 27 27 28 28 29 29 30 30 31 31 32 32 33 78 34
REMARK SMILES IDX 33 35 77 36 34 37 35 38 36 39 71 40 37 41 76 42 70 43 72 44
REMARK SMILES IDX 38 45 75 46 69 47 68 48 39 50 61 51 46 52 60 53 47 54 50 55
REMARK SMILES IDX 59 56 73 57 48 58 49 59 58 61 74 62 51 63 40 64 41 65 45 66
REMARK SMILES IDX 42 67 44 68 43 69 62 70 63 71 67 72 64 73 66 74 65 75 52 76
REMARK SMILES IDX 53 77 57 78 54 79 56 80 55 81
REMARK H PARENT 18 24 72 49 50 60
REMARK Flexibility Score: inf
ROOT
ATOM      1  C   UNL A   1      33.309  19.481  25.133  1.00  0.00     0.261 C 
ENDROOT
BRANCH   1   2
ATOM      2  O   UNL A   1      32.240  19.232  24.199  1.00  0.00    -0.463 OA
BRANCH   2   3
ATOM      3  C   UNL A   1      32.238  19.269  22.857  1.00  0.00     0.305 C 
ATOM      4  O   UNL A   1      32.248  18.210  22.231  1.00  0.00    -0.252 OA
BRANCH   3   5
ATOM      5  C   UNL A   1      32.174  20.578  22.112  1.00  0.00     0.124 C 
BRANCH   5   6
ATOM      6  C   UNL A   1      31.932  21.798  22.994  1.00  0.00     0.034 C 
BRANCH   6   7
ATOM      7  C   UNL A   1      33.159  22.553  23.536  1.00  0.00     0.128 C 
BRANCH   7   8
ATOM      8  N   UNL A   1      32.944  23.792  24.307  1.00  0.00    -0.293 N 
ATOM      9  C   UNL A   1      33.364  24.991  23.746  1.00  0.00     0.266 C 
ATOM     10  C   UNL A   1      32.528  23.881  25.621  1.00  0.00     0.148 C 
ATOM     11  O   UNL A   1      33.891  25.131  22.649  1.00  0.00    -0.268 OA
ATOM     12  C   UNL A   1      33.046  26.138  24.634  1.00  0.00     0.081 C 
ATOM     13  S   UNL A   1      32.356  25.576  26.092  1.00  0.00    -0.054 SA
ATOM     14  S   UNL A   1      32.222  22.652  26.705  1.00  0.00    -0.052 S 
ATOM     15  C   UNL A   1      33.264  27.398  24.236  1.00  0.00     0.033 C 
BRANCH  15  16
ATOM     16  C   UNL A   1      32.918  28.629  24.950  1.00  0.00     0.019 A 
ATOM     17  C   UNL A   1      33.827  29.161  25.872  1.00  0.00     0.027 A 
ATOM     18  C   UNL A   1      31.666  29.238  24.796  1.00  0.00     0.122 A 
ATOM     19  C   UNL A   1      33.478  30.279  26.629  1.00  0.00     0.018 A 
ATOM     20  C   UNL A   1      31.323  30.363  25.547  1.00  0.00     0.048 A 
ATOM     21  Br  UNL A   1      34.696  30.968  27.901  1.00  0.00    -0.051 Br
ATOM     22  C   UNL A   1      32.232  30.882  26.472  1.00  0.00     0.019 A 
BRANCH  18  23
ATOM     23  O   UNL A   1      30.769  28.701  23.914  1.00  0.00    -0.507 OA
ATOM     24  H   UNL A   1      29.952  28.365  24.224  1.00  0.00     0.293 HD
ENDBRANCH  18  23
ENDBRANCH  15  16
ENDBRANCH   7   8
ENDBRANCH   6   7
ENDBRANCH   5   6
ENDBRANCH   3   5
ENDBRANCH   2   3
ENDBRANCH   1   2
BRANCH   1  25
ATOM     25  C   UNL A   1      34.716  19.136  24.656  1.00  0.00     0.202 C 
BRANCH  25  26
ATOM     26  O   UNL A   1      35.690  20.142  24.885  1.00  0.00    -0.374 OA
BRANCH  26  27
ATOM     27  C   UNL A   1      35.394  21.090  25.913  1.00  0.00     0.202 C 
BRANCH  27  28
ATOM     28  C   UNL A   1      36.255  22.355  25.851  1.00  0.00     0.261 C 
BRANCH  28  29
ATOM     29  O   UNL A   1      37.428  22.123  25.045  1.00  0.00    -0.460 OA
BRANCH  29  30
ATOM     30  C   UNL A   1      38.525  21.682  25.702  1.00  0.00     0.338 C 
ATOM     31  O   UNL A   1      39.051  20.588  25.634  1.00  0.00    -0.246 OA
BRANCH  30  32
ATOM     32  C   UNL A   1      39.116  22.807  26.436  1.00  0.00     0.060 A 
ATOM     33  C   UNL A   1      38.691  24.109  26.146  1.00  0.00     0.016 A 
ATOM     34  C   UNL A   1      40.155  22.574  27.332  1.00  0.00     0.016 A 
ATOM     35  C   UNL A   1      39.350  25.200  26.714  1.00  0.00     0.010 A 
ATOM     36  C   UNL A   1      40.805  23.662  27.905  1.00  0.00     0.010 A 
ATOM     37  C   UNL A   1      40.430  24.978  27.573  1.00  0.00    -0.014 A 
BRANCH  37  38
ATOM     38  C   UNL A   1      41.281  26.083  28.067  1.00  0.00     0.031 A 
ATOM     39  C   UNL A   1      40.656  27.126  28.942  1.00  0.00     0.074 A 
ATOM     40  C   UNL A   1      42.548  26.216  27.644  1.00  0.00     0.049 A 
ATOM     41  N   UNL A   1      41.052  28.345  29.193  1.00  0.00    -0.248 NA
ATOM     42  C   UNL A   1      39.396  26.745  29.602  1.00  0.00     0.031 C 
ATOM     43  C   UNL A   1      43.287  25.237  26.852  1.00  0.00     0.029 A 
ATOM     44  N   UNL A   1      43.416  27.269  27.786  1.00  0.00    -0.354 N 
ATOM     45  C   UNL A   1      40.059  28.900  29.988  1.00  0.00     0.074 A 
ATOM     46  C   UNL A   1      39.053  27.880  30.193  1.00  0.00     0.031 C 
ATOM     47  C   UNL A   1      44.487  25.754  26.535  1.00  0.00     0.029 A 
ATOM     48  C   UNL A   1      44.562  27.120  27.046  1.00  0.00     0.049 A 
ATOM     49  H   UNL A   1      43.234  28.050  28.358  1.00  0.00     0.167 HD
ATOM     50  C   UNL A   1      39.987  30.160  30.480  1.00  0.00     0.031 A 
ATOM     51  C   UNL A   1      45.528  28.011  26.752  1.00  0.00     0.031 A 
ATOM     52  C   UNL A   1      40.998  31.160  30.270  1.00  0.00     0.049 A 
ATOM     53  C   UNL A   1      45.411  29.419  27.264  1.00  0.00     0.074 A 
ATOM     54  C   UNL A   1      41.034  32.465  30.726  1.00  0.00     0.029 A 
ATOM     55  N   UNL A   1      42.159  30.957  29.538  1.00  0.00    -0.354 N 
ATOM     56  N   UNL A   1      44.453  29.960  27.977  1.00  0.00    -0.248 NA
ATOM     57  C   UNL A   1      46.501  30.341  26.917  1.00  0.00     0.031 C 
ATOM     58  C   UNL A   1      42.202  33.063  30.240  1.00  0.00     0.029 A 
ATOM     59  C   UNL A   1      42.912  32.116  29.517  1.00  0.00     0.049 A 
ATOM     60  H   UNL A   1      42.409  30.112  29.098  1.00  0.00     0.167 HD
ATOM     61  C   UNL A   1      44.832  31.281  28.181  1.00  0.00     0.074 A 
ATOM     62  C   UNL A   1      46.110  31.456  27.519  1.00  0.00     0.031 C 
ATOM     63  C   UNL A   1      44.182  32.262  28.854  1.00  0.00     0.031 A 
BRANCH  50  64
ATOM     64  C   UNL A   1      38.741  30.531  31.230  1.00  0.00    -0.014 A 
ATOM     65  C   UNL A   1      37.539  30.820  30.566  1.00  0.00     0.009 A 
ATOM     66  C   UNL A   1      38.778  30.604  32.632  1.00  0.00     0.009 A 
ATOM     67  C   UNL A   1      36.410  31.213  31.289  1.00  0.00     0.001 A 
ATOM     68  C   UNL A   1      37.641  30.973  33.353  1.00  0.00     0.001 A 
ATOM     69  C   UNL A   1      36.462  31.288  32.680  1.00  0.00     0.000 A 
ENDBRANCH  50  64
BRANCH  51  70
ATOM     70  C   UNL A   1      46.650  27.601  25.872  1.00  0.00    -0.014 A 
ATOM     71  C   UNL A   1      47.748  26.906  26.397  1.00  0.00     0.009 A 
ATOM     72  C   UNL A   1      46.606  27.866  24.494  1.00  0.00     0.009 A 
ATOM     73  C   UNL A   1      48.782  26.483  25.558  1.00  0.00     0.001 A 
ATOM     74  C   UNL A   1      47.630  27.423  23.654  1.00  0.00     0.001 A 
ATOM     75  C   UNL A   1      48.718  26.736  24.187  1.00  0.00     0.000 A 
ENDBRANCH  51  70
BRANCH  63  76
ATOM     76  C   UNL A   1      44.861  33.596  28.945  1.00  0.00    -0.014 A 
ATOM     77  C   UNL A   1      44.597  34.610  28.012  1.00  0.00     0.009 A 
ATOM     78  C   UNL A   1      45.733  33.857  30.013  1.00  0.00     0.009 A 
ATOM     79  C   UNL A   1      45.213  35.857  28.139  1.00  0.00     0.001 A 
ATOM     80  C   UNL A   1      46.331  35.110  30.147  1.00  0.00     0.001 A 
ATOM     81  C   UNL A   1      46.074  36.108  29.207  1.00  0.00     0.000 A 
ENDBRANCH  63  76
ENDBRANCH  37  38
ENDBRANCH  30  32
ENDBRANCH  29  30
ENDBRANCH  28  29
ENDBRANCH  27  28
ENDBRANCH  26  27
ENDBRANCH  25  26
ENDBRANCH   1  25
TORSDOF 19
ENDMDL
MODEL 3
REMARK VINA RESULT:     -10.1      4.567      9.890
REMARK SMILES O=C(CCCN1C(=O)/C(=C/c2cc(Br)ccc2O)SC1=S)OCCOCCOC(=O)c1ccc(-c2c3nc(c(-c4ccccc4)c4ccc([nH]4)c(-c4ccccc4)c4nc(c(-c5ccccc5)c5ccc2[nH]5)C=C4)C=C3)cc1
REMARK SMILES IDX 23 1 22 2 2 3 1 4 3 5 4 6 5 7 6 8 7 9 20 10 8 11 9 12 19 13
REMARK SMILES IDX 21 14 10 15 11 16 12 17 17 18 13 19 16 20 14 21 15 22 18 23
REMARK SMILES IDX 24 25 25 26 26 27 27 28 28 29 29 30 30 31 31 32 32 33 78 34
REMARK SMILES IDX 33 35 77 36 34 37 35 38 36 39 71 40 37 41 76 42 70 43 72 44
REMARK SMILES IDX 38 45 75 46 69 47 68 48 39 50 61 51 46 52 60 53 47 54 50 55
REMARK SMILES IDX 59 56 73 57 48 58 49 59 58 61 74 62 51 63 40 64 41 65 45 66
REMARK SMILES IDX 42 67 44 68 43 69 62 70 63 71 67 72 64 73 66 74 65 75 52 76
REMARK SMILES IDX 53 77 57 78 54 79 56 80 55 81
REMARK H PARENT 18 24 72 49 50 60
REMARK Flexibility Score: inf
ROOT
ATOM      1  C   UNL A   1      35.323  20.037  24.763  1.00  0.00     0.261 C 
ENDROOT
BRANCH   1   2
ATOM      2  O   UNL A   1      34.003  19.745  25.263  1.00  0.00    -0.463 OA
BRANCH   2   3
ATOM      3  C   UNL A   1      32.904  19.332  24.614  1.00  0.00     0.305 C 
ATOM      4  O   UNL A   1      32.120  18.576  25.187  1.00  0.00    -0.252 OA
BRANCH   3   5
ATOM      5  C   UNL A   1      32.591  19.817  23.221  1.00  0.00     0.124 C 
BRANCH   5   6
ATOM      6  C   UNL A   1      32.088  21.254  23.149  1.00  0.00     0.034 C 
BRANCH   6   7
ATOM      7  C   UNL A   1      33.131  22.386  23.127  1.00  0.00     0.128 C 
BRANCH   7   8
ATOM      8  N   UNL A   1      32.865  23.609  23.907  1.00  0.00    -0.293 N 
ATOM      9  C   UNL A   1      33.377  24.810  23.434  1.00  0.00     0.266 C 
ATOM     10  C   UNL A   1      32.308  23.674  25.170  1.00  0.00     0.148 C 
ATOM     11  O   UNL A   1      34.027  24.964  22.407  1.00  0.00    -0.268 OA
ATOM     12  C   UNL A   1      32.993  25.941  24.316  1.00  0.00     0.081 C 
ATOM     13  S   UNL A   1      32.130  25.360  25.671  1.00  0.00    -0.054 SA
ATOM     14  S   UNL A   1      31.850  22.426  26.174  1.00  0.00    -0.052 S 
ATOM     15  C   UNL A   1      33.290  27.204  23.984  1.00  0.00     0.033 C 
BRANCH  15  16
ATOM     16  C   UNL A   1      32.899  28.426  24.693  1.00  0.00     0.019 A 
ATOM     17  C   UNL A   1      33.760  28.955  25.662  1.00  0.00     0.027 A 
ATOM     18  C   UNL A   1      31.650  29.026  24.487  1.00  0.00     0.122 A 
ATOM     19  C   UNL A   1      33.366  30.063  26.413  1.00  0.00     0.018 A 
ATOM     20  C   UNL A   1      31.262  30.140  25.232  1.00  0.00     0.048 A 
ATOM     21  Br  UNL A   1      34.516  30.749  27.748  1.00  0.00    -0.051 Br
ATOM     22  C   UNL A   1      32.123  30.657  26.204  1.00  0.00     0.019 A 
BRANCH  18  23
ATOM     23  O   UNL A   1      30.800  28.490  23.559  1.00  0.00    -0.507 OA
ATOM     24  H   UNL A   1      31.131  27.918  22.895  1.00  0.00     0.293 HD
ENDBRANCH  18  23
ENDBRANCH  15  16
ENDBRANCH   7   8
ENDBRANCH   6   7
ENDBRANCH   5   6
ENDBRANCH   3   5
ENDBRANCH   2   3
ENDBRANCH   1   2
BRANCH   1  25
ATOM     25  C   UNL A   1      36.119  21.087  25.531  1.00  0.00     0.202 C 
BRANCH  25  26
ATOM     26  O   UNL A   1      35.429  22.303  25.774  1.00  0.00    -0.374 OA
BRANCH  26  27
ATOM     27  C   UNL A   1      36.237  23.440  26.085  1.00  0.00     0.202 C 
BRANCH  27  28
ATOM     28  C   UNL A   1      37.732  23.219  25.841  1.00  0.00     0.261 C 
BRANCH  28  29
ATOM     29  O   UNL A   1      38.476  24.406  26.182  1.00  0.00    -0.460 OA
BRANCH  29  30
ATOM     30  C   UNL A   1      39.734  24.210  26.637  1.00  0.00     0.338 C 
ATOM     31  O   UNL A   1      40.561  23.412  26.237  1.00  0.00    -0.246 OA
BRANCH  30  32
ATOM     32  C   UNL A   1      40.040  25.244  27.633  1.00  0.00     0.060 A 
ATOM     33  C   UNL A   1      39.199  25.392  28.742  1.00  0.00     0.016 A 
ATOM     34  C   UNL A   1      41.096  26.123  27.410  1.00  0.00     0.016 A 
ATOM     35  C   UNL A   1      39.377  26.467  29.613  1.00  0.00     0.010 A 
ATOM     36  C   UNL A   1      41.279  27.189  28.285  1.00  0.00     0.010 A 
ATOM     37  C   UNL A   1      40.401  27.386  29.369  1.00  0.00    -0.014 A 
BRANCH  37  38
ATOM     38  C   UNL A   1      40.536  28.638  30.145  1.00  0.00     0.031 A 
ATOM     39  C   UNL A   1      41.547  28.685  31.250  1.00  0.00     0.074 A 
ATOM     40  C   UNL A   1      39.692  29.663  29.948  1.00  0.00     0.049 A 
ATOM     41  N   UNL A   1      41.610  29.481  32.283  1.00  0.00    -0.248 NA
ATOM     42  C   UNL A   1      42.617  27.676  31.190  1.00  0.00     0.031 C 
ATOM     43  C   UNL A   1      38.716  29.764  28.865  1.00  0.00     0.029 A 
ATOM     44  N   UNL A   1      39.492  30.794  30.698  1.00  0.00    -0.354 N 
ATOM     45  C   UNL A   1      42.689  29.030  33.032  1.00  0.00     0.074 A 
ATOM     46  C   UNL A   1      43.261  27.904  32.325  1.00  0.00     0.031 C 
ATOM     47  C   UNL A   1      37.985  30.878  29.046  1.00  0.00     0.029 A 
ATOM     48  C   UNL A   1      38.401  31.519  30.290  1.00  0.00     0.049 A 
ATOM     49  H   UNL A   1      40.070  31.056  31.450  1.00  0.00     0.167 HD
ATOM     50  C   UNL A   1      43.141  29.503  34.218  1.00  0.00     0.031 A 
ATOM     51  C   UNL A   1      37.763  32.541  30.892  1.00  0.00     0.031 A 
ATOM     52  C   UNL A   1      42.563  30.625  34.904  1.00  0.00     0.049 A 
ATOM     53  C   UNL A   1      38.246  33.024  32.231  1.00  0.00     0.074 A 
ATOM     54  C   UNL A   1      42.943  31.195  36.106  1.00  0.00     0.029 A 
ATOM     55  N   UNL A   1      41.476  31.351  34.441  1.00  0.00    -0.354 N 
ATOM     56  N   UNL A   1      39.235  32.572  32.962  1.00  0.00    -0.248 NA
ATOM     57  C   UNL A   1      37.513  34.147  32.831  1.00  0.00     0.031 C 
ATOM     58  C   UNL A   1      42.061  32.246  36.386  1.00  0.00     0.029 A 
ATOM     59  C   UNL A   1      41.161  32.355  35.338  1.00  0.00     0.049 A 
ATOM     60  H   UNL A   1      40.998  31.176  33.597  1.00  0.00     0.167 HD
ATOM     61  C   UNL A   1      39.257  33.366  34.102  1.00  0.00     0.074 A 
ATOM     62  C   UNL A   1      38.185  34.331  33.960  1.00  0.00     0.031 C 
ATOM     63  C   UNL A   1      40.090  33.304  35.170  1.00  0.00     0.031 A 
BRANCH  50  64
ATOM     64  C   UNL A   1      44.271  28.756  34.865  1.00  0.00    -0.014 A 
ATOM     65  C   UNL A   1      45.585  29.248  34.848  1.00  0.00     0.009 A 
ATOM     66  C   UNL A   1      44.013  27.528  35.495  1.00  0.00     0.009 A 
ATOM     67  C   UNL A   1      46.624  28.505  35.414  1.00  0.00     0.001 A 
ATOM     68  C   UNL A   1      45.049  26.799  36.081  1.00  0.00     0.001 A 
ATOM     69  C   UNL A   1      46.355  27.283  36.030  1.00  0.00     0.000 A 
ENDBRANCH  50  64
BRANCH  51  70
ATOM     70  C   UNL A   1      36.556  33.121  30.253  1.00  0.00    -0.014 A 
ATOM     71  C   UNL A   1      35.289  32.936  30.823  1.00  0.00     0.009 A 
ATOM     72  C   UNL A   1      36.674  33.903  29.092  1.00  0.00     0.009 A 
ATOM     73  C   UNL A   1      34.162  33.521  30.242  1.00  0.00     0.001 A 
ATOM     74  C   UNL A   1      35.548  34.504  28.526  1.00  0.00     0.001 A 
ATOM     75  C   UNL A   1      34.294  34.310  29.099  1.00  0.00     0.000 A 
ENDBRANCH  51  70
BRANCH  63  76
ATOM     76  C   UNL A   1      39.901  34.331  36.246  1.00  0.00    -0.014 A 
ATOM     77  C   UNL A   1      39.163  34.042  37.404  1.00  0.00     0.009 A 
ATOM     78  C   UNL A   1      40.521  35.584  36.123  1.00  0.00     0.009 A 
ATOM     79  C   UNL A   1      39.032  35.002  38.410  1.00  0.00     0.001 A 
ATOM     80  C   UNL A   1      40.404  36.533  37.138  1.00  0.00     0.001 A 
ATOM     81  C   UNL A   1      39.655  36.243  38.279  1.00  0.00     0.000 A 
ENDBRANCH  63  76
ENDBRANCH  37  38
ENDBRANCH  30  32
ENDBRANCH  29  30
ENDBRANCH  28  29
ENDBRANCH  27  28
ENDBRANCH  26  27
ENDBRANCH  25  26
ENDBRANCH   1  25
TORSDOF 19
ENDMDL
