MODEL 1
REMARK VINA RESULT:     -10.8      0.000      0.000
REMARK SMILES COc1ccc(S(=O)(=O)N2CCCC[C@@H]2C(=O)OCCOCCOC(=O)c2ccc(-c3c4nc(c(-c5ccccc5)c5ccc([nH]5)c(-c5ccccc5)c5nc(c(-c6ccccc6)c6ccc3[nH]6)C=C5)C=C4)cc2)cc1C
REMARK SMILES IDX 20 1 19 2 18 3 16 4 17 5 15 6 10 7 11 8 12 9 14 10 13 11
REMARK SMILES IDX 7 12 8 13 9 14 6 15 3 16 4 17 76 18 5 19 75 20 77 21 2 22
REMARK SMILES IDX 1 23 21 24 22 25 23 26 24 27 25 28 26 29 27 30 28 31 74 32
REMARK SMILES IDX 29 33 73 34 30 35 31 36 32 37 67 38 33 39 72 40 66 41 68 42
REMARK SMILES IDX 34 43 71 44 65 45 64 46 35 48 57 49 42 50 56 51 43 52 46 53
REMARK SMILES IDX 55 54 69 55 44 56 45 57 54 59 70 60 47 61 36 62 37 63 41 64
REMARK SMILES IDX 38 65 40 66 39 67 58 68 59 69 63 70 60 71 62 72 61 73 48 74
REMARK SMILES IDX 49 75 53 76 50 77 52 78 51 79
REMARK H PARENT 68 47 46 58
REMARK Flexibility Score: inf
ROOT
ATOM      1  C   UNL A   1      33.336  30.121  26.859  1.00  0.00     0.202 C 
ENDROOT
BRANCH   1   2
ATOM      2  C   UNL A   1      33.770  28.673  27.025  1.00  0.00     0.261 C 
BRANCH   2   3
ATOM      3  O   UNL A   1      33.027  27.747  26.200  1.00  0.00    -0.462 OA
BRANCH   3   4
ATOM      4  C   UNL A   1      31.727  27.441  26.505  1.00  0.00     0.324 C 
ATOM      5  O   UNL A   1      31.180  27.621  27.583  1.00  0.00    -0.250 OA
BRANCH   4   6
ATOM      6  C   UNL A   1      30.994  26.968  25.245  1.00  0.00     0.183 C 
ATOM      7  N   UNL A   1      31.639  25.829  24.516  1.00  0.00    -0.184 NA
ATOM      8  C   UNL A   1      31.409  25.674  23.065  1.00  0.00     0.103 C 
ATOM      9  C   UNL A   1      31.449  27.009  22.345  1.00  0.00     0.017 C 
ATOM     10  C   UNL A   1      30.800  28.227  24.371  1.00  0.00     0.032 C 
ATOM     11  C   UNL A   1      30.413  27.942  22.940  1.00  0.00     0.004 C 
BRANCH   7  12
ATOM     12  S   UNL A   1      31.840  24.366  25.376  1.00  0.00     0.243 S 
ATOM     13  O   UNL A   1      30.802  23.475  24.944  1.00  0.00    -0.207 OA
ATOM     14  O   UNL A   1      32.066  24.703  26.768  1.00  0.00    -0.207 OA
BRANCH  12  15
ATOM     15  C   UNL A   1      33.293  23.516  24.829  1.00  0.00     0.083 A 
ATOM     16  C   UNL A   1      35.752  22.272  24.576  1.00  0.00     0.121 A 
ATOM     17  C   UNL A   1      35.701  23.662  24.665  1.00  0.00     0.048 A 
ATOM     18  C   UNL A   1      34.590  21.492  24.657  1.00  0.00    -0.008 A 
ATOM     19  C   UNL A   1      34.468  24.286  24.803  1.00  0.00     0.025 A 
ATOM     20  C   UNL A   1      33.348  22.133  24.709  1.00  0.00     0.029 A 
ATOM     21  C   UNL A   1      34.638  19.996  24.734  1.00  0.00     0.048 C 
BRANCH  16  22
ATOM     22  O   UNL A   1      36.987  21.693  24.460  1.00  0.00    -0.496 OA
ATOM     23  C   UNL A   1      37.797  22.094  25.567  1.00  0.00     0.278 C 
ENDBRANCH  16  22
ENDBRANCH  12  15
ENDBRANCH   7  12
ENDBRANCH   4   6
ENDBRANCH   3   4
ENDBRANCH   2   3
ENDBRANCH   1   2
BRANCH   1  24
ATOM     24  O   UNL A   1      34.449  30.934  27.181  1.00  0.00    -0.374 OA
BRANCH  24  25
ATOM     25  C   UNL A   1      34.337  31.774  28.314  1.00  0.00     0.202 C 
BRANCH  25  26
ATOM     26  C   UNL A   1      33.566  33.069  28.028  1.00  0.00     0.261 C 
BRANCH  26  27
ATOM     27  O   UNL A   1      34.244  34.183  28.640  1.00  0.00    -0.460 OA
BRANCH  27  28
ATOM     28  C   UNL A   1      34.204  34.204  30.000  1.00  0.00     0.338 C 
ATOM     29  O   UNL A   1      33.288  34.650  30.671  1.00  0.00    -0.246 OA
BRANCH  28  30
ATOM     30  C   UNL A   1      35.543  33.851  30.549  1.00  0.00     0.060 A 
ATOM     31  C   UNL A   1      36.700  34.181  29.820  1.00  0.00     0.016 A 
ATOM     32  C   UNL A   1      35.621  32.943  31.603  1.00  0.00     0.016 A 
ATOM     33  C   UNL A   1      37.902  33.502  30.067  1.00  0.00     0.010 A 
ATOM     34  C   UNL A   1      36.775  32.205  31.767  1.00  0.00     0.010 A 
ATOM     35  C   UNL A   1      37.918  32.464  30.998  1.00  0.00    -0.014 A 
BRANCH  35  36
ATOM     36  C   UNL A   1      39.034  31.535  31.198  1.00  0.00     0.031 A 
ATOM     37  C   UNL A   1      39.112  30.308  30.366  1.00  0.00     0.074 A 
ATOM     38  C   UNL A   1      40.107  31.892  31.941  1.00  0.00     0.049 A 
ATOM     39  N   UNL A   1      39.904  29.316  30.591  1.00  0.00    -0.248 NA
ATOM     40  C   UNL A   1      38.265  30.080  29.197  1.00  0.00     0.031 C 
ATOM     41  C   UNL A   1      41.435  31.289  31.915  1.00  0.00     0.029 A 
ATOM     42  N   UNL A   1      40.244  32.914  32.887  1.00  0.00    -0.354 N 
ATOM     43  C   UNL A   1      39.975  28.573  29.435  1.00  0.00     0.074 A 
ATOM     44  C   UNL A   1      38.829  28.992  28.667  1.00  0.00     0.031 C 
ATOM     45  C   UNL A   1      42.193  31.794  32.902  1.00  0.00     0.029 A 
ATOM     46  C   UNL A   1      41.311  32.577  33.739  1.00  0.00     0.049 A 
ATOM     47  H   UNL A   1      39.691  33.727  32.946  1.00  0.00     0.167 HD
ATOM     48  C   UNL A   1      41.086  27.815  29.198  1.00  0.00     0.031 A 
ATOM     49  C   UNL A   1      41.114  32.349  35.065  1.00  0.00     0.031 A 
ATOM     50  C   UNL A   1      42.041  27.882  30.326  1.00  0.00     0.049 A 
ATOM     51  C   UNL A   1      41.429  30.901  35.342  1.00  0.00     0.074 A 
ATOM     52  C   UNL A   1      43.322  28.396  30.457  1.00  0.00     0.029 A 
ATOM     53  N   UNL A   1      41.597  27.630  31.633  1.00  0.00    -0.354 N 
ATOM     54  N   UNL A   1      41.242  29.951  34.459  1.00  0.00    -0.248 NA
ATOM     55  C   UNL A   1      42.156  30.442  36.521  1.00  0.00     0.031 C 
ATOM     56  C   UNL A   1      43.599  28.545  31.848  1.00  0.00     0.029 A 
ATOM     57  C   UNL A   1      42.507  28.081  32.571  1.00  0.00     0.049 A 
ATOM     58  H   UNL A   1      40.745  27.189  31.853  1.00  0.00     0.167 HD
ATOM     59  C   UNL A   1      41.983  28.867  34.825  1.00  0.00     0.074 A 
ATOM     60  C   UNL A   1      42.447  29.175  36.171  1.00  0.00     0.031 C 
ATOM     61  C   UNL A   1      42.315  27.835  33.998  1.00  0.00     0.031 A 
BRANCH  48  62
ATOM     62  C   UNL A   1      41.435  27.220  27.836  1.00  0.00    -0.014 A 
ATOM     63  C   UNL A   1      42.094  28.000  26.866  1.00  0.00     0.009 A 
ATOM     64  C   UNL A   1      41.117  25.912  27.421  1.00  0.00     0.009 A 
ATOM     65  C   UNL A   1      42.356  27.527  25.568  1.00  0.00     0.001 A 
ATOM     66  C   UNL A   1      41.361  25.432  26.125  1.00  0.00     0.001 A 
ATOM     67  C   UNL A   1      41.976  26.245  25.191  1.00  0.00     0.000 A 
ENDBRANCH  48  62
BRANCH  49  68
ATOM     68  C   UNL A   1      40.063  33.225  35.648  1.00  0.00    -0.014 A 
ATOM     69  C   UNL A   1      38.861  32.606  36.062  1.00  0.00     0.009 A 
ATOM     70  C   UNL A   1      40.378  34.477  36.193  1.00  0.00     0.009 A 
ATOM     71  C   UNL A   1      38.055  33.174  37.057  1.00  0.00     0.001 A 
ATOM     72  C   UNL A   1      39.575  35.038  37.199  1.00  0.00     0.001 A 
ATOM     73  C   UNL A   1      38.432  34.375  37.650  1.00  0.00     0.000 A 
ENDBRANCH  49  68
BRANCH  61  74
ATOM     74  C   UNL A   1      42.571  26.454  34.522  1.00  0.00    -0.014 A 
ATOM     75  C   UNL A   1      41.630  25.763  35.298  1.00  0.00     0.009 A 
ATOM     76  C   UNL A   1      43.672  25.723  34.034  1.00  0.00     0.009 A 
ATOM     77  C   UNL A   1      41.792  24.409  35.592  1.00  0.00     0.001 A 
ATOM     78  C   UNL A   1      43.814  24.361  34.288  1.00  0.00     0.001 A 
ATOM     79  C   UNL A   1      42.875  23.705  35.073  1.00  0.00     0.000 A 
ENDBRANCH  61  74
ENDBRANCH  35  36
ENDBRANCH  28  30
ENDBRANCH  27  28
ENDBRANCH  26  27
ENDBRANCH  25  26
ENDBRANCH  24  25
ENDBRANCH   1  24
TORSDOF 17
ENDMDL
MODEL 2
REMARK VINA RESULT:     -10.8      3.966      9.478
REMARK SMILES COc1ccc(S(=O)(=O)N2CCCC[C@@H]2C(=O)OCCOCCOC(=O)c2ccc(-c3c4nc(c(-c5ccccc5)c5ccc([nH]5)c(-c5ccccc5)c5nc(c(-c6ccccc6)c6ccc3[nH]6)C=C5)C=C4)cc2)cc1C
REMARK SMILES IDX 20 1 19 2 18 3 16 4 17 5 15 6 10 7 11 8 12 9 14 10 13 11
REMARK SMILES IDX 7 12 8 13 9 14 6 15 3 16 4 17 76 18 5 19 75 20 77 21 2 22
REMARK SMILES IDX 1 23 21 24 22 25 23 26 24 27 25 28 26 29 27 30 28 31 74 32
REMARK SMILES IDX 29 33 73 34 30 35 31 36 32 37 67 38 33 39 72 40 66 41 68 42
REMARK SMILES IDX 34 43 71 44 65 45 64 46 35 48 57 49 42 50 56 51 43 52 46 53
REMARK SMILES IDX 55 54 69 55 44 56 45 57 54 59 70 60 47 61 36 62 37 63 41 64
REMARK SMILES IDX 38 65 40 66 39 67 58 68 59 69 63 70 60 71 62 72 61 73 48 74
REMARK SMILES IDX 49 75 53 76 50 77 52 78 51 79
REMARK H PARENT 68 47 46 58
REMARK Flexibility Score: inf
ROOT
ATOM      1  C   UNL A   1      38.438  23.345  26.245  1.00  0.00     0.202 C 
ENDROOT
BRANCH   1   2
ATOM      2  C   UNL A   1      37.108  22.843  25.704  1.00  0.00     0.261 C 
BRANCH   2   3
ATOM      3  O   UNL A   1      36.123  23.888  25.528  1.00  0.00    -0.462 OA
BRANCH   3   4
ATOM      4  C   UNL A   1      34.792  23.618  25.705  1.00  0.00     0.324 C 
ATOM      5  O   UNL A   1      33.967  24.368  26.206  1.00  0.00    -0.250 OA
BRANCH   4   6
ATOM      6  C   UNL A   1      34.441  22.281  25.045  1.00  0.00     0.183 C 
ATOM      7  N   UNL A   1      33.376  22.344  23.992  1.00  0.00    -0.184 NA
ATOM      8  C   UNL A   1      32.555  21.146  23.720  1.00  0.00     0.103 C 
ATOM      9  C   UNL A   1      32.158  20.434  24.999  1.00  0.00     0.017 C 
ATOM     10  C   UNL A   1      34.107  21.313  26.201  1.00  0.00     0.032 C 
ATOM     11  C   UNL A   1      33.402  20.047  25.775  1.00  0.00     0.004 C 
BRANCH   7  12
ATOM     12  S   UNL A   1      33.678  23.337  22.636  1.00  0.00     0.243 S 
ATOM     13  O   UNL A   1      32.907  22.812  21.547  1.00  0.00    -0.207 OA
ATOM     14  O   UNL A   1      35.109  23.554  22.560  1.00  0.00    -0.207 OA
BRANCH  12  15
ATOM     15  C   UNL A   1      32.946  24.934  22.856  1.00  0.00     0.083 A 
ATOM     16  C   UNL A   1      31.915  27.317  23.816  1.00  0.00     0.121 A 
ATOM     17  C   UNL A   1      31.189  26.140  23.997  1.00  0.00     0.048 A 
ATOM     18  C   UNL A   1      33.174  27.308  23.199  1.00  0.00    -0.008 A 
ATOM     19  C   UNL A   1      31.711  24.943  23.525  1.00  0.00     0.025 A 
ATOM     20  C   UNL A   1      33.652  26.113  22.651  1.00  0.00     0.029 A 
ATOM     21  C   UNL A   1      34.044  28.528  23.146  1.00  0.00     0.048 C 
BRANCH  16  22
ATOM     22  O   UNL A   1      31.377  28.473  24.312  1.00  0.00    -0.496 OA
ATOM     23  C   UNL A   1      31.635  28.543  25.715  1.00  0.00     0.278 C 
ENDBRANCH  16  22
ENDBRANCH  12  15
ENDBRANCH   7  12
ENDBRANCH   4   6
ENDBRANCH   3   4
ENDBRANCH   2   3
ENDBRANCH   1   2
BRANCH   1  24
ATOM     24  O   UNL A   1      39.239  22.208  26.514  1.00  0.00    -0.374 OA
BRANCH  24  25
ATOM     25  C   UNL A   1      39.107  21.097  25.647  1.00  0.00     0.202 C 
BRANCH  25  26
ATOM     26  C   UNL A   1      39.953  19.894  26.080  1.00  0.00     0.261 C 
BRANCH  26  27
ATOM     27  O   UNL A   1      41.047  20.342  26.903  1.00  0.00    -0.460 OA
BRANCH  27  28
ATOM     28  C   UNL A   1      42.176  20.680  26.224  1.00  0.00     0.338 C 
ATOM     29  O   UNL A   1      42.731  19.986  25.387  1.00  0.00    -0.246 OA
BRANCH  28  30
ATOM     30  C   UNL A   1      42.786  21.895  26.834  1.00  0.00     0.060 A 
ATOM     31  C   UNL A   1      42.642  22.123  28.215  1.00  0.00     0.016 A 
ATOM     32  C   UNL A   1      43.213  22.926  26.000  1.00  0.00     0.016 A 
ATOM     33  C   UNL A   1      42.803  23.417  28.732  1.00  0.00     0.010 A 
ATOM     34  C   UNL A   1      43.263  24.212  26.496  1.00  0.00     0.010 A 
ATOM     35  C   UNL A   1      43.048  24.474  27.856  1.00  0.00    -0.014 A 
BRANCH  35  36
ATOM     36  C   UNL A   1      43.020  25.892  28.227  1.00  0.00     0.031 A 
ATOM     37  C   UNL A   1      41.741  26.640  28.131  1.00  0.00     0.074 A 
ATOM     38  C   UNL A   1      44.064  26.458  28.877  1.00  0.00     0.049 A 
ATOM     39  N   UNL A   1      41.633  27.923  28.212  1.00  0.00    -0.248 NA
ATOM     40  C   UNL A   1      40.451  25.993  27.907  1.00  0.00     0.031 C 
ATOM     41  C   UNL A   1      44.051  27.690  29.657  1.00  0.00     0.029 A 
ATOM     42  N   UNL A   1      45.388  26.023  28.998  1.00  0.00    -0.354 N 
ATOM     43  C   UNL A   1      40.312  28.210  28.469  1.00  0.00     0.074 A 
ATOM     44  C   UNL A   1      39.605  27.005  28.112  1.00  0.00     0.031 C 
ATOM     45  C   UNL A   1      45.300  28.025  30.016  1.00  0.00     0.029 A 
ATOM     46  C   UNL A   1      46.187  27.142  29.292  1.00  0.00     0.049 A 
ATOM     47  H   UNL A   1      45.705  25.096  28.896  1.00  0.00     0.167 HD
ATOM     48  C   UNL A   1      39.997  29.374  29.110  1.00  0.00     0.031 A 
ATOM     49  C   UNL A   1      47.156  27.565  28.436  1.00  0.00     0.031 A 
ATOM     50  C   UNL A   1      41.199  30.196  29.366  1.00  0.00     0.049 A 
ATOM     51  C   UNL A   1      46.763  28.927  27.923  1.00  0.00     0.074 A 
ATOM     52  C   UNL A   1      41.847  30.596  30.525  1.00  0.00     0.029 A 
ATOM     53  N   UNL A   1      42.083  30.487  28.317  1.00  0.00    -0.354 N 
ATOM     54  N   UNL A   1      45.515  29.295  27.765  1.00  0.00    -0.248 NA
ATOM     55  C   UNL A   1      47.704  30.030  27.750  1.00  0.00     0.031 C 
ATOM     56  C   UNL A   1      43.159  31.030  30.171  1.00  0.00     0.029 A 
ATOM     57  C   UNL A   1      43.300  30.940  28.793  1.00  0.00     0.049 A 
ATOM     58  H   UNL A   1      41.865  30.382  27.363  1.00  0.00     0.167 HD
ATOM     59  C   UNL A   1      45.469  30.656  27.702  1.00  0.00     0.074 A 
ATOM     60  C   UNL A   1      46.862  31.067  27.583  1.00  0.00     0.031 C 
ATOM     61  C   UNL A   1      44.346  31.407  27.886  1.00  0.00     0.031 A 
BRANCH  48  62
ATOM     62  C   UNL A   1      38.636  29.656  29.741  1.00  0.00    -0.014 A 
ATOM     63  C   UNL A   1      37.705  30.485  29.087  1.00  0.00     0.009 A 
ATOM     64  C   UNL A   1      38.211  29.171  30.993  1.00  0.00     0.009 A 
ATOM     65  C   UNL A   1      36.476  30.847  29.668  1.00  0.00     0.001 A 
ATOM     66  C   UNL A   1      36.994  29.535  31.590  1.00  0.00     0.001 A 
ATOM     67  C   UNL A   1      36.125  30.383  30.929  1.00  0.00     0.000 A 
ENDBRANCH  48  62
BRANCH  49  68
ATOM     68  C   UNL A   1      47.835  26.442  27.736  1.00  0.00    -0.014 A 
ATOM     69  C   UNL A   1      47.723  26.395  26.327  1.00  0.00     0.009 A 
ATOM     70  C   UNL A   1      48.892  25.744  28.334  1.00  0.00     0.009 A 
ATOM     71  C   UNL A   1      48.690  25.755  25.541  1.00  0.00     0.001 A 
ATOM     72  C   UNL A   1      49.867  25.115  27.543  1.00  0.00     0.001 A 
ATOM     73  C   UNL A   1      49.782  25.144  26.150  1.00  0.00     0.000 A 
ENDBRANCH  49  68
BRANCH  61  74
ATOM     74  C   UNL A   1      44.181  32.752  27.245  1.00  0.00    -0.014 A 
ATOM     75  C   UNL A   1      44.152  32.917  25.853  1.00  0.00     0.009 A 
ATOM     76  C   UNL A   1      43.804  33.854  28.037  1.00  0.00     0.009 A 
ATOM     77  C   UNL A   1      43.783  34.133  25.278  1.00  0.00     0.001 A 
ATOM     78  C   UNL A   1      43.392  35.056  27.466  1.00  0.00     0.001 A 
ATOM     79  C   UNL A   1      43.388  35.197  26.085  1.00  0.00     0.000 A 
ENDBRANCH  61  74
ENDBRANCH  35  36
ENDBRANCH  28  30
ENDBRANCH  27  28
ENDBRANCH  26  27
ENDBRANCH  25  26
ENDBRANCH  24  25
ENDBRANCH   1  24
TORSDOF 17
ENDMDL
MODEL 3
REMARK VINA RESULT:     -10.7      2.331      3.954
REMARK SMILES COc1ccc(S(=O)(=O)N2CCCC[C@@H]2C(=O)OCCOCCOC(=O)c2ccc(-c3c4nc(c(-c5ccccc5)c5ccc([nH]5)c(-c5ccccc5)c5nc(c(-c6ccccc6)c6ccc3[nH]6)C=C5)C=C4)cc2)cc1C
REMARK SMILES IDX 20 1 19 2 18 3 16 4 17 5 15 6 10 7 11 8 12 9 14 10 13 11
REMARK SMILES IDX 7 12 8 13 9 14 6 15 3 16 4 17 76 18 5 19 75 20 77 21 2 22
REMARK SMILES IDX 1 23 21 24 22 25 23 26 24 27 25 28 26 29 27 30 28 31 74 32
REMARK SMILES IDX 29 33 73 34 30 35 31 36 32 37 67 38 33 39 72 40 66 41 68 42
REMARK SMILES IDX 34 43 71 44 65 45 64 46 35 48 57 49 42 50 56 51 43 52 46 53
REMARK SMILES IDX 55 54 69 55 44 56 45 57 54 59 70 60 47 61 36 62 37 63 41 64
REMARK SMILES IDX 38 65 40 66 39 67 58 68 59 69 63 70 60 71 62 72 61 73 48 74
REMARK SMILES IDX 49 75 53 76 50 77 52 78 51 79
REMARK H PARENT 68 47 46 58
REMARK Flexibility Score: inf
ROOT
ATOM      1  C   UNL A   1      31.966  28.860  27.276  1.00  0.00     0.202 C 
ENDROOT
BRANCH   1   2
ATOM      2  C   UNL A   1      31.385  27.455  27.309  1.00  0.00     0.261 C 
BRANCH   2   3
ATOM      3  O   UNL A   1      32.095  26.514  26.471  1.00  0.00    -0.462 OA
BRANCH   3   4
ATOM      4  C   UNL A   1      31.518  25.319  26.133  1.00  0.00     0.324 C 
ATOM      5  O   UNL A   1      31.375  24.355  26.871  1.00  0.00    -0.250 OA
BRANCH   4   6
ATOM      6  C   UNL A   1      30.930  25.407  24.721  1.00  0.00     0.183 C 
ATOM      7  N   UNL A   1      31.877  25.880  23.660  1.00  0.00    -0.184 NA
ATOM      8  C   UNL A   1      31.340  26.553  22.459  1.00  0.00     0.103 C 
ATOM      9  C   UNL A   1      30.224  27.519  22.807  1.00  0.00     0.017 C 
ATOM     10  C   UNL A   1      29.659  26.275  24.844  1.00  0.00     0.032 C 
ATOM     11  C   UNL A   1      29.115  26.778  23.529  1.00  0.00     0.004 C 
BRANCH   7  12
ATOM     12  S   UNL A   1      33.285  24.949  23.398  1.00  0.00     0.243 S 
ATOM     13  O   UNL A   1      34.228  25.313  24.417  1.00  0.00    -0.207 OA
ATOM     14  O   UNL A   1      33.590  25.003  21.982  1.00  0.00    -0.207 OA
BRANCH  12  15
ATOM     15  C   UNL A   1      32.987  23.246  23.777  1.00  0.00     0.083 A 
ATOM     16  C   UNL A   1      32.737  20.490  23.779  1.00  0.00     0.121 A 
ATOM     17  C   UNL A   1      31.828  21.253  23.049  1.00  0.00     0.048 A 
ATOM     18  C   UNL A   1      33.799  21.086  24.473  1.00  0.00    -0.008 A 
ATOM     19  C   UNL A   1      31.960  22.635  23.039  1.00  0.00     0.025 A 
ATOM     20  C   UNL A   1      33.872  22.482  24.528  1.00  0.00     0.029 A 
ATOM     21  C   UNL A   1      34.882  20.278  25.122  1.00  0.00     0.048 C 
BRANCH  16  22
ATOM     22  O   UNL A   1      32.587  19.129  23.748  1.00  0.00    -0.496 OA
ATOM     23  C   UNL A   1      32.439  18.706  22.392  1.00  0.00     0.278 C 
ENDBRANCH  16  22
ENDBRANCH  12  15
ENDBRANCH   7  12
ENDBRANCH   4   6
ENDBRANCH   3   4
ENDBRANCH   2   3
ENDBRANCH   1   2
BRANCH   1  24
ATOM     24  O   UNL A   1      33.362  28.744  27.485  1.00  0.00    -0.374 OA
BRANCH  24  25
ATOM     25  C   UNL A   1      34.199  29.680  26.832  1.00  0.00     0.202 C 
BRANCH  25  26
ATOM     26  C   UNL A   1      34.214  31.052  27.517  1.00  0.00     0.261 C 
BRANCH  26  27
ATOM     27  O   UNL A   1      34.989  30.980  28.729  1.00  0.00    -0.460 OA
BRANCH  27  28
ATOM     28  C   UNL A   1      36.294  31.341  28.599  1.00  0.00     0.338 C 
ATOM     29  O   UNL A   1      36.690  32.446  28.263  1.00  0.00    -0.246 OA
BRANCH  28  30
ATOM     30  C   UNL A   1      37.161  30.131  28.666  1.00  0.00     0.060 A 
ATOM     31  C   UNL A   1      37.150  29.333  29.824  1.00  0.00     0.016 A 
ATOM     32  C   UNL A   1      38.182  29.982  27.729  1.00  0.00     0.016 A 
ATOM     33  C   UNL A   1      38.229  28.482  30.099  1.00  0.00     0.010 A 
ATOM     34  C   UNL A   1      39.287  29.225  28.057  1.00  0.00     0.010 A 
ATOM     35  C   UNL A   1      39.330  28.481  29.244  1.00  0.00    -0.014 A 
BRANCH  35  36
ATOM     36  C   UNL A   1      40.606  27.813  29.522  1.00  0.00     0.031 A 
ATOM     37  C   UNL A   1      40.903  26.516  28.863  1.00  0.00     0.074 A 
ATOM     38  C   UNL A   1      41.603  28.466  30.163  1.00  0.00     0.049 A 
ATOM     39  N   UNL A   1      41.873  25.732  29.188  1.00  0.00    -0.248 NA
ATOM     40  C   UNL A   1      40.097  25.971  27.773  1.00  0.00     0.031 C 
ATOM     41  C   UNL A   1      43.021  28.124  30.164  1.00  0.00     0.029 A 
ATOM     42  N   UNL A   1      41.558  29.620  30.953  1.00  0.00    -0.354 N 
ATOM     43  C   UNL A   1      42.066  24.858  28.143  1.00  0.00     0.074 A 
ATOM     44  C   UNL A   1      40.849  24.943  27.374  1.00  0.00     0.031 C 
ATOM     45  C   UNL A   1      43.684  28.896  31.039  1.00  0.00     0.029 A 
ATOM     46  C   UNL A   1      42.683  29.612  31.797  1.00  0.00     0.049 A 
ATOM     47  H   UNL A   1      40.861  30.316  30.924  1.00  0.00     0.167 HD
ATOM     48  C   UNL A   1      43.297  24.295  27.965  1.00  0.00     0.031 A 
ATOM     49  C   UNL A   1      42.554  29.544  33.149  1.00  0.00     0.031 A 
ATOM     50  C   UNL A   1      44.239  24.699  29.031  1.00  0.00     0.049 A 
ATOM     51  C   UNL A   1      43.143  28.234  33.608  1.00  0.00     0.074 A 
ATOM     52  C   UNL A   1      45.401  25.455  29.037  1.00  0.00     0.029 A 
ATOM     53  N   UNL A   1      43.872  24.557  30.378  1.00  0.00    -0.354 N 
ATOM     54  N   UNL A   1      43.126  27.149  32.873  1.00  0.00    -0.248 NA
ATOM     55  C   UNL A   1      43.962  28.091  34.808  1.00  0.00     0.031 C 
ATOM     56  C   UNL A   1      45.666  25.850  30.381  1.00  0.00     0.029 A 
ATOM     57  C   UNL A   1      44.695  25.298  31.206  1.00  0.00     0.049 A 
ATOM     58  H   UNL A   1      43.123  24.001  30.693  1.00  0.00     0.167 HD
ATOM     59  C   UNL A   1      44.065  26.286  33.352  1.00  0.00     0.074 A 
ATOM     60  C   UNL A   1      44.483  26.864  34.622  1.00  0.00     0.031 C 
ATOM     61  C   UNL A   1      44.575  25.227  32.660  1.00  0.00     0.031 A 
BRANCH  48  62
ATOM     62  C   UNL A   1      43.732  23.587  26.684  1.00  0.00    -0.014 A 
ATOM     63  C   UNL A   1      43.523  22.204  26.529  1.00  0.00     0.009 A 
ATOM     64  C   UNL A   1      44.385  24.208  25.601  1.00  0.00     0.009 A 
ATOM     65  C   UNL A   1      43.985  21.491  25.408  1.00  0.00     0.001 A 
ATOM     66  C   UNL A   1      44.863  23.506  24.483  1.00  0.00     0.001 A 
ATOM     67  C   UNL A   1      44.670  22.140  24.389  1.00  0.00     0.000 A 
ENDBRANCH  48  62
BRANCH  49  68
ATOM     68  C   UNL A   1      41.364  30.282  33.651  1.00  0.00    -0.014 A 
ATOM     69  C   UNL A   1      41.397  31.694  33.573  1.00  0.00     0.009 A 
ATOM     70  C   UNL A   1      40.113  29.659  33.760  1.00  0.00     0.009 A 
ATOM     71  C   UNL A   1      40.218  32.446  33.505  1.00  0.00     0.001 A 
ATOM     72  C   UNL A   1      38.933  30.416  33.679  1.00  0.00     0.001 A 
ATOM     73  C   UNL A   1      38.984  31.802  33.524  1.00  0.00     0.000 A 
ENDBRANCH  49  68
BRANCH  61  74
ATOM     74  C   UNL A   1      45.098  24.006  33.357  1.00  0.00    -0.014 A 
ATOM     75  C   UNL A   1      46.402  23.940  33.867  1.00  0.00     0.009 A 
ATOM     76  C   UNL A   1      44.201  22.986  33.731  1.00  0.00     0.009 A 
ATOM     77  C   UNL A   1      46.799  22.890  34.696  1.00  0.00     0.001 A 
ATOM     78  C   UNL A   1      44.581  21.961  34.594  1.00  0.00     0.001 A 
ATOM     79  C   UNL A   1      45.884  21.911  35.072  1.00  0.00     0.000 A 
ENDBRANCH  61  74
ENDBRANCH  35  36
ENDBRANCH  28  30
ENDBRANCH  27  28
ENDBRANCH  26  27
ENDBRANCH  25  26
ENDBRANCH  24  25
ENDBRANCH   1  24
TORSDOF 17
ENDMDL
