MODEL 1
REMARK VINA RESULT:     -11.5      0.000      0.000
REMARK SMILES C[NH+]1CCN(C(=O)c2ccc3c(c2)N(CC(=O)OCCOCCOC(=O)c2ccc(-c4c5nc(c(-c6ccccc6)c6ccc([nH]6)c(-c6ccccc6)c6nc(c(-c7ccccc7)c7ccc4[nH]7)C=C6)C=C5)cc2)C(=O)CO3)CC1
REMARK SMILES IDX 21 1 20 2 19 3 18 4 16 5 17 6 15 7 14 8 8 9 9 10 13 11 10 12
REMARK SMILES IDX 12 13 11 14 78 15 75 16 77 17 76 18 6 19 1 20 2 21 3 22
REMARK SMILES IDX 80 23 4 25 79 26 5 27 7 28 22 29 23 30 24 31 25 32 26 33
REMARK SMILES IDX 27 34 28 35 74 36 29 37 73 38 30 39 31 40 32 41 67 42 33 43
REMARK SMILES IDX 72 44 66 45 68 46 34 47 71 48 65 49 64 50 35 52 57 53 42 54
REMARK SMILES IDX 56 55 43 56 46 57 55 58 69 59 44 60 45 61 54 63 70 64 47 65
REMARK SMILES IDX 36 66 37 67 41 68 38 69 40 70 39 71 58 72 59 73 63 74 60 75
REMARK SMILES IDX 62 76 61 77 48 78 49 79 53 80 50 81 52 82 51 83
REMARK H PARENT 2 24 68 51 46 62
REMARK Flexibility Score: inf
ROOT
ATOM      1  O   UNL A   1      34.492  34.131  29.171  1.00  0.00    -0.374 OA
ENDROOT
BRANCH   1   2
ATOM      2  C   UNL A   1      34.366  32.722  29.403  1.00  0.00     0.202 C 
BRANCH   2   3
ATOM      3  C   UNL A   1      34.658  31.821  28.181  1.00  0.00     0.261 C 
BRANCH   3   4
ATOM      4  O   UNL A   1      33.444  31.286  27.595  1.00  0.00    -0.462 OA
BRANCH   4   5
ATOM      5  C   UNL A   1      33.506  30.014  27.117  1.00  0.00     0.326 C 
ATOM      6  O   UNL A   1      34.538  29.494  26.700  1.00  0.00    -0.250 OA
BRANCH   5   7
ATOM      7  C   UNL A   1      32.160  29.256  27.090  1.00  0.00     0.248 C 
BRANCH   7   8
ATOM      8  N   UNL A   1      31.520  28.822  25.840  1.00  0.00    -0.295 N 
ATOM      9  C   UNL A   1      31.329  25.028  25.991  1.00  0.00     0.042 A 
ATOM     10  C   UNL A   1      30.650  24.766  24.800  1.00  0.00     0.018 A 
ATOM     11  C   UNL A   1      31.754  26.351  26.276  1.00  0.00     0.044 A 
ATOM     12  C   UNL A   1      30.358  25.817  23.925  1.00  0.00     0.049 A 
ATOM     13  C   UNL A   1      31.377  27.442  25.451  1.00  0.00     0.087 A 
ATOM     14  C   UNL A   1      30.698  27.141  24.254  1.00  0.00     0.143 A 
ATOM     15  O   UNL A   1      30.192  28.071  23.390  1.00  0.00    -0.482 OA
ATOM     16  C   UNL A   1      31.053  29.832  25.002  1.00  0.00     0.265 C 
ATOM     17  C   UNL A   1      30.639  29.390  23.605  1.00  0.00     0.330 C 
ATOM     18  O   UNL A   1      31.048  31.022  25.319  1.00  0.00    -0.270 OA
BRANCH   9  19
ATOM     19  C   UNL A   1      31.744  23.873  26.839  1.00  0.00     0.254 C 
ATOM     20  C   UNL A   1      35.539  20.488  25.009  1.00  0.00     0.332 C 
ATOM     21  N   UNL A   1      35.123  21.541  25.936  1.00  0.00    -0.334 N 
ATOM     22  C   UNL A   1      33.981  21.092  26.769  1.00  0.00     0.283 C 
ATOM     23  C   UNL A   1      34.770  22.766  25.190  1.00  0.00     0.283 C 
ATOM     24  H   UNL A   1      35.905  21.750  26.557  1.00  0.00     0.347 HD
ATOM     25  C   UNL A   1      33.384  22.207  27.663  1.00  0.00     0.181 C 
ATOM     26  C   UNL A   1      34.223  23.853  26.134  1.00  0.00     0.181 C 
ATOM     27  N   UNL A   1      33.053  23.387  26.865  1.00  0.00    -0.327 N 
ATOM     28  O   UNL A   1      30.844  23.390  27.524  1.00  0.00    -0.269 OA
ENDBRANCH   9  19
ENDBRANCH   7   8
ENDBRANCH   5   7
ENDBRANCH   4   5
ENDBRANCH   3   4
ENDBRANCH   2   3
ENDBRANCH   1   2
BRANCH   1  29
ATOM     29  C   UNL A   1      33.245  34.802  29.070  1.00  0.00     0.202 C 
BRANCH  29  30
ATOM     30  C   UNL A   1      32.922  35.874  30.093  1.00  0.00     0.261 C 
BRANCH  30  31
ATOM     31  O   UNL A   1      32.537  35.278  31.290  1.00  0.00    -0.460 OA
BRANCH  31  32
ATOM     32  C   UNL A   1      33.047  35.867  32.384  1.00  0.00     0.338 C 
ATOM     33  O   UNL A   1      32.649  36.811  33.033  1.00  0.00    -0.246 OA
BRANCH  32  34
ATOM     34  C   UNL A   1      34.163  34.984  32.645  1.00  0.00     0.060 A 
ATOM     35  C   UNL A   1      33.896  33.664  32.989  1.00  0.00     0.016 A 
ATOM     36  C   UNL A   1      35.448  35.458  32.328  1.00  0.00     0.016 A 
ATOM     37  C   UNL A   1      34.962  32.792  33.056  1.00  0.00     0.010 A 
ATOM     38  C   UNL A   1      36.494  34.577  32.331  1.00  0.00     0.010 A 
ATOM     39  C   UNL A   1      36.248  33.266  32.752  1.00  0.00    -0.014 A 
BRANCH  39  40
ATOM     40  C   UNL A   1      37.419  32.469  33.095  1.00  0.00     0.031 A 
ATOM     41  C   UNL A   1      38.086  32.795  34.393  1.00  0.00     0.074 A 
ATOM     42  C   UNL A   1      37.866  31.557  32.225  1.00  0.00     0.049 A 
ATOM     43  N   UNL A   1      39.204  32.337  34.877  1.00  0.00    -0.248 NA
ATOM     44  C   UNL A   1      37.419  33.799  35.250  1.00  0.00     0.031 C 
ATOM     45  C   UNL A   1      37.241  31.221  30.943  1.00  0.00     0.029 A 
ATOM     46  N   UNL A   1      38.966  30.757  32.290  1.00  0.00    -0.354 N 
ATOM     47  C   UNL A   1      39.375  32.999  36.084  1.00  0.00     0.074 A 
ATOM     48  C   UNL A   1      38.288  33.934  36.238  1.00  0.00     0.031 C 
ATOM     49  C   UNL A   1      37.973  30.268  30.343  1.00  0.00     0.029 A 
ATOM     50  C   UNL A   1      39.128  29.969  31.181  1.00  0.00     0.049 A 
ATOM     51  H   UNL A   1      39.582  30.745  33.057  1.00  0.00     0.167 HD
ATOM     52  C   UNL A   1      40.355  32.814  36.993  1.00  0.00     0.031 A 
ATOM     53  C   UNL A   1      40.126  29.117  30.893  1.00  0.00     0.031 A 
ATOM     54  C   UNL A   1      41.421  31.877  36.795  1.00  0.00     0.049 A 
ATOM     55  C   UNL A   1      41.229  28.965  31.905  1.00  0.00     0.074 A 
ATOM     56  C   UNL A   1      42.478  31.582  37.631  1.00  0.00     0.029 A 
ATOM     57  N   UNL A   1      41.551  31.079  35.667  1.00  0.00    -0.354 N 
ATOM     58  N   UNL A   1      41.375  29.568  33.064  1.00  0.00    -0.248 NA
ATOM     59  C   UNL A   1      42.295  28.013  31.580  1.00  0.00     0.031 C 
ATOM     60  C   UNL A   1      43.272  30.627  36.989  1.00  0.00     0.029 A 
ATOM     61  C   UNL A   1      42.676  30.290  35.781  1.00  0.00     0.049 A 
ATOM     62  H   UNL A   1      40.933  31.076  34.901  1.00  0.00     0.167 HD
ATOM     63  C   UNL A   1      42.526  29.035  33.626  1.00  0.00     0.074 A 
ATOM     64  C   UNL A   1      43.034  28.060  32.680  1.00  0.00     0.031 C 
ATOM     65  C   UNL A   1      43.114  29.314  34.815  1.00  0.00     0.031 A 
BRANCH  52  66
ATOM     66  C   UNL A   1      40.303  33.636  38.246  1.00  0.00    -0.014 A 
ATOM     67  C   UNL A   1      39.584  33.199  39.371  1.00  0.00     0.009 A 
ATOM     68  C   UNL A   1      40.988  34.858  38.310  1.00  0.00     0.009 A 
ATOM     69  C   UNL A   1      39.532  33.981  40.526  1.00  0.00     0.001 A 
ATOM     70  C   UNL A   1      40.958  35.624  39.476  1.00  0.00     0.001 A 
ATOM     71  C   UNL A   1      40.227  35.188  40.580  1.00  0.00     0.000 A 
ENDBRANCH  52  66
BRANCH  53  72
ATOM     72  C   UNL A   1      40.118  28.353  29.621  1.00  0.00    -0.014 A 
ATOM     73  C   UNL A   1      39.543  27.075  29.563  1.00  0.00     0.009 A 
ATOM     74  C   UNL A   1      40.687  28.893  28.458  1.00  0.00     0.009 A 
ATOM     75  C   UNL A   1      39.574  26.337  28.377  1.00  0.00     0.001 A 
ATOM     76  C   UNL A   1      40.690  28.167  27.266  1.00  0.00     0.001 A 
ATOM     77  C   UNL A   1      40.146  26.885  27.230  1.00  0.00     0.000 A 
ENDBRANCH  53  72
BRANCH  65  78
ATOM     78  C   UNL A   1      44.320  28.505  35.184  1.00  0.00    -0.014 A 
ATOM     79  C   UNL A   1      45.616  28.960  34.905  1.00  0.00     0.009 A 
ATOM     80  C   UNL A   1      44.146  27.310  35.899  1.00  0.00     0.009 A 
ATOM     81  C   UNL A   1      46.720  28.214  35.317  1.00  0.00     0.001 A 
ATOM     82  C   UNL A   1      45.252  26.584  36.336  1.00  0.00     0.001 A 
ATOM     83  C   UNL A   1      46.538  27.034  36.038  1.00  0.00     0.000 A 
ENDBRANCH  65  78
ENDBRANCH  39  40
ENDBRANCH  32  34
ENDBRANCH  31  32
ENDBRANCH  30  31
ENDBRANCH  29  30
ENDBRANCH   1  29
TORSDOF 16
ENDMDL
MODEL 2
REMARK VINA RESULT:     -11.1      0.427      5.812
REMARK SMILES C[NH+]1CCN(C(=O)c2ccc3c(c2)N(CC(=O)OCCOCCOC(=O)c2ccc(-c4c5nc(c(-c6ccccc6)c6ccc([nH]6)c(-c6ccccc6)c6nc(c(-c7ccccc7)c7ccc4[nH]7)C=C6)C=C5)cc2)C(=O)CO3)CC1
REMARK SMILES IDX 21 1 20 2 19 3 18 4 16 5 17 6 15 7 14 8 8 9 9 10 13 11 10 12
REMARK SMILES IDX 12 13 11 14 78 15 75 16 77 17 76 18 6 19 1 20 2 21 3 22
REMARK SMILES IDX 80 23 4 25 79 26 5 27 7 28 22 29 23 30 24 31 25 32 26 33
REMARK SMILES IDX 27 34 28 35 74 36 29 37 73 38 30 39 31 40 32 41 67 42 33 43
REMARK SMILES IDX 72 44 66 45 68 46 34 47 71 48 65 49 64 50 35 52 57 53 42 54
REMARK SMILES IDX 56 55 43 56 46 57 55 58 69 59 44 60 45 61 54 63 70 64 47 65
REMARK SMILES IDX 36 66 37 67 41 68 38 69 40 70 39 71 58 72 59 73 63 74 60 75
REMARK SMILES IDX 62 76 61 77 48 78 49 79 53 80 50 81 52 82 51 83
REMARK H PARENT 2 24 68 51 46 62
REMARK Flexibility Score: inf
ROOT
ATOM      1  O   UNL A   1      34.739  33.805  29.335  1.00  0.00    -0.374 OA
ENDROOT
BRANCH   1   2
ATOM      2  C   UNL A   1      34.488  32.401  29.479  1.00  0.00     0.202 C 
BRANCH   2   3
ATOM      3  C   UNL A   1      35.033  31.511  28.339  1.00  0.00     0.261 C 
BRANCH   3   4
ATOM      4  O   UNL A   1      33.989  31.105  27.417  1.00  0.00    -0.462 OA
BRANCH   4   5
ATOM      5  C   UNL A   1      33.844  29.769  27.210  1.00  0.00     0.326 C 
ATOM      6  O   UNL A   1      34.783  29.009  26.987  1.00  0.00    -0.250 OA
BRANCH   5   7
ATOM      7  C   UNL A   1      32.387  29.256  27.230  1.00  0.00     0.248 C 
BRANCH   7   8
ATOM      8  N   UNL A   1      31.662  28.879  26.007  1.00  0.00    -0.295 N 
ATOM      9  C   UNL A   1      31.318  25.094  26.084  1.00  0.00     0.042 A 
ATOM     10  C   UNL A   1      30.565  24.889  24.926  1.00  0.00     0.018 A 
ATOM     11  C   UNL A   1      31.814  26.390  26.374  1.00  0.00     0.044 A 
ATOM     12  C   UNL A   1      30.272  25.973  24.093  1.00  0.00     0.049 A 
ATOM     13  C   UNL A   1      31.440  27.516  25.596  1.00  0.00     0.087 A 
ATOM     14  C   UNL A   1      30.685  27.272  24.432  1.00  0.00     0.143 A 
ATOM     15  O   UNL A   1      30.174  28.243  23.617  1.00  0.00    -0.482 OA
ATOM     16  C   UNL A   1      31.195  29.928  25.218  1.00  0.00     0.265 C 
ATOM     17  C   UNL A   1      30.688  29.537  23.836  1.00  0.00     0.330 C 
ATOM     18  O   UNL A   1      31.257  31.109  25.561  1.00  0.00    -0.270 OA
BRANCH   9  19
ATOM     19  C   UNL A   1      31.729  23.902  26.883  1.00  0.00     0.254 C 
ATOM     20  C   UNL A   1      35.556  20.618  24.940  1.00  0.00     0.332 C 
ATOM     21  N   UNL A   1      35.126  21.626  25.910  1.00  0.00    -0.334 N 
ATOM     22  C   UNL A   1      33.977  21.134  26.708  1.00  0.00     0.283 C 
ATOM     23  C   UNL A   1      34.776  22.882  25.218  1.00  0.00     0.283 C 
ATOM     24  H   UNL A   1      35.900  21.809  26.549  1.00  0.00     0.347 HD
ATOM     25  C   UNL A   1      33.366  22.205  27.647  1.00  0.00     0.181 C 
ATOM     26  C   UNL A   1      34.215  23.923  26.205  1.00  0.00     0.181 C 
ATOM     27  N   UNL A   1      33.039  23.420  26.900  1.00  0.00    -0.327 N 
ATOM     28  O   UNL A   1      30.823  23.385  27.535  1.00  0.00    -0.269 OA
ENDBRANCH   9  19
ENDBRANCH   7   8
ENDBRANCH   5   7
ENDBRANCH   4   5
ENDBRANCH   3   4
ENDBRANCH   2   3
ENDBRANCH   1   2
BRANCH   1  29
ATOM     29  C   UNL A   1      33.574  34.563  29.046  1.00  0.00     0.202 C 
BRANCH  29  30
ATOM     30  C   UNL A   1      33.075  35.540  30.093  1.00  0.00     0.261 C 
BRANCH  30  31
ATOM     31  O   UNL A   1      32.751  34.853  31.259  1.00  0.00    -0.460 OA
BRANCH  31  32
ATOM     32  C   UNL A   1      33.102  35.491  32.387  1.00  0.00     0.338 C 
ATOM     33  O   UNL A   1      32.530  36.355  33.018  1.00  0.00    -0.246 OA
BRANCH  32  34
ATOM     34  C   UNL A   1      34.319  34.778  32.708  1.00  0.00     0.060 A 
ATOM     35  C   UNL A   1      34.222  33.449  33.106  1.00  0.00     0.016 A 
ATOM     36  C   UNL A   1      35.536  35.407  32.394  1.00  0.00     0.016 A 
ATOM     37  C   UNL A   1      35.394  32.733  33.232  1.00  0.00     0.010 A 
ATOM     38  C   UNL A   1      36.691  34.676  32.456  1.00  0.00     0.010 A 
ATOM     39  C   UNL A   1      36.612  33.362  32.931  1.00  0.00    -0.014 A 
BRANCH  39  40
ATOM     40  C   UNL A   1      37.870  32.745  33.331  1.00  0.00     0.031 A 
ATOM     41  C   UNL A   1      38.418  31.699  32.414  1.00  0.00     0.074 A 
ATOM     42  C   UNL A   1      38.422  33.087  34.501  1.00  0.00     0.049 A 
ATOM     43  N   UNL A   1      39.439  30.911  32.588  1.00  0.00    -0.248 NA
ATOM     44  C   UNL A   1      37.699  31.490  31.139  1.00  0.00     0.031 C 
ATOM     45  C   UNL A   1      37.904  34.099  35.425  1.00  0.00     0.029 A 
ATOM     46  N   UNL A   1      39.536  32.601  35.114  1.00  0.00    -0.354 N 
ATOM     47  C   UNL A   1      39.478  30.113  31.453  1.00  0.00     0.074 A 
ATOM     48  C   UNL A   1      38.352  30.462  30.624  1.00  0.00     0.031 C 
ATOM     49  C   UNL A   1      38.716  34.162  36.493  1.00  0.00     0.029 A 
ATOM     50  C   UNL A   1      39.773  33.169  36.338  1.00  0.00     0.049 A 
ATOM     51  H   UNL A   1      40.114  31.910  34.717  1.00  0.00     0.167 HD
ATOM     52  C   UNL A   1      40.402  29.183  31.133  1.00  0.00     0.031 A 
ATOM     53  C   UNL A   1      40.739  32.884  37.225  1.00  0.00     0.031 A 
ATOM     54  C   UNL A   1      41.503  28.864  31.992  1.00  0.00     0.049 A 
ATOM     55  C   UNL A   1      41.728  31.811  36.859  1.00  0.00     0.074 A 
ATOM     56  C   UNL A   1      42.516  27.949  31.794  1.00  0.00     0.029 A 
ATOM     57  N   UNL A   1      41.727  29.469  33.221  1.00  0.00    -0.354 N 
ATOM     58  N   UNL A   1      41.786  31.077  35.771  1.00  0.00    -0.248 NA
ATOM     59  C   UNL A   1      42.788  31.532  37.832  1.00  0.00     0.031 C 
ATOM     60  C   UNL A   1      43.336  27.973  32.926  1.00  0.00     0.029 A 
ATOM     61  C   UNL A   1      42.864  28.945  33.799  1.00  0.00     0.049 A 
ATOM     62  H   UNL A   1      41.160  30.169  33.620  1.00  0.00     0.167 HD
ATOM     63  C   UNL A   1      42.914  30.281  35.909  1.00  0.00     0.074 A 
ATOM     64  C   UNL A   1      43.509  30.626  37.186  1.00  0.00     0.031 C 
ATOM     65  C   UNL A   1      43.423  29.352  35.063  1.00  0.00     0.031 A 
BRANCH  52  66
ATOM     66  C   UNL A   1      40.242  28.470  29.823  1.00  0.00    -0.014 A 
ATOM     67  C   UNL A   1      40.815  28.979  28.646  1.00  0.00     0.009 A 
ATOM     68  C   UNL A   1      39.519  27.270  29.764  1.00  0.00     0.009 A 
ATOM     69  C   UNL A   1      40.647  28.312  27.431  1.00  0.00     0.001 A 
ATOM     70  C   UNL A   1      39.377  26.590  28.553  1.00  0.00     0.001 A 
ATOM     71  C   UNL A   1      39.935  27.114  27.387  1.00  0.00     0.000 A 
ENDBRANCH  52  66
BRANCH  53  72
ATOM     72  C   UNL A   1      40.820  33.620  38.511  1.00  0.00    -0.014 A 
ATOM     73  C   UNL A   1      40.144  33.147  39.645  1.00  0.00     0.009 A 
ATOM     74  C   UNL A   1      41.571  34.801  38.613  1.00  0.00     0.009 A 
ATOM     75  C   UNL A   1      40.185  33.862  40.844  1.00  0.00     0.001 A 
ATOM     76  C   UNL A   1      41.635  35.498  39.821  1.00  0.00     0.001 A 
ATOM     77  C   UNL A   1      40.932  35.036  40.931  1.00  0.00     0.000 A 
ENDBRANCH  53  72
BRANCH  65  78
ATOM     78  C   UNL A   1      44.716  28.707  35.460  1.00  0.00    -0.014 A 
ATOM     79  C   UNL A   1      44.739  27.500  36.172  1.00  0.00     0.009 A 
ATOM     80  C   UNL A   1      45.923  29.282  35.033  1.00  0.00     0.009 A 
ATOM     81  C   UNL A   1      45.958  26.892  36.472  1.00  0.00     0.001 A 
ATOM     82  C   UNL A   1      47.136  28.654  35.308  1.00  0.00     0.001 A 
ATOM     83  C   UNL A   1      47.153  27.463  36.033  1.00  0.00     0.000 A 
ENDBRANCH  65  78
ENDBRANCH  39  40
ENDBRANCH  32  34
ENDBRANCH  31  32
ENDBRANCH  30  31
ENDBRANCH  29  30
ENDBRANCH   1  29
TORSDOF 16
ENDMDL
MODEL 3
REMARK VINA RESULT:     -10.3      6.411     11.621
REMARK SMILES C[NH+]1CCN(C(=O)c2ccc3c(c2)N(CC(=O)OCCOCCOC(=O)c2ccc(-c4c5nc(c(-c6ccccc6)c6ccc([nH]6)c(-c6ccccc6)c6nc(c(-c7ccccc7)c7ccc4[nH]7)C=C6)C=C5)cc2)C(=O)CO3)CC1
REMARK SMILES IDX 21 1 20 2 19 3 18 4 16 5 17 6 15 7 14 8 8 9 9 10 13 11 10 12
REMARK SMILES IDX 12 13 11 14 78 15 75 16 77 17 76 18 6 19 1 20 2 21 3 22
REMARK SMILES IDX 80 23 4 25 79 26 5 27 7 28 22 29 23 30 24 31 25 32 26 33
REMARK SMILES IDX 27 34 28 35 74 36 29 37 73 38 30 39 31 40 32 41 67 42 33 43
REMARK SMILES IDX 72 44 66 45 68 46 34 47 71 48 65 49 64 50 35 52 57 53 42 54
REMARK SMILES IDX 56 55 43 56 46 57 55 58 69 59 44 60 45 61 54 63 70 64 47 65
REMARK SMILES IDX 36 66 37 67 41 68 38 69 40 70 39 71 58 72 59 73 63 74 60 75
REMARK SMILES IDX 62 76 61 77 48 78 49 79 53 80 50 81 52 82 51 83
REMARK H PARENT 2 24 68 51 46 62
REMARK Flexibility Score: inf
ROOT
ATOM      1  O   UNL A   1      41.038  21.012  27.521  1.00  0.00    -0.374 OA
ENDROOT
BRANCH   1   2
ATOM      2  C   UNL A   1      40.531  21.952  26.565  1.00  0.00     0.202 C 
BRANCH   2   3
ATOM      3  C   UNL A   1      39.048  21.762  26.173  1.00  0.00     0.261 C 
BRANCH   3   4
ATOM      4  O   UNL A   1      38.426  23.010  25.772  1.00  0.00    -0.462 OA
BRANCH   4   5
ATOM      5  C   UNL A   1      37.070  23.008  25.663  1.00  0.00     0.326 C 
ATOM      6  O   UNL A   1      36.324  23.578  26.455  1.00  0.00    -0.250 OA
BRANCH   5   7
ATOM      7  C   UNL A   1      36.508  22.193  24.478  1.00  0.00     0.248 C 
BRANCH   7   8
ATOM      8  N   UNL A   1      35.109  21.744  24.417  1.00  0.00    -0.295 N 
ATOM      9  C   UNL A   1      33.113  24.630  22.955  1.00  0.00     0.042 A 
ATOM     10  C   UNL A   1      31.846  24.049  22.891  1.00  0.00     0.018 A 
ATOM     11  C   UNL A   1      34.170  23.933  23.594  1.00  0.00     0.044 A 
ATOM     12  C   UNL A   1      31.646  22.769  23.417  1.00  0.00     0.049 A 
ATOM     13  C   UNL A   1      34.010  22.596  24.040  1.00  0.00     0.087 A 
ATOM     14  C   UNL A   1      32.716  22.042  23.965  1.00  0.00     0.143 A 
ATOM     15  O   UNL A   1      32.404  20.748  24.273  1.00  0.00    -0.482 OA
ATOM     16  C   UNL A   1      34.871  20.418  24.770  1.00  0.00     0.265 C 
ATOM     17  C   UNL A   1      33.408  20.040  24.963  1.00  0.00     0.330 C 
ATOM     18  O   UNL A   1      35.771  19.609  25.001  1.00  0.00    -0.270 OA
BRANCH   9  19
ATOM     19  C   UNL A   1      33.268  26.046  22.508  1.00  0.00     0.254 C 
ATOM     20  C   UNL A   1      29.275  29.561  23.460  1.00  0.00     0.332 C 
ATOM     21  N   UNL A   1      30.628  29.075  23.739  1.00  0.00    -0.334 N 
ATOM     22  C   UNL A   1      31.470  29.130  22.520  1.00  0.00     0.283 C 
ATOM     23  C   UNL A   1      30.575  27.699  24.272  1.00  0.00     0.283 C 
ATOM     24  H   UNL A   1      31.049  29.683  24.442  1.00  0.00     0.347 HD
ATOM     25  C   UNL A   1      32.867  28.484  22.697  1.00  0.00     0.181 C 
ATOM     26  C   UNL A   1      31.990  27.125  24.469  1.00  0.00     0.181 C 
ATOM     27  N   UNL A   1      32.745  27.125  23.223  1.00  0.00    -0.327 N 
ATOM     28  O   UNL A   1      33.905  26.187  21.465  1.00  0.00    -0.269 OA
ENDBRANCH   9  19
ENDBRANCH   7   8
ENDBRANCH   5   7
ENDBRANCH   4   5
ENDBRANCH   3   4
ENDBRANCH   2   3
ENDBRANCH   1   2
BRANCH   1  29
ATOM     29  C   UNL A   1      41.114  19.684  27.025  1.00  0.00     0.202 C 
BRANCH  29  30
ATOM     30  C   UNL A   1      41.900  19.439  25.750  1.00  0.00     0.261 C 
BRANCH  30  31
ATOM     31  O   UNL A   1      43.258  19.617  25.995  1.00  0.00    -0.460 OA
BRANCH  31  32
ATOM     32  C   UNL A   1      43.949  20.077  24.939  1.00  0.00     0.338 C 
ATOM     33  O   UNL A   1      44.243  19.541  23.891  1.00  0.00    -0.246 OA
BRANCH  32  34
ATOM     34  C   UNL A   1      44.159  21.446  25.357  1.00  0.00     0.060 A 
ATOM     35  C   UNL A   1      44.681  21.679  26.624  1.00  0.00     0.016 A 
ATOM     36  C   UNL A   1      44.023  22.446  24.378  1.00  0.00     0.016 A 
ATOM     37  C   UNL A   1      45.045  22.971  26.939  1.00  0.00     0.010 A 
ATOM     38  C   UNL A   1      44.446  23.714  24.669  1.00  0.00     0.010 A 
ATOM     39  C   UNL A   1      44.899  23.974  25.968  1.00  0.00    -0.014 A 
BRANCH  39  40
ATOM     40  C   UNL A   1      44.987  25.377  26.350  1.00  0.00     0.031 A 
ATOM     41  C   UNL A   1      46.345  25.999  26.285  1.00  0.00     0.074 A 
ATOM     42  C   UNL A   1      43.891  26.004  26.793  1.00  0.00     0.049 A 
ATOM     43  N   UNL A   1      46.727  27.177  26.685  1.00  0.00    -0.248 NA
ATOM     44  C   UNL A   1      47.431  25.167  25.721  1.00  0.00     0.031 C 
ATOM     45  C   UNL A   1      42.550  25.420  26.877  1.00  0.00     0.029 A 
ATOM     46  N   UNL A   1      43.744  27.270  27.270  1.00  0.00    -0.354 N 
ATOM     47  C   UNL A   1      48.090  27.224  26.428  1.00  0.00     0.074 A 
ATOM     48  C   UNL A   1      48.487  25.943  25.897  1.00  0.00     0.031 C 
ATOM     49  C   UNL A   1      41.709  26.343  27.373  1.00  0.00     0.029 A 
ATOM     50  C   UNL A   1      42.466  27.553  27.675  1.00  0.00     0.049 A 
ATOM     51  H   UNL A   1      44.483  27.920  27.318  1.00  0.00     0.167 HD
ATOM     52  C   UNL A   1      48.926  28.267  26.606  1.00  0.00     0.031 A 
ATOM     53  C   UNL A   1      41.992  28.673  28.243  1.00  0.00     0.031 A 
ATOM     54  C   UNL A   1      48.487  29.521  27.143  1.00  0.00     0.049 A 
ATOM     55  C   UNL A   1      42.957  29.804  28.469  1.00  0.00     0.074 A 
ATOM     56  C   UNL A   1      49.222  30.666  27.373  1.00  0.00     0.029 A 
ATOM     57  N   UNL A   1      47.180  29.784  27.530  1.00  0.00    -0.354 N 
ATOM     58  N   UNL A   1      44.242  29.861  28.197  1.00  0.00    -0.248 NA
ATOM     59  C   UNL A   1      42.412  31.025  29.069  1.00  0.00     0.031 C 
ATOM     60  C   UNL A   1      48.363  31.614  27.938  1.00  0.00     0.029 A 
ATOM     61  C   UNL A   1      47.085  31.075  28.004  1.00  0.00     0.049 A 
ATOM     62  H   UNL A   1      46.434  29.144  27.475  1.00  0.00     0.167 HD
ATOM     63  C   UNL A   1      44.648  31.140  28.550  1.00  0.00     0.074 A 
ATOM     64  C   UNL A   1      43.472  31.822  29.054  1.00  0.00     0.031 C 
ATOM     65  C   UNL A   1      45.876  31.708  28.466  1.00  0.00     0.031 A 
BRANCH  52  66
ATOM     66  C   UNL A   1      50.362  28.078  26.219  1.00  0.00    -0.014 A 
ATOM     67  C   UNL A   1      50.801  28.333  24.910  1.00  0.00     0.009 A 
ATOM     68  C   UNL A   1      51.293  27.650  27.177  1.00  0.00     0.009 A 
ATOM     69  C   UNL A   1      52.138  28.141  24.560  1.00  0.00     0.001 A 
ATOM     70  C   UNL A   1      52.636  27.486  26.832  1.00  0.00     0.001 A 
ATOM     71  C   UNL A   1      53.056  27.725  25.524  1.00  0.00     0.000 A 
ENDBRANCH  52  66
BRANCH  53  72
ATOM     72  C   UNL A   1      40.559  28.777  28.616  1.00  0.00    -0.014 A 
ATOM     73  C   UNL A   1      39.627  29.313  27.716  1.00  0.00     0.009 A 
ATOM     74  C   UNL A   1      40.115  28.346  29.876  1.00  0.00     0.009 A 
ATOM     75  C   UNL A   1      38.286  29.451  28.083  1.00  0.00     0.001 A 
ATOM     76  C   UNL A   1      38.770  28.457  30.230  1.00  0.00     0.001 A 
ATOM     77  C   UNL A   1      37.859  29.022  29.339  1.00  0.00     0.000 A 
ENDBRANCH  53  72
BRANCH  65  78
ATOM     78  C   UNL A   1      45.985  33.151  28.856  1.00  0.00    -0.014 A 
ATOM     79  C   UNL A   1      46.341  33.529  30.158  1.00  0.00     0.009 A 
ATOM     80  C   UNL A   1      45.810  34.138  27.873  1.00  0.00     0.009 A 
ATOM     81  C   UNL A   1      46.496  34.878  30.474  1.00  0.00     0.001 A 
ATOM     82  C   UNL A   1      45.997  35.482  28.186  1.00  0.00     0.001 A 
ATOM     83  C   UNL A   1      46.333  35.851  29.487  1.00  0.00     0.000 A 
ENDBRANCH  65  78
ENDBRANCH  39  40
ENDBRANCH  32  34
ENDBRANCH  31  32
ENDBRANCH  30  31
ENDBRANCH  29  30
ENDBRANCH   1  29
TORSDOF 16
ENDMDL
