MODEL 1
REMARK VINA RESULT:     -10.6      0.000      0.000
REMARK SMILES O=C(OCCOCCOC(=O)c1cccnc1NC[C@H](c1ccccc1)[NH+]1CCOCC1)c1ccc(-c2c3nc(c(-c4ccccc4)c4ccc([nH]4)c(-c4ccccc4)c4nc(c(-c5ccccc5)c5ccc2[nH]5)C=C4)C=C3)cc1
REMARK SMILES IDX 7 1 6 2 5 3 4 4 3 5 2 6 1 7 33 8 34 9 80 10 35 11 79 12
REMARK SMILES IDX 36 13 37 14 38 15 73 16 39 17 78 18 72 19 74 20 40 21 77 22
REMARK SMILES IDX 71 23 70 24 41 26 63 27 48 28 62 29 49 30 52 31 61 32 75 33
REMARK SMILES IDX 50 34 51 35 60 37 76 38 53 39 42 40 43 41 47 42 44 43 46 44
REMARK SMILES IDX 45 45 64 46 65 47 69 48 66 49 68 50 67 51 54 52 55 53 59 54
REMARK SMILES IDX 56 55 58 56 57 57 8 58 9 59 10 60 11 61 12 62 13 63 17 64
REMARK SMILES IDX 14 65 16 66 15 67 18 68 19 70 20 71 27 72 28 73 32 74 29 76
REMARK SMILES IDX 31 77 30 78 21 79 22 80 26 81 23 82 25 83 24 84
REMARK H PARENT 74 25 52 36 18 69 27 75
REMARK Flexibility Score: inf
ROOT
ATOM      1  C   UNL A   1      37.154  22.119  24.875  1.00  0.00     0.202 C 
ENDROOT
BRANCH   1   2
ATOM      2  O   UNL A   1      37.911  22.192  26.080  1.00  0.00    -0.374 OA
BRANCH   2   3
ATOM      3  C   UNL A   1      39.205  21.606  26.068  1.00  0.00     0.202 C 
BRANCH   3   4
ATOM      4  C   UNL A   1      39.278  20.208  25.459  1.00  0.00     0.261 C 
BRANCH   4   5
ATOM      5  O   UNL A   1      40.298  19.423  26.095  1.00  0.00    -0.460 OA
BRANCH   5   6
ATOM      6  C   UNL A   1      41.634  19.615  25.973  1.00  0.00     0.338 C 
ATOM      7  O   UNL A   1      42.335  18.731  25.488  1.00  0.00    -0.246 OA
BRANCH   6   8
ATOM      8  C   UNL A   1      42.295  20.874  26.414  1.00  0.00     0.060 A 
ATOM      9  C   UNL A   1      42.706  21.864  25.524  1.00  0.00     0.016 A 
ATOM     10  C   UNL A   1      42.394  21.137  27.785  1.00  0.00     0.016 A 
ATOM     11  C   UNL A   1      43.244  23.059  25.946  1.00  0.00     0.010 A 
ATOM     12  C   UNL A   1      42.860  22.379  28.230  1.00  0.00     0.010 A 
ATOM     13  C   UNL A   1      43.261  23.348  27.300  1.00  0.00    -0.014 A 
BRANCH  13  14
ATOM     14  C   UNL A   1      43.693  24.699  27.680  1.00  0.00     0.031 A 
ATOM     15  C   UNL A   1      42.667  25.669  28.155  1.00  0.00     0.074 A 
ATOM     16  C   UNL A   1      45.011  24.974  27.704  1.00  0.00     0.049 A 
ATOM     17  N   UNL A   1      42.806  26.935  28.429  1.00  0.00    -0.248 NA
ATOM     18  C   UNL A   1      41.305  25.145  28.356  1.00  0.00     0.031 C 
ATOM     19  C   UNL A   1      46.084  24.016  27.398  1.00  0.00     0.029 A 
ATOM     20  N   UNL A   1      45.681  26.122  28.023  1.00  0.00    -0.354 N 
ATOM     21  C   UNL A   1      41.538  27.375  28.779  1.00  0.00     0.074 A 
ATOM     22  C   UNL A   1      40.647  26.240  28.709  1.00  0.00     0.031 C 
ATOM     23  C   UNL A   1      47.273  24.615  27.564  1.00  0.00     0.029 A 
ATOM     24  C   UNL A   1      47.045  26.016  27.882  1.00  0.00     0.049 A 
ATOM     25  H   UNL A   1      45.232  26.943  28.325  1.00  0.00     0.167 HD
ATOM     26  C   UNL A   1      41.167  28.634  29.097  1.00  0.00     0.031 A 
ATOM     27  C   UNL A   1      47.990  26.971  27.933  1.00  0.00     0.031 A 
ATOM     28  C   UNL A   1      42.094  29.729  29.153  1.00  0.00     0.049 A 
ATOM     29  C   UNL A   1      47.528  28.379  28.181  1.00  0.00     0.074 A 
ATOM     30  C   UNL A   1      41.844  31.060  29.425  1.00  0.00     0.029 A 
ATOM     31  N   UNL A   1      43.459  29.608  28.928  1.00  0.00    -0.354 N 
ATOM     32  N   UNL A   1      46.320  28.812  28.458  1.00  0.00    -0.248 NA
ATOM     33  C   UNL A   1      48.543  29.435  28.093  1.00  0.00     0.031 C 
ATOM     34  C   UNL A   1      43.051  31.755  29.301  1.00  0.00     0.029 A 
ATOM     35  C   UNL A   1      44.062  30.848  29.013  1.00  0.00     0.049 A 
ATOM     36  H   UNL A   1      43.928  28.764  28.736  1.00  0.00     0.167 HD
ATOM     37  C   UNL A   1      46.429  30.188  28.581  1.00  0.00     0.074 A 
ATOM     38  C   UNL A   1      47.830  30.512  28.387  1.00  0.00     0.031 C 
ATOM     39  C   UNL A   1      45.465  31.110  28.816  1.00  0.00     0.031 A 
BRANCH  26  40
ATOM     40  C   UNL A   1      39.705  28.893  29.293  1.00  0.00    -0.014 A 
ATOM     41  C   UNL A   1      39.094  28.803  30.552  1.00  0.00     0.009 A 
ATOM     42  C   UNL A   1      38.921  29.236  28.179  1.00  0.00     0.009 A 
ATOM     43  C   UNL A   1      37.722  29.028  30.686  1.00  0.00     0.001 A 
ATOM     44  C   UNL A   1      37.556  29.483  28.318  1.00  0.00     0.001 A 
ATOM     45  C   UNL A   1      36.955  29.372  29.571  1.00  0.00     0.000 A 
ENDBRANCH  26  40
BRANCH  27  46
ATOM     46  C   UNL A   1      49.415  26.664  27.623  1.00  0.00    -0.014 A 
ATOM     47  C   UNL A   1      49.877  26.623  26.299  1.00  0.00     0.009 A 
ATOM     48  C   UNL A   1      50.316  26.356  28.657  1.00  0.00     0.009 A 
ATOM     49  C   UNL A   1      51.193  26.240  26.017  1.00  0.00     0.001 A 
ATOM     50  C   UNL A   1      51.640  26.012  28.377  1.00  0.00     0.001 A 
ATOM     51  C   UNL A   1      52.074  25.937  27.056  1.00  0.00     0.000 A 
ENDBRANCH  27  46
BRANCH  39  52
ATOM     52  C   UNL A   1      45.908  32.540  28.894  1.00  0.00    -0.014 A 
ATOM     53  C   UNL A   1      45.890  33.362  27.758  1.00  0.00     0.009 A 
ATOM     54  C   UNL A   1      46.286  33.080  30.132  1.00  0.00     0.009 A 
ATOM     55  C   UNL A   1      46.267  34.701  27.859  1.00  0.00     0.001 A 
ATOM     56  C   UNL A   1      46.628  34.427  30.234  1.00  0.00     0.001 A 
ATOM     57  C   UNL A   1      46.626  35.233  29.097  1.00  0.00     0.000 A 
ENDBRANCH  39  52
ENDBRANCH  13  14
ENDBRANCH   6   8
ENDBRANCH   5   6
ENDBRANCH   4   5
ENDBRANCH   3   4
ENDBRANCH   2   3
ENDBRANCH   1   2
BRANCH   1  58
ATOM     58  C   UNL A   1      35.746  22.625  25.193  1.00  0.00     0.261 C 
BRANCH  58  59
ATOM     59  O   UNL A   1      35.563  23.890  24.532  1.00  0.00    -0.460 OA
BRANCH  59  60
ATOM     60  C   UNL A   1      34.863  23.865  23.358  1.00  0.00     0.341 C 
ATOM     61  O   UNL A   1      35.048  23.147  22.402  1.00  0.00    -0.246 OA
BRANCH  60  62
ATOM     62  C   UNL A   1      33.725  24.801  23.507  1.00  0.00     0.102 A 
ATOM     63  C   UNL A   1      33.949  26.042  24.118  1.00  0.00     0.021 A 
ATOM     64  C   UNL A   1      32.425  24.443  23.104  1.00  0.00     0.140 A 
ATOM     65  C   UNL A   1      32.885  26.903  24.317  1.00  0.00     0.021 A 
ATOM     66  N   UNL A   1      31.388  25.285  23.326  1.00  0.00    -0.239 NA
ATOM     67  C   UNL A   1      31.635  26.484  23.903  1.00  0.00     0.113 A 
BRANCH  64  68
ATOM     68  N   UNL A   1      32.138  23.202  22.571  1.00  0.00    -0.363 N 
ATOM     69  H   UNL A   1      32.425  23.019  21.647  1.00  0.00     0.162 HD
BRANCH  68  70
ATOM     70  C   UNL A   1      31.432  22.138  23.297  1.00  0.00     0.184 C 
BRANCH  70  71
ATOM     71  C   UNL A   1      32.348  21.499  24.397  1.00  0.00     0.234 C 
BRANCH  71  72
ATOM     72  N   UNL A   1      31.872  21.644  25.793  1.00  0.00    -0.323 N 
ATOM     73  C   UNL A   1      30.548  22.282  25.925  1.00  0.00     0.291 C 
ATOM     74  C   UNL A   1      32.793  22.133  26.826  1.00  0.00     0.291 C 
ATOM     75  H   UNL A   1      31.794  20.651  26.012  1.00  0.00     0.348 HD
ATOM     76  C   UNL A   1      30.589  23.795  26.183  1.00  0.00     0.221 C 
ATOM     77  C   UNL A   1      32.707  23.635  27.175  1.00  0.00     0.221 C 
ATOM     78  O   UNL A   1      31.357  24.076  27.358  1.00  0.00    -0.370 OA
ENDBRANCH  71  72
BRANCH  71  79
ATOM     79  C   UNL A   1      32.776  20.099  23.980  1.00  0.00     0.011 A 
ATOM     80  C   UNL A   1      33.765  19.386  24.674  1.00  0.00     0.010 A 
ATOM     81  C   UNL A   1      32.128  19.471  22.906  1.00  0.00     0.010 A 
ATOM     82  C   UNL A   1      34.136  18.104  24.272  1.00  0.00     0.001 A 
ATOM     83  C   UNL A   1      32.480  18.178  22.520  1.00  0.00     0.001 A 
ATOM     84  C   UNL A   1      33.493  17.500  23.196  1.00  0.00     0.000 A 
ENDBRANCH  71  79
ENDBRANCH  70  71
ENDBRANCH  68  70
ENDBRANCH  64  68
ENDBRANCH  60  62
ENDBRANCH  59  60
ENDBRANCH  58  59
ENDBRANCH   1  58
TORSDOF 19
ENDMDL
MODEL 2
REMARK VINA RESULT:     -10.6      0.940      5.873
REMARK SMILES O=C(OCCOCCOC(=O)c1cccnc1NC[C@H](c1ccccc1)[NH+]1CCOCC1)c1ccc(-c2c3nc(c(-c4ccccc4)c4ccc([nH]4)c(-c4ccccc4)c4nc(c(-c5ccccc5)c5ccc2[nH]5)C=C4)C=C3)cc1
REMARK SMILES IDX 7 1 6 2 5 3 4 4 3 5 2 6 1 7 33 8 34 9 80 10 35 11 79 12
REMARK SMILES IDX 36 13 37 14 38 15 73 16 39 17 78 18 72 19 74 20 40 21 77 22
REMARK SMILES IDX 71 23 70 24 41 26 63 27 48 28 62 29 49 30 52 31 61 32 75 33
REMARK SMILES IDX 50 34 51 35 60 37 76 38 53 39 42 40 43 41 47 42 44 43 46 44
REMARK SMILES IDX 45 45 64 46 65 47 69 48 66 49 68 50 67 51 54 52 55 53 59 54
REMARK SMILES IDX 56 55 58 56 57 57 8 58 9 59 10 60 11 61 12 62 13 63 17 64
REMARK SMILES IDX 14 65 16 66 15 67 18 68 19 70 20 71 27 72 28 73 32 74 29 76
REMARK SMILES IDX 31 77 30 78 21 79 22 80 26 81 23 82 25 83 24 84
REMARK H PARENT 74 25 52 36 18 69 27 75
REMARK Flexibility Score: inf
ROOT
ATOM      1  C   UNL A   1      37.315  22.077  24.864  1.00  0.00     0.202 C 
ENDROOT
BRANCH   1   2
ATOM      2  O   UNL A   1      38.007  22.103  26.109  1.00  0.00    -0.374 OA
BRANCH   2   3
ATOM      3  C   UNL A   1      39.303  21.522  26.142  1.00  0.00     0.202 C 
BRANCH   3   4
ATOM      4  C   UNL A   1      39.404  20.127  25.529  1.00  0.00     0.261 C 
BRANCH   4   5
ATOM      5  O   UNL A   1      40.566  19.437  26.012  1.00  0.00    -0.460 OA
BRANCH   5   6
ATOM      6  C   UNL A   1      41.850  19.825  25.824  1.00  0.00     0.338 C 
ATOM      7  O   UNL A   1      42.632  19.082  25.236  1.00  0.00    -0.246 OA
BRANCH   6   8
ATOM      8  C   UNL A   1      42.359  21.136  26.313  1.00  0.00     0.060 A 
ATOM      9  C   UNL A   1      42.674  22.192  25.459  1.00  0.00     0.016 A 
ATOM     10  C   UNL A   1      42.404  21.368  27.692  1.00  0.00     0.016 A 
ATOM     11  C   UNL A   1      43.067  23.426  25.924  1.00  0.00     0.010 A 
ATOM     12  C   UNL A   1      42.720  22.641  28.180  1.00  0.00     0.010 A 
ATOM     13  C   UNL A   1      43.027  23.675  27.285  1.00  0.00    -0.014 A 
BRANCH  13  14
ATOM     14  C   UNL A   1      43.299  25.054  27.711  1.00  0.00     0.031 A 
ATOM     15  C   UNL A   1      44.715  25.499  27.828  1.00  0.00     0.074 A 
ATOM     16  C   UNL A   1      42.262  25.900  27.863  1.00  0.00     0.049 A 
ATOM     17  N   UNL A   1      45.182  26.623  28.293  1.00  0.00    -0.248 NA
ATOM     18  C   UNL A   1      45.745  24.559  27.352  1.00  0.00     0.031 C 
ATOM     19  C   UNL A   1      40.852  25.568  27.612  1.00  0.00     0.029 A 
ATOM     20  N   UNL A   1      42.226  27.216  28.233  1.00  0.00    -0.354 N 
ATOM     21  C   UNL A   1      46.562  26.504  28.221  1.00  0.00     0.074 A 
ATOM     22  C   UNL A   1      46.860  25.213  27.645  1.00  0.00     0.031 C 
ATOM     23  C   UNL A   1      40.097  26.659  27.819  1.00  0.00     0.029 A 
ATOM     24  C   UNL A   1      40.952  27.726  28.315  1.00  0.00     0.049 A 
ATOM     25  H   UNL A   1      43.033  27.745  28.422  1.00  0.00     0.167 HD
ATOM     26  C   UNL A   1      47.484  27.399  28.637  1.00  0.00     0.031 A 
ATOM     27  C   UNL A   1      40.528  28.903  28.808  1.00  0.00     0.031 A 
ATOM     28  C   UNL A   1      47.135  28.672  29.202  1.00  0.00     0.049 A 
ATOM     29  C   UNL A   1      41.573  29.829  29.364  1.00  0.00     0.074 A 
ATOM     30  C   UNL A   1      47.969  29.655  29.698  1.00  0.00     0.029 A 
ATOM     31  N   UNL A   1      45.832  29.131  29.346  1.00  0.00    -0.354 N 
ATOM     32  N   UNL A   1      42.880  29.698  29.349  1.00  0.00    -0.248 NA
ATOM     33  C   UNL A   1      41.094  31.045  30.030  1.00  0.00     0.031 C 
ATOM     34  C   UNL A   1      47.165  30.683  30.201  1.00  0.00     0.029 A 
ATOM     35  C   UNL A   1      45.835  30.367  29.962  1.00  0.00     0.049 A 
ATOM     36  H   UNL A   1      45.027  28.647  29.054  1.00  0.00     0.167 HD
ATOM     37  C   UNL A   1      43.380  30.815  30.000  1.00  0.00     0.074 A 
ATOM     38  C   UNL A   1      42.236  31.630  30.361  1.00  0.00     0.031 C 
ATOM     39  C   UNL A   1      44.663  31.138  30.292  1.00  0.00     0.031 A 
BRANCH  26  40
ATOM     40  C   UNL A   1      48.922  26.980  28.592  1.00  0.00    -0.014 A 
ATOM     41  C   UNL A   1      49.744  27.255  27.489  1.00  0.00     0.009 A 
ATOM     42  C   UNL A   1      49.461  26.288  29.689  1.00  0.00     0.009 A 
ATOM     43  C   UNL A   1      51.072  26.823  27.479  1.00  0.00     0.001 A 
ATOM     44  C   UNL A   1      50.794  25.878  29.685  1.00  0.00     0.001 A 
ATOM     45  C   UNL A   1      51.598  26.140  28.576  1.00  0.00     0.000 A 
ENDBRANCH  26  40
BRANCH  27  46
ATOM     46  C   UNL A   1      39.075  29.213  28.923  1.00  0.00    -0.014 A 
ATOM     47  C   UNL A   1      38.374  28.979  30.114  1.00  0.00     0.009 A 
ATOM     48  C   UNL A   1      38.364  29.702  27.812  1.00  0.00     0.009 A 
ATOM     49  C   UNL A   1      36.992  29.186  30.178  1.00  0.00     0.001 A 
ATOM     50  C   UNL A   1      36.992  29.944  27.888  1.00  0.00     0.001 A 
ATOM     51  C   UNL A   1      36.302  29.670  29.066  1.00  0.00     0.000 A 
ENDBRANCH  27  46
BRANCH  39  52
ATOM     52  C   UNL A   1      44.881  32.432  31.015  1.00  0.00    -0.014 A 
ATOM     53  C   UNL A   1      45.061  33.631  30.309  1.00  0.00     0.009 A 
ATOM     54  C   UNL A   1      44.841  32.456  32.417  1.00  0.00     0.009 A 
ATOM     55  C   UNL A   1      45.222  34.832  31.000  1.00  0.00     0.001 A 
ATOM     56  C   UNL A   1      44.967  33.663  33.102  1.00  0.00     0.001 A 
ATOM     57  C   UNL A   1      45.165  34.847  32.393  1.00  0.00     0.000 A 
ENDBRANCH  39  52
ENDBRANCH  13  14
ENDBRANCH   6   8
ENDBRANCH   5   6
ENDBRANCH   4   5
ENDBRANCH   3   4
ENDBRANCH   2   3
ENDBRANCH   1   2
BRANCH   1  58
ATOM     58  C   UNL A   1      35.841  22.358  25.158  1.00  0.00     0.261 C 
BRANCH  58  59
ATOM     59  O   UNL A   1      35.534  23.684  24.689  1.00  0.00    -0.460 OA
BRANCH  59  60
ATOM     60  C   UNL A   1      34.973  23.772  23.445  1.00  0.00     0.341 C 
ATOM     61  O   UNL A   1      35.255  23.130  22.459  1.00  0.00    -0.246 OA
BRANCH  60  62
ATOM     62  C   UNL A   1      33.840  24.721  23.543  1.00  0.00     0.102 A 
ATOM     63  C   UNL A   1      34.051  25.961  24.161  1.00  0.00     0.021 A 
ATOM     64  C   UNL A   1      32.554  24.377  23.085  1.00  0.00     0.140 A 
ATOM     65  C   UNL A   1      32.989  26.834  24.312  1.00  0.00     0.021 A 
ATOM     66  N   UNL A   1      31.519  25.230  23.261  1.00  0.00    -0.239 NA
ATOM     67  C   UNL A   1      31.754  26.428  23.845  1.00  0.00     0.113 A 
BRANCH  64  68
ATOM     68  N   UNL A   1      32.278  23.137  22.542  1.00  0.00    -0.363 N 
ATOM     69  H   UNL A   1      32.584  22.956  21.624  1.00  0.00     0.162 HD
BRANCH  68  70
ATOM     70  C   UNL A   1      31.554  22.072  23.250  1.00  0.00     0.184 C 
BRANCH  70  71
ATOM     71  C   UNL A   1      32.443  21.433  24.371  1.00  0.00     0.234 C 
BRANCH  71  72
ATOM     72  N   UNL A   1      31.949  21.604  25.758  1.00  0.00    -0.323 N 
ATOM     73  C   UNL A   1      30.615  22.227  25.860  1.00  0.00     0.291 C 
ATOM     74  C   UNL A   1      32.853  22.130  26.789  1.00  0.00     0.291 C 
ATOM     75  H   UNL A   1      31.883  20.615  26.000  1.00  0.00     0.348 HD
ATOM     76  C   UNL A   1      30.634  23.746  26.083  1.00  0.00     0.221 C 
ATOM     77  C   UNL A   1      32.743  23.639  27.101  1.00  0.00     0.221 C 
ATOM     78  O   UNL A   1      31.385  24.065  27.259  1.00  0.00    -0.370 OA
ENDBRANCH  71  72
BRANCH  71  79
ATOM     79  C   UNL A   1      32.852  20.020  23.978  1.00  0.00     0.011 A 
ATOM     80  C   UNL A   1      33.873  19.328  24.648  1.00  0.00     0.010 A 
ATOM     81  C   UNL A   1      32.155  19.359  22.956  1.00  0.00     0.010 A 
ATOM     82  C   UNL A   1      34.225  18.034  24.269  1.00  0.00     0.001 A 
ATOM     83  C   UNL A   1      32.489  18.054  22.595  1.00  0.00     0.001 A 
ATOM     84  C   UNL A   1      33.533  17.397  23.243  1.00  0.00     0.000 A 
ENDBRANCH  71  79
ENDBRANCH  70  71
ENDBRANCH  68  70
ENDBRANCH  64  68
ENDBRANCH  60  62
ENDBRANCH  59  60
ENDBRANCH  58  59
ENDBRANCH   1  58
TORSDOF 19
ENDMDL
MODEL 3
REMARK VINA RESULT:     -10.5      4.238      8.597
REMARK SMILES O=C(OCCOCCOC(=O)c1cccnc1NC[C@H](c1ccccc1)[NH+]1CCOCC1)c1ccc(-c2c3nc(c(-c4ccccc4)c4ccc([nH]4)c(-c4ccccc4)c4nc(c(-c5ccccc5)c5ccc2[nH]5)C=C4)C=C3)cc1
REMARK SMILES IDX 7 1 6 2 5 3 4 4 3 5 2 6 1 7 33 8 34 9 80 10 35 11 79 12
REMARK SMILES IDX 36 13 37 14 38 15 73 16 39 17 78 18 72 19 74 20 40 21 77 22
REMARK SMILES IDX 71 23 70 24 41 26 63 27 48 28 62 29 49 30 52 31 61 32 75 33
REMARK SMILES IDX 50 34 51 35 60 37 76 38 53 39 42 40 43 41 47 42 44 43 46 44
REMARK SMILES IDX 45 45 64 46 65 47 69 48 66 49 68 50 67 51 54 52 55 53 59 54
REMARK SMILES IDX 56 55 58 56 57 57 8 58 9 59 10 60 11 61 12 62 13 63 17 64
REMARK SMILES IDX 14 65 16 66 15 67 18 68 19 70 20 71 27 72 28 73 32 74 29 76
REMARK SMILES IDX 31 77 30 78 21 79 22 80 26 81 23 82 25 83 24 84
REMARK H PARENT 74 25 52 36 18 69 27 75
REMARK Flexibility Score: inf
ROOT
ATOM      1  C   UNL A   1      34.604  29.385  27.025  1.00  0.00     0.202 C 
ENDROOT
BRANCH   1   2
ATOM      2  O   UNL A   1      34.352  30.763  27.284  1.00  0.00    -0.374 OA
BRANCH   2   3
ATOM      3  C   UNL A   1      32.996  31.154  27.448  1.00  0.00     0.202 C 
BRANCH   3   4
ATOM      4  C   UNL A   1      32.649  32.536  26.899  1.00  0.00     0.261 C 
BRANCH   4   5
ATOM      5  O   UNL A   1      32.307  33.439  27.961  1.00  0.00    -0.460 OA
BRANCH   5   6
ATOM      6  C   UNL A   1      33.161  34.287  28.584  1.00  0.00     0.338 C 
ATOM      7  O   UNL A   1      32.880  35.479  28.674  1.00  0.00    -0.246 OA
BRANCH   6   8
ATOM      8  C   UNL A   1      34.448  33.821  29.172  1.00  0.00     0.060 A 
ATOM      9  C   UNL A   1      34.513  32.989  30.288  1.00  0.00     0.016 A 
ATOM     10  C   UNL A   1      35.640  34.124  28.504  1.00  0.00     0.016 A 
ATOM     11  C   UNL A   1      35.704  32.500  30.775  1.00  0.00     0.010 A 
ATOM     12  C   UNL A   1      36.848  33.567  28.937  1.00  0.00     0.010 A 
ATOM     13  C   UNL A   1      36.868  32.732  30.063  1.00  0.00    -0.014 A 
BRANCH  13  14
ATOM     14  C   UNL A   1      38.079  32.051  30.539  1.00  0.00     0.031 A 
ATOM     15  C   UNL A   1      38.839  32.654  31.668  1.00  0.00     0.074 A 
ATOM     16  C   UNL A   1      38.390  30.847  30.021  1.00  0.00     0.049 A 
ATOM     17  N   UNL A   1      39.986  32.289  32.167  1.00  0.00    -0.248 NA
ATOM     18  C   UNL A   1      38.226  33.818  32.332  1.00  0.00     0.031 C 
ATOM     19  C   UNL A   1      37.596  30.125  29.016  1.00  0.00     0.029 A 
ATOM     20  N   UNL A   1      39.432  30.002  30.282  1.00  0.00    -0.354 N 
ATOM     21  C   UNL A   1      40.262  33.213  33.165  1.00  0.00     0.074 A 
ATOM     22  C   UNL A   1      39.155  34.139  33.221  1.00  0.00     0.031 C 
ATOM     23  C   UNL A   1      38.175  28.941  28.763  1.00  0.00     0.029 A 
ATOM     24  C   UNL A   1      39.424  28.868  29.504  1.00  0.00     0.049 A 
ATOM     25  H   UNL A   1      40.120  30.187  30.960  1.00  0.00     0.167 HD
ATOM     26  C   UNL A   1      41.370  33.280  33.934  1.00  0.00     0.031 A 
ATOM     27  C   UNL A   1      40.366  27.919  29.360  1.00  0.00     0.031 A 
ATOM     28  C   UNL A   1      42.444  32.332  33.840  1.00  0.00     0.049 A 
ATOM     29  C   UNL A   1      41.633  28.086  30.151  1.00  0.00     0.074 A 
ATOM     30  C   UNL A   1      43.638  32.307  34.533  1.00  0.00     0.029 A 
ATOM     31  N   UNL A   1      42.445  31.236  32.986  1.00  0.00    -0.354 N 
ATOM     32  N   UNL A   1      41.924  28.990  31.057  1.00  0.00    -0.248 NA
ATOM     33  C   UNL A   1      42.712  27.128  29.883  1.00  0.00     0.031 C 
ATOM     34  C   UNL A   1      44.389  31.230  34.052  1.00  0.00     0.029 A 
ATOM     35  C   UNL A   1      43.637  30.549  33.104  1.00  0.00     0.049 A 
ATOM     36  H   UNL A   1      41.706  30.987  32.386  1.00  0.00     0.167 HD
ATOM     37  C   UNL A   1      43.217  28.710  31.471  1.00  0.00     0.074 A 
ATOM     38  C   UNL A   1      43.637  27.527  30.743  1.00  0.00     0.031 C 
ATOM     39  C   UNL A   1      43.999  29.372  32.357  1.00  0.00     0.031 A 
BRANCH  26  40
ATOM     40  C   UNL A   1      41.507  34.462  34.844  1.00  0.00    -0.014 A 
ATOM     41  C   UNL A   1      42.085  35.667  34.419  1.00  0.00     0.009 A 
ATOM     42  C   UNL A   1      41.042  34.358  36.165  1.00  0.00     0.009 A 
ATOM     43  C   UNL A   1      42.216  36.736  35.309  1.00  0.00     0.001 A 
ATOM     44  C   UNL A   1      41.153  35.435  37.045  1.00  0.00     0.001 A 
ATOM     45  C   UNL A   1      41.747  36.622  36.618  1.00  0.00     0.000 A 
ENDBRANCH  26  40
BRANCH  27  46
ATOM     46  C   UNL A   1      40.213  26.827  28.358  1.00  0.00    -0.014 A 
ATOM     47  C   UNL A   1      40.757  26.941  27.070  1.00  0.00     0.009 A 
ATOM     48  C   UNL A   1      39.470  25.675  28.671  1.00  0.00     0.009 A 
ATOM     49  C   UNL A   1      40.526  25.950  26.110  1.00  0.00     0.001 A 
ATOM     50  C   UNL A   1      39.272  24.668  27.724  1.00  0.00     0.001 A 
ATOM     51  C   UNL A   1      39.785  24.814  26.438  1.00  0.00     0.000 A 
ENDBRANCH  27  46
BRANCH  39  52
ATOM     52  C   UNL A   1      45.369  28.812  32.591  1.00  0.00    -0.014 A 
ATOM     53  C   UNL A   1      46.468  29.256  31.840  1.00  0.00     0.009 A 
ATOM     54  C   UNL A   1      45.568  27.876  33.616  1.00  0.00     0.009 A 
ATOM     55  C   UNL A   1      47.742  28.753  32.101  1.00  0.00     0.001 A 
ATOM     56  C   UNL A   1      46.848  27.402  33.896  1.00  0.00     0.001 A 
ATOM     57  C   UNL A   1      47.931  27.835  33.133  1.00  0.00     0.000 A 
ENDBRANCH  39  52
ENDBRANCH  13  14
ENDBRANCH   6   8
ENDBRANCH   5   6
ENDBRANCH   4   5
ENDBRANCH   3   4
ENDBRANCH   2   3
ENDBRANCH   1   2
BRANCH   1  58
ATOM     58  C   UNL A   1      33.301  28.629  27.287  1.00  0.00     0.261 C 
BRANCH  58  59
ATOM     59  O   UNL A   1      33.268  27.477  26.424  1.00  0.00    -0.460 OA
BRANCH  59  60
ATOM     60  C   UNL A   1      32.031  27.054  26.024  1.00  0.00     0.341 C 
ATOM     61  O   UNL A   1      31.273  26.321  26.617  1.00  0.00    -0.246 OA
BRANCH  60  62
ATOM     62  C   UNL A   1      31.710  27.769  24.767  1.00  0.00     0.102 A 
ATOM     63  C   UNL A   1      30.591  28.613  24.740  1.00  0.00     0.021 A 
ATOM     64  C   UNL A   1      32.466  27.570  23.597  1.00  0.00     0.140 A 
ATOM     65  C   UNL A   1      30.244  29.241  23.558  1.00  0.00     0.021 A 
ATOM     66  N   UNL A   1      32.101  28.173  22.441  1.00  0.00    -0.239 NA
ATOM     67  C   UNL A   1      31.027  28.995  22.447  1.00  0.00     0.113 A 
BRANCH  64  68
ATOM     68  N   UNL A   1      33.527  26.688  23.552  1.00  0.00    -0.363 N 
ATOM     69  H   UNL A   1      34.377  26.968  23.964  1.00  0.00     0.162 HD
BRANCH  68  70
ATOM     70  C   UNL A   1      33.468  25.359  22.928  1.00  0.00     0.184 C 
BRANCH  70  71
ATOM     71  C   UNL A   1      33.351  24.231  24.010  1.00  0.00     0.234 C 
BRANCH  71  72
ATOM     72  N   UNL A   1      32.256  23.254  23.802  1.00  0.00    -0.323 N 
ATOM     73  C   UNL A   1      31.391  23.043  24.978  1.00  0.00     0.291 C 
ATOM     74  C   UNL A   1      32.539  21.982  23.125  1.00  0.00     0.291 C 
ATOM     75  H   UNL A   1      31.743  23.777  23.091  1.00  0.00     0.348 HD
ATOM     76  C   UNL A   1      31.783  21.844  25.854  1.00  0.00     0.221 C 
ATOM     77  C   UNL A   1      32.780  20.755  24.033  1.00  0.00     0.221 C 
ATOM     78  O   UNL A   1      31.800  20.645  25.072  1.00  0.00    -0.370 OA
ENDBRANCH  71  72
BRANCH  71  79
ATOM     79  C   UNL A   1      34.722  23.642  24.309  1.00  0.00     0.011 A 
ATOM     80  C   UNL A   1      35.186  23.468  25.621  1.00  0.00     0.010 A 
ATOM     81  C   UNL A   1      35.531  23.205  23.249  1.00  0.00     0.010 A 
ATOM     82  C   UNL A   1      36.446  22.924  25.866  1.00  0.00     0.001 A 
ATOM     83  C   UNL A   1      36.780  22.635  23.496  1.00  0.00     0.001 A 
ATOM     84  C   UNL A   1      37.242  22.507  24.804  1.00  0.00     0.000 A 
ENDBRANCH  71  79
ENDBRANCH  70  71
ENDBRANCH  68  70
ENDBRANCH  64  68
ENDBRANCH  60  62
ENDBRANCH  59  60
ENDBRANCH  58  59
ENDBRANCH   1  58
TORSDOF 19
ENDMDL
