MODEL 1
REMARK VINA RESULT:     -12.3      0.000      0.000
REMARK SMILES COc1cc([C@H]2c3c(-c4ccccc4)n[nH]c3C(=O)N2c2ccc(C(=O)OCCOCCOC(=O)c3ccc(-c4c5nc(c(-c6ccccc6)c6ccc([nH]6)c(-c6ccccc6)c6nc(c(-c7ccccc7)c7ccc4[nH]7)C=C6)C=C5)cc3)cc2)ccc1O
REMARK SMILES IDX 29 1 28 2 27 3 25 4 26 5 24 6 21 7 22 8 85 9 23 10 84 11
REMARK SMILES IDX 20 12 6 13 7 14 8 15 17 16 18 17 15 18 16 19 19 20 5 22 3 23
REMARK SMILES IDX 4 24 88 25 87 26 86 27 2 28 1 29 89 30 9 32 10 33 14 34
REMARK SMILES IDX 11 35 13 36 12 37 30 38 31 39 32 40 33 41 34 42 35 43 36 44
REMARK SMILES IDX 37 45 83 46 38 47 82 48 39 49 40 50 41 51 76 52 42 53 81 54
REMARK SMILES IDX 75 55 77 56 43 57 80 58 74 59 73 60 44 62 66 63 51 64 65 65
REMARK SMILES IDX 52 66 55 67 64 68 78 69 53 70 54 71 63 73 79 74 56 75 45 76
REMARK SMILES IDX 46 77 50 78 47 79 49 80 48 81 67 82 68 83 72 84 69 85 71 86
REMARK SMILES IDX 70 87 57 88 58 89 62 90 59 91 61 92 60 93
REMARK H PARENT 16 21 89 31 77 61 55 72
REMARK Flexibility Score: inf
ROOT
ATOM      1  C   UNL A   1      41.912  21.245  26.663  1.00  0.00     0.202 C 
ENDROOT
BRANCH   1   2
ATOM      2  C   UNL A   1      40.496  21.210  27.246  1.00  0.00     0.261 C 
BRANCH   2   3
ATOM      3  O   UNL A   1      39.559  21.989  26.483  1.00  0.00    -0.460 OA
BRANCH   3   4
ATOM      4  C   UNL A   1      38.688  21.257  25.744  1.00  0.00     0.338 C 
ATOM      5  O   UNL A   1      38.850  20.127  25.318  1.00  0.00    -0.246 OA
BRANCH   4   6
ATOM      6  C   UNL A   1      37.390  21.955  25.659  1.00  0.00     0.060 A 
ATOM      7  C   UNL A   1      34.950  23.314  25.746  1.00  0.00     0.045 A 
ATOM      8  C   UNL A   1      36.132  23.983  26.074  1.00  0.00     0.027 A 
ATOM      9  C   UNL A   1      35.006  21.982  25.306  1.00  0.00     0.027 A 
ATOM     10  C   UNL A   1      37.343  23.293  26.068  1.00  0.00     0.018 A 
ATOM     11  C   UNL A   1      36.229  21.309  25.231  1.00  0.00     0.018 A 
BRANCH   7  12
ATOM     12  N   UNL A   1      33.707  23.928  26.002  1.00  0.00    -0.295 N 
ATOM     13  C   UNL A   1      33.326  25.202  25.298  1.00  0.00     0.156 C 
ATOM     14  C   UNL A   1      31.908  25.301  25.702  1.00  0.00     0.038 A 
ATOM     15  C   UNL A   1      30.779  26.136  25.712  1.00  0.00     0.099 A 
ATOM     16  C   UNL A   1      31.569  24.236  26.484  1.00  0.00     0.129 A 
ATOM     17  C   UNL A   1      32.626  23.307  26.659  1.00  0.00     0.277 C 
ATOM     18  N   UNL A   1      29.803  25.586  26.473  1.00  0.00    -0.174 NA
ATOM     19  N   UNL A   1      30.314  24.415  26.918  1.00  0.00    -0.272 N 
ATOM     20  O   UNL A   1      32.579  22.252  27.256  1.00  0.00    -0.267 OA
ATOM     21  H   UNL A   1      29.825  23.777  27.487  1.00  0.00     0.190 HD
BRANCH  13  22
ATOM     22  C   UNL A   1      33.449  25.049  23.788  1.00  0.00    -0.016 A 
ATOM     23  C   UNL A   1      33.077  23.568  21.856  1.00  0.00     0.160 A 
ATOM     24  C   UNL A   1      33.287  23.765  23.230  1.00  0.00     0.056 A 
ATOM     25  C   UNL A   1      33.046  24.687  21.023  1.00  0.00     0.157 A 
ATOM     26  C   UNL A   1      33.286  25.961  21.538  1.00  0.00     0.050 A 
ATOM     27  C   UNL A   1      33.482  26.144  22.909  1.00  0.00     0.010 A 
BRANCH  23  28
ATOM     28  O   UNL A   1      32.869  22.257  21.529  1.00  0.00    -0.493 OA
ATOM     29  C   UNL A   1      32.004  21.470  22.335  1.00  0.00     0.278 C 
ENDBRANCH  23  28
BRANCH  25  30
ATOM     30  O   UNL A   1      32.710  24.641  19.700  1.00  0.00    -0.504 OA
ATOM     31  H   UNL A   1      32.146  23.963  19.384  1.00  0.00     0.293 HD
ENDBRANCH  25  30
ENDBRANCH  13  22
BRANCH  15  32
ATOM     32  C   UNL A   1      30.579  27.432  25.084  1.00  0.00     0.002 A 
ATOM     33  C   UNL A   1      29.714  27.553  23.988  1.00  0.00     0.010 A 
ATOM     34  C   UNL A   1      31.299  28.551  25.519  1.00  0.00     0.010 A 
ATOM     35  C   UNL A   1      29.567  28.779  23.337  1.00  0.00     0.001 A 
ATOM     36  C   UNL A   1      31.159  29.773  24.858  1.00  0.00     0.001 A 
ATOM     37  C   UNL A   1      30.293  29.887  23.770  1.00  0.00     0.000 A 
ENDBRANCH  15  32
ENDBRANCH   7  12
ENDBRANCH   4   6
ENDBRANCH   3   4
ENDBRANCH   2   3
ENDBRANCH   1   2
BRANCH   1  38
ATOM     38  O   UNL A   1      42.716  20.073  26.787  1.00  0.00    -0.374 OA
BRANCH  38  39
ATOM     39  C   UNL A   1      42.706  19.110  25.741  1.00  0.00     0.202 C 
BRANCH  39  40
ATOM     40  C   UNL A   1      44.026  18.473  25.332  1.00  0.00     0.261 C 
BRANCH  40  41
ATOM     41  O   UNL A   1      45.075  19.416  25.149  1.00  0.00    -0.460 OA
BRANCH  41  42
ATOM     42  C   UNL A   1      44.862  20.257  24.110  1.00  0.00     0.338 C 
ATOM     43  O   UNL A   1      44.801  19.967  22.926  1.00  0.00    -0.246 OA
BRANCH  42  44
ATOM     44  C   UNL A   1      44.925  21.637  24.599  1.00  0.00     0.060 A 
ATOM     45  C   UNL A   1      45.671  21.859  25.757  1.00  0.00     0.016 A 
ATOM     46  C   UNL A   1      44.057  22.612  24.080  1.00  0.00     0.016 A 
ATOM     47  C   UNL A   1      45.416  22.995  26.492  1.00  0.00     0.010 A 
ATOM     48  C   UNL A   1      43.796  23.743  24.823  1.00  0.00     0.010 A 
ATOM     49  C   UNL A   1      44.427  23.888  26.054  1.00  0.00    -0.014 A 
BRANCH  49  50
ATOM     50  C   UNL A   1      44.220  25.096  26.826  1.00  0.00     0.031 A 
ATOM     51  C   UNL A   1      45.306  26.075  26.601  1.00  0.00     0.074 A 
ATOM     52  C   UNL A   1      43.144  25.339  27.596  1.00  0.00     0.049 A 
ATOM     53  N   UNL A   1      46.232  26.386  27.440  1.00  0.00    -0.248 NA
ATOM     54  C   UNL A   1      45.517  26.600  25.242  1.00  0.00     0.031 C 
ATOM     55  C   UNL A   1      41.915  24.556  27.725  1.00  0.00     0.029 A 
ATOM     56  N   UNL A   1      42.891  26.424  28.378  1.00  0.00    -0.354 N 
ATOM     57  C   UNL A   1      47.017  27.329  26.795  1.00  0.00     0.074 A 
ATOM     58  C   UNL A   1      46.659  27.269  25.400  1.00  0.00     0.031 C 
ATOM     59  C   UNL A   1      40.966  25.315  28.324  1.00  0.00     0.029 A 
ATOM     60  C   UNL A   1      41.556  26.581  28.732  1.00  0.00     0.049 A 
ATOM     61  H   UNL A   1      43.596  27.048  28.669  1.00  0.00     0.167 HD
ATOM     62  C   UNL A   1      47.658  28.289  27.514  1.00  0.00     0.031 A 
ATOM     63  C   UNL A   1      40.980  27.691  29.263  1.00  0.00     0.031 A 
ATOM     64  C   UNL A   1      47.763  27.922  28.908  1.00  0.00     0.049 A 
ATOM     65  C   UNL A   1      42.061  28.507  29.870  1.00  0.00     0.074 A 
ATOM     66  C   UNL A   1      48.275  26.831  29.584  1.00  0.00     0.029 A 
ATOM     67  N   UNL A   1      46.906  28.542  29.787  1.00  0.00    -0.354 N 
ATOM     68  N   UNL A   1      42.707  28.140  30.938  1.00  0.00    -0.248 NA
ATOM     69  C   UNL A   1      42.751  29.466  29.020  1.00  0.00     0.031 C 
ATOM     70  C   UNL A   1      47.340  26.576  30.630  1.00  0.00     0.029 A 
ATOM     71  C   UNL A   1      46.368  27.576  30.596  1.00  0.00     0.049 A 
ATOM     72  H   UNL A   1      46.712  29.507  29.827  1.00  0.00     0.167 HD
ATOM     73  C   UNL A   1      44.034  28.419  30.649  1.00  0.00     0.074 A 
ATOM     74  C   UNL A   1      43.992  29.319  29.494  1.00  0.00     0.031 C 
ATOM     75  C   UNL A   1      45.045  27.661  31.169  1.00  0.00     0.031 A 
BRANCH  62  76
ATOM     76  C   UNL A   1      47.709  29.726  27.059  1.00  0.00    -0.014 A 
ATOM     77  C   UNL A   1      48.919  30.425  27.207  1.00  0.00     0.009 A 
ATOM     78  C   UNL A   1      46.558  30.496  26.801  1.00  0.00     0.009 A 
ATOM     79  C   UNL A   1      48.951  31.825  27.207  1.00  0.00     0.001 A 
ATOM     80  C   UNL A   1      46.594  31.891  26.756  1.00  0.00     0.001 A 
ATOM     81  C   UNL A   1      47.787  32.555  26.994  1.00  0.00     0.000 A 
ENDBRANCH  62  76
BRANCH  63  82
ATOM     82  C   UNL A   1      39.617  28.235  29.042  1.00  0.00    -0.014 A 
ATOM     83  C   UNL A   1      38.684  28.305  30.094  1.00  0.00     0.009 A 
ATOM     84  C   UNL A   1      39.313  28.944  27.866  1.00  0.00     0.009 A 
ATOM     85  C   UNL A   1      37.523  29.087  29.986  1.00  0.00     0.001 A 
ATOM     86  C   UNL A   1      38.153  29.719  27.755  1.00  0.00     0.001 A 
ATOM     87  C   UNL A   1      37.266  29.804  28.821  1.00  0.00     0.000 A 
ENDBRANCH  63  82
BRANCH  75  88
ATOM     88  C   UNL A   1      44.720  26.665  32.255  1.00  0.00    -0.014 A 
ATOM     89  C   UNL A   1      44.507  25.295  32.021  1.00  0.00     0.009 A 
ATOM     90  C   UNL A   1      44.794  27.105  33.585  1.00  0.00     0.009 A 
ATOM     91  C   UNL A   1      44.341  24.403  33.088  1.00  0.00     0.001 A 
ATOM     92  C   UNL A   1      44.653  26.214  34.649  1.00  0.00     0.001 A 
ATOM     93  C   UNL A   1      44.421  24.864  34.402  1.00  0.00     0.000 A 
ENDBRANCH  75  88
ENDBRANCH  49  50
ENDBRANCH  42  44
ENDBRANCH  41  42
ENDBRANCH  40  41
ENDBRANCH  39  40
ENDBRANCH  38  39
ENDBRANCH   1  38
TORSDOF 19
ENDMDL
MODEL 2
REMARK VINA RESULT:     -11.7      3.361      5.499
REMARK SMILES COc1cc([C@H]2c3c(-c4ccccc4)n[nH]c3C(=O)N2c2ccc(C(=O)OCCOCCOC(=O)c3ccc(-c4c5nc(c(-c6ccccc6)c6ccc([nH]6)c(-c6ccccc6)c6nc(c(-c7ccccc7)c7ccc4[nH]7)C=C6)C=C5)cc3)cc2)ccc1O
REMARK SMILES IDX 29 1 28 2 27 3 25 4 26 5 24 6 21 7 22 8 85 9 23 10 84 11
REMARK SMILES IDX 20 12 6 13 7 14 8 15 17 16 18 17 15 18 16 19 19 20 5 22 3 23
REMARK SMILES IDX 4 24 88 25 87 26 86 27 2 28 1 29 89 30 9 32 10 33 14 34
REMARK SMILES IDX 11 35 13 36 12 37 30 38 31 39 32 40 33 41 34 42 35 43 36 44
REMARK SMILES IDX 37 45 83 46 38 47 82 48 39 49 40 50 41 51 76 52 42 53 81 54
REMARK SMILES IDX 75 55 77 56 43 57 80 58 74 59 73 60 44 62 66 63 51 64 65 65
REMARK SMILES IDX 52 66 55 67 64 68 78 69 53 70 54 71 63 73 79 74 56 75 45 76
REMARK SMILES IDX 46 77 50 78 47 79 49 80 48 81 67 82 68 83 72 84 69 85 71 86
REMARK SMILES IDX 70 87 57 88 58 89 62 90 59 91 61 92 60 93
REMARK H PARENT 16 21 89 31 77 61 55 72
REMARK Flexibility Score: inf
ROOT
ATOM      1  C   UNL A   1      41.641  21.484  26.127  1.00  0.00     0.202 C 
ENDROOT
BRANCH   1   2
ATOM      2  C   UNL A   1      40.193  21.294  26.591  1.00  0.00     0.261 C 
BRANCH   2   3
ATOM      3  O   UNL A   1      39.261  22.100  25.851  1.00  0.00    -0.460 OA
BRANCH   3   4
ATOM      4  C   UNL A   1      38.172  21.429  25.400  1.00  0.00     0.338 C 
ATOM      5  O   UNL A   1      38.146  20.323  24.887  1.00  0.00    -0.246 OA
BRANCH   4   6
ATOM      6  C   UNL A   1      36.941  22.153  25.778  1.00  0.00     0.060 A 
ATOM      7  C   UNL A   1      34.500  23.406  26.302  1.00  0.00     0.045 A 
ATOM      8  C   UNL A   1      34.608  22.017  26.411  1.00  0.00     0.027 A 
ATOM      9  C   UNL A   1      35.638  24.167  25.998  1.00  0.00     0.027 A 
ATOM     10  C   UNL A   1      35.816  21.390  26.111  1.00  0.00     0.018 A 
ATOM     11  C   UNL A   1      36.869  23.546  25.767  1.00  0.00     0.018 A 
BRANCH   7  12
ATOM     12  N   UNL A   1      33.228  24.012  26.347  1.00  0.00    -0.295 N 
ATOM     13  C   UNL A   1      32.905  25.175  25.448  1.00  0.00     0.156 C 
ATOM     14  C   UNL A   1      31.450  25.285  25.688  1.00  0.00     0.038 A 
ATOM     15  C   UNL A   1      30.315  26.082  25.474  1.00  0.00     0.099 A 
ATOM     16  C   UNL A   1      31.047  24.318  26.562  1.00  0.00     0.129 A 
ATOM     17  C   UNL A   1      32.093  23.449  26.964  1.00  0.00     0.277 C 
ATOM     18  N   UNL A   1      29.272  25.606  26.195  1.00  0.00    -0.174 NA
ATOM     19  N   UNL A   1      29.750  24.515  26.838  1.00  0.00    -0.272 N 
ATOM     20  O   UNL A   1      31.999  22.478  27.684  1.00  0.00    -0.267 OA
ATOM     21  H   UNL A   1      29.214  23.941  27.432  1.00  0.00     0.190 HD
BRANCH  13  22
ATOM     22  C   UNL A   1      33.189  24.836  23.992  1.00  0.00    -0.016 A 
ATOM     23  C   UNL A   1      32.860  23.196  22.183  1.00  0.00     0.160 A 
ATOM     24  C   UNL A   1      32.926  23.524  23.547  1.00  0.00     0.056 A 
ATOM     25  C   UNL A   1      33.079  24.207  21.248  1.00  0.00     0.157 A 
ATOM     26  C   UNL A   1      33.423  25.494  21.661  1.00  0.00     0.050 A 
ATOM     27  C   UNL A   1      33.474  25.810  23.021  1.00  0.00     0.010 A 
BRANCH  23  28
ATOM     28  O   UNL A   1      32.519  21.890  21.963  1.00  0.00    -0.493 OA
ATOM     29  C   UNL A   1      32.317  21.029  23.074  1.00  0.00     0.278 C 
ENDBRANCH  23  28
BRANCH  25  30
ATOM     30  O   UNL A   1      32.904  24.048  19.903  1.00  0.00    -0.504 OA
ATOM     31  H   UNL A   1      33.576  23.649  19.387  1.00  0.00     0.293 HD
ENDBRANCH  25  30
ENDBRANCH  13  22
BRANCH  15  32
ATOM     32  C   UNL A   1      30.163  27.281  24.667  1.00  0.00     0.002 A 
ATOM     33  C   UNL A   1      31.023  28.370  24.860  1.00  0.00     0.010 A 
ATOM     34  C   UNL A   1      29.117  27.388  23.743  1.00  0.00     0.010 A 
ATOM     35  C   UNL A   1      30.844  29.550  24.136  1.00  0.00     0.001 A 
ATOM     36  C   UNL A   1      28.932  28.573  23.028  1.00  0.00     0.001 A 
ATOM     37  C   UNL A   1      29.795  29.652  23.224  1.00  0.00     0.000 A 
ENDBRANCH  15  32
ENDBRANCH   7  12
ENDBRANCH   4   6
ENDBRANCH   3   4
ENDBRANCH   2   3
ENDBRANCH   1   2
BRANCH   1  38
ATOM     38  O   UNL A   1      42.506  22.276  26.939  1.00  0.00    -0.374 OA
BRANCH  38  39
ATOM     39  C   UNL A   1      42.698  21.919  28.302  1.00  0.00     0.202 C 
BRANCH  39  40
ATOM     40  C   UNL A   1      43.677  22.735  29.132  1.00  0.00     0.261 C 
BRANCH  40  41
ATOM     41  O   UNL A   1      43.188  24.027  29.473  1.00  0.00    -0.460 OA
BRANCH  41  42
ATOM     42  C   UNL A   1      44.156  24.869  29.901  1.00  0.00     0.338 C 
ATOM     43  O   UNL A   1      45.174  24.577  30.506  1.00  0.00    -0.246 OA
BRANCH  42  44
ATOM     44  C   UNL A   1      43.698  26.250  29.715  1.00  0.00     0.060 A 
ATOM     45  C   UNL A   1      43.739  27.080  30.836  1.00  0.00     0.016 A 
ATOM     46  C   UNL A   1      43.006  26.615  28.549  1.00  0.00     0.016 A 
ATOM     47  C   UNL A   1      42.940  28.202  30.849  1.00  0.00     0.010 A 
ATOM     48  C   UNL A   1      42.200  27.732  28.568  1.00  0.00     0.010 A 
ATOM     49  C   UNL A   1      42.123  28.475  29.742  1.00  0.00    -0.014 A 
BRANCH  49  50
ATOM     50  C   UNL A   1      41.334  29.689  29.770  1.00  0.00     0.031 A 
ATOM     51  C   UNL A   1      42.176  30.887  29.566  1.00  0.00     0.074 A 
ATOM     52  C   UNL A   1      39.994  29.730  29.891  1.00  0.00     0.049 A 
ATOM     53  N   UNL A   1      42.489  31.755  30.464  1.00  0.00    -0.248 NA
ATOM     54  C   UNL A   1      42.922  31.023  28.304  1.00  0.00     0.031 C 
ATOM     55  C   UNL A   1      39.039  28.622  29.877  1.00  0.00     0.029 A 
ATOM     56  N   UNL A   1      39.184  30.822  29.964  1.00  0.00    -0.354 N 
ATOM     57  C   UNL A   1      43.291  32.685  29.819  1.00  0.00     0.074 A 
ATOM     58  C   UNL A   1      43.684  32.085  28.570  1.00  0.00     0.031 C 
ATOM     59  C   UNL A   1      37.792  29.114  29.682  1.00  0.00     0.029 A 
ATOM     60  C   UNL A   1      37.847  30.567  29.685  1.00  0.00     0.049 A 
ATOM     61  H   UNL A   1      39.519  31.720  30.194  1.00  0.00     0.167 HD
ATOM     62  C   UNL A   1      43.295  33.981  30.230  1.00  0.00     0.031 A 
ATOM     63  C   UNL A   1      36.881  31.486  29.420  1.00  0.00     0.031 A 
ATOM     64  C   UNL A   1      42.770  34.112  31.570  1.00  0.00     0.049 A 
ATOM     65  C   UNL A   1      37.343  32.787  29.966  1.00  0.00     0.074 A 
ATOM     66  C   UNL A   1      43.083  33.545  32.791  1.00  0.00     0.029 A 
ATOM     67  N   UNL A   1      41.490  34.599  31.698  1.00  0.00    -0.354 N 
ATOM     68  N   UNL A   1      37.437  33.022  31.243  1.00  0.00    -0.248 NA
ATOM     69  C   UNL A   1      38.161  33.635  29.111  1.00  0.00     0.031 C 
ATOM     70  C   UNL A   1      41.825  33.283  33.407  1.00  0.00     0.029 A 
ATOM     71  C   UNL A   1      40.823  33.789  32.580  1.00  0.00     0.049 A 
ATOM     72  H   UNL A   1      41.119  35.387  31.239  1.00  0.00     0.167 HD
ATOM     73  C   UNL A   1      38.652  33.677  31.382  1.00  0.00     0.074 A 
ATOM     74  C   UNL A   1      39.009  34.109  30.029  1.00  0.00     0.031 C 
ATOM     75  C   UNL A   1      39.401  33.541  32.516  1.00  0.00     0.031 A 
BRANCH  62  76
ATOM     76  C   UNL A   1      43.284  35.128  29.251  1.00  0.00    -0.014 A 
ATOM     77  C   UNL A   1      42.143  35.306  28.450  1.00  0.00     0.009 A 
ATOM     78  C   UNL A   1      44.446  35.824  28.862  1.00  0.00     0.009 A 
ATOM     79  C   UNL A   1      42.198  36.049  27.265  1.00  0.00     0.001 A 
ATOM     80  C   UNL A   1      44.492  36.603  27.705  1.00  0.00     0.001 A 
ATOM     81  C   UNL A   1      43.375  36.687  26.889  1.00  0.00     0.000 A 
ENDBRANCH  62  76
BRANCH  63  82
ATOM     82  C   UNL A   1      35.727  31.391  28.492  1.00  0.00    -0.014 A 
ATOM     83  C   UNL A   1      35.441  30.192  27.812  1.00  0.00     0.009 A 
ATOM     84  C   UNL A   1      34.738  32.390  28.478  1.00  0.00     0.009 A 
ATOM     85  C   UNL A   1      34.200  29.990  27.186  1.00  0.00     0.001 A 
ATOM     86  C   UNL A   1      33.504  32.192  27.848  1.00  0.00     0.001 A 
ATOM     87  C   UNL A   1      33.228  30.985  27.217  1.00  0.00     0.000 A 
ENDBRANCH  63  82
BRANCH  75  88
ATOM     88  C   UNL A   1      38.784  32.868  33.717  1.00  0.00    -0.014 A 
ATOM     89  C   UNL A   1      38.796  31.477  33.925  1.00  0.00     0.009 A 
ATOM     90  C   UNL A   1      38.317  33.688  34.755  1.00  0.00     0.009 A 
ATOM     91  C   UNL A   1      38.324  30.929  35.125  1.00  0.00     0.001 A 
ATOM     92  C   UNL A   1      37.869  33.144  35.959  1.00  0.00     0.001 A 
ATOM     93  C   UNL A   1      37.866  31.764  36.143  1.00  0.00     0.000 A 
ENDBRANCH  75  88
ENDBRANCH  49  50
ENDBRANCH  42  44
ENDBRANCH  41  42
ENDBRANCH  40  41
ENDBRANCH  39  40
ENDBRANCH  38  39
ENDBRANCH   1  38
TORSDOF 19
ENDMDL
MODEL 3
REMARK VINA RESULT:     -11.5      2.795      4.795
REMARK SMILES COc1cc([C@H]2c3c(-c4ccccc4)n[nH]c3C(=O)N2c2ccc(C(=O)OCCOCCOC(=O)c3ccc(-c4c5nc(c(-c6ccccc6)c6ccc([nH]6)c(-c6ccccc6)c6nc(c(-c7ccccc7)c7ccc4[nH]7)C=C6)C=C5)cc3)cc2)ccc1O
REMARK SMILES IDX 29 1 28 2 27 3 25 4 26 5 24 6 21 7 22 8 85 9 23 10 84 11
REMARK SMILES IDX 20 12 6 13 7 14 8 15 17 16 18 17 15 18 16 19 19 20 5 22 3 23
REMARK SMILES IDX 4 24 88 25 87 26 86 27 2 28 1 29 89 30 9 32 10 33 14 34
REMARK SMILES IDX 11 35 13 36 12 37 30 38 31 39 32 40 33 41 34 42 35 43 36 44
REMARK SMILES IDX 37 45 83 46 38 47 82 48 39 49 40 50 41 51 76 52 42 53 81 54
REMARK SMILES IDX 75 55 77 56 43 57 80 58 74 59 73 60 44 62 66 63 51 64 65 65
REMARK SMILES IDX 52 66 55 67 64 68 78 69 53 70 54 71 63 73 79 74 56 75 45 76
REMARK SMILES IDX 46 77 50 78 47 79 49 80 48 81 67 82 68 83 72 84 69 85 71 86
REMARK SMILES IDX 70 87 57 88 58 89 62 90 59 91 61 92 60 93
REMARK H PARENT 16 21 89 31 77 61 55 72
REMARK Flexibility Score: inf
ROOT
ATOM      1  C   UNL A   1      34.963  19.851  24.959  1.00  0.00     0.202 C 
ENDROOT
BRANCH   1   2
ATOM      2  C   UNL A   1      34.004  18.708  24.612  1.00  0.00     0.261 C 
BRANCH   2   3
ATOM      3  O   UNL A   1      32.641  19.146  24.479  1.00  0.00    -0.460 OA
BRANCH   3   4
ATOM      4  C   UNL A   1      32.269  19.451  23.210  1.00  0.00     0.338 C 
ATOM      5  O   UNL A   1      31.903  18.678  22.342  1.00  0.00    -0.246 OA
BRANCH   4   6
ATOM      6  C   UNL A   1      32.189  20.917  23.048  1.00  0.00     0.060 A 
ATOM      7  C   UNL A   1      32.284  23.696  22.780  1.00  0.00     0.045 A 
ATOM      8  C   UNL A   1      32.976  22.885  21.876  1.00  0.00     0.027 A 
ATOM      9  C   UNL A   1      31.489  23.105  23.774  1.00  0.00     0.027 A 
ATOM     10  C   UNL A   1      32.959  21.501  22.034  1.00  0.00     0.018 A 
ATOM     11  C   UNL A   1      31.413  21.714  23.890  1.00  0.00     0.018 A 
BRANCH   7  12
ATOM     12  N   UNL A   1      32.509  25.088  22.782  1.00  0.00    -0.295 N 
ATOM     13  C   UNL A   1      32.632  25.839  24.080  1.00  0.00     0.156 C 
ATOM     14  C   UNL A   1      33.084  27.151  23.573  1.00  0.00     0.038 A 
ATOM     15  C   UNL A   1      33.318  28.492  23.920  1.00  0.00     0.099 A 
ATOM     16  C   UNL A   1      33.208  27.110  22.215  1.00  0.00     0.129 A 
ATOM     17  C   UNL A   1      32.926  25.834  21.662  1.00  0.00     0.277 C 
ATOM     18  N   UNL A   1      33.573  29.221  22.808  1.00  0.00    -0.174 NA
ATOM     19  N   UNL A   1      33.513  28.341  21.782  1.00  0.00    -0.272 N 
ATOM     20  O   UNL A   1      33.014  25.508  20.497  1.00  0.00    -0.267 OA
ATOM     21  H   UNL A   1      33.674  28.575  20.839  1.00  0.00     0.190 HD
BRANCH  13  22
ATOM     22  C   UNL A   1      33.690  25.212  24.976  1.00  0.00    -0.016 A 
ATOM     23  C   UNL A   1      34.128  23.604  26.790  1.00  0.00     0.160 A 
ATOM     24  C   UNL A   1      33.264  24.463  26.092  1.00  0.00     0.056 A 
ATOM     25  C   UNL A   1      35.453  23.507  26.365  1.00  0.00     0.157 A 
ATOM     26  C   UNL A   1      35.920  24.299  25.316  1.00  0.00     0.050 A 
ATOM     27  C   UNL A   1      35.048  25.142  24.623  1.00  0.00     0.010 A 
BRANCH  23  28
ATOM     28  O   UNL A   1      33.502  22.914  27.792  1.00  0.00    -0.493 OA
ATOM     29  C   UNL A   1      32.166  22.472  27.601  1.00  0.00     0.278 C 
ENDBRANCH  23  28
BRANCH  25  30
ATOM     30  O   UNL A   1      36.348  22.607  26.867  1.00  0.00    -0.504 OA
ATOM     31  H   UNL A   1      36.082  22.000  27.529  1.00  0.00     0.293 HD
ENDBRANCH  25  30
ENDBRANCH  13  22
BRANCH  15  32
ATOM     32  C   UNL A   1      33.278  29.131  25.225  1.00  0.00     0.002 A 
ATOM     33  C   UNL A   1      32.241  30.019  25.540  1.00  0.00     0.010 A 
ATOM     34  C   UNL A   1      34.308  28.923  26.149  1.00  0.00     0.010 A 
ATOM     35  C   UNL A   1      32.230  30.688  26.765  1.00  0.00     0.001 A 
ATOM     36  C   UNL A   1      34.302  29.603  27.370  1.00  0.00     0.001 A 
ATOM     37  C   UNL A   1      33.264  30.483  27.677  1.00  0.00     0.000 A 
ENDBRANCH  15  32
ENDBRANCH   7  12
ENDBRANCH   4   6
ENDBRANCH   3   4
ENDBRANCH   2   3
ENDBRANCH   1   2
BRANCH   1  38
ATOM     38  O   UNL A   1      36.359  19.566  24.997  1.00  0.00    -0.374 OA
BRANCH  38  39
ATOM     39  C   UNL A   1      37.289  20.603  24.712  1.00  0.00     0.202 C 
BRANCH  39  40
ATOM     40  C   UNL A   1      38.564  20.680  25.538  1.00  0.00     0.261 C 
BRANCH  40  41
ATOM     41  O   UNL A   1      38.931  22.009  25.887  1.00  0.00    -0.460 OA
BRANCH  41  42
ATOM     42  C   UNL A   1      39.926  22.065  26.803  1.00  0.00     0.338 C 
ATOM     43  O   UNL A   1      40.349  21.151  27.490  1.00  0.00    -0.246 OA
BRANCH  42  44
ATOM     44  C   UNL A   1      40.297  23.468  27.011  1.00  0.00     0.060 A 
ATOM     45  C   UNL A   1      41.424  23.708  27.798  1.00  0.00     0.016 A 
ATOM     46  C   UNL A   1      39.406  24.496  26.663  1.00  0.00     0.016 A 
ATOM     47  C   UNL A   1      41.562  24.948  28.382  1.00  0.00     0.010 A 
ATOM     48  C   UNL A   1      39.541  25.732  27.255  1.00  0.00     0.010 A 
ATOM     49  C   UNL A   1      40.578  25.923  28.163  1.00  0.00    -0.014 A 
BRANCH  49  50
ATOM     50  C   UNL A   1      40.782  27.230  28.752  1.00  0.00     0.031 A 
ATOM     51  C   UNL A   1      41.924  27.933  28.128  1.00  0.00     0.074 A 
ATOM     52  C   UNL A   1      39.994  27.777  29.695  1.00  0.00     0.049 A 
ATOM     53  N   UNL A   1      43.072  28.146  28.673  1.00  0.00    -0.248 NA
ATOM     54  C   UNL A   1      41.868  28.240  26.690  1.00  0.00     0.031 C 
ATOM     55  C   UNL A   1      38.724  27.282  30.227  1.00  0.00     0.029 A 
ATOM     56  N   UNL A   1      40.135  28.976  30.326  1.00  0.00    -0.354 N 
ATOM     57  C   UNL A   1      43.815  28.826  27.720  1.00  0.00     0.074 A 
ATOM     58  C   UNL A   1      43.110  28.676  26.472  1.00  0.00     0.031 C 
ATOM     59  C   UNL A   1      38.101  28.285  30.893  1.00  0.00     0.029 A 
ATOM     60  C   UNL A   1      38.980  29.442  30.942  1.00  0.00     0.049 A 
ATOM     61  H   UNL A   1      40.986  29.472  30.342  1.00  0.00     0.167 HD
ATOM     62  C   UNL A   1      44.770  29.712  28.107  1.00  0.00     0.031 A 
ATOM     63  C   UNL A   1      38.755  30.702  31.400  1.00  0.00     0.031 A 
ATOM     64  C   UNL A   1      45.162  29.499  29.482  1.00  0.00     0.049 A 
ATOM     65  C   UNL A   1      40.076  31.346  31.603  1.00  0.00     0.074 A 
ATOM     66  C   UNL A   1      45.637  28.414  30.194  1.00  0.00     0.029 A 
ATOM     67  N   UNL A   1      44.674  30.380  30.418  1.00  0.00    -0.354 N 
ATOM     68  N   UNL A   1      40.901  30.983  32.543  1.00  0.00    -0.248 NA
ATOM     69  C   UNL A   1      40.680  32.036  30.473  1.00  0.00     0.031 C 
ATOM     70  C   UNL A   1      44.970  28.480  31.452  1.00  0.00     0.029 A 
ATOM     71  C   UNL A   1      44.205  29.646  31.475  1.00  0.00     0.049 A 
ATOM     72  H   UNL A   1      44.664  31.362  30.342  1.00  0.00     0.167 HD
ATOM     73  C   UNL A   1      42.138  30.949  31.918  1.00  0.00     0.074 A 
ATOM     74  C   UNL A   1      41.957  31.696  30.671  1.00  0.00     0.031 C 
ATOM     75  C   UNL A   1      43.105  30.067  32.312  1.00  0.00     0.031 A 
BRANCH  62  76
ATOM     76  C   UNL A   1      44.947  31.044  27.422  1.00  0.00    -0.014 A 
ATOM     77  C   UNL A   1      46.187  31.323  26.824  1.00  0.00     0.009 A 
ATOM     78  C   UNL A   1      44.079  32.136  27.621  1.00  0.00     0.009 A 
ATOM     79  C   UNL A   1      46.577  32.638  26.543  1.00  0.00     0.001 A 
ATOM     80  C   UNL A   1      44.447  33.444  27.301  1.00  0.00     0.001 A 
ATOM     81  C   UNL A   1      45.711  33.697  26.793  1.00  0.00     0.000 A 
ENDBRANCH  62  76
BRANCH  63  82
ATOM     82  C   UNL A   1      37.492  31.483  31.408  1.00  0.00    -0.014 A 
ATOM     83  C   UNL A   1      36.769  31.704  30.222  1.00  0.00     0.009 A 
ATOM     84  C   UNL A   1      36.845  31.781  32.621  1.00  0.00     0.009 A 
ATOM     85  C   UNL A   1      35.441  32.160  30.254  1.00  0.00     0.001 A 
ATOM     86  C   UNL A   1      35.524  32.242  32.653  1.00  0.00     0.001 A 
ATOM     87  C   UNL A   1      34.816  32.415  31.470  1.00  0.00     0.000 A 
ENDBRANCH  63  82
BRANCH  75  88
ATOM     88  C   UNL A   1      42.903  29.294  33.592  1.00  0.00    -0.014 A 
ATOM     89  C   UNL A   1      42.080  28.159  33.698  1.00  0.00     0.009 A 
ATOM     90  C   UNL A   1      43.705  29.635  34.692  1.00  0.00     0.009 A 
ATOM     91  C   UNL A   1      42.042  27.410  34.881  1.00  0.00     0.001 A 
ATOM     92  C   UNL A   1      43.685  28.876  35.863  1.00  0.00     0.001 A 
ATOM     93  C   UNL A   1      42.849  27.767  35.960  1.00  0.00     0.000 A 
ENDBRANCH  75  88
ENDBRANCH  49  50
ENDBRANCH  42  44
ENDBRANCH  41  42
ENDBRANCH  40  41
ENDBRANCH  39  40
ENDBRANCH  38  39
ENDBRANCH   1  38
TORSDOF 19
ENDMDL
