MODEL 1
REMARK VINA RESULT:     -10.6      0.000      0.000
REMARK SMILES CC(C)c1ccc([C@]2(C(=O)OCCOCCOC(=O)c3ccc(-c4c5nc(c(-c6ccccc6)c6ccc([nH]6)c(-c6ccccc6)c6nc(c(-c7ccccc7)c7ccc4[nH]7)C=C6)C=C5)cc3)CCC[C@@H]2C)cc1
REMARK SMILES IDX 14 1 13 2 12 3 11 4 9 5 10 6 8 7 68 8 71 9 69 10 70 11 72 12
REMARK SMILES IDX 7 13 4 14 5 15 74 16 6 17 73 18 2 19 1 20 3 21 15 22 16 23
REMARK SMILES IDX 17 24 18 25 19 26 20 27 21 28 67 29 22 30 66 31 23 32 24 33
REMARK SMILES IDX 25 34 60 35 26 36 65 37 59 38 61 39 27 40 64 41 58 42 57 43
REMARK SMILES IDX 28 45 50 46 35 47 49 48 36 49 39 50 48 51 62 52 37 53 38 54
REMARK SMILES IDX 47 56 63 57 40 58 29 59 30 60 34 61 31 62 33 63 32 64 51 65
REMARK SMILES IDX 52 66 56 67 53 68 55 69 54 70 41 71 42 72 46 73 43 74 45 75
REMARK SMILES IDX 44 76
REMARK H PARENT 61 44 39 55
REMARK Flexibility Score: inf
ROOT
ATOM      1  O   UNL A   1      32.420  30.993  27.054  1.00  0.00    -0.374 OA
ENDROOT
BRANCH   1   2
ATOM      2  C   UNL A   1      32.535  29.740  26.376  1.00  0.00     0.202 C 
BRANCH   2   3
ATOM      3  C   UNL A   1      32.163  28.504  27.196  1.00  0.00     0.261 C 
BRANCH   3   4
ATOM      4  O   UNL A   1      32.710  27.324  26.581  1.00  0.00    -0.463 OA
BRANCH   4   5
ATOM      5  C   UNL A   1      31.798  26.433  26.107  1.00  0.00     0.316 C 
ATOM      6  O   UNL A   1      31.017  25.814  26.823  1.00  0.00    -0.251 OA
BRANCH   5   7
ATOM      7  C   UNL A   1      31.870  26.260  24.559  1.00  0.00     0.095 C 
ATOM      8  C   UNL A   1      33.285  26.486  23.962  1.00  0.00     0.024 C 
ATOM      9  C   UNL A   1      31.683  24.732  24.295  1.00  0.00     0.008 C 
ATOM     10  C   UNL A   1      34.074  25.196  24.191  1.00  0.00     0.002 C 
ATOM     11  C   UNL A   1      33.063  24.155  24.658  1.00  0.00     0.005 C 
ATOM     12  C   UNL A   1      31.332  24.334  22.856  1.00  0.00     0.009 C 
BRANCH   7  13
ATOM     13  C   UNL A   1      30.815  27.207  23.961  1.00  0.00    -0.030 A 
ATOM     14  C   UNL A   1      28.810  29.021  23.045  1.00  0.00    -0.045 A 
ATOM     15  C   UNL A   1      28.472  27.743  23.501  1.00  0.00     0.004 A 
ATOM     16  C   UNL A   1      30.165  29.378  23.039  1.00  0.00     0.004 A 
ATOM     17  C   UNL A   1      29.455  26.863  23.970  1.00  0.00     0.005 A 
ATOM     18  C   UNL A   1      31.149  28.488  23.488  1.00  0.00     0.005 A 
BRANCH  14  19
ATOM     19  C   UNL A   1      27.771  30.009  22.544  1.00  0.00     0.013 C 
ATOM     20  C   UNL A   1      27.655  31.195  23.504  1.00  0.00     0.012 C 
ATOM     21  C   UNL A   1      28.030  30.498  21.114  1.00  0.00     0.012 C 
ENDBRANCH  14  19
ENDBRANCH   7  13
ENDBRANCH   5   7
ENDBRANCH   4   5
ENDBRANCH   3   4
ENDBRANCH   2   3
ENDBRANCH   1   2
BRANCH   1  22
ATOM     22  C   UNL A   1      31.487  31.938  26.532  1.00  0.00     0.202 C 
BRANCH  22  23
ATOM     23  C   UNL A   1      31.790  33.414  26.824  1.00  0.00     0.261 C 
BRANCH  23  24
ATOM     24  O   UNL A   1      32.173  33.641  28.193  1.00  0.00    -0.460 OA
BRANCH  24  25
ATOM     25  C   UNL A   1      33.263  34.430  28.345  1.00  0.00     0.338 C 
ATOM     26  O   UNL A   1      33.295  35.650  28.418  1.00  0.00    -0.246 OA
BRANCH  25  27
ATOM     27  C   UNL A   1      34.463  33.607  28.587  1.00  0.00     0.060 A 
ATOM     28  C   UNL A   1      34.266  32.330  29.129  1.00  0.00     0.016 A 
ATOM     29  C   UNL A   1      35.753  34.101  28.382  1.00  0.00     0.016 A 
ATOM     30  C   UNL A   1      35.359  31.561  29.517  1.00  0.00     0.010 A 
ATOM     31  C   UNL A   1      36.850  33.330  28.786  1.00  0.00     0.010 A 
ATOM     32  C   UNL A   1      36.656  32.075  29.390  1.00  0.00    -0.014 A 
BRANCH  32  33
ATOM     33  C   UNL A   1      37.782  31.360  30.039  1.00  0.00     0.031 A 
ATOM     34  C   UNL A   1      38.066  31.616  31.493  1.00  0.00     0.074 A 
ATOM     35  C   UNL A   1      38.507  30.453  29.360  1.00  0.00     0.049 A 
ATOM     36  N   UNL A   1      38.983  31.087  32.264  1.00  0.00    -0.248 NA
ATOM     37  C   UNL A   1      37.198  32.593  32.171  1.00  0.00     0.031 C 
ATOM     38  C   UNL A   1      38.301  30.077  27.963  1.00  0.00     0.029 A 
ATOM     39  N   UNL A   1      39.565  29.678  29.768  1.00  0.00    -0.354 N 
ATOM     40  C   UNL A   1      38.804  31.669  33.514  1.00  0.00     0.074 A 
ATOM     41  C   UNL A   1      37.711  32.608  33.393  1.00  0.00     0.031 C 
ATOM     42  C   UNL A   1      39.207  29.141  27.627  1.00  0.00     0.029 A 
ATOM     43  C   UNL A   1      40.069  28.874  28.777  1.00  0.00     0.049 A 
ATOM     44  H   UNL A   1      39.926  29.698  30.683  1.00  0.00     0.167 HD
ATOM     45  C   UNL A   1      39.482  31.436  34.663  1.00  0.00     0.031 A 
ATOM     46  C   UNL A   1      41.119  28.029  28.791  1.00  0.00     0.031 A 
ATOM     47  C   UNL A   1      40.578  30.514  34.786  1.00  0.00     0.049 A 
ATOM     48  C   UNL A   1      41.909  27.849  30.059  1.00  0.00     0.074 A 
ATOM     49  C   UNL A   1      41.321  30.203  35.913  1.00  0.00     0.029 A 
ATOM     50  N   UNL A   1      41.092  29.758  33.745  1.00  0.00    -0.354 N 
ATOM     51  N   UNL A   1      41.714  28.387  31.239  1.00  0.00    -0.248 NA
ATOM     52  C   UNL A   1      43.062  26.939  29.997  1.00  0.00     0.031 C 
ATOM     53  C   UNL A   1      42.319  29.296  35.540  1.00  0.00     0.029 A 
ATOM     54  C   UNL A   1      42.163  29.003  34.195  1.00  0.00     0.049 A 
ATOM     55  H   UNL A   1      40.749  29.758  32.823  1.00  0.00     0.167 HD
ATOM     56  C   UNL A   1      42.701  27.861  32.063  1.00  0.00     0.074 A 
ATOM     57  C   UNL A   1      43.486  26.953  31.254  1.00  0.00     0.031 C 
ATOM     58  C   UNL A   1      42.935  28.107  33.376  1.00  0.00     0.031 A 
BRANCH  45  59
ATOM     59  C   UNL A   1      39.074  32.225  35.874  1.00  0.00    -0.014 A 
ATOM     60  C   UNL A   1      38.139  31.721  36.791  1.00  0.00     0.009 A 
ATOM     61  C   UNL A   1      39.656  33.480  36.114  1.00  0.00     0.009 A 
ATOM     62  C   UNL A   1      37.772  32.473  37.909  1.00  0.00     0.001 A 
ATOM     63  C   UNL A   1      39.305  34.218  37.246  1.00  0.00     0.001 A 
ATOM     64  C   UNL A   1      38.356  33.718  38.137  1.00  0.00     0.000 A 
ENDBRANCH  45  59
BRANCH  46  65
ATOM     65  C   UNL A   1      41.500  27.296  27.557  1.00  0.00    -0.014 A 
ATOM     66  C   UNL A   1      42.368  27.874  26.618  1.00  0.00     0.009 A 
ATOM     67  C   UNL A   1      40.978  26.018  27.303  1.00  0.00     0.009 A 
ATOM     68  C   UNL A   1      42.688  27.195  25.439  1.00  0.00     0.001 A 
ATOM     69  C   UNL A   1      41.320  25.331  26.136  1.00  0.00     0.001 A 
ATOM     70  C   UNL A   1      42.167  25.923  25.202  1.00  0.00     0.000 A 
ENDBRANCH  46  65
BRANCH  58  71
ATOM     71  C   UNL A   1      44.066  27.361  34.026  1.00  0.00    -0.014 A 
ATOM     72  C   UNL A   1      43.856  26.125  34.655  1.00  0.00     0.009 A 
ATOM     73  C   UNL A   1      45.368  27.885  33.971  1.00  0.00     0.009 A 
ATOM     74  C   UNL A   1      44.923  25.442  35.243  1.00  0.00     0.001 A 
ATOM     75  C   UNL A   1      46.436  27.188  34.535  1.00  0.00     0.001 A 
ATOM     76  C   UNL A   1      46.212  25.971  35.177  1.00  0.00     0.000 A 
ENDBRANCH  58  71
ENDBRANCH  32  33
ENDBRANCH  25  27
ENDBRANCH  24  25
ENDBRANCH  23  24
ENDBRANCH  22  23
ENDBRANCH   1  22
TORSDOF 16
ENDMDL
MODEL 2
REMARK VINA RESULT:     -10.5      1.190      1.700
REMARK SMILES CC(C)c1ccc([C@]2(C(=O)OCCOCCOC(=O)c3ccc(-c4c5nc(c(-c6ccccc6)c6ccc([nH]6)c(-c6ccccc6)c6nc(c(-c7ccccc7)c7ccc4[nH]7)C=C6)C=C5)cc3)CCC[C@@H]2C)cc1
REMARK SMILES IDX 14 1 13 2 12 3 11 4 9 5 10 6 8 7 68 8 71 9 69 10 70 11 72 12
REMARK SMILES IDX 7 13 4 14 5 15 74 16 6 17 73 18 2 19 1 20 3 21 15 22 16 23
REMARK SMILES IDX 17 24 18 25 19 26 20 27 21 28 67 29 22 30 66 31 23 32 24 33
REMARK SMILES IDX 25 34 60 35 26 36 65 37 59 38 61 39 27 40 64 41 58 42 57 43
REMARK SMILES IDX 28 45 50 46 35 47 49 48 36 49 39 50 48 51 62 52 37 53 38 54
REMARK SMILES IDX 47 56 63 57 40 58 29 59 30 60 34 61 31 62 33 63 32 64 51 65
REMARK SMILES IDX 52 66 56 67 53 68 55 69 54 70 41 71 42 72 46 73 43 74 45 75
REMARK SMILES IDX 44 76
REMARK H PARENT 61 44 39 55
REMARK Flexibility Score: inf
ROOT
ATOM      1  O   UNL A   1      33.540  30.978  27.492  1.00  0.00    -0.374 OA
ENDROOT
BRANCH   1   2
ATOM      2  C   UNL A   1      33.768  29.576  27.325  1.00  0.00     0.202 C 
BRANCH   2   3
ATOM      3  C   UNL A   1      32.515  28.702  27.252  1.00  0.00     0.261 C 
BRANCH   3   4
ATOM      4  O   UNL A   1      32.837  27.433  26.657  1.00  0.00    -0.463 OA
BRANCH   4   5
ATOM      5  C   UNL A   1      31.781  26.729  26.168  1.00  0.00     0.316 C 
ATOM      6  O   UNL A   1      30.880  26.279  26.872  1.00  0.00    -0.251 OA
BRANCH   5   7
ATOM      7  C   UNL A   1      31.849  26.530  24.624  1.00  0.00     0.095 C 
ATOM      8  C   UNL A   1      33.269  26.716  24.025  1.00  0.00     0.024 C 
ATOM      9  C   UNL A   1      31.630  25.002  24.383  1.00  0.00     0.008 C 
ATOM     10  C   UNL A   1      34.030  25.414  24.274  1.00  0.00     0.002 C 
ATOM     11  C   UNL A   1      32.997  24.402  24.757  1.00  0.00     0.005 C 
ATOM     12  C   UNL A   1      31.271  24.589  22.951  1.00  0.00     0.009 C 
BRANCH   7  13
ATOM     13  C   UNL A   1      30.815  27.489  24.010  1.00  0.00    -0.030 A 
ATOM     14  C   UNL A   1      28.809  29.285  23.060  1.00  0.00    -0.045 A 
ATOM     15  C   UNL A   1      28.541  27.921  23.216  1.00  0.00     0.004 A 
ATOM     16  C   UNL A   1      30.097  29.740  23.372  1.00  0.00     0.004 A 
ATOM     17  C   UNL A   1      29.519  27.046  23.703  1.00  0.00     0.005 A 
ATOM     18  C   UNL A   1      31.081  28.859  23.838  1.00  0.00     0.005 A 
BRANCH  14  19
ATOM     19  C   UNL A   1      27.768  30.268  22.550  1.00  0.00     0.013 C 
ATOM     20  C   UNL A   1      27.650  31.460  23.501  1.00  0.00     0.012 C 
ATOM     21  C   UNL A   1      28.028  30.746  21.117  1.00  0.00     0.012 C 
ENDBRANCH  14  19
ENDBRANCH   7  13
ENDBRANCH   5   7
ENDBRANCH   4   5
ENDBRANCH   3   4
ENDBRANCH   2   3
ENDBRANCH   1   2
BRANCH   1  22
ATOM     22  C   UNL A   1      32.295  31.499  27.029  1.00  0.00     0.202 C 
BRANCH  22  23
ATOM     23  C   UNL A   1      32.086  33.008  27.217  1.00  0.00     0.261 C 
BRANCH  23  24
ATOM     24  O   UNL A   1      33.314  33.708  27.489  1.00  0.00    -0.460 OA
BRANCH  24  25
ATOM     25  C   UNL A   1      33.369  34.287  28.712  1.00  0.00     0.338 C 
ATOM     26  O   UNL A   1      32.529  35.005  29.235  1.00  0.00    -0.246 OA
BRANCH  25  27
ATOM     27  C   UNL A   1      34.548  33.806  29.456  1.00  0.00     0.060 A 
ATOM     28  C   UNL A   1      35.808  34.192  28.978  1.00  0.00     0.016 A 
ATOM     29  C   UNL A   1      34.436  32.923  30.532  1.00  0.00     0.016 A 
ATOM     30  C   UNL A   1      36.962  33.655  29.542  1.00  0.00     0.010 A 
ATOM     31  C   UNL A   1      35.598  32.376  31.089  1.00  0.00     0.010 A 
ATOM     32  C   UNL A   1      36.862  32.710  30.571  1.00  0.00    -0.014 A 
BRANCH  32  33
ATOM     33  C   UNL A   1      38.076  31.962  30.982  1.00  0.00     0.031 A 
ATOM     34  C   UNL A   1      38.828  32.410  32.206  1.00  0.00     0.074 A 
ATOM     35  C   UNL A   1      38.474  30.867  30.311  1.00  0.00     0.049 A 
ATOM     36  N   UNL A   1      39.897  31.894  32.756  1.00  0.00    -0.248 NA
ATOM     37  C   UNL A   1      38.300  33.593  32.905  1.00  0.00     0.031 C 
ATOM     38  C   UNL A   1      37.805  30.301  29.141  1.00  0.00     0.029 A 
ATOM     39  N   UNL A   1      39.541  30.032  30.529  1.00  0.00    -0.354 N 
ATOM     40  C   UNL A   1      40.172  32.689  33.862  1.00  0.00     0.074 A 
ATOM     41  C   UNL A   1      39.175  33.737  33.890  1.00  0.00     0.031 C 
ATOM     42  C   UNL A   1      38.479  29.208  28.741  1.00  0.00     0.029 A 
ATOM     43  C   UNL A   1      39.639  29.016  29.610  1.00  0.00     0.049 A 
ATOM     44  H   UNL A   1      40.175  30.151  31.272  1.00  0.00     0.167 HD
ATOM     45  C   UNL A   1      41.160  32.556  34.779  1.00  0.00     0.031 A 
ATOM     46  C   UNL A   1      40.568  28.050  29.477  1.00  0.00     0.031 A 
ATOM     47  C   UNL A   1      42.162  31.525  34.749  1.00  0.00     0.049 A 
ATOM     48  C   UNL A   1      41.705  27.972  30.461  1.00  0.00     0.074 A 
ATOM     49  C   UNL A   1      43.198  31.303  35.641  1.00  0.00     0.029 A 
ATOM     50  N   UNL A   1      42.257  30.548  33.772  1.00  0.00    -0.354 N 
ATOM     51  N   UNL A   1      41.938  28.716  31.516  1.00  0.00    -0.248 NA
ATOM     52  C   UNL A   1      42.702  26.915  30.238  1.00  0.00     0.031 C 
ATOM     53  C   UNL A   1      43.950  30.220  35.173  1.00  0.00     0.029 A 
ATOM     54  C   UNL A   1      43.352  29.737  34.021  1.00  0.00     0.049 A 
ATOM     55  H   UNL A   1      41.639  30.445  33.013  1.00  0.00     0.167 HD
ATOM     56  C   UNL A   1      43.092  28.201  32.094  1.00  0.00     0.074 A 
ATOM     57  C   UNL A   1      43.504  27.076  31.283  1.00  0.00     0.031 C 
ATOM     58  C   UNL A   1      43.750  28.623  33.202  1.00  0.00     0.031 A 
BRANCH  45  59
ATOM     59  C   UNL A   1      41.223  33.580  35.876  1.00  0.00    -0.014 A 
ATOM     60  C   UNL A   1      41.954  34.768  35.724  1.00  0.00     0.009 A 
ATOM     61  C   UNL A   1      40.515  33.362  37.070  1.00  0.00     0.009 A 
ATOM     62  C   UNL A   1      42.001  35.705  36.759  1.00  0.00     0.001 A 
ATOM     63  C   UNL A   1      40.545  34.312  38.092  1.00  0.00     0.001 A 
ATOM     64  C   UNL A   1      41.295  35.478  37.940  1.00  0.00     0.000 A 
ENDBRANCH  45  59
BRANCH  46  65
ATOM     65  C   UNL A   1      40.478  27.082  28.355  1.00  0.00    -0.014 A 
ATOM     66  C   UNL A   1      41.130  27.330  27.137  1.00  0.00     0.009 A 
ATOM     67  C   UNL A   1      39.719  25.908  28.492  1.00  0.00     0.009 A 
ATOM     68  C   UNL A   1      41.004  26.435  26.072  1.00  0.00     0.001 A 
ATOM     69  C   UNL A   1      39.616  25.002  27.434  1.00  0.00     0.001 A 
ATOM     70  C   UNL A   1      40.252  25.270  26.223  1.00  0.00     0.000 A 
ENDBRANCH  46  65
BRANCH  58  71
ATOM     71  C   UNL A   1      44.966  27.845  33.619  1.00  0.00    -0.014 A 
ATOM     72  C   UNL A   1      46.249  28.212  33.185  1.00  0.00     0.009 A 
ATOM     73  C   UNL A   1      44.829  26.754  34.493  1.00  0.00     0.009 A 
ATOM     74  C   UNL A   1      47.368  27.484  33.595  1.00  0.00     0.001 A 
ATOM     75  C   UNL A   1      45.951  26.045  34.921  1.00  0.00     0.001 A 
ATOM     76  C   UNL A   1      47.218  26.405  34.466  1.00  0.00     0.000 A 
ENDBRANCH  58  71
ENDBRANCH  32  33
ENDBRANCH  25  27
ENDBRANCH  24  25
ENDBRANCH  23  24
ENDBRANCH  22  23
ENDBRANCH   1  22
TORSDOF 16
ENDMDL
MODEL 3
REMARK VINA RESULT:     -10.5      4.755      9.095
REMARK SMILES CC(C)c1ccc([C@]2(C(=O)OCCOCCOC(=O)c3ccc(-c4c5nc(c(-c6ccccc6)c6ccc([nH]6)c(-c6ccccc6)c6nc(c(-c7ccccc7)c7ccc4[nH]7)C=C6)C=C5)cc3)CCC[C@@H]2C)cc1
REMARK SMILES IDX 14 1 13 2 12 3 11 4 9 5 10 6 8 7 68 8 71 9 69 10 70 11 72 12
REMARK SMILES IDX 7 13 4 14 5 15 74 16 6 17 73 18 2 19 1 20 3 21 15 22 16 23
REMARK SMILES IDX 17 24 18 25 19 26 20 27 21 28 67 29 22 30 66 31 23 32 24 33
REMARK SMILES IDX 25 34 60 35 26 36 65 37 59 38 61 39 27 40 64 41 58 42 57 43
REMARK SMILES IDX 28 45 50 46 35 47 49 48 36 49 39 50 48 51 62 52 37 53 38 54
REMARK SMILES IDX 47 56 63 57 40 58 29 59 30 60 34 61 31 62 33 63 32 64 51 65
REMARK SMILES IDX 52 66 56 67 53 68 55 69 54 70 41 71 42 72 46 73 43 74 45 75
REMARK SMILES IDX 44 76
REMARK H PARENT 61 44 39 55
REMARK Flexibility Score: inf
ROOT
ATOM      1  O   UNL A   1      37.769  21.366  25.828  1.00  0.00    -0.374 OA
ENDROOT
BRANCH   1   2
ATOM      2  C   UNL A   1      37.772  22.678  25.260  1.00  0.00     0.202 C 
BRANCH   2   3
ATOM      3  C   UNL A   1      36.876  22.876  24.037  1.00  0.00     0.261 C 
BRANCH   3   4
ATOM      4  O   UNL A   1      35.853  23.844  24.330  1.00  0.00    -0.463 OA
BRANCH   4   5
ATOM      5  C   UNL A   1      34.696  23.706  23.628  1.00  0.00     0.316 C 
ATOM      6  O   UNL A   1      34.595  23.952  22.429  1.00  0.00    -0.251 OA
BRANCH   5   7
ATOM      7  C   UNL A   1      33.504  23.230  24.513  1.00  0.00     0.095 C 
ATOM      8  C   UNL A   1      33.626  23.633  26.007  1.00  0.00     0.024 C 
ATOM      9  C   UNL A   1      32.280  24.097  24.077  1.00  0.00     0.008 C 
ATOM     10  C   UNL A   1      33.182  25.093  26.111  1.00  0.00     0.002 C 
ATOM     11  C   UNL A   1      32.558  25.445  24.765  1.00  0.00     0.005 C 
ATOM     12  C   UNL A   1      30.902  23.583  24.510  1.00  0.00     0.009 C 
BRANCH   7  13
ATOM     13  C   UNL A   1      33.389  21.709  24.316  1.00  0.00    -0.030 A 
ATOM     14  C   UNL A   1      33.047  18.882  24.113  1.00  0.00    -0.045 A 
ATOM     15  C   UNL A   1      33.958  19.435  25.019  1.00  0.00     0.004 A 
ATOM     16  C   UNL A   1      32.319  19.758  23.298  1.00  0.00     0.004 A 
ATOM     17  C   UNL A   1      34.108  20.822  25.132  1.00  0.00     0.005 A 
ATOM     18  C   UNL A   1      32.486  21.145  23.398  1.00  0.00     0.005 A 
BRANCH  14  19
ATOM     19  C   UNL A   1      32.846  17.382  23.973  1.00  0.00     0.013 C 
ATOM     20  C   UNL A   1      34.000  16.760  23.186  1.00  0.00     0.012 C 
ATOM     21  C   UNL A   1      32.659  16.663  25.314  1.00  0.00     0.012 C 
ENDBRANCH  14  19
ENDBRANCH   7  13
ENDBRANCH   5   7
ENDBRANCH   4   5
ENDBRANCH   3   4
ENDBRANCH   2   3
ENDBRANCH   1   2
BRANCH   1  22
ATOM     22  C   UNL A   1      38.239  20.297  25.010  1.00  0.00     0.202 C 
BRANCH  22  23
ATOM     23  C   UNL A   1      39.188  19.298  25.688  1.00  0.00     0.261 C 
BRANCH  23  24
ATOM     24  O   UNL A   1      40.534  19.382  25.183  1.00  0.00    -0.460 OA
BRANCH  24  25
ATOM     25  C   UNL A   1      41.485  19.489  26.140  1.00  0.00     0.338 C 
ATOM     26  O   UNL A   1      42.307  18.646  26.471  1.00  0.00    -0.246 OA
BRANCH  25  27
ATOM     27  C   UNL A   1      41.531  20.865  26.668  1.00  0.00     0.060 A 
ATOM     28  C   UNL A   1      41.902  21.880  25.776  1.00  0.00     0.016 A 
ATOM     29  C   UNL A   1      41.313  21.149  28.018  1.00  0.00     0.016 A 
ATOM     30  C   UNL A   1      42.108  23.176  26.242  1.00  0.00     0.010 A 
ATOM     31  C   UNL A   1      41.533  22.450  28.485  1.00  0.00     0.010 A 
ATOM     32  C   UNL A   1      41.969  23.459  27.607  1.00  0.00    -0.014 A 
BRANCH  32  33
ATOM     33  C   UNL A   1      42.437  24.769  28.123  1.00  0.00     0.031 A 
ATOM     34  C   UNL A   1      41.437  25.875  28.317  1.00  0.00     0.074 A 
ATOM     35  C   UNL A   1      43.724  24.956  28.466  1.00  0.00     0.049 A 
ATOM     36  N   UNL A   1      41.621  27.088  28.773  1.00  0.00    -0.248 NA
ATOM     37  C   UNL A   1      40.043  25.572  27.954  1.00  0.00     0.031 C 
ATOM     38  C   UNL A   1      44.780  23.951  28.374  1.00  0.00     0.029 A 
ATOM     39  N   UNL A   1      44.354  26.066  28.971  1.00  0.00    -0.354 N 
ATOM     40  C   UNL A   1      40.370  27.693  28.750  1.00  0.00     0.074 A 
ATOM     41  C   UNL A   1      39.440  26.724  28.211  1.00  0.00     0.031 C 
ATOM     42  C   UNL A   1      45.933  24.491  28.807  1.00  0.00     0.029 A 
ATOM     43  C   UNL A   1      45.699  25.885  29.182  1.00  0.00     0.049 A 
ATOM     44  H   UNL A   1      43.887  26.911  29.162  1.00  0.00     0.167 HD
ATOM     45  C   UNL A   1      40.022  28.938  29.149  1.00  0.00     0.031 A 
ATOM     46  C   UNL A   1      46.637  26.750  29.613  1.00  0.00     0.031 A 
ATOM     47  C   UNL A   1      40.943  29.910  29.674  1.00  0.00     0.049 A 
ATOM     48  C   UNL A   1      46.239  28.156  29.973  1.00  0.00     0.074 A 
ATOM     49  C   UNL A   1      40.682  31.196  30.115  1.00  0.00     0.029 A 
ATOM     50  N   UNL A   1      42.305  29.704  29.822  1.00  0.00    -0.354 N 
ATOM     51  N   UNL A   1      45.049  28.706  29.970  1.00  0.00    -0.248 NA
ATOM     52  C   UNL A   1      47.317  29.058  30.405  1.00  0.00     0.031 C 
ATOM     53  C   UNL A   1      41.896  31.786  30.482  1.00  0.00     0.029 A 
ATOM     54  C   UNL A   1      42.904  30.849  30.319  1.00  0.00     0.049 A 
ATOM     55  H   UNL A   1      42.777  28.868  29.604  1.00  0.00     0.167 HD
ATOM     56  C   UNL A   1      45.231  30.008  30.421  1.00  0.00     0.074 A 
ATOM     57  C   UNL A   1      46.643  30.162  30.701  1.00  0.00     0.031 C 
ATOM     58  C   UNL A   1      44.310  30.988  30.590  1.00  0.00     0.031 A 
BRANCH  45  59
ATOM     59  C   UNL A   1      38.580  29.332  28.999  1.00  0.00    -0.014 A 
ATOM     60  C   UNL A   1      38.067  29.764  27.766  1.00  0.00     0.009 A 
ATOM     61  C   UNL A   1      37.716  29.241  30.102  1.00  0.00     0.009 A 
ATOM     62  C   UNL A   1      36.724  30.127  27.649  1.00  0.00     0.001 A 
ATOM     63  C   UNL A   1      36.368  29.582  29.976  1.00  0.00     0.001 A 
ATOM     64  C   UNL A   1      35.876  30.033  28.752  1.00  0.00     0.000 A 
ENDBRANCH  45  59
BRANCH  46  65
ATOM     65  C   UNL A   1      48.055  26.320  29.714  1.00  0.00    -0.014 A 
ATOM     66  C   UNL A   1      48.564  25.801  30.913  1.00  0.00     0.009 A 
ATOM     67  C   UNL A   1      48.912  26.447  28.609  1.00  0.00     0.009 A 
ATOM     68  C   UNL A   1      49.910  25.439  31.012  1.00  0.00     0.001 A 
ATOM     69  C   UNL A   1      50.251  26.060  28.703  1.00  0.00     0.001 A 
ATOM     70  C   UNL A   1      50.751  25.564  29.905  1.00  0.00     0.000 A 
ENDBRANCH  46  65
BRANCH  58  71
ATOM     71  C   UNL A   1      44.794  32.303  31.131  1.00  0.00    -0.014 A 
ATOM     72  C   UNL A   1      45.195  33.339  30.275  1.00  0.00     0.009 A 
ATOM     73  C   UNL A   1      44.808  32.522  32.519  1.00  0.00     0.009 A 
ATOM     74  C   UNL A   1      45.630  34.559  30.798  1.00  0.00     0.001 A 
ATOM     75  C   UNL A   1      45.217  33.750  33.038  1.00  0.00     0.001 A 
ATOM     76  C   UNL A   1      45.635  34.764  32.178  1.00  0.00     0.000 A 
ENDBRANCH  58  71
ENDBRANCH  32  33
ENDBRANCH  25  27
ENDBRANCH  24  25
ENDBRANCH  23  24
ENDBRANCH  22  23
ENDBRANCH   1  22
TORSDOF 16
ENDMDL
