MODEL 1
REMARK VINA RESULT:     -11.1      0.000      0.000
REMARK SMILES Cc1ccc(NC(=O)N[C@@H]2C=C[C@@H](C(=O)OCCOCCOC(=O)c3ccc(-c4c5nc(c(-c6ccccc6)c6ccc([nH]6)c(-c6ccccc6)c6nc(c(-c7ccccc7)c7ccc4[nH]7)C=C6)C=C5)cc3)C2)c(F)c1
REMARK SMILES IDX 19 1 18 2 17 3 16 4 14 5 15 6 13 7 10 8 11 9 73 10 12 11
REMARK SMILES IDX 9 12 6 13 7 14 8 16 5 18 1 19 2 20 3 21 76 22 4 23 74 24
REMARK SMILES IDX 75 25 20 26 21 27 22 28 23 29 24 30 25 31 26 32 72 33 27 34
REMARK SMILES IDX 71 35 28 36 29 37 30 38 65 39 31 40 70 41 64 42 66 43 32 44
REMARK SMILES IDX 69 45 63 46 62 47 33 49 55 50 40 51 54 52 41 53 44 54 53 55
REMARK SMILES IDX 67 56 42 57 43 58 52 60 68 61 45 62 34 63 35 64 39 65 36 66
REMARK SMILES IDX 38 67 37 68 56 69 57 70 61 71 58 72 60 73 59 74 46 75 47 76
REMARK SMILES IDX 51 77 48 78 50 79 49 80
REMARK H PARENT 6 15 9 17 66 48 44 59
REMARK Flexibility Score: inf
ROOT
ATOM      1  O   UNL A   1      41.513  20.683  25.812  1.00  0.00    -0.374 OA
ENDROOT
BRANCH   1   2
ATOM      2  C   UNL A   1      40.623  21.189  26.795  1.00  0.00     0.202 C 
BRANCH   2   3
ATOM      3  C   UNL A   1      39.401  22.025  26.380  1.00  0.00     0.261 C 
BRANCH   3   4
ATOM      4  O   UNL A   1      38.633  21.463  25.307  1.00  0.00    -0.463 OA
BRANCH   4   5
ATOM      5  C   UNL A   1      37.315  21.813  25.307  1.00  0.00     0.312 C 
ATOM      6  O   UNL A   1      36.450  21.232  25.955  1.00  0.00    -0.252 OA
BRANCH   5   7
ATOM      7  C   UNL A   1      37.049  23.104  24.522  1.00  0.00     0.124 C 
ATOM      8  C   UNL A   1      34.688  23.295  24.032  1.00  0.00     0.107 C 
ATOM      9  C   UNL A   1      35.071  24.157  25.190  1.00  0.00    -0.006 C 
ATOM     10  C   UNL A   1      36.041  23.045  23.360  1.00  0.00     0.048 C 
ATOM     11  C   UNL A   1      36.375  24.064  25.458  1.00  0.00    -0.014 C 
BRANCH   8  12
ATOM     12  N   UNL A   1      33.682  23.960  23.234  1.00  0.00    -0.332 N 
ATOM     13  N   UNL A   1      31.751  22.733  23.870  1.00  0.00    -0.305 N 
ATOM     14  C   UNL A   1      32.329  23.790  23.234  1.00  0.00     0.319 C 
ATOM     15  H   UNL A   1      30.848  22.887  24.230  1.00  0.00     0.171 HD
ATOM     16  O   UNL A   1      31.625  24.700  22.796  1.00  0.00    -0.248 OA
ATOM     17  H   UNL A   1      34.023  24.631  22.599  1.00  0.00     0.165 HD
BRANCH  13  18
ATOM     18  C   UNL A   1      32.282  21.449  24.077  1.00  0.00     0.078 A 
ATOM     19  C   UNL A   1      32.464  17.262  24.915  1.00  0.00     0.044 C 
ATOM     20  C   UNL A   1      32.598  18.721  24.593  1.00  0.00    -0.048 A 
ATOM     21  C   UNL A   1      32.357  19.176  23.287  1.00  0.00     0.006 A 
ATOM     22  C   UNL A   1      32.840  19.653  25.608  1.00  0.00     0.045 A 
ATOM     23  C   UNL A   1      32.237  20.543  23.017  1.00  0.00     0.029 A 
ATOM     24  C   UNL A   1      32.686  21.011  25.344  1.00  0.00     0.147 A 
ATOM     25  F   UNL A   1      32.793  21.878  26.361  1.00  0.00    -0.205 F 
ENDBRANCH  13  18
ENDBRANCH   8  12
ENDBRANCH   5   7
ENDBRANCH   4   5
ENDBRANCH   3   4
ENDBRANCH   2   3
ENDBRANCH   1   2
BRANCH   1  26
ATOM     26  C   UNL A   1      42.916  20.778  26.010  1.00  0.00     0.202 C 
BRANCH  26  27
ATOM     27  C   UNL A   1      43.756  21.829  25.269  1.00  0.00     0.261 C 
BRANCH  27  28
ATOM     28  O   UNL A   1      43.038  22.990  24.822  1.00  0.00    -0.460 OA
BRANCH  28  29
ATOM     29  C   UNL A   1      43.711  24.150  24.991  1.00  0.00     0.338 C 
ATOM     30  O   UNL A   1      44.773  24.479  24.462  1.00  0.00    -0.246 OA
BRANCH  29  31
ATOM     31  C   UNL A   1      42.941  25.096  25.807  1.00  0.00     0.060 A 
ATOM     32  C   UNL A   1      43.453  26.390  25.961  1.00  0.00     0.016 A 
ATOM     33  C   UNL A   1      41.832  24.674  26.543  1.00  0.00     0.016 A 
ATOM     34  C   UNL A   1      42.891  27.254  26.895  1.00  0.00     0.010 A 
ATOM     35  C   UNL A   1      41.275  25.540  27.489  1.00  0.00     0.010 A 
ATOM     36  C   UNL A   1      41.830  26.816  27.699  1.00  0.00    -0.014 A 
BRANCH  36  37
ATOM     37  C   UNL A   1      41.417  27.638  28.860  1.00  0.00     0.031 A 
ATOM     38  C   UNL A   1      42.200  27.545  30.141  1.00  0.00     0.074 A 
ATOM     39  C   UNL A   1      40.385  28.494  28.759  1.00  0.00     0.049 A 
ATOM     40  N   UNL A   1      42.009  28.167  31.277  1.00  0.00    -0.248 NA
ATOM     41  C   UNL A   1      43.354  26.631  30.141  1.00  0.00     0.031 C 
ATOM     42  C   UNL A   1      39.586  28.718  27.555  1.00  0.00     0.029 A 
ATOM     43  N   UNL A   1      39.837  29.337  29.691  1.00  0.00    -0.354 N 
ATOM     44  C   UNL A   1      43.007  27.711  32.128  1.00  0.00     0.074 A 
ATOM     45  C   UNL A   1      43.788  26.744  31.388  1.00  0.00     0.031 C 
ATOM     46  C   UNL A   1      38.647  29.641  27.823  1.00  0.00     0.029 A 
ATOM     47  C   UNL A   1      38.757  30.044  29.224  1.00  0.00     0.049 A 
ATOM     48  H   UNL A   1      40.185  29.427  30.608  1.00  0.00     0.167 HD
ATOM     49  C   UNL A   1      43.255  28.068  33.412  1.00  0.00     0.031 A 
ATOM     50  C   UNL A   1      37.939  30.904  29.860  1.00  0.00     0.031 A 
ATOM     51  C   UNL A   1      42.473  29.023  34.151  1.00  0.00     0.049 A 
ATOM     52  C   UNL A   1      38.182  31.216  31.311  1.00  0.00     0.074 A 
ATOM     53  C   UNL A   1      42.656  29.468  35.449  1.00  0.00     0.029 A 
ATOM     54  N   UNL A   1      41.352  29.674  33.659  1.00  0.00    -0.354 N 
ATOM     55  N   UNL A   1      39.144  30.798  32.098  1.00  0.00    -0.248 NA
ATOM     56  C   UNL A   1      37.226  32.126  31.959  1.00  0.00     0.031 C 
ATOM     57  C   UNL A   1      41.609  30.342  35.762  1.00  0.00     0.029 A 
ATOM     58  C   UNL A   1      40.813  30.490  34.639  1.00  0.00     0.049 A 
ATOM     59  H   UNL A   1      40.994  29.571  32.748  1.00  0.00     0.167 HD
ATOM     60  C   UNL A   1      38.927  31.416  33.324  1.00  0.00     0.074 A 
ATOM     61  C   UNL A   1      37.751  32.248  33.171  1.00  0.00     0.031 C 
ATOM     62  C   UNL A   1      39.641  31.310  34.472  1.00  0.00     0.031 A 
BRANCH  49  63
ATOM     63  C   UNL A   1      44.397  27.385  34.112  1.00  0.00    -0.014 A 
ATOM     64  C   UNL A   1      45.639  28.015  34.277  1.00  0.00     0.009 A 
ATOM     65  C   UNL A   1      44.213  26.097  34.642  1.00  0.00     0.009 A 
ATOM     66  C   UNL A   1      46.686  27.355  34.926  1.00  0.00     0.001 A 
ATOM     67  C   UNL A   1      45.252  25.452  35.315  1.00  0.00     0.001 A 
ATOM     68  C   UNL A   1      46.490  26.077  35.448  1.00  0.00     0.000 A 
ENDBRANCH  49  63
BRANCH  50  69
ATOM     69  C   UNL A   1      36.797  31.517  29.135  1.00  0.00    -0.014 A 
ATOM     70  C   UNL A   1      36.884  32.828  28.643  1.00  0.00     0.009 A 
ATOM     71  C   UNL A   1      35.605  30.799  28.947  1.00  0.00     0.009 A 
ATOM     72  C   UNL A   1      35.792  33.415  27.998  1.00  0.00     0.001 A 
ATOM     73  C   UNL A   1      34.526  31.378  28.276  1.00  0.00     0.001 A 
ATOM     74  C   UNL A   1      34.617  32.689  27.811  1.00  0.00     0.000 A 
ENDBRANCH  50  69
BRANCH  62  75
ATOM     75  C   UNL A   1      39.191  32.141  35.642  1.00  0.00    -0.014 A 
ATOM     76  C   UNL A   1      39.637  33.459  35.818  1.00  0.00     0.009 A 
ATOM     77  C   UNL A   1      38.276  31.604  36.561  1.00  0.00     0.009 A 
ATOM     78  C   UNL A   1      39.201  34.212  36.911  1.00  0.00     0.001 A 
ATOM     79  C   UNL A   1      37.818  32.369  37.635  1.00  0.00     0.001 A 
ATOM     80  C   UNL A   1      38.289  33.668  37.815  1.00  0.00     0.000 A 
ENDBRANCH  62  75
ENDBRANCH  36  37
ENDBRANCH  29  31
ENDBRANCH  28  29
ENDBRANCH  27  28
ENDBRANCH  26  27
ENDBRANCH   1  26
TORSDOF 16
ENDMDL
MODEL 2
REMARK VINA RESULT:     -11.0      3.664      8.318
REMARK SMILES Cc1ccc(NC(=O)N[C@@H]2C=C[C@@H](C(=O)OCCOCCOC(=O)c3ccc(-c4c5nc(c(-c6ccccc6)c6ccc([nH]6)c(-c6ccccc6)c6nc(c(-c7ccccc7)c7ccc4[nH]7)C=C6)C=C5)cc3)C2)c(F)c1
REMARK SMILES IDX 19 1 18 2 17 3 16 4 14 5 15 6 13 7 10 8 11 9 73 10 12 11
REMARK SMILES IDX 9 12 6 13 7 14 8 16 5 18 1 19 2 20 3 21 76 22 4 23 74 24
REMARK SMILES IDX 75 25 20 26 21 27 22 28 23 29 24 30 25 31 26 32 72 33 27 34
REMARK SMILES IDX 71 35 28 36 29 37 30 38 65 39 31 40 70 41 64 42 66 43 32 44
REMARK SMILES IDX 69 45 63 46 62 47 33 49 55 50 40 51 54 52 41 53 44 54 53 55
REMARK SMILES IDX 67 56 42 57 43 58 52 60 68 61 45 62 34 63 35 64 39 65 36 66
REMARK SMILES IDX 38 67 37 68 56 69 57 70 61 71 58 72 60 73 59 74 46 75 47 76
REMARK SMILES IDX 51 77 48 78 50 79 49 80
REMARK H PARENT 6 15 9 17 66 48 44 59
REMARK Flexibility Score: inf
ROOT
ATOM      1  O   UNL A   1      32.430  29.163  25.057  1.00  0.00    -0.374 OA
ENDROOT
BRANCH   1   2
ATOM      2  C   UNL A   1      32.400  28.369  23.880  1.00  0.00     0.202 C 
BRANCH   2   3
ATOM      3  C   UNL A   1      33.291  27.122  23.762  1.00  0.00     0.261 C 
BRANCH   3   4
ATOM      4  O   UNL A   1      32.579  25.877  23.793  1.00  0.00    -0.463 OA
BRANCH   4   5
ATOM      5  C   UNL A   1      32.957  24.982  22.836  1.00  0.00     0.312 C 
ATOM      6  O   UNL A   1      34.043  25.005  22.265  1.00  0.00    -0.252 OA
BRANCH   5   7
ATOM      7  C   UNL A   1      31.935  23.853  22.650  1.00  0.00     0.124 C 
ATOM      8  C   UNL A   1      32.550  21.956  24.019  1.00  0.00     0.107 C 
ATOM      9  C   UNL A   1      31.457  22.749  24.655  1.00  0.00    -0.006 C 
ATOM     10  C   UNL A   1      32.466  22.411  22.559  1.00  0.00     0.048 C 
ATOM     11  C   UNL A   1      31.106  23.792  23.899  1.00  0.00    -0.014 C 
BRANCH   8  12
ATOM     12  N   UNL A   1      32.347  20.547  24.270  1.00  0.00    -0.332 N 
ATOM     13  N   UNL A   1      33.851  20.213  26.077  1.00  0.00    -0.305 N 
ATOM     14  C   UNL A   1      32.846  19.768  25.272  1.00  0.00     0.319 C 
ATOM     15  H   UNL A   1      33.854  19.863  26.997  1.00  0.00     0.171 HD
ATOM     16  O   UNL A   1      32.258  18.722  25.549  1.00  0.00    -0.248 OA
ATOM     17  H   UNL A   1      31.766  20.083  23.625  1.00  0.00     0.165 HD
BRANCH  13  18
ATOM     18  C   UNL A   1      34.885  21.109  25.759  1.00  0.00     0.078 A 
ATOM     19  C   UNL A   1      38.625  23.168  25.966  1.00  0.00     0.044 C 
ATOM     20  C   UNL A   1      37.277  22.554  25.730  1.00  0.00    -0.048 A 
ATOM     21  C   UNL A   1      37.173  21.334  25.042  1.00  0.00     0.006 A 
ATOM     22  C   UNL A   1      36.129  23.121  26.294  1.00  0.00     0.045 A 
ATOM     23  C   UNL A   1      35.967  20.627  25.022  1.00  0.00     0.029 A 
ATOM     24  C   UNL A   1      34.939  22.398  26.302  1.00  0.00     0.147 A 
ATOM     25  F   UNL A   1      33.887  22.903  26.962  1.00  0.00    -0.205 F 
ENDBRANCH  13  18
ENDBRANCH   8  12
ENDBRANCH   5   7
ENDBRANCH   4   5
ENDBRANCH   3   4
ENDBRANCH   2   3
ENDBRANCH   1   2
BRANCH   1  26
ATOM     26  C   UNL A   1      31.830  28.683  26.251  1.00  0.00     0.202 C 
BRANCH  26  27
ATOM     27  C   UNL A   1      32.629  28.577  27.558  1.00  0.00     0.261 C 
BRANCH  27  28
ATOM     28  O   UNL A   1      34.049  28.752  27.429  1.00  0.00    -0.460 OA
BRANCH  28  29
ATOM     29  C   UNL A   1      34.486  29.975  27.802  1.00  0.00     0.338 C 
ATOM     30  O   UNL A   1      33.825  31.012  27.880  1.00  0.00    -0.246 OA
BRANCH  29  31
ATOM     31  C   UNL A   1      35.877  29.923  28.268  1.00  0.00     0.060 A 
ATOM     32  C   UNL A   1      36.889  30.147  27.327  1.00  0.00     0.016 A 
ATOM     33  C   UNL A   1      36.186  29.496  29.562  1.00  0.00     0.016 A 
ATOM     34  C   UNL A   1      38.216  29.891  27.657  1.00  0.00     0.010 A 
ATOM     35  C   UNL A   1      37.518  29.230  29.889  1.00  0.00     0.010 A 
ATOM     36  C   UNL A   1      38.532  29.384  28.925  1.00  0.00    -0.014 A 
BRANCH  36  37
ATOM     37  C   UNL A   1      39.898  28.869  29.176  1.00  0.00     0.031 A 
ATOM     38  C   UNL A   1      40.889  29.739  29.899  1.00  0.00     0.074 A 
ATOM     39  C   UNL A   1      40.236  27.621  28.806  1.00  0.00     0.049 A 
ATOM     40  N   UNL A   1      42.135  29.490  30.215  1.00  0.00    -0.248 NA
ATOM     41  C   UNL A   1      40.413  31.065  30.324  1.00  0.00     0.031 C 
ATOM     42  C   UNL A   1      39.347  26.662  28.152  1.00  0.00     0.029 A 
ATOM     43  N   UNL A   1      41.425  26.950  28.935  1.00  0.00    -0.354 N 
ATOM     44  C   UNL A   1      42.594  30.631  30.863  1.00  0.00     0.074 A 
ATOM     45  C   UNL A   1      41.503  31.580  30.875  1.00  0.00     0.031 C 
ATOM     46  C   UNL A   1      40.024  25.521  27.936  1.00  0.00     0.029 A 
ATOM     47  C   UNL A   1      41.400  25.684  28.402  1.00  0.00     0.049 A 
ATOM     48  H   UNL A   1      42.220  27.337  29.367  1.00  0.00     0.167 HD
ATOM     49  C   UNL A   1      43.814  30.865  31.404  1.00  0.00     0.031 A 
ATOM     50  C   UNL A   1      42.381  24.769  28.288  1.00  0.00     0.031 A 
ATOM     51  C   UNL A   1      44.902  29.924  31.385  1.00  0.00     0.049 A 
ATOM     52  C   UNL A   1      43.752  25.089  28.818  1.00  0.00     0.074 A 
ATOM     53  C   UNL A   1      46.170  30.059  31.923  1.00  0.00     0.029 A 
ATOM     54  N   UNL A   1      44.854  28.675  30.785  1.00  0.00    -0.354 N 
ATOM     55  N   UNL A   1      44.167  26.160  29.451  1.00  0.00    -0.248 NA
ATOM     56  C   UNL A   1      44.791  24.066  28.620  1.00  0.00     0.031 C 
ATOM     57  C   UNL A   1      46.907  28.916  31.596  1.00  0.00     0.029 A 
ATOM     58  C   UNL A   1      46.079  28.043  30.910  1.00  0.00     0.049 A 
ATOM     59  H   UNL A   1      44.064  28.294  30.337  1.00  0.00     0.167 HD
ATOM     60  C   UNL A   1      45.504  25.928  29.753  1.00  0.00     0.074 A 
ATOM     61  C   UNL A   1      45.825  24.610  29.246  1.00  0.00     0.031 C 
ATOM     62  C   UNL A   1      46.384  26.732  30.398  1.00  0.00     0.031 A 
BRANCH  49  63
ATOM     63  C   UNL A   1      44.048  32.214  32.025  1.00  0.00    -0.014 A 
ATOM     64  C   UNL A   1      43.805  32.448  33.387  1.00  0.00     0.009 A 
ATOM     65  C   UNL A   1      44.550  33.262  31.235  1.00  0.00     0.009 A 
ATOM     66  C   UNL A   1      44.025  33.713  33.937  1.00  0.00     0.001 A 
ATOM     67  C   UNL A   1      44.795  34.517  31.794  1.00  0.00     0.001 A 
ATOM     68  C   UNL A   1      44.524  34.745  33.141  1.00  0.00     0.000 A 
ENDBRANCH  49  63
BRANCH  50  69
ATOM     69  C   UNL A   1      42.110  23.468  27.626  1.00  0.00    -0.014 A 
ATOM     70  C   UNL A   1      41.527  22.410  28.339  1.00  0.00     0.009 A 
ATOM     71  C   UNL A   1      42.451  23.271  26.278  1.00  0.00     0.009 A 
ATOM     72  C   UNL A   1      41.312  21.175  27.722  1.00  0.00     0.001 A 
ATOM     73  C   UNL A   1      42.208  22.045  25.656  1.00  0.00     0.001 A 
ATOM     74  C   UNL A   1      41.648  20.995  26.381  1.00  0.00     0.000 A 
ENDBRANCH  50  69
BRANCH  62  75
ATOM     75  C   UNL A   1      47.770  26.194  30.625  1.00  0.00    -0.014 A 
ATOM     76  C   UNL A   1      48.737  26.210  29.609  1.00  0.00     0.009 A 
ATOM     77  C   UNL A   1      48.122  25.698  31.890  1.00  0.00     0.009 A 
ATOM     78  C   UNL A   1      50.019  25.708  29.846  1.00  0.00     0.001 A 
ATOM     79  C   UNL A   1      49.412  25.225  32.133  1.00  0.00     0.001 A 
ATOM     80  C   UNL A   1      50.356  25.221  31.108  1.00  0.00     0.000 A 
ENDBRANCH  62  75
ENDBRANCH  36  37
ENDBRANCH  29  31
ENDBRANCH  28  29
ENDBRANCH  27  28
ENDBRANCH  26  27
ENDBRANCH   1  26
TORSDOF 16
ENDMDL
MODEL 3
REMARK VINA RESULT:     -10.9      3.852      8.039
REMARK SMILES Cc1ccc(NC(=O)N[C@@H]2C=C[C@@H](C(=O)OCCOCCOC(=O)c3ccc(-c4c5nc(c(-c6ccccc6)c6ccc([nH]6)c(-c6ccccc6)c6nc(c(-c7ccccc7)c7ccc4[nH]7)C=C6)C=C5)cc3)C2)c(F)c1
REMARK SMILES IDX 19 1 18 2 17 3 16 4 14 5 15 6 13 7 10 8 11 9 73 10 12 11
REMARK SMILES IDX 9 12 6 13 7 14 8 16 5 18 1 19 2 20 3 21 76 22 4 23 74 24
REMARK SMILES IDX 75 25 20 26 21 27 22 28 23 29 24 30 25 31 26 32 72 33 27 34
REMARK SMILES IDX 71 35 28 36 29 37 30 38 65 39 31 40 70 41 64 42 66 43 32 44
REMARK SMILES IDX 69 45 63 46 62 47 33 49 55 50 40 51 54 52 41 53 44 54 53 55
REMARK SMILES IDX 67 56 42 57 43 58 52 60 68 61 45 62 34 63 35 64 39 65 36 66
REMARK SMILES IDX 38 67 37 68 56 69 57 70 61 71 58 72 60 73 59 74 46 75 47 76
REMARK SMILES IDX 51 77 48 78 50 79 49 80
REMARK H PARENT 6 15 9 17 66 48 44 59
REMARK Flexibility Score: inf
ROOT
ATOM      1  O   UNL A   1      34.373  20.647  26.044  1.00  0.00    -0.374 OA
ENDROOT
BRANCH   1   2
ATOM      2  C   UNL A   1      33.309  21.577  26.178  1.00  0.00     0.202 C 
BRANCH   2   3
ATOM      3  C   UNL A   1      33.592  23.088  26.162  1.00  0.00     0.261 C 
BRANCH   3   4
ATOM      4  O   UNL A   1      32.681  23.855  25.363  1.00  0.00    -0.463 OA
BRANCH   4   5
ATOM      5  C   UNL A   1      31.568  24.286  26.024  1.00  0.00     0.312 C 
ATOM      6  O   UNL A   1      31.541  24.550  27.222  1.00  0.00    -0.252 OA
BRANCH   5   7
ATOM      7  C   UNL A   1      30.387  24.546  25.081  1.00  0.00     0.124 C 
ATOM      8  C   UNL A   1      30.697  26.655  23.938  1.00  0.00     0.107 C 
ATOM      9  C   UNL A   1      31.060  25.505  23.057  1.00  0.00    -0.006 C 
ATOM     10  C   UNL A   1      29.830  25.979  25.003  1.00  0.00     0.048 C 
ATOM     11  C   UNL A   1      30.881  24.338  23.679  1.00  0.00    -0.014 C 
BRANCH   8  12
ATOM     12  N   UNL A   1      30.068  27.695  23.156  1.00  0.00    -0.332 N 
ATOM     13  N   UNL A   1      31.787  29.334  23.160  1.00  0.00    -0.305 N 
ATOM     14  C   UNL A   1      30.591  28.869  22.700  1.00  0.00     0.319 C 
ATOM     15  H   UNL A   1      32.314  29.872  22.526  1.00  0.00     0.171 HD
ATOM     16  O   UNL A   1      30.050  29.418  21.740  1.00  0.00    -0.248 OA
ATOM     17  H   UNL A   1      29.126  27.533  22.918  1.00  0.00     0.165 HD
BRANCH  13  18
ATOM     18  C   UNL A   1      32.362  29.142  24.427  1.00  0.00     0.078 A 
ATOM     19  C   UNL A   1      34.847  29.765  27.849  1.00  0.00     0.044 C 
ATOM     20  C   UNL A   1      33.896  29.393  26.749  1.00  0.00    -0.048 A 
ATOM     21  C   UNL A   1      32.663  30.055  26.635  1.00  0.00     0.006 A 
ATOM     22  C   UNL A   1      34.275  28.479  25.761  1.00  0.00     0.045 A 
ATOM     23  C   UNL A   1      31.874  29.902  25.490  1.00  0.00     0.029 A 
ATOM     24  C   UNL A   1      33.505  28.355  24.609  1.00  0.00     0.147 A 
ATOM     25  F   UNL A   1      33.955  27.571  23.618  1.00  0.00    -0.205 F 
ENDBRANCH  13  18
ENDBRANCH   8  12
ENDBRANCH   5   7
ENDBRANCH   4   5
ENDBRANCH   3   4
ENDBRANCH   2   3
ENDBRANCH   1   2
BRANCH   1  26
ATOM     26  C   UNL A   1      35.240  20.721  24.922  1.00  0.00     0.202 C 
BRANCH  26  27
ATOM     27  C   UNL A   1      36.732  20.375  25.044  1.00  0.00     0.261 C 
BRANCH  27  28
ATOM     28  O   UNL A   1      37.619  21.499  25.150  1.00  0.00    -0.460 OA
BRANCH  28  29
ATOM     29  C   UNL A   1      38.759  21.237  25.827  1.00  0.00     0.338 C 
ATOM     30  O   UNL A   1      39.410  20.192  25.813  1.00  0.00    -0.246 OA
BRANCH  29  31
ATOM     31  C   UNL A   1      39.257  22.435  26.513  1.00  0.00     0.060 A 
ATOM     32  C   UNL A   1      38.664  23.663  26.193  1.00  0.00     0.016 A 
ATOM     33  C   UNL A   1      40.391  22.379  27.325  1.00  0.00     0.016 A 
ATOM     34  C   UNL A   1      39.238  24.849  26.638  1.00  0.00     0.010 A 
ATOM     35  C   UNL A   1      40.972  23.573  27.764  1.00  0.00     0.010 A 
ATOM     36  C   UNL A   1      40.423  24.812  27.385  1.00  0.00    -0.014 A 
BRANCH  36  37
ATOM     37  C   UNL A   1      41.165  26.072  27.626  1.00  0.00     0.031 A 
ATOM     38  C   UNL A   1      40.553  27.126  28.508  1.00  0.00     0.074 A 
ATOM     39  C   UNL A   1      42.390  26.254  27.106  1.00  0.00     0.049 A 
ATOM     40  N   UNL A   1      41.023  28.300  28.845  1.00  0.00    -0.248 NA
ATOM     41  C   UNL A   1      39.237  26.815  29.089  1.00  0.00     0.031 C 
ATOM     42  C   UNL A   1      43.114  25.284  26.285  1.00  0.00     0.029 A 
ATOM     43  N   UNL A   1      43.242  27.324  27.196  1.00  0.00    -0.354 N 
ATOM     44  C   UNL A   1      40.057  28.872  29.665  1.00  0.00     0.074 A 
ATOM     45  C   UNL A   1      38.965  27.927  29.756  1.00  0.00     0.031 C 
ATOM     46  C   UNL A   1      44.305  25.805  25.946  1.00  0.00     0.029 A 
ATOM     47  C   UNL A   1      44.411  27.156  26.494  1.00  0.00     0.049 A 
ATOM     48  H   UNL A   1      43.037  28.136  27.714  1.00  0.00     0.167 HD
ATOM     49  C   UNL A   1      40.079  30.074  30.289  1.00  0.00     0.031 A 
ATOM     50  C   UNL A   1      45.439  28.004  26.301  1.00  0.00     0.031 A 
ATOM     51  C   UNL A   1      41.161  31.017  30.191  1.00  0.00     0.049 A 
ATOM     52  C   UNL A   1      45.399  29.368  26.933  1.00  0.00     0.074 A 
ATOM     53  C   UNL A   1      41.287  32.253  30.802  1.00  0.00     0.029 A 
ATOM     54  N   UNL A   1      42.301  30.832  29.423  1.00  0.00    -0.354 N 
ATOM     55  N   UNL A   1      44.492  29.887  27.726  1.00  0.00    -0.248 NA
ATOM     56  C   UNL A   1      46.530  30.262  26.646  1.00  0.00     0.031 C 
ATOM     57  C   UNL A   1      42.475  32.841  30.355  1.00  0.00     0.029 A 
ATOM     58  C   UNL A   1      43.119  31.945  29.518  1.00  0.00     0.049 A 
ATOM     59  H   UNL A   1      42.499  30.028  28.891  1.00  0.00     0.167 HD
ATOM     60  C   UNL A   1      44.957  31.155  28.056  1.00  0.00     0.074 A 
ATOM     61  C   UNL A   1      46.232  31.320  27.388  1.00  0.00     0.031 C 
ATOM     62  C   UNL A   1      44.383  32.096  28.846  1.00  0.00     0.031 A 
BRANCH  49  63
ATOM     63  C   UNL A   1      38.871  30.455  31.099  1.00  0.00    -0.014 A 
ATOM     64  C   UNL A   1      37.757  31.072  30.510  1.00  0.00     0.009 A 
ATOM     65  C   UNL A   1      38.839  30.163  32.473  1.00  0.00     0.009 A 
ATOM     66  C   UNL A   1      36.650  31.423  31.288  1.00  0.00     0.001 A 
ATOM     67  C   UNL A   1      37.720  30.490  33.241  1.00  0.00     0.001 A 
ATOM     68  C   UNL A   1      36.631  31.127  32.651  1.00  0.00     0.000 A 
ENDBRANCH  49  63
BRANCH  50  69
ATOM     69  C   UNL A   1      46.589  27.596  25.454  1.00  0.00    -0.014 A 
ATOM     70  C   UNL A   1      47.649  26.855  25.996  1.00  0.00     0.009 A 
ATOM     71  C   UNL A   1      46.640  27.963  24.099  1.00  0.00     0.009 A 
ATOM     72  C   UNL A   1      48.748  26.510  25.205  1.00  0.00     0.001 A 
ATOM     73  C   UNL A   1      47.725  27.591  23.304  1.00  0.00     0.001 A 
ATOM     74  C   UNL A   1      48.783  26.873  23.860  1.00  0.00     0.000 A 
ENDBRANCH  50  69
BRANCH  62  75
ATOM     75  C   UNL A   1      45.147  33.373  29.061  1.00  0.00    -0.014 A 
ATOM     76  C   UNL A   1      46.088  33.498  30.094  1.00  0.00     0.009 A 
ATOM     77  C   UNL A   1      44.946  34.455  28.189  1.00  0.00     0.009 A 
ATOM     78  C   UNL A   1      46.787  34.694  30.271  1.00  0.00     0.001 A 
ATOM     79  C   UNL A   1      45.670  35.638  28.349  1.00  0.00     0.001 A 
ATOM     80  C   UNL A   1      46.581  35.760  29.396  1.00  0.00     0.000 A 
ENDBRANCH  62  75
ENDBRANCH  36  37
ENDBRANCH  29  31
ENDBRANCH  28  29
ENDBRANCH  27  28
ENDBRANCH  26  27
ENDBRANCH   1  26
TORSDOF 16
ENDMDL
