MODEL 1
REMARK VINA RESULT:     -11.1      0.000      0.000
REMARK SMILES COc1ccc(CCN2/C(=[NH+]/C(=O)CCC(=O)OCCOCCOC(=O)c3ccc(-c4c5nc(c(-c6ccccc6)c6ccc([nH]6)c(-c6ccccc6)c6nc(c(-c7ccccc7)c7ccc4[nH]7)C=C6)C=C5)cc3)S[C@@H]3CS(=O)(=O)C[C@@H]32)cc1
REMARK SMILES IDX 19 1 18 2 16 3 17 4 15 5 14 6 12 7 9 8 10 9 82 10 11 11
REMARK SMILES IDX 75 12 76 13 81 14 77 16 78 17 13 18 79 19 80 20 8 21 7 22
REMARK SMILES IDX 6 23 3 24 4 25 84 26 5 27 83 28 2 29 1 30 20 31 21 32 22 33
REMARK SMILES IDX 23 34 24 35 25 36 26 37 27 38 28 39 74 40 29 41 73 42 30 43
REMARK SMILES IDX 31 44 32 45 67 46 33 47 72 48 66 49 68 50 34 51 71 52 65 53
REMARK SMILES IDX 64 54 35 56 57 57 42 58 56 59 43 60 46 61 55 62 69 63 44 64
REMARK SMILES IDX 45 65 54 67 70 68 47 69 36 70 37 71 41 72 38 73 40 74 39 75
REMARK SMILES IDX 58 76 59 77 63 78 60 79 62 80 61 81 48 82 49 83 53 84 50 85
REMARK SMILES IDX 52 86 51 87
REMARK H PARENT 11 15 68 55 46 66
REMARK Flexibility Score: inf
ROOT
ATOM      1  C   UNL A   1      34.345  35.276  28.434  1.00  0.00     0.261 C 
ENDROOT
BRANCH   1   2
ATOM      2  O   UNL A   1      34.800  33.931  28.624  1.00  0.00    -0.463 OA
BRANCH   2   3
ATOM      3  C   UNL A   1      34.126  32.958  27.978  1.00  0.00     0.306 C 
ATOM      4  O   UNL A   1      32.946  33.014  27.663  1.00  0.00    -0.252 OA
BRANCH   3   5
ATOM      5  C   UNL A   1      35.031  31.788  27.665  1.00  0.00     0.135 C 
BRANCH   5   6
ATOM      6  C   UNL A   1      34.483  30.416  28.043  1.00  0.00     0.139 C 
BRANCH   6   7
ATOM      7  C   UNL A   1      33.803  29.709  26.872  1.00  0.00     0.308 C 
ATOM      8  N   UNL A   1      33.907  26.360  25.112  1.00  0.00    -0.251 N 
ATOM      9  C   UNL A   1      33.839  27.742  25.536  1.00  0.00     0.314 C 
ATOM     10  C   UNL A   1      32.754  26.094  24.150  1.00  0.00     0.206 C 
ATOM     11  N   UNL A   1      34.126  28.365  26.632  1.00  0.00    -0.205 N 
ATOM     12  S   UNL A   1      33.147  28.699  24.160  1.00  0.00    -0.030 SA
ATOM     13  C   UNL A   1      32.009  27.406  23.796  1.00  0.00     0.120 C 
ATOM     14  C   UNL A   1      31.682  25.109  24.596  1.00  0.00     0.187 C 
ATOM     15  H   UNL A   1      34.599  27.869  27.339  1.00  0.00     0.316 HD
ATOM     16  C   UNL A   1      30.829  27.629  24.719  1.00  0.00     0.156 C 
ATOM     17  S   UNL A   1      30.176  26.013  24.911  1.00  0.00     0.155 S 
ATOM     18  O   UNL A   1      32.922  30.363  26.310  1.00  0.00    -0.247 OA
ATOM     19  O   UNL A   1      29.792  25.818  26.297  1.00  0.00    -0.229 OA
ATOM     20  O   UNL A   1      29.258  25.790  23.819  1.00  0.00    -0.229 OA
BRANCH   8  21
ATOM     21  C   UNL A   1      35.017  25.093  25.339  1.00  0.00     0.242 C 
BRANCH  21  22
ATOM     22  C   UNL A   1      35.161  23.280  24.884  1.00  0.00     0.081 C 
BRANCH  22  23
ATOM     23  C   UNL A   1      34.449  21.777  25.241  1.00  0.00    -0.044 A 
ATOM     24  C   UNL A   1      33.148  19.272  24.625  1.00  0.00     0.118 A 
ATOM     25  C   UNL A   1      32.438  20.339  25.145  1.00  0.00     0.046 A 
ATOM     26  C   UNL A   1      34.534  19.332  24.742  1.00  0.00     0.046 A 
ATOM     27  C   UNL A   1      33.100  21.512  25.589  1.00  0.00     0.007 A 
ATOM     28  C   UNL A   1      35.176  20.589  25.013  1.00  0.00     0.007 A 
BRANCH  24  29
ATOM     29  O   UNL A   1      32.387  18.420  23.876  1.00  0.00    -0.497 OA
ATOM     30  C   UNL A   1      32.329  18.497  22.463  1.00  0.00     0.278 C 
ENDBRANCH  24  29
ENDBRANCH  22  23
ENDBRANCH  21  22
ENDBRANCH   8  21
ENDBRANCH   6   7
ENDBRANCH   5   6
ENDBRANCH   3   5
ENDBRANCH   2   3
ENDBRANCH   1   2
BRANCH   1  31
ATOM     31  C   UNL A   1      33.039  35.582  29.202  1.00  0.00     0.202 C 
BRANCH  31  32
ATOM     32  O   UNL A   1      32.848  36.669  30.120  1.00  0.00    -0.374 OA
BRANCH  32  33
ATOM     33  C   UNL A   1      32.637  36.318  31.500  1.00  0.00     0.202 C 
BRANCH  33  34
ATOM     34  C   UNL A   1      33.579  35.363  32.405  1.00  0.00     0.261 C 
BRANCH  34  35
ATOM     35  O   UNL A   1      33.518  33.866  32.707  1.00  0.00    -0.460 OA
BRANCH  35  36
ATOM     36  C   UNL A   1      34.681  33.390  33.219  1.00  0.00     0.338 C 
ATOM     37  O   UNL A   1      34.686  33.517  34.430  1.00  0.00    -0.246 OA
BRANCH  36  38
ATOM     38  C   UNL A   1      35.951  32.622  32.637  1.00  0.00     0.060 A 
ATOM     39  C   UNL A   1      36.344  32.955  31.303  1.00  0.00     0.016 A 
ATOM     40  C   UNL A   1      36.878  31.788  33.234  1.00  0.00     0.016 A 
ATOM     41  C   UNL A   1      37.530  32.706  30.626  1.00  0.00     0.010 A 
ATOM     42  C   UNL A   1      38.144  31.513  32.576  1.00  0.00     0.010 A 
ATOM     43  C   UNL A   1      38.497  32.029  31.298  1.00  0.00    -0.014 A 
BRANCH  43  44
ATOM     44  C   UNL A   1      39.759  31.777  30.568  1.00  0.00     0.031 A 
ATOM     45  C   UNL A   1      39.881  30.487  29.839  1.00  0.00     0.074 A 
ATOM     46  C   UNL A   1      40.690  32.718  30.299  1.00  0.00     0.049 A 
ATOM     47  N   UNL A   1      40.950  29.887  29.412  1.00  0.00    -0.248 NA
ATOM     48  C   UNL A   1      38.616  29.817  29.488  1.00  0.00     0.031 C 
ATOM     49  C   UNL A   1      40.513  34.161  30.363  1.00  0.00     0.029 A 
ATOM     50  N   UNL A   1      42.025  32.593  30.013  1.00  0.00    -0.354 N 
ATOM     51  C   UNL A   1      40.495  28.746  28.776  1.00  0.00     0.074 A 
ATOM     52  C   UNL A   1      39.053  28.740  28.858  1.00  0.00     0.031 C 
ATOM     53  C   UNL A   1      41.709  34.770  30.427  1.00  0.00     0.029 A 
ATOM     54  C   UNL A   1      42.728  33.740  30.344  1.00  0.00     0.049 A 
ATOM     55  H   UNL A   1      42.434  31.787  29.622  1.00  0.00     0.167 HD
ATOM     56  C   UNL A   1      41.251  27.790  28.196  1.00  0.00     0.031 A 
ATOM     57  C   UNL A   1      44.039  33.890  30.612  1.00  0.00     0.031 A 
ATOM     58  C   UNL A   1      42.684  27.865  28.186  1.00  0.00     0.049 A 
ATOM     59  C   UNL A   1      44.898  32.698  30.307  1.00  0.00     0.074 A 
ATOM     60  C   UNL A   1      43.606  26.948  27.725  1.00  0.00     0.029 A 
ATOM     61  N   UNL A   1      43.403  28.951  28.680  1.00  0.00    -0.354 N 
ATOM     62  N   UNL A   1      44.514  31.523  29.861  1.00  0.00    -0.248 NA
ATOM     63  C   UNL A   1      46.347  32.854  30.447  1.00  0.00     0.031 C 
ATOM     64  C   UNL A   1      44.882  27.456  27.998  1.00  0.00     0.029 A 
ATOM     65  C   UNL A   1      44.757  28.719  28.565  1.00  0.00     0.049 A 
ATOM     66  H   UNL A   1      43.002  29.767  29.057  1.00  0.00     0.167 HD
ATOM     67  C   UNL A   1      45.672  30.839  29.550  1.00  0.00     0.074 A 
ATOM     68  C   UNL A   1      46.775  31.711  29.921  1.00  0.00     0.031 C 
ATOM     69  C   UNL A   1      45.809  29.629  28.955  1.00  0.00     0.031 A 
BRANCH  56  70
ATOM     70  C   UNL A   1      40.525  26.585  27.681  1.00  0.00    -0.014 A 
ATOM     71  C   UNL A   1      39.788  25.742  28.530  1.00  0.00     0.009 A 
ATOM     72  C   UNL A   1      40.663  26.232  26.330  1.00  0.00     0.009 A 
ATOM     73  C   UNL A   1      39.244  24.550  28.043  1.00  0.00     0.001 A 
ATOM     74  C   UNL A   1      40.096  25.055  25.841  1.00  0.00     0.001 A 
ATOM     75  C   UNL A   1      39.398  24.208  26.700  1.00  0.00     0.000 A 
ENDBRANCH  56  70
BRANCH  57  76
ATOM     76  C   UNL A   1      44.594  35.145  31.191  1.00  0.00    -0.014 A 
ATOM     77  C   UNL A   1      44.688  35.337  32.577  1.00  0.00     0.009 A 
ATOM     78  C   UNL A   1      45.003  36.196  30.348  1.00  0.00     0.009 A 
ATOM     79  C   UNL A   1      45.145  36.551  33.105  1.00  0.00     0.001 A 
ATOM     80  C   UNL A   1      45.475  37.404  30.877  1.00  0.00     0.001 A 
ATOM     81  C   UNL A   1      45.537  37.585  32.256  1.00  0.00     0.000 A 
ENDBRANCH  57  76
BRANCH  69  82
ATOM     82  C   UNL A   1      47.204  29.227  28.595  1.00  0.00    -0.014 A 
ATOM     83  C   UNL A   1      47.997  28.472  29.468  1.00  0.00     0.009 A 
ATOM     84  C   UNL A   1      47.692  29.561  27.322  1.00  0.00     0.009 A 
ATOM     85  C   UNL A   1      49.272  28.074  29.076  1.00  0.00     0.001 A 
ATOM     86  C   UNL A   1      48.952  29.129  26.920  1.00  0.00     0.001 A 
ATOM     87  C   UNL A   1      49.743  28.391  27.801  1.00  0.00     0.000 A 
ENDBRANCH  69  82
ENDBRANCH  43  44
ENDBRANCH  36  38
ENDBRANCH  35  36
ENDBRANCH  34  35
ENDBRANCH  33  34
ENDBRANCH  32  33
ENDBRANCH  31  32
ENDBRANCH   1  31
TORSDOF 20
ENDMDL
MODEL 2
REMARK VINA RESULT:     -10.5      5.596      8.898
REMARK SMILES COc1ccc(CCN2/C(=[NH+]/C(=O)CCC(=O)OCCOCCOC(=O)c3ccc(-c4c5nc(c(-c6ccccc6)c6ccc([nH]6)c(-c6ccccc6)c6nc(c(-c7ccccc7)c7ccc4[nH]7)C=C6)C=C5)cc3)S[C@@H]3CS(=O)(=O)C[C@@H]32)cc1
REMARK SMILES IDX 19 1 18 2 16 3 17 4 15 5 14 6 12 7 9 8 10 9 82 10 11 11
REMARK SMILES IDX 75 12 76 13 81 14 77 16 78 17 13 18 79 19 80 20 8 21 7 22
REMARK SMILES IDX 6 23 3 24 4 25 84 26 5 27 83 28 2 29 1 30 20 31 21 32 22 33
REMARK SMILES IDX 23 34 24 35 25 36 26 37 27 38 28 39 74 40 29 41 73 42 30 43
REMARK SMILES IDX 31 44 32 45 67 46 33 47 72 48 66 49 68 50 34 51 71 52 65 53
REMARK SMILES IDX 64 54 35 56 57 57 42 58 56 59 43 60 46 61 55 62 69 63 44 64
REMARK SMILES IDX 45 65 54 67 70 68 47 69 36 70 37 71 41 72 38 73 40 74 39 75
REMARK SMILES IDX 58 76 59 77 63 78 60 79 62 80 61 81 48 82 49 83 53 84 50 85
REMARK SMILES IDX 52 86 51 87
REMARK H PARENT 11 15 68 55 46 66
REMARK Flexibility Score: inf
ROOT
ATOM      1  C   UNL A   1      36.817  30.704  30.669  1.00  0.00     0.261 C 
ENDROOT
BRANCH   1   2
ATOM      2  O   UNL A   1      36.501  29.655  31.592  1.00  0.00    -0.463 OA
BRANCH   2   3
ATOM      3  C   UNL A   1      37.498  29.215  32.386  1.00  0.00     0.306 C 
ATOM      4  O   UNL A   1      37.403  28.297  33.188  1.00  0.00    -0.252 OA
BRANCH   3   5
ATOM      5  C   UNL A   1      38.770  29.992  32.139  1.00  0.00     0.135 C 
BRANCH   5   6
ATOM      6  C   UNL A   1      40.065  29.203  32.309  1.00  0.00     0.139 C 
BRANCH   6   7
ATOM      7  C   UNL A   1      40.933  29.216  31.052  1.00  0.00     0.308 C 
ATOM      8  N   UNL A   1      43.518  27.040  29.347  1.00  0.00    -0.251 N 
ATOM      9  C   UNL A   1      42.686  28.077  29.919  1.00  0.00     0.314 C 
ATOM     10  C   UNL A   1      43.846  27.424  27.908  1.00  0.00     0.206 C 
ATOM     11  N   UNL A   1      41.722  28.089  30.780  1.00  0.00    -0.205 N 
ATOM     12  S   UNL A   1      43.170  29.647  29.151  1.00  0.00    -0.030 SA
ATOM     13  C   UNL A   1      43.353  28.857  27.587  1.00  0.00     0.120 C 
ATOM     14  C   UNL A   1      43.296  26.534  26.803  1.00  0.00     0.187 C 
ATOM     15  H   UNL A   1      41.530  27.259  31.275  1.00  0.00     0.316 HD
ATOM     16  C   UNL A   1      41.966  28.833  26.979  1.00  0.00     0.156 C 
ATOM     17  S   UNL A   1      42.029  27.433  25.925  1.00  0.00     0.155 S 
ATOM     18  O   UNL A   1      40.761  30.186  30.311  1.00  0.00    -0.247 OA
ATOM     19  O   UNL A   1      40.778  26.704  26.029  1.00  0.00    -0.229 OA
ATOM     20  O   UNL A   1      42.561  27.875  24.658  1.00  0.00    -0.229 OA
BRANCH   8  21
ATOM     21  C   UNL A   1      44.273  25.643  29.954  1.00  0.00     0.242 C 
BRANCH  21  22
ATOM     22  C   UNL A   1      43.926  24.333  31.249  1.00  0.00     0.081 C 
BRANCH  22  23
ATOM     23  C   UNL A   1      44.349  23.922  32.845  1.00  0.00    -0.044 A 
ATOM     24  C   UNL A   1      45.849  22.549  34.897  1.00  0.00     0.118 A 
ATOM     25  C   UNL A   1      44.565  22.156  34.564  1.00  0.00     0.046 A 
ATOM     26  C   UNL A   1      46.242  23.813  34.470  1.00  0.00     0.046 A 
ATOM     27  C   UNL A   1      43.775  22.921  33.669  1.00  0.00     0.007 A 
ATOM     28  C   UNL A   1      45.511  24.475  33.423  1.00  0.00     0.007 A 
BRANCH  24  29
ATOM     29  O   UNL A   1      46.616  21.540  35.408  1.00  0.00    -0.497 OA
ATOM     30  C   UNL A   1      46.962  20.392  34.656  1.00  0.00     0.278 C 
ENDBRANCH  24  29
ENDBRANCH  22  23
ENDBRANCH  21  22
ENDBRANCH   8  21
ENDBRANCH   6   7
ENDBRANCH   5   6
ENDBRANCH   3   5
ENDBRANCH   2   3
ENDBRANCH   1   2
BRANCH   1  31
ATOM     31  C   UNL A   1      35.598  31.589  30.326  1.00  0.00     0.202 C 
BRANCH  31  32
ATOM     32  O   UNL A   1      34.765  32.266  31.278  1.00  0.00    -0.374 OA
BRANCH  32  33
ATOM     33  C   UNL A   1      34.505  33.660  31.032  1.00  0.00     0.202 C 
BRANCH  33  34
ATOM     34  C   UNL A   1      34.315  34.816  32.149  1.00  0.00     0.261 C 
BRANCH  34  35
ATOM     35  O   UNL A   1      35.329  35.595  32.988  1.00  0.00    -0.460 OA
BRANCH  35  36
ATOM     36  C   UNL A   1      36.383  34.831  33.371  1.00  0.00     0.338 C 
ATOM     37  O   UNL A   1      36.096  34.196  34.370  1.00  0.00    -0.246 OA
BRANCH  36  38
ATOM     38  C   UNL A   1      37.822  34.493  32.773  1.00  0.00     0.060 A 
ATOM     39  C   UNL A   1      38.929  34.605  33.669  1.00  0.00     0.016 A 
ATOM     40  C   UNL A   1      38.212  33.942  31.567  1.00  0.00     0.016 A 
ATOM     41  C   UNL A   1      40.225  34.118  33.563  1.00  0.00     0.010 A 
ATOM     42  C   UNL A   1      39.551  33.399  31.412  1.00  0.00     0.010 A 
ATOM     43  C   UNL A   1      40.538  33.428  32.436  1.00  0.00    -0.014 A 
BRANCH  43  44
ATOM     44  C   UNL A   1      41.920  32.907  32.339  1.00  0.00     0.031 A 
ATOM     45  C   UNL A   1      42.863  33.636  31.450  1.00  0.00     0.074 A 
ATOM     46  C   UNL A   1      42.455  31.995  33.178  1.00  0.00     0.049 A 
ATOM     47  N   UNL A   1      43.985  33.229  30.941  1.00  0.00    -0.248 NA
ATOM     48  C   UNL A   1      42.522  35.038  31.152  1.00  0.00     0.031 C 
ATOM     49  C   UNL A   1      41.941  31.602  34.481  1.00  0.00     0.029 A 
ATOM     50  N   UNL A   1      43.516  31.143  33.006  1.00  0.00    -0.354 N 
ATOM     51  C   UNL A   1      44.470  34.309  30.225  1.00  0.00     0.074 A 
ATOM     52  C   UNL A   1      43.530  35.396  30.375  1.00  0.00     0.031 C 
ATOM     53  C   UNL A   1      42.471  30.423  34.850  1.00  0.00     0.029 A 
ATOM     54  C   UNL A   1      43.410  30.025  33.819  1.00  0.00     0.049 A 
ATOM     55  H   UNL A   1      44.261  31.304  32.382  1.00  0.00     0.167 HD
ATOM     56  C   UNL A   1      45.605  34.350  29.496  1.00  0.00     0.031 A 
ATOM     57  C   UNL A   1      43.971  28.810  33.675  1.00  0.00     0.031 A 
ATOM     58  C   UNL A   1      46.468  33.209  29.381  1.00  0.00     0.049 A 
ATOM     59  C   UNL A   1      45.021  28.709  32.607  1.00  0.00     0.074 A 
ATOM     60  C   UNL A   1      47.605  33.045  28.617  1.00  0.00     0.029 A 
ATOM     61  N   UNL A   1      46.265  32.015  30.070  1.00  0.00    -0.354 N 
ATOM     62  N   UNL A   1      45.414  29.646  31.775  1.00  0.00    -0.248 NA
ATOM     63  C   UNL A   1      45.761  27.450  32.502  1.00  0.00     0.031 C 
ATOM     64  C   UNL A   1      48.052  31.731  28.800  1.00  0.00     0.029 A 
ATOM     65  C   UNL A   1      47.235  31.097  29.730  1.00  0.00     0.049 A 
ATOM     66  H   UNL A   1      45.534  31.852  30.708  1.00  0.00     0.167 HD
ATOM     67  C   UNL A   1      46.525  29.139  31.130  1.00  0.00     0.074 A 
ATOM     68  C   UNL A   1      46.701  27.783  31.625  1.00  0.00     0.031 C 
ATOM     69  C   UNL A   1      47.357  29.758  30.257  1.00  0.00     0.031 A 
BRANCH  56  70
ATOM     70  C   UNL A   1      45.849  35.601  28.709  1.00  0.00    -0.014 A 
ATOM     71  C   UNL A   1      46.680  36.629  29.186  1.00  0.00     0.009 A 
ATOM     72  C   UNL A   1      45.154  35.796  27.506  1.00  0.00     0.009 A 
ATOM     73  C   UNL A   1      46.771  37.841  28.496  1.00  0.00     0.001 A 
ATOM     74  C   UNL A   1      45.269  36.997  26.804  1.00  0.00     0.001 A 
ATOM     75  C   UNL A   1      46.067  38.023  27.306  1.00  0.00     0.000 A 
ENDBRANCH  56  70
BRANCH  57  76
ATOM     76  C   UNL A   1      43.562  27.642  34.504  1.00  0.00    -0.014 A 
ATOM     77  C   UNL A   1      42.409  26.900  34.210  1.00  0.00     0.009 A 
ATOM     78  C   UNL A   1      44.313  27.279  35.638  1.00  0.00     0.009 A 
ATOM     79  C   UNL A   1      42.000  25.849  35.042  1.00  0.00     0.001 A 
ATOM     80  C   UNL A   1      43.911  26.219  36.460  1.00  0.00     0.001 A 
ATOM     81  C   UNL A   1      42.749  25.510  36.167  1.00  0.00     0.000 A 
ENDBRANCH  57  76
BRANCH  69  82
ATOM     82  C   UNL A   1      48.579  28.994  29.858  1.00  0.00    -0.014 A 
ATOM     83  C   UNL A   1      49.722  28.967  30.666  1.00  0.00     0.009 A 
ATOM     84  C   UNL A   1      48.541  28.234  28.677  1.00  0.00     0.009 A 
ATOM     85  C   UNL A   1      50.822  28.203  30.284  1.00  0.00     0.001 A 
ATOM     86  C   UNL A   1      49.628  27.443  28.319  1.00  0.00     0.001 A 
ATOM     87  C   UNL A   1      50.769  27.434  29.120  1.00  0.00     0.000 A 
ENDBRANCH  69  82
ENDBRANCH  43  44
ENDBRANCH  36  38
ENDBRANCH  35  36
ENDBRANCH  34  35
ENDBRANCH  33  34
ENDBRANCH  32  33
ENDBRANCH  31  32
ENDBRANCH   1  31
TORSDOF 20
ENDMDL
MODEL 3
REMARK VINA RESULT:     -10.4      3.375      6.374
REMARK SMILES COc1ccc(CCN2/C(=[NH+]/C(=O)CCC(=O)OCCOCCOC(=O)c3ccc(-c4c5nc(c(-c6ccccc6)c6ccc([nH]6)c(-c6ccccc6)c6nc(c(-c7ccccc7)c7ccc4[nH]7)C=C6)C=C5)cc3)S[C@@H]3CS(=O)(=O)C[C@@H]32)cc1
REMARK SMILES IDX 19 1 18 2 16 3 17 4 15 5 14 6 12 7 9 8 10 9 82 10 11 11
REMARK SMILES IDX 75 12 76 13 81 14 77 16 78 17 13 18 79 19 80 20 8 21 7 22
REMARK SMILES IDX 6 23 3 24 4 25 84 26 5 27 83 28 2 29 1 30 20 31 21 32 22 33
REMARK SMILES IDX 23 34 24 35 25 36 26 37 27 38 28 39 74 40 29 41 73 42 30 43
REMARK SMILES IDX 31 44 32 45 67 46 33 47 72 48 66 49 68 50 34 51 71 52 65 53
REMARK SMILES IDX 64 54 35 56 57 57 42 58 56 59 43 60 46 61 55 62 69 63 44 64
REMARK SMILES IDX 45 65 54 67 70 68 47 69 36 70 37 71 41 72 38 73 40 74 39 75
REMARK SMILES IDX 58 76 59 77 63 78 60 79 62 80 61 81 48 82 49 83 53 84 50 85
REMARK SMILES IDX 52 86 51 87
REMARK H PARENT 11 15 68 55 46 66
REMARK Flexibility Score: inf
ROOT
ATOM      1  C   UNL A   1      34.265  31.153  27.381  1.00  0.00     0.261 C 
ENDROOT
BRANCH   1   2
ATOM      2  O   UNL A   1      33.093  30.390  27.694  1.00  0.00    -0.463 OA
BRANCH   2   3
ATOM      3  C   UNL A   1      32.144  30.304  26.739  1.00  0.00     0.306 C 
ATOM      4  O   UNL A   1      31.636  31.258  26.168  1.00  0.00    -0.252 OA
BRANCH   3   5
ATOM      5  C   UNL A   1      31.804  28.862  26.443  1.00  0.00     0.135 C 
BRANCH   5   6
ATOM      6  C   UNL A   1      32.923  27.857  26.701  1.00  0.00     0.139 C 
BRANCH   6   7
ATOM      7  C   UNL A   1      32.991  26.764  25.637  1.00  0.00     0.308 C 
ATOM      8  N   UNL A   1      35.341  24.018  24.513  1.00  0.00    -0.251 N 
ATOM      9  C   UNL A   1      34.398  25.104  24.679  1.00  0.00     0.314 C 
ATOM     10  C   UNL A   1      34.740  23.002  23.547  1.00  0.00     0.206 C 
ATOM     11  N   UNL A   1      34.082  25.883  25.661  1.00  0.00    -0.205 N 
ATOM     12  S   UNL A   1      33.498  25.285  23.115  1.00  0.00    -0.030 SA
ATOM     13  C   UNL A   1      33.428  23.536  22.920  1.00  0.00     0.120 C 
ATOM     14  C   UNL A   1      34.412  21.621  24.097  1.00  0.00     0.187 C 
ATOM     15  H   UNL A   1      34.640  25.858  26.472  1.00  0.00     0.316 HD
ATOM     16  C   UNL A   1      32.221  23.086  23.717  1.00  0.00     0.156 C 
ATOM     17  S   UNL A   1      32.638  21.440  24.155  1.00  0.00     0.155 S 
ATOM     18  O   UNL A   1      31.995  26.677  24.916  1.00  0.00    -0.247 OA
ATOM     19  O   UNL A   1      32.235  21.198  25.529  1.00  0.00    -0.229 OA
ATOM     20  O   UNL A   1      32.217  20.589  23.067  1.00  0.00    -0.229 OA
BRANCH   8  21
ATOM     21  C   UNL A   1      36.935  23.729  25.029  1.00  0.00     0.242 C 
BRANCH  21  22
ATOM     22  C   UNL A   1      37.980  24.063  26.549  1.00  0.00     0.081 C 
BRANCH  22  23
ATOM     23  C   UNL A   1      39.371  24.921  27.023  1.00  0.00    -0.044 A 
ATOM     24  C   UNL A   1      41.017  27.268  27.379  1.00  0.00     0.118 A 
ATOM     25  C   UNL A   1      41.264  26.367  26.358  1.00  0.00     0.046 A 
ATOM     26  C   UNL A   1      40.193  26.828  28.410  1.00  0.00     0.046 A 
ATOM     27  C   UNL A   1      40.555  25.142  26.276  1.00  0.00     0.007 A 
ATOM     28  C   UNL A   1      39.350  25.680  28.212  1.00  0.00     0.007 A 
BRANCH  24  29
ATOM     29  O   UNL A   1      41.445  28.536  27.106  1.00  0.00    -0.497 OA
ATOM     30  C   UNL A   1      41.765  28.965  25.794  1.00  0.00     0.278 C 
ENDBRANCH  24  29
ENDBRANCH  22  23
ENDBRANCH  21  22
ENDBRANCH   8  21
ENDBRANCH   6   7
ENDBRANCH   5   6
ENDBRANCH   3   5
ENDBRANCH   2   3
ENDBRANCH   1   2
BRANCH   1  31
ATOM     31  C   UNL A   1      34.243  32.569  28.001  1.00  0.00     0.202 C 
BRANCH  31  32
ATOM     32  O   UNL A   1      34.147  32.863  29.402  1.00  0.00    -0.374 OA
BRANCH  32  33
ATOM     33  C   UNL A   1      33.913  34.238  29.759  1.00  0.00     0.202 C 
BRANCH  33  34
ATOM     34  C   UNL A   1      34.133  34.906  31.216  1.00  0.00     0.261 C 
BRANCH  34  35
ATOM     35  O   UNL A   1      34.641  34.323  32.535  1.00  0.00    -0.460 OA
BRANCH  35  36
ATOM     36  C   UNL A   1      35.982  34.466  32.685  1.00  0.00     0.338 C 
ATOM     37  O   UNL A   1      36.219  35.284  33.556  1.00  0.00    -0.246 OA
BRANCH  36  38
ATOM     38  C   UNL A   1      37.277  33.752  32.089  1.00  0.00     0.060 A 
ATOM     39  C   UNL A   1      38.538  34.170  32.617  1.00  0.00     0.016 A 
ATOM     40  C   UNL A   1      37.426  32.662  31.252  1.00  0.00     0.016 A 
ATOM     41  C   UNL A   1      39.788  33.572  32.541  1.00  0.00     0.010 A 
ATOM     42  C   UNL A   1      38.709  31.987  31.153  1.00  0.00     0.010 A 
ATOM     43  C   UNL A   1      39.876  32.405  31.852  1.00  0.00    -0.014 A 
BRANCH  43  44
ATOM     44  C   UNL A   1      41.212  31.773  31.784  1.00  0.00     0.031 A 
ATOM     45  C   UNL A   1      42.122  32.215  30.695  1.00  0.00     0.074 A 
ATOM     46  C   UNL A   1      41.759  31.030  32.771  1.00  0.00     0.049 A 
ATOM     47  N   UNL A   1      43.174  31.623  30.218  1.00  0.00    -0.248 NA
ATOM     48  C   UNL A   1      41.842  33.538  30.111  1.00  0.00     0.031 C 
ATOM     49  C   UNL A   1      41.329  30.974  34.159  1.00  0.00     0.029 A 
ATOM     50  N   UNL A   1      42.750  30.084  32.726  1.00  0.00    -0.354 N 
ATOM     51  C   UNL A   1      43.663  32.479  29.248  1.00  0.00     0.074 A 
ATOM     52  C   UNL A   1      42.804  33.639  29.210  1.00  0.00     0.031 C 
ATOM     53  C   UNL A   1      41.817  29.869  34.749  1.00  0.00     0.029 A 
ATOM     54  C   UNL A   1      42.645  29.184  33.775  1.00  0.00     0.049 A 
ATOM     55  H   UNL A   1      43.451  30.047  32.035  1.00  0.00     0.167 HD
ATOM     56  C   UNL A   1      44.736  32.273  28.456  1.00  0.00     0.031 A 
ATOM     57  C   UNL A   1      43.120  27.928  33.872  1.00  0.00     0.031 A 
ATOM     58  C   UNL A   1      45.518  31.072  28.545  1.00  0.00     0.049 A 
ATOM     59  C   UNL A   1      44.072  27.515  32.788  1.00  0.00     0.074 A 
ATOM     60  C   UNL A   1      46.579  30.659  27.765  1.00  0.00     0.029 A 
ATOM     61  N   UNL A   1      45.301  30.078  29.497  1.00  0.00    -0.354 N 
ATOM     62  N   UNL A   1      44.453  28.214  31.743  1.00  0.00    -0.248 NA
ATOM     63  C   UNL A   1      44.726  26.212  32.922  1.00  0.00     0.031 C 
ATOM     64  C   UNL A   1      46.961  29.387  28.210  1.00  0.00     0.029 A 
ATOM     65  C   UNL A   1      46.185  29.038  29.310  1.00  0.00     0.049 A 
ATOM     66  H   UNL A   1      44.615  30.115  30.201  1.00  0.00     0.167 HD
ATOM     67  C   UNL A   1      45.476  27.495  31.158  1.00  0.00     0.074 A 
ATOM     68  C   UNL A   1      45.611  26.272  31.933  1.00  0.00     0.031 C 
ATOM     69  C   UNL A   1      46.270  27.842  30.116  1.00  0.00     0.031 A 
BRANCH  56  70
ATOM     70  C   UNL A   1      44.989  33.297  27.393  1.00  0.00    -0.014 A 
ATOM     71  C   UNL A   1      44.380  33.224  26.129  1.00  0.00     0.009 A 
ATOM     72  C   UNL A   1      45.936  34.306  27.631  1.00  0.00     0.009 A 
ATOM     73  C   UNL A   1      44.749  34.112  25.115  1.00  0.00     0.001 A 
ATOM     74  C   UNL A   1      46.281  35.209  26.624  1.00  0.00     0.001 A 
ATOM     75  C   UNL A   1      45.697  35.103  25.363  1.00  0.00     0.000 A 
ENDBRANCH  56  70
BRANCH  57  76
ATOM     76  C   UNL A   1      42.711  27.005  34.968  1.00  0.00    -0.014 A 
ATOM     77  C   UNL A   1      43.493  26.839  36.119  1.00  0.00     0.009 A 
ATOM     78  C   UNL A   1      41.535  26.240  34.849  1.00  0.00     0.009 A 
ATOM     79  C   UNL A   1      43.130  25.913  37.107  1.00  0.00     0.001 A 
ATOM     80  C   UNL A   1      41.165  25.326  35.844  1.00  0.00     0.001 A 
ATOM     81  C   UNL A   1      41.968  25.156  36.969  1.00  0.00     0.000 A 
ENDBRANCH  57  76
BRANCH  69  82
ATOM     82  C   UNL A   1      47.409  26.919  29.820  1.00  0.00    -0.014 A 
ATOM     83  C   UNL A   1      47.306  25.921  28.843  1.00  0.00     0.009 A 
ATOM     84  C   UNL A   1      48.625  27.113  30.494  1.00  0.00     0.009 A 
ATOM     85  C   UNL A   1      48.405  25.114  28.560  1.00  0.00     0.001 A 
ATOM     86  C   UNL A   1      49.731  26.329  30.182  1.00  0.00     0.001 A 
ATOM     87  C   UNL A   1      49.617  25.326  29.220  1.00  0.00     0.000 A 
ENDBRANCH  69  82
ENDBRANCH  43  44
ENDBRANCH  36  38
ENDBRANCH  35  36
ENDBRANCH  34  35
ENDBRANCH  33  34
ENDBRANCH  32  33
ENDBRANCH  31  32
ENDBRANCH   1  31
TORSDOF 20
ENDMDL
