MODEL 1
REMARK VINA RESULT:     -12.0      0.000      0.000
REMARK SMILES Cc1cc(=O)n2cc(-c3ccccc3)nc2n1[C@H](C)C(=O)OCCOCCOC(=O)c1ccc(-c2c3nc(c(-c4ccccc4)c4ccc([nH]4)c(-c4ccccc4)c4nc(c(-c5ccccc5)c5ccc2[nH]5)C=C4)C=C3)cc1
REMARK SMILES IDX 25 1 24 2 23 3 22 4 20 5 21 6 18 7 19 8 17 9 1 10 2 11 3 12
REMARK SMILES IDX 4 13 16 14 5 15 6 16 15 17 7 18 8 19 9 20 10 21 14 22 11 23
REMARK SMILES IDX 13 24 12 25 26 26 27 27 28 28 29 29 30 30 31 31 32 32 78 33
REMARK SMILES IDX 33 34 77 35 34 36 35 37 36 38 71 39 37 40 76 41 70 42 72 43
REMARK SMILES IDX 38 44 75 45 69 46 68 47 39 49 61 50 46 51 60 52 47 53 50 54
REMARK SMILES IDX 59 55 73 56 48 57 49 58 58 60 74 61 51 62 40 63 41 64 45 65
REMARK SMILES IDX 42 66 44 67 43 68 62 69 63 70 67 71 64 72 66 73 65 74 52 75
REMARK SMILES IDX 53 76 57 77 54 78 56 79 55 80
REMARK H PARENT 72 48 50 59
REMARK Flexibility Score: inf
ROOT
ATOM      1  O   UNL A   1      41.189  20.624  25.944  1.00  0.00    -0.374 OA
ENDROOT
BRANCH   1   2
ATOM      2  C   UNL A   1      39.789  20.771  26.173  1.00  0.00     0.202 C 
BRANCH   2   3
ATOM      3  C   UNL A   1      39.136  22.141  25.981  1.00  0.00     0.261 C 
BRANCH   3   4
ATOM      4  O   UNL A   1      37.793  22.067  25.475  1.00  0.00    -0.462 OA
BRANCH   4   5
ATOM      5  C   UNL A   1      37.059  23.192  25.685  1.00  0.00     0.329 C 
ATOM      6  O   UNL A   1      37.213  23.934  26.653  1.00  0.00    -0.250 OA
BRANCH   5   7
ATOM      7  C   UNL A   1      36.055  23.495  24.569  1.00  0.00     0.197 C 
ATOM      8  C   UNL A   1      36.417  22.690  23.315  1.00  0.00     0.044 C 
BRANCH   7   9
ATOM      9  N   UNL A   1      34.636  23.442  25.066  1.00  0.00    -0.301 N 
ATOM     10  C   UNL A   1      34.437  25.993  25.051  1.00  0.00     0.065 C 
ATOM     11  C   UNL A   1      33.863  24.615  25.283  1.00  0.00     0.024 A 
ATOM     12  C   UNL A   1      32.576  24.562  25.676  1.00  0.00     0.093 A 
ATOM     13  C   UNL A   1      31.901  23.268  25.857  1.00  0.00     0.259 A 
ATOM     14  C   UNL A   1      34.023  22.217  25.199  1.00  0.00     0.218 A 
ATOM     15  O   UNL A   1      30.738  23.140  26.206  1.00  0.00    -0.269 OA
ATOM     16  N   UNL A   1      32.687  22.162  25.565  1.00  0.00    -0.251 N 
ATOM     17  N   UNL A   1      34.490  21.002  25.015  1.00  0.00    -0.212 NA
ATOM     18  C   UNL A   1      32.309  20.838  25.556  1.00  0.00     0.127 A 
ATOM     19  C   UNL A   1      33.437  20.146  25.194  1.00  0.00     0.091 A 
BRANCH  19  20
ATOM     20  C   UNL A   1      33.548  18.716  25.026  1.00  0.00     0.002 A 
ATOM     21  C   UNL A   1      34.621  18.157  24.322  1.00  0.00     0.010 A 
ATOM     22  C   UNL A   1      32.596  17.877  25.614  1.00  0.00     0.010 A 
ATOM     23  C   UNL A   1      34.735  16.770  24.205  1.00  0.00     0.001 A 
ATOM     24  C   UNL A   1      32.703  16.491  25.484  1.00  0.00     0.001 A 
ATOM     25  C   UNL A   1      33.774  15.938  24.781  1.00  0.00     0.000 A 
ENDBRANCH  19  20
ENDBRANCH   7   9
ENDBRANCH   5   7
ENDBRANCH   4   5
ENDBRANCH   3   4
ENDBRANCH   2   3
ENDBRANCH   1   2
BRANCH   1  26
ATOM     26  C   UNL A   1      41.938  19.593  26.577  1.00  0.00     0.202 C 
BRANCH  26  27
ATOM     27  C   UNL A   1      43.034  18.889  25.790  1.00  0.00     0.261 C 
BRANCH  27  28
ATOM     28  O   UNL A   1      43.379  19.617  24.622  1.00  0.00    -0.460 OA
BRANCH  28  29
ATOM     29  C   UNL A   1      44.715  19.763  24.456  1.00  0.00     0.338 C 
ATOM     30  O   UNL A   1      45.544  18.884  24.347  1.00  0.00    -0.246 OA
BRANCH  29  31
ATOM     31  C   UNL A   1      45.044  21.189  24.557  1.00  0.00     0.060 A 
ATOM     32  C   UNL A   1      45.880  21.508  25.623  1.00  0.00     0.016 A 
ATOM     33  C   UNL A   1      44.271  22.153  23.892  1.00  0.00     0.016 A 
ATOM     34  C   UNL A   1      45.680  22.715  26.236  1.00  0.00     0.010 A 
ATOM     35  C   UNL A   1      44.086  23.372  24.499  1.00  0.00     0.010 A 
ATOM     36  C   UNL A   1      44.699  23.579  25.727  1.00  0.00    -0.014 A 
BRANCH  36  37
ATOM     37  C   UNL A   1      44.418  24.763  26.505  1.00  0.00     0.031 A 
ATOM     38  C   UNL A   1      45.522  25.736  26.422  1.00  0.00     0.074 A 
ATOM     39  C   UNL A   1      43.298  24.934  27.229  1.00  0.00     0.049 A 
ATOM     40  N   UNL A   1      46.389  25.990  27.341  1.00  0.00    -0.248 NA
ATOM     41  C   UNL A   1      45.832  26.310  25.105  1.00  0.00     0.031 C 
ATOM     42  C   UNL A   1      42.056  24.158  27.230  1.00  0.00     0.029 A 
ATOM     43  N   UNL A   1      43.024  25.936  28.102  1.00  0.00    -0.354 N 
ATOM     44  C   UNL A   1      47.261  26.910  26.779  1.00  0.00     0.074 A 
ATOM     45  C   UNL A   1      46.982  26.931  25.365  1.00  0.00     0.031 C 
ATOM     46  C   UNL A   1      41.090  24.866  27.867  1.00  0.00     0.029 A 
ATOM     47  C   UNL A   1      41.686  26.059  28.447  1.00  0.00     0.049 A 
ATOM     48  H   UNL A   1      43.721  26.531  28.463  1.00  0.00     0.167 HD
ATOM     49  C   UNL A   1      47.959  27.773  27.562  1.00  0.00     0.031 A 
ATOM     50  C   UNL A   1      41.130  27.105  29.112  1.00  0.00     0.031 A 
ATOM     51  C   UNL A   1      48.009  27.329  28.932  1.00  0.00     0.049 A 
ATOM     52  C   UNL A   1      42.227  27.800  29.828  1.00  0.00     0.074 A 
ATOM     53  C   UNL A   1      48.543  26.231  29.578  1.00  0.00     0.029 A 
ATOM     54  N   UNL A   1      47.084  27.867  29.795  1.00  0.00    -0.354 N 
ATOM     55  N   UNL A   1      42.872  27.271  30.827  1.00  0.00    -0.248 NA
ATOM     56  C   UNL A   1      42.922  28.874  29.131  1.00  0.00     0.031 C 
ATOM     57  C   UNL A   1      47.592  25.897  30.586  1.00  0.00     0.029 A 
ATOM     58  C   UNL A   1      46.568  26.846  30.550  1.00  0.00     0.049 A 
ATOM     59  H   UNL A   1      46.837  28.817  29.860  1.00  0.00     0.167 HD
ATOM     60  C   UNL A   1      44.197  27.616  30.612  1.00  0.00     0.074 A 
ATOM     61  C   UNL A   1      44.157  28.672  29.601  1.00  0.00     0.031 C 
ATOM     62  C   UNL A   1      45.213  26.818  31.055  1.00  0.00     0.031 A 
BRANCH  49  63
ATOM     63  C   UNL A   1      48.177  29.208  27.167  1.00  0.00    -0.014 A 
ATOM     64  C   UNL A   1      49.466  29.749  27.285  1.00  0.00     0.009 A 
ATOM     65  C   UNL A   1      47.119  30.118  26.964  1.00  0.00     0.009 A 
ATOM     66  C   UNL A   1      49.672  31.133  27.269  1.00  0.00     0.001 A 
ATOM     67  C   UNL A   1      47.326  31.496  26.908  1.00  0.00     0.001 A 
ATOM     68  C   UNL A   1      48.603  32.005  27.088  1.00  0.00     0.000 A 
ENDBRANCH  49  63
BRANCH  50  69
ATOM     69  C   UNL A   1      39.825  27.766  28.874  1.00  0.00    -0.014 A 
ATOM     70  C   UNL A   1      38.897  27.909  29.921  1.00  0.00     0.009 A 
ATOM     71  C   UNL A   1      39.620  28.533  27.713  1.00  0.00     0.009 A 
ATOM     72  C   UNL A   1      37.838  28.824  29.828  1.00  0.00     0.001 A 
ATOM     73  C   UNL A   1      38.561  29.445  27.620  1.00  0.00     0.001 A 
ATOM     74  C   UNL A   1      37.681  29.603  28.685  1.00  0.00     0.000 A 
ENDBRANCH  50  69
BRANCH  62  75
ATOM     75  C   UNL A   1      44.862  25.665  31.965  1.00  0.00    -0.014 A 
ATOM     76  C   UNL A   1      44.448  24.405  31.493  1.00  0.00     0.009 A 
ATOM     77  C   UNL A   1      45.121  25.808  33.335  1.00  0.00     0.009 A 
ATOM     78  C   UNL A   1      44.286  23.329  32.375  1.00  0.00     0.001 A 
ATOM     79  C   UNL A   1      44.979  24.730  34.211  1.00  0.00     0.001 A 
ATOM     80  C   UNL A   1      44.559  23.491  33.731  1.00  0.00     0.000 A 
ENDBRANCH  62  75
ENDBRANCH  36  37
ENDBRANCH  29  31
ENDBRANCH  28  29
ENDBRANCH  27  28
ENDBRANCH  26  27
ENDBRANCH   1  26
TORSDOF 16
ENDMDL
MODEL 2
REMARK VINA RESULT:     -11.9      1.209      3.577
REMARK SMILES Cc1cc(=O)n2cc(-c3ccccc3)nc2n1[C@H](C)C(=O)OCCOCCOC(=O)c1ccc(-c2c3nc(c(-c4ccccc4)c4ccc([nH]4)c(-c4ccccc4)c4nc(c(-c5ccccc5)c5ccc2[nH]5)C=C4)C=C3)cc1
REMARK SMILES IDX 25 1 24 2 23 3 22 4 20 5 21 6 18 7 19 8 17 9 1 10 2 11 3 12
REMARK SMILES IDX 4 13 16 14 5 15 6 16 15 17 7 18 8 19 9 20 10 21 14 22 11 23
REMARK SMILES IDX 13 24 12 25 26 26 27 27 28 28 29 29 30 30 31 31 32 32 78 33
REMARK SMILES IDX 33 34 77 35 34 36 35 37 36 38 71 39 37 40 76 41 70 42 72 43
REMARK SMILES IDX 38 44 75 45 69 46 68 47 39 49 61 50 46 51 60 52 47 53 50 54
REMARK SMILES IDX 59 55 73 56 48 57 49 58 58 60 74 61 51 62 40 63 41 64 45 65
REMARK SMILES IDX 42 66 44 67 43 68 62 69 63 70 67 71 64 72 66 73 65 74 52 75
REMARK SMILES IDX 53 76 57 77 54 78 56 79 55 80
REMARK H PARENT 72 48 50 59
REMARK Flexibility Score: inf
ROOT
ATOM      1  O   UNL A   1      41.229  20.858  25.718  1.00  0.00    -0.374 OA
ENDROOT
BRANCH   1   2
ATOM      2  C   UNL A   1      39.919  20.939  26.277  1.00  0.00     0.202 C 
BRANCH   2   3
ATOM      3  C   UNL A   1      39.185  22.281  26.281  1.00  0.00     0.261 C 
BRANCH   3   4
ATOM      4  O   UNL A   1      38.066  22.323  25.380  1.00  0.00    -0.462 OA
BRANCH   4   5
ATOM      5  C   UNL A   1      37.222  23.367  25.592  1.00  0.00     0.329 C 
ATOM      6  O   UNL A   1      37.315  24.134  26.548  1.00  0.00    -0.250 OA
BRANCH   5   7
ATOM      7  C   UNL A   1      36.172  23.548  24.492  1.00  0.00     0.197 C 
ATOM      8  C   UNL A   1      36.641  22.853  23.208  1.00  0.00     0.044 C 
BRANCH   7   9
ATOM      9  N   UNL A   1      34.784  23.260  24.992  1.00  0.00    -0.301 N 
ATOM     10  C   UNL A   1      35.155  20.732  24.852  1.00  0.00     0.065 C 
ATOM     11  C   UNL A   1      34.302  21.936  25.178  1.00  0.00     0.024 A 
ATOM     12  C   UNL A   1      33.077  21.682  25.676  1.00  0.00     0.093 A 
ATOM     13  C   UNL A   1      32.196  22.783  26.094  1.00  0.00     0.259 A 
ATOM     14  C   UNL A   1      33.993  24.310  25.401  1.00  0.00     0.218 A 
ATOM     15  O   UNL A   1      31.076  22.632  26.559  1.00  0.00    -0.269 OA
ATOM     16  N   UNL A   1      32.748  24.048  25.952  1.00  0.00    -0.251 N 
ATOM     17  N   UNL A   1      34.216  25.606  25.386  1.00  0.00    -0.212 NA
ATOM     18  C   UNL A   1      32.203  25.254  26.337  1.00  0.00     0.127 A 
ATOM     19  C   UNL A   1      33.139  26.195  25.992  1.00  0.00     0.091 A 
BRANCH  19  20
ATOM     20  C   UNL A   1      33.041  27.620  26.208  1.00  0.00     0.002 A 
ATOM     21  C   UNL A   1      34.096  28.332  26.791  1.00  0.00     0.010 A 
ATOM     22  C   UNL A   1      31.896  28.304  25.786  1.00  0.00     0.010 A 
ATOM     23  C   UNL A   1      34.000  29.716  26.954  1.00  0.00     0.001 A 
ATOM     24  C   UNL A   1      31.797  29.685  25.963  1.00  0.00     0.001 A 
ATOM     25  C   UNL A   1      32.850  30.391  26.545  1.00  0.00     0.000 A 
ENDBRANCH  19  20
ENDBRANCH   7   9
ENDBRANCH   5   7
ENDBRANCH   4   5
ENDBRANCH   3   4
ENDBRANCH   2   3
ENDBRANCH   1   2
BRANCH   1  26
ATOM     26  C   UNL A   1      42.280  20.178  26.392  1.00  0.00     0.202 C 
BRANCH  26  27
ATOM     27  C   UNL A   1      43.091  19.137  25.634  1.00  0.00     0.261 C 
BRANCH  27  28
ATOM     28  O   UNL A   1      43.567  19.653  24.400  1.00  0.00    -0.460 OA
BRANCH  28  29
ATOM     29  C   UNL A   1      44.906  19.847  24.381  1.00  0.00     0.338 C 
ATOM     30  O   UNL A   1      45.774  18.999  24.405  1.00  0.00    -0.246 OA
BRANCH  29  31
ATOM     31  C   UNL A   1      45.170  21.288  24.456  1.00  0.00     0.060 A 
ATOM     32  C   UNL A   1      46.047  21.656  25.471  1.00  0.00     0.016 A 
ATOM     33  C   UNL A   1      44.314  22.208  23.831  1.00  0.00     0.016 A 
ATOM     34  C   UNL A   1      45.823  22.856  26.089  1.00  0.00     0.010 A 
ATOM     35  C   UNL A   1      44.103  23.421  24.441  1.00  0.00     0.010 A 
ATOM     36  C   UNL A   1      44.774  23.668  25.632  1.00  0.00    -0.014 A 
BRANCH  36  37
ATOM     37  C   UNL A   1      44.478  24.842  26.418  1.00  0.00     0.031 A 
ATOM     38  C   UNL A   1      45.577  25.821  26.356  1.00  0.00     0.074 A 
ATOM     39  C   UNL A   1      43.350  25.000  27.133  1.00  0.00     0.049 A 
ATOM     40  N   UNL A   1      46.434  26.072  27.286  1.00  0.00    -0.248 NA
ATOM     41  C   UNL A   1      45.898  26.410  25.048  1.00  0.00     0.031 C 
ATOM     42  C   UNL A   1      42.113  24.218  27.114  1.00  0.00     0.029 A 
ATOM     43  N   UNL A   1      43.062  25.992  28.013  1.00  0.00    -0.354 N 
ATOM     44  C   UNL A   1      47.307  27.002  26.742  1.00  0.00     0.074 A 
ATOM     45  C   UNL A   1      47.042  27.035  25.325  1.00  0.00     0.031 C 
ATOM     46  C   UNL A   1      41.136  24.914  27.748  1.00  0.00     0.029 A 
ATOM     47  C   UNL A   1      41.720  26.104  28.346  1.00  0.00     0.049 A 
ATOM     48  H   UNL A   1      43.752  26.587  28.387  1.00  0.00     0.167 HD
ATOM     49  C   UNL A   1      47.992  27.860  27.540  1.00  0.00     0.031 A 
ATOM     50  C   UNL A   1      41.152  27.141  29.015  1.00  0.00     0.031 A 
ATOM     51  C   UNL A   1      48.031  27.403  28.906  1.00  0.00     0.049 A 
ATOM     52  C   UNL A   1      42.238  27.835  29.749  1.00  0.00     0.074 A 
ATOM     53  C   UNL A   1      48.564  26.302  29.546  1.00  0.00     0.029 A 
ATOM     54  N   UNL A   1      47.095  27.928  29.765  1.00  0.00    -0.354 N 
ATOM     55  N   UNL A   1      42.876  27.298  30.749  1.00  0.00    -0.248 NA
ATOM     56  C   UNL A   1      42.933  28.919  29.070  1.00  0.00     0.031 C 
ATOM     57  C   UNL A   1      47.606  25.953  30.542  1.00  0.00     0.029 A 
ATOM     58  C   UNL A   1      46.577  26.896  30.504  1.00  0.00     0.049 A 
ATOM     59  H   UNL A   1      46.842  28.876  29.837  1.00  0.00     0.167 HD
ATOM     60  C   UNL A   1      44.201  27.653  30.550  1.00  0.00     0.074 A 
ATOM     61  C   UNL A   1      44.165  28.719  29.549  1.00  0.00     0.031 C 
ATOM     62  C   UNL A   1      45.217  26.856  30.996  1.00  0.00     0.031 A 
BRANCH  49  63
ATOM     63  C   UNL A   1      48.206  29.300  27.161  1.00  0.00    -0.014 A 
ATOM     64  C   UNL A   1      49.491  29.847  27.297  1.00  0.00     0.009 A 
ATOM     65  C   UNL A   1      47.146  30.206  26.957  1.00  0.00     0.009 A 
ATOM     66  C   UNL A   1      49.690  31.232  27.296  1.00  0.00     0.001 A 
ATOM     67  C   UNL A   1      47.346  31.586  26.917  1.00  0.00     0.001 A 
ATOM     68  C   UNL A   1      48.618  32.100  27.115  1.00  0.00     0.000 A 
ENDBRANCH  49  63
BRANCH  50  69
ATOM     69  C   UNL A   1      39.846  27.797  28.770  1.00  0.00    -0.014 A 
ATOM     70  C   UNL A   1      38.898  27.906  29.804  1.00  0.00     0.009 A 
ATOM     71  C   UNL A   1      39.655  28.592  27.626  1.00  0.00     0.009 A 
ATOM     72  C   UNL A   1      37.833  28.814  29.716  1.00  0.00     0.001 A 
ATOM     73  C   UNL A   1      38.589  29.497  27.538  1.00  0.00     0.001 A 
ATOM     74  C   UNL A   1      37.690  29.621  28.591  1.00  0.00     0.000 A 
ENDBRANCH  50  69
BRANCH  62  75
ATOM     75  C   UNL A   1      44.863  25.692  31.891  1.00  0.00    -0.014 A 
ATOM     76  C   UNL A   1      44.488  24.427  31.402  1.00  0.00     0.009 A 
ATOM     77  C   UNL A   1      45.080  25.834  33.268  1.00  0.00     0.009 A 
ATOM     78  C   UNL A   1      44.322  23.343  32.275  1.00  0.00     0.001 A 
ATOM     79  C   UNL A   1      44.934  24.749  34.135  1.00  0.00     0.001 A 
ATOM     80  C   UNL A   1      44.554  23.505  33.639  1.00  0.00     0.000 A 
ENDBRANCH  62  75
ENDBRANCH  36  37
ENDBRANCH  29  31
ENDBRANCH  28  29
ENDBRANCH  27  28
ENDBRANCH  26  27
ENDBRANCH   1  26
TORSDOF 16
ENDMDL
MODEL 3
REMARK VINA RESULT:     -11.5      5.904     11.212
REMARK SMILES Cc1cc(=O)n2cc(-c3ccccc3)nc2n1[C@H](C)C(=O)OCCOCCOC(=O)c1ccc(-c2c3nc(c(-c4ccccc4)c4ccc([nH]4)c(-c4ccccc4)c4nc(c(-c5ccccc5)c5ccc2[nH]5)C=C4)C=C3)cc1
REMARK SMILES IDX 25 1 24 2 23 3 22 4 20 5 21 6 18 7 19 8 17 9 1 10 2 11 3 12
REMARK SMILES IDX 4 13 16 14 5 15 6 16 15 17 7 18 8 19 9 20 10 21 14 22 11 23
REMARK SMILES IDX 13 24 12 25 26 26 27 27 28 28 29 29 30 30 31 31 32 32 78 33
REMARK SMILES IDX 33 34 77 35 34 36 35 37 36 38 71 39 37 40 76 41 70 42 72 43
REMARK SMILES IDX 38 44 75 45 69 46 68 47 39 49 61 50 46 51 60 52 47 53 50 54
REMARK SMILES IDX 59 55 73 56 48 57 49 58 58 60 74 61 51 62 40 63 41 64 45 65
REMARK SMILES IDX 42 66 44 67 43 68 62 69 63 70 67 71 64 72 66 73 65 74 52 75
REMARK SMILES IDX 53 76 57 77 54 78 56 79 55 80
REMARK H PARENT 72 48 50 59
REMARK Flexibility Score: inf
ROOT
ATOM      1  O   UNL A   1      34.300  33.332  28.300  1.00  0.00    -0.374 OA
ENDROOT
BRANCH   1   2
ATOM      2  C   UNL A   1      33.965  31.949  28.406  1.00  0.00     0.202 C 
BRANCH   2   3
ATOM      3  C   UNL A   1      33.408  31.216  27.184  1.00  0.00     0.261 C 
BRANCH   3   4
ATOM      4  O   UNL A   1      32.922  29.896  27.483  1.00  0.00    -0.462 OA
BRANCH   4   5
ATOM      5  C   UNL A   1      33.624  28.899  26.883  1.00  0.00     0.329 C 
ATOM      6  O   UNL A   1      34.815  28.985  26.590  1.00  0.00    -0.250 OA
BRANCH   5   7
ATOM      7  C   UNL A   1      32.813  27.620  26.657  1.00  0.00     0.197 C 
ATOM      8  C   UNL A   1      31.427  27.766  27.296  1.00  0.00     0.044 C 
BRANCH   7   9
ATOM      9  N   UNL A   1      32.895  27.152  25.230  1.00  0.00    -0.301 N 
ATOM     10  C   UNL A   1      34.433  25.206  25.857  1.00  0.00     0.065 C 
ATOM     11  C   UNL A   1      33.645  26.007  24.848  1.00  0.00     0.024 A 
ATOM     12  C   UNL A   1      33.673  25.561  23.577  1.00  0.00     0.093 A 
ATOM     13  C   UNL A   1      32.880  26.226  22.532  1.00  0.00     0.259 A 
ATOM     14  C   UNL A   1      32.120  27.777  24.280  1.00  0.00     0.218 A 
ATOM     15  O   UNL A   1      32.850  25.876  21.362  1.00  0.00    -0.269 OA
ATOM     16  N   UNL A   1      32.117  27.294  22.981  1.00  0.00    -0.251 N 
ATOM     17  N   UNL A   1      31.310  28.809  24.379  1.00  0.00    -0.212 NA
ATOM     18  C   UNL A   1      31.216  28.047  22.260  1.00  0.00     0.127 A 
ATOM     19  C   UNL A   1      30.720  28.962  23.154  1.00  0.00     0.091 A 
BRANCH  19  20
ATOM     20  C   UNL A   1      29.722  29.971  22.882  1.00  0.00     0.002 A 
ATOM     21  C   UNL A   1      29.358  30.902  23.861  1.00  0.00     0.010 A 
ATOM     22  C   UNL A   1      29.149  30.048  21.608  1.00  0.00     0.010 A 
ATOM     23  C   UNL A   1      28.422  31.897  23.568  1.00  0.00     0.001 A 
ATOM     24  C   UNL A   1      28.203  31.034  21.321  1.00  0.00     0.001 A 
ATOM     25  C   UNL A   1      27.842  31.959  22.301  1.00  0.00     0.000 A 
ENDBRANCH  19  20
ENDBRANCH   7   9
ENDBRANCH   5   7
ENDBRANCH   4   5
ENDBRANCH   3   4
ENDBRANCH   2   3
ENDBRANCH   1   2
BRANCH   1  26
ATOM     26  C   UNL A   1      33.332  34.347  28.532  1.00  0.00     0.202 C 
BRANCH  26  27
ATOM     27  C   UNL A   1      33.552  35.330  29.673  1.00  0.00     0.261 C 
BRANCH  27  28
ATOM     28  O   UNL A   1      32.853  34.927  30.841  1.00  0.00    -0.460 OA
BRANCH  28  29
ATOM     29  C   UNL A   1      33.291  35.540  31.966  1.00  0.00     0.338 C 
ATOM     30  O   UNL A   1      33.007  36.653  32.357  1.00  0.00    -0.246 OA
BRANCH  29  31
ATOM     31  C   UNL A   1      34.295  34.682  32.604  1.00  0.00     0.060 A 
ATOM     32  C   UNL A   1      35.523  35.300  32.818  1.00  0.00     0.016 A 
ATOM     33  C   UNL A   1      34.142  33.287  32.618  1.00  0.00     0.016 A 
ATOM     34  C   UNL A   1      36.644  34.524  32.701  1.00  0.00     0.010 A 
ATOM     35  C   UNL A   1      35.269  32.507  32.521  1.00  0.00     0.010 A 
ATOM     36  C   UNL A   1      36.494  33.154  32.438  1.00  0.00    -0.014 A 
BRANCH  36  37
ATOM     37  C   UNL A   1      37.704  32.415  32.164  1.00  0.00     0.031 A 
ATOM     38  C   UNL A   1      38.570  32.340  33.354  1.00  0.00     0.074 A 
ATOM     39  C   UNL A   1      38.005  31.889  30.963  1.00  0.00     0.049 A 
ATOM     40  N   UNL A   1      39.657  33.002  33.554  1.00  0.00    -0.248 NA
ATOM     41  C   UNL A   1      38.051  31.636  34.535  1.00  0.00     0.031 C 
ATOM     42  C   UNL A   1      37.159  31.711  29.781  1.00  0.00     0.029 A 
ATOM     43  N   UNL A   1      39.176  31.320  30.580  1.00  0.00    -0.354 N 
ATOM     44  C   UNL A   1      40.071  32.655  34.831  1.00  0.00     0.074 A 
ATOM     45  C   UNL A   1      38.965  31.964  35.448  1.00  0.00     0.031 C 
ATOM     46  C   UNL A   1      37.770  30.859  28.921  1.00  0.00     0.029 A 
ATOM     47  C   UNL A   1      39.104  30.562  29.420  1.00  0.00     0.049 A 
ATOM     48  H   UNL A   1      40.013  31.435  31.087  1.00  0.00     0.167 HD
ATOM     49  C   UNL A   1      41.380  32.730  35.181  1.00  0.00     0.031 A 
ATOM     50  C   UNL A   1      40.064  29.719  28.962  1.00  0.00     0.031 A 
ATOM     51  C   UNL A   1      42.125  33.573  34.282  1.00  0.00     0.049 A 
ATOM     52  C   UNL A   1      41.342  30.128  29.595  1.00  0.00     0.074 A 
ATOM     53  C   UNL A   1      42.085  34.913  33.949  1.00  0.00     0.029 A 
ATOM     54  N   UNL A   1      42.811  32.948  33.266  1.00  0.00    -0.354 N 
ATOM     55  N   UNL A   1      41.942  31.252  29.326  1.00  0.00    -0.248 NA
ATOM     56  C   UNL A   1      41.698  29.515  30.867  1.00  0.00     0.031 C 
ATOM     57  C   UNL A   1      42.334  34.953  32.546  1.00  0.00     0.029 A 
ATOM     58  C   UNL A   1      42.583  33.650  32.111  1.00  0.00     0.049 A 
ATOM     59  H   UNL A   1      43.366  32.141  33.354  1.00  0.00     0.167 HD
ATOM     60  C   UNL A   1      42.391  31.712  30.554  1.00  0.00     0.074 A 
ATOM     61  C   UNL A   1      42.287  30.562  31.453  1.00  0.00     0.031 C 
ATOM     62  C   UNL A   1      42.530  33.048  30.797  1.00  0.00     0.031 A 
BRANCH  49  63
ATOM     63  C   UNL A   1      42.035  31.684  36.041  1.00  0.00    -0.014 A 
ATOM     64  C   UNL A   1      42.712  32.094  37.200  1.00  0.00     0.009 A 
ATOM     65  C   UNL A   1      42.259  30.362  35.606  1.00  0.00     0.009 A 
ATOM     66  C   UNL A   1      43.617  31.243  37.846  1.00  0.00     0.001 A 
ATOM     67  C   UNL A   1      43.130  29.499  36.270  1.00  0.00     0.001 A 
ATOM     68  C   UNL A   1      43.831  29.951  37.377  1.00  0.00     0.000 A 
ENDBRANCH  49  63
BRANCH  50  69
ATOM     69  C   UNL A   1      39.906  28.383  28.340  1.00  0.00    -0.014 A 
ATOM     70  C   UNL A   1      40.574  28.071  27.143  1.00  0.00     0.009 A 
ATOM     71  C   UNL A   1      39.358  27.318  29.077  1.00  0.00     0.009 A 
ATOM     72  C   UNL A   1      40.734  26.739  26.730  1.00  0.00     0.001 A 
ATOM     73  C   UNL A   1      39.517  25.989  28.663  1.00  0.00     0.001 A 
ATOM     74  C   UNL A   1      40.220  25.700  27.499  1.00  0.00     0.000 A 
ENDBRANCH  50  69
BRANCH  62  75
ATOM     75  C   UNL A   1      42.385  33.998  29.631  1.00  0.00    -0.014 A 
ATOM     76  C   UNL A   1      41.216  34.741  29.380  1.00  0.00     0.009 A 
ATOM     77  C   UNL A   1      43.525  34.275  28.864  1.00  0.00     0.009 A 
ATOM     78  C   UNL A   1      41.192  35.720  28.378  1.00  0.00     0.001 A 
ATOM     79  C   UNL A   1      43.507  35.265  27.880  1.00  0.00     0.001 A 
ATOM     80  C   UNL A   1      42.340  35.986  27.636  1.00  0.00     0.000 A 
ENDBRANCH  62  75
ENDBRANCH  36  37
ENDBRANCH  29  31
ENDBRANCH  28  29
ENDBRANCH  27  28
ENDBRANCH  26  27
ENDBRANCH   1  26
TORSDOF 16
ENDMDL
