MODEL 1
REMARK VINA RESULT:     -10.3      0.000      0.000
REMARK SMILES COc1ccc2cc([C@@H](C)C(=O)OCCOCCOC(=O)c3ccc(-c4c5nc(c(-c6ccccc6)c6ccc([nH]6)c(-c6ccccc6)c6nc(c(-c7ccccc7)c7ccc4[nH]7)C=C6)C=C5)cc3)ccc2c1
REMARK SMILES IDX 16 1 15 2 14 3 13 4 11 5 12 6 9 7 10 8 8 9 3 10 4 11 73 12
REMARK SMILES IDX 5 13 72 14 6 15 71 16 7 17 70 18 2 19 1 20 17 21 18 22 19 23
REMARK SMILES IDX 20 24 21 25 22 26 23 27 69 28 24 29 68 30 25 31 26 32 27 33
REMARK SMILES IDX 62 34 28 35 67 36 61 37 63 38 29 39 66 40 60 41 59 42 30 44
REMARK SMILES IDX 52 45 37 46 51 47 38 48 41 49 50 50 64 51 39 52 40 53 49 55
REMARK SMILES IDX 65 56 42 57 31 58 32 59 36 60 33 61 35 62 34 63 53 64 54 65
REMARK SMILES IDX 58 66 55 67 57 68 56 69 43 70 44 71 48 72 45 73 47 74 46 75
REMARK H PARENT 63 43 41 54
REMARK Flexibility Score: inf
ROOT
ATOM      1  O   UNL A   1      46.685  20.562  24.848  1.00  0.00    -0.374 OA
ENDROOT
BRANCH   1   2
ATOM      2  C   UNL A   1      45.679  19.627  25.235  1.00  0.00     0.202 C 
BRANCH   2   3
ATOM      3  C   UNL A   1      44.629  19.295  24.171  1.00  0.00     0.261 C 
BRANCH   3   4
ATOM      4  O   UNL A   1      43.307  19.652  24.613  1.00  0.00    -0.463 OA
BRANCH   4   5
ATOM      5  C   UNL A   1      42.807  18.918  25.640  1.00  0.00     0.313 C 
ATOM      6  O   UNL A   1      42.926  17.700  25.742  1.00  0.00    -0.252 OA
BRANCH   5   7
ATOM      7  C   UNL A   1      42.025  19.729  26.661  1.00  0.00     0.126 C 
ATOM      8  C   UNL A   1      42.053  19.001  28.004  1.00  0.00     0.025 C 
BRANCH   7   9
ATOM      9  C   UNL A   1      40.617  20.185  26.292  1.00  0.00    -0.033 A 
ATOM     10  C   UNL A   1      36.438  22.793  24.969  1.00  0.00     0.119 A 
ATOM     11  C   UNL A   1      37.250  23.687  25.659  1.00  0.00     0.047 A 
ATOM     12  C   UNL A   1      36.841  21.462  24.837  1.00  0.00     0.055 A 
ATOM     13  C   UNL A   1      38.476  23.260  26.185  1.00  0.00     0.012 A 
ATOM     14  C   UNL A   1      38.074  21.022  25.347  1.00  0.00    -0.015 A 
ATOM     15  C   UNL A   1      38.911  21.933  26.025  1.00  0.00    -0.018 A 
ATOM     16  C   UNL A   1      38.503  19.700  25.176  1.00  0.00     0.009 A 
ATOM     17  C   UNL A   1      40.167  21.500  26.499  1.00  0.00     0.013 A 
ATOM     18  C   UNL A   1      39.755  19.289  25.639  1.00  0.00     0.005 A 
BRANCH  10  19
ATOM     19  O   UNL A   1      35.225  23.091  24.408  1.00  0.00    -0.497 OA
ATOM     20  C   UNL A   1      34.817  24.451  24.494  1.00  0.00     0.278 C 
ENDBRANCH  10  19
ENDBRANCH   7   9
ENDBRANCH   5   7
ENDBRANCH   4   5
ENDBRANCH   3   4
ENDBRANCH   2   3
ENDBRANCH   1   2
BRANCH   1  21
ATOM     21  C   UNL A   1      46.273  21.909  24.612  1.00  0.00     0.202 C 
BRANCH  21  22
ATOM     22  C   UNL A   1      45.647  22.645  25.802  1.00  0.00     0.261 C 
BRANCH  22  23
ATOM     23  O   UNL A   1      44.993  23.863  25.404  1.00  0.00    -0.460 OA
BRANCH  23  24
ATOM     24  C   UNL A   1      43.660  23.757  25.208  1.00  0.00     0.338 C 
ATOM     25  O   UNL A   1      43.072  22.950  24.500  1.00  0.00    -0.246 OA
BRANCH  24  26
ATOM     26  C   UNL A   1      42.938  24.665  26.119  1.00  0.00     0.060 A 
ATOM     27  C   UNL A   1      43.380  25.992  26.189  1.00  0.00     0.016 A 
ATOM     28  C   UNL A   1      41.914  24.213  26.953  1.00  0.00     0.016 A 
ATOM     29  C   UNL A   1      42.839  26.859  27.134  1.00  0.00     0.010 A 
ATOM     30  C   UNL A   1      41.376  25.084  27.909  1.00  0.00     0.010 A 
ATOM     31  C   UNL A   1      41.866  26.397  28.030  1.00  0.00    -0.014 A 
BRANCH  31  32
ATOM     32  C   UNL A   1      41.491  27.242  29.190  1.00  0.00     0.031 A 
ATOM     33  C   UNL A   1      40.239  28.073  29.111  1.00  0.00     0.074 A 
ATOM     34  C   UNL A   1      42.222  27.235  30.318  1.00  0.00     0.049 A 
ATOM     35  N   UNL A   1      39.720  28.877  30.004  1.00  0.00    -0.248 NA
ATOM     36  C   UNL A   1      39.468  27.983  27.860  1.00  0.00     0.031 C 
ATOM     37  C   UNL A   1      43.427  26.437  30.543  1.00  0.00     0.029 A 
ATOM     38  N   UNL A   1      42.049  27.924  31.492  1.00  0.00    -0.354 N 
ATOM     39  C   UNL A   1      38.567  29.390  29.422  1.00  0.00     0.074 A 
ATOM     40  C   UNL A   1      38.477  28.830  28.091  1.00  0.00     0.031 C 
ATOM     41  C   UNL A   1      43.886  26.685  31.782  1.00  0.00     0.029 A 
ATOM     42  C   UNL A   1      43.026  27.677  32.424  1.00  0.00     0.049 A 
ATOM     43  H   UNL A   1      41.296  28.539  31.651  1.00  0.00     0.167 HD
ATOM     44  C   UNL A   1      37.658  30.245  29.949  1.00  0.00     0.031 A 
ATOM     45  C   UNL A   1      43.212  28.201  33.651  1.00  0.00     0.031 A 
ATOM     46  C   UNL A   1      37.746  30.814  31.267  1.00  0.00     0.049 A 
ATOM     47  C   UNL A   1      42.230  29.209  34.185  1.00  0.00     0.074 A 
ATOM     48  C   UNL A   1      36.869  31.683  31.891  1.00  0.00     0.029 A 
ATOM     49  N   UNL A   1      38.777  30.573  32.161  1.00  0.00    -0.354 N 
ATOM     50  N   UNL A   1      41.136  29.671  33.632  1.00  0.00    -0.248 NA
ATOM     51  C   UNL A   1      42.509  29.762  35.519  1.00  0.00     0.031 C 
ATOM     52  C   UNL A   1      37.394  32.007  33.146  1.00  0.00     0.029 A 
ATOM     53  C   UNL A   1      38.572  31.298  33.322  1.00  0.00     0.049 A 
ATOM     54  H   UNL A   1      39.541  29.975  31.995  1.00  0.00     0.167 HD
ATOM     55  C   UNL A   1      40.583  30.546  34.558  1.00  0.00     0.074 A 
ATOM     56  C   UNL A   1      41.456  30.543  35.714  1.00  0.00     0.031 C 
ATOM     57  C   UNL A   1      39.449  31.284  34.463  1.00  0.00     0.031 A 
BRANCH  44  58
ATOM     58  C   UNL A   1      36.503  30.644  29.076  1.00  0.00    -0.014 A 
ATOM     59  C   UNL A   1      35.545  29.706  28.662  1.00  0.00     0.009 A 
ATOM     60  C   UNL A   1      36.358  31.984  28.685  1.00  0.00     0.009 A 
ATOM     61  C   UNL A   1      34.481  30.097  27.846  1.00  0.00     0.001 A 
ATOM     62  C   UNL A   1      35.280  32.377  27.889  1.00  0.00     0.001 A 
ATOM     63  C   UNL A   1      34.348  31.432  27.464  1.00  0.00     0.000 A 
ENDBRANCH  44  58
BRANCH  45  64
ATOM     64  C   UNL A   1      44.389  27.796  34.461  1.00  0.00    -0.014 A 
ATOM     65  C   UNL A   1      44.310  26.714  35.350  1.00  0.00     0.009 A 
ATOM     66  C   UNL A   1      45.595  28.507  34.362  1.00  0.00     0.009 A 
ATOM     67  C   UNL A   1      45.409  26.367  36.140  1.00  0.00     0.001 A 
ATOM     68  C   UNL A   1      46.700  28.142  35.133  1.00  0.00     0.001 A 
ATOM     69  C   UNL A   1      46.603  27.078  36.029  1.00  0.00     0.000 A 
ENDBRANCH  45  64
BRANCH  57  70
ATOM     70  C   UNL A   1      39.070  32.122  35.650  1.00  0.00    -0.014 A 
ATOM     71  C   UNL A   1      39.545  33.435  35.799  1.00  0.00     0.009 A 
ATOM     72  C   UNL A   1      38.187  31.605  36.612  1.00  0.00     0.009 A 
ATOM     73  C   UNL A   1      39.167  34.200  36.904  1.00  0.00     0.001 A 
ATOM     74  C   UNL A   1      37.791  32.382  37.701  1.00  0.00     0.001 A 
ATOM     75  C   UNL A   1      38.287  33.676  37.851  1.00  0.00     0.000 A 
ENDBRANCH  57  70
ENDBRANCH  31  32
ENDBRANCH  24  26
ENDBRANCH  23  24
ENDBRANCH  22  23
ENDBRANCH  21  22
ENDBRANCH   1  21
TORSDOF 16
ENDMDL
MODEL 2
REMARK VINA RESULT:     -10.2      5.028     11.626
REMARK SMILES COc1ccc2cc([C@@H](C)C(=O)OCCOCCOC(=O)c3ccc(-c4c5nc(c(-c6ccccc6)c6ccc([nH]6)c(-c6ccccc6)c6nc(c(-c7ccccc7)c7ccc4[nH]7)C=C6)C=C5)cc3)ccc2c1
REMARK SMILES IDX 16 1 15 2 14 3 13 4 11 5 12 6 9 7 10 8 8 9 3 10 4 11 73 12
REMARK SMILES IDX 5 13 72 14 6 15 71 16 7 17 70 18 2 19 1 20 17 21 18 22 19 23
REMARK SMILES IDX 20 24 21 25 22 26 23 27 69 28 24 29 68 30 25 31 26 32 27 33
REMARK SMILES IDX 62 34 28 35 67 36 61 37 63 38 29 39 66 40 60 41 59 42 30 44
REMARK SMILES IDX 52 45 37 46 51 47 38 48 41 49 50 50 64 51 39 52 40 53 49 55
REMARK SMILES IDX 65 56 42 57 31 58 32 59 36 60 33 61 35 62 34 63 53 64 54 65
REMARK SMILES IDX 58 66 55 67 57 68 56 69 43 70 44 71 48 72 45 73 47 74 46 75
REMARK H PARENT 63 43 41 54
REMARK Flexibility Score: inf
ROOT
ATOM      1  O   UNL A   1      33.694  35.608  33.039  1.00  0.00    -0.374 OA
ENDROOT
BRANCH   1   2
ATOM      2  C   UNL A   1      34.571  34.535  33.382  1.00  0.00     0.202 C 
BRANCH   2   3
ATOM      3  C   UNL A   1      36.050  34.750  33.054  1.00  0.00     0.261 C 
BRANCH   3   4
ATOM      4  O   UNL A   1      36.871  34.617  34.230  1.00  0.00    -0.463 OA
BRANCH   4   5
ATOM      5  C   UNL A   1      37.098  33.348  34.653  1.00  0.00     0.313 C 
ATOM      6  O   UNL A   1      36.930  32.963  35.808  1.00  0.00    -0.252 OA
BRANCH   5   7
ATOM      7  C   UNL A   1      37.635  32.419  33.576  1.00  0.00     0.126 C 
ATOM      8  C   UNL A   1      36.621  31.304  33.326  1.00  0.00     0.025 C 
BRANCH   7   9
ATOM      9  C   UNL A   1      39.051  31.874  33.737  1.00  0.00    -0.033 A 
ATOM     10  C   UNL A   1      43.736  30.638  35.329  1.00  0.00     0.119 A 
ATOM     11  C   UNL A   1      43.449  31.877  35.895  1.00  0.00     0.047 A 
ATOM     12  C   UNL A   1      42.812  30.051  34.461  1.00  0.00     0.055 A 
ATOM     13  C   UNL A   1      42.229  32.508  35.620  1.00  0.00     0.012 A 
ATOM     14  C   UNL A   1      41.579  30.665  34.188  1.00  0.00    -0.015 A 
ATOM     15  C   UNL A   1      41.275  31.908  34.780  1.00  0.00    -0.018 A 
ATOM     16  C   UNL A   1      40.631  30.056  33.356  1.00  0.00     0.009 A 
ATOM     17  C   UNL A   1      40.019  32.503  34.538  1.00  0.00     0.013 A 
ATOM     18  C   UNL A   1      39.386  30.650  33.136  1.00  0.00     0.005 A 
BRANCH  10  19
ATOM     19  O   UNL A   1      44.887  29.924  35.524  1.00  0.00    -0.497 OA
ATOM     20  C   UNL A   1      44.719  28.571  35.931  1.00  0.00     0.278 C 
ENDBRANCH  10  19
ENDBRANCH   7   9
ENDBRANCH   5   7
ENDBRANCH   4   5
ENDBRANCH   3   4
ENDBRANCH   2   3
ENDBRANCH   1   2
BRANCH   1  21
ATOM     21  C   UNL A   1      33.954  36.304  31.821  1.00  0.00     0.202 C 
BRANCH  21  22
ATOM     22  C   UNL A   1      32.928  36.113  30.698  1.00  0.00     0.261 C 
BRANCH  22  23
ATOM     23  O   UNL A   1      32.772  34.730  30.334  1.00  0.00    -0.460 OA
BRANCH  23  24
ATOM     24  C   UNL A   1      33.133  34.429  29.067  1.00  0.00     0.338 C 
ATOM     25  O   UNL A   1      32.584  34.784  28.031  1.00  0.00    -0.246 OA
BRANCH  24  26
ATOM     26  C   UNL A   1      34.427  33.723  29.060  1.00  0.00     0.060 A 
ATOM     27  C   UNL A   1      34.649  32.776  30.069  1.00  0.00     0.016 A 
ATOM     28  C   UNL A   1      35.436  34.038  28.148  1.00  0.00     0.016 A 
ATOM     29  C   UNL A   1      35.902  32.184  30.206  1.00  0.00     0.010 A 
ATOM     30  C   UNL A   1      36.697  33.447  28.292  1.00  0.00     0.010 A 
ATOM     31  C   UNL A   1      36.946  32.550  29.347  1.00  0.00    -0.014 A 
BRANCH  31  32
ATOM     32  C   UNL A   1      38.328  32.116  29.662  1.00  0.00     0.031 A 
ATOM     33  C   UNL A   1      38.783  30.751  29.219  1.00  0.00     0.074 A 
ATOM     34  C   UNL A   1      39.187  32.939  30.289  1.00  0.00     0.049 A 
ATOM     35  N   UNL A   1      39.944  30.171  29.381  1.00  0.00    -0.248 NA
ATOM     36  C   UNL A   1      37.796  29.935  28.493  1.00  0.00     0.031 C 
ATOM     37  C   UNL A   1      38.890  34.303  30.725  1.00  0.00     0.029 A 
ATOM     38  N   UNL A   1      40.493  32.741  30.662  1.00  0.00    -0.354 N 
ATOM     39  C   UNL A   1      39.827  28.922  28.783  1.00  0.00     0.074 A 
ATOM     40  C   UNL A   1      38.475  28.818  28.280  1.00  0.00     0.031 C 
ATOM     41  C   UNL A   1      39.985  34.819  31.310  1.00  0.00     0.029 A 
ATOM     42  C   UNL A   1      41.047  33.815  31.314  1.00  0.00     0.049 A 
ATOM     43  H   UNL A   1      40.986  31.908  30.481  1.00  0.00     0.167 HD
ATOM     44  C   UNL A   1      40.762  27.950  28.657  1.00  0.00     0.031 A 
ATOM     45  C   UNL A   1      42.267  33.965  31.863  1.00  0.00     0.031 A 
ATOM     46  C   UNL A   1      42.105  28.043  29.163  1.00  0.00     0.049 A 
ATOM     47  C   UNL A   1      43.265  32.841  31.777  1.00  0.00     0.074 A 
ATOM     48  C   UNL A   1      43.126  27.113  29.075  1.00  0.00     0.029 A 
ATOM     49  N   UNL A   1      42.610  29.130  29.859  1.00  0.00    -0.354 N 
ATOM     50  N   UNL A   1      43.147  31.674  31.194  1.00  0.00    -0.248 NA
ATOM     51  C   UNL A   1      44.568  33.062  32.423  1.00  0.00     0.031 C 
ATOM     52  C   UNL A   1      44.236  27.618  29.761  1.00  0.00     0.029 A 
ATOM     53  C   UNL A   1      43.921  28.883  30.229  1.00  0.00     0.049 A 
ATOM     54  H   UNL A   1      42.111  29.955  30.059  1.00  0.00     0.167 HD
ATOM     55  C   UNL A   1      44.366  31.033  31.377  1.00  0.00     0.074 A 
ATOM     56  C   UNL A   1      45.213  31.945  32.118  1.00  0.00     0.031 C 
ATOM     57  C   UNL A   1      44.751  29.800  30.965  1.00  0.00     0.031 A 
BRANCH  44  58
ATOM     58  C   UNL A   1      40.347  26.683  27.966  1.00  0.00    -0.014 A 
ATOM     59  C   UNL A   1      39.573  25.715  28.623  1.00  0.00     0.009 A 
ATOM     60  C   UNL A   1      40.716  26.467  26.629  1.00  0.00     0.009 A 
ATOM     61  C   UNL A   1      39.202  24.541  27.964  1.00  0.00     0.001 A 
ATOM     62  C   UNL A   1      40.324  25.304  25.965  1.00  0.00     0.001 A 
ATOM     63  C   UNL A   1      39.575  24.338  26.635  1.00  0.00     0.000 A 
ENDBRANCH  44  58
BRANCH  45  64
ATOM     64  C   UNL A   1      42.617  35.229  32.563  1.00  0.00    -0.014 A 
ATOM     65  C   UNL A   1      43.445  36.181  31.951  1.00  0.00     0.009 A 
ATOM     66  C   UNL A   1      42.137  35.477  33.858  1.00  0.00     0.009 A 
ATOM     67  C   UNL A   1      43.804  37.346  32.633  1.00  0.00     0.001 A 
ATOM     68  C   UNL A   1      42.476  36.654  34.527  1.00  0.00     0.001 A 
ATOM     69  C   UNL A   1      43.317  37.584  33.917  1.00  0.00     0.000 A 
ENDBRANCH  45  64
BRANCH  57  70
ATOM     70  C   UNL A   1      46.159  29.378  31.275  1.00  0.00    -0.014 A 
ATOM     71  C   UNL A   1      47.213  29.642  30.386  1.00  0.00     0.009 A 
ATOM     72  C   UNL A   1      46.441  28.747  32.497  1.00  0.00     0.009 A 
ATOM     73  C   UNL A   1      48.516  29.254  30.702  1.00  0.00     0.001 A 
ATOM     74  C   UNL A   1      47.749  28.384  32.822  1.00  0.00     0.001 A 
ATOM     75  C   UNL A   1      48.784  28.630  31.921  1.00  0.00     0.000 A 
ENDBRANCH  57  70
ENDBRANCH  31  32
ENDBRANCH  24  26
ENDBRANCH  23  24
ENDBRANCH  22  23
ENDBRANCH  21  22
ENDBRANCH   1  21
TORSDOF 16
ENDMDL
MODEL 3
REMARK VINA RESULT:     -10.1      5.049     11.942
REMARK SMILES COc1ccc2cc([C@@H](C)C(=O)OCCOCCOC(=O)c3ccc(-c4c5nc(c(-c6ccccc6)c6ccc([nH]6)c(-c6ccccc6)c6nc(c(-c7ccccc7)c7ccc4[nH]7)C=C6)C=C5)cc3)ccc2c1
REMARK SMILES IDX 16 1 15 2 14 3 13 4 11 5 12 6 9 7 10 8 8 9 3 10 4 11 73 12
REMARK SMILES IDX 5 13 72 14 6 15 71 16 7 17 70 18 2 19 1 20 17 21 18 22 19 23
REMARK SMILES IDX 20 24 21 25 22 26 23 27 69 28 24 29 68 30 25 31 26 32 27 33
REMARK SMILES IDX 62 34 28 35 67 36 61 37 63 38 29 39 66 40 60 41 59 42 30 44
REMARK SMILES IDX 52 45 37 46 51 47 38 48 41 49 50 50 64 51 39 52 40 53 49 55
REMARK SMILES IDX 65 56 42 57 31 58 32 59 36 60 33 61 35 62 34 63 53 64 54 65
REMARK SMILES IDX 58 66 55 67 57 68 56 69 43 70 44 71 48 72 45 73 47 74 46 75
REMARK H PARENT 63 43 41 54
REMARK Flexibility Score: inf
ROOT
ATOM      1  O   UNL A   1      33.980  35.623  33.660  1.00  0.00    -0.374 OA
ENDROOT
BRANCH   1   2
ATOM      2  C   UNL A   1      34.787  34.446  33.691  1.00  0.00     0.202 C 
BRANCH   2   3
ATOM      3  C   UNL A   1      36.280  34.650  33.421  1.00  0.00     0.261 C 
BRANCH   3   4
ATOM      4  O   UNL A   1      37.066  34.372  34.594  1.00  0.00    -0.463 OA
BRANCH   4   5
ATOM      5  C   UNL A   1      37.299  33.060  34.853  1.00  0.00     0.313 C 
ATOM      6  O   UNL A   1      37.130  32.530  35.948  1.00  0.00    -0.252 OA
BRANCH   5   7
ATOM      7  C   UNL A   1      37.846  32.280  33.668  1.00  0.00     0.126 C 
ATOM      8  C   UNL A   1      36.832  31.212  33.262  1.00  0.00     0.025 C 
BRANCH   7   9
ATOM      9  C   UNL A   1      39.258  31.711  33.771  1.00  0.00    -0.033 A 
ATOM     10  C   UNL A   1      43.993  30.419  35.159  1.00  0.00     0.119 A 
ATOM     11  C   UNL A   1      43.755  31.673  35.714  1.00  0.00     0.047 A 
ATOM     12  C   UNL A   1      43.018  29.833  34.348  1.00  0.00     0.055 A 
ATOM     13  C   UNL A   1      42.534  32.321  35.487  1.00  0.00     0.012 A 
ATOM     14  C   UNL A   1      41.784  30.465  34.123  1.00  0.00    -0.015 A 
ATOM     15  C   UNL A   1      41.530  31.724  34.705  1.00  0.00    -0.018 A 
ATOM     16  C   UNL A   1      40.787  29.858  33.349  1.00  0.00     0.009 A 
ATOM     17  C   UNL A   1      40.275  32.337  34.513  1.00  0.00     0.013 A 
ATOM     18  C   UNL A   1      39.542  30.471  33.178  1.00  0.00     0.005 A 
BRANCH  10  19
ATOM     19  O   UNL A   1      45.139  29.687  35.312  1.00  0.00    -0.497 OA
ATOM     20  C   UNL A   1      45.005  28.279  35.156  1.00  0.00     0.278 C 
ENDBRANCH  10  19
ENDBRANCH   7   9
ENDBRANCH   5   7
ENDBRANCH   4   5
ENDBRANCH   3   4
ENDBRANCH   2   3
ENDBRANCH   1   2
BRANCH   1  21
ATOM     21  C   UNL A   1      34.154  36.508  32.554  1.00  0.00     0.202 C 
BRANCH  21  22
ATOM     22  C   UNL A   1      33.150  36.364  31.405  1.00  0.00     0.261 C 
BRANCH  22  23
ATOM     23  O   UNL A   1      33.038  35.003  30.950  1.00  0.00    -0.460 OA
BRANCH  23  24
ATOM     24  C   UNL A   1      33.301  34.818  29.637  1.00  0.00     0.338 C 
ATOM     25  O   UNL A   1      32.736  35.336  28.682  1.00  0.00    -0.246 OA
BRANCH  24  26
ATOM     26  C   UNL A   1      34.518  34.003  29.472  1.00  0.00     0.060 A 
ATOM     27  C   UNL A   1      34.736  32.976  30.400  1.00  0.00     0.016 A 
ATOM     28  C   UNL A   1      35.471  34.288  28.493  1.00  0.00     0.016 A 
ATOM     29  C   UNL A   1      35.935  32.268  30.390  1.00  0.00     0.010 A 
ATOM     30  C   UNL A   1      36.680  33.580  28.488  1.00  0.00     0.010 A 
ATOM     31  C   UNL A   1      36.933  32.597  29.463  1.00  0.00    -0.014 A 
BRANCH  31  32
ATOM     32  C   UNL A   1      38.290  32.024  29.626  1.00  0.00     0.031 A 
ATOM     33  C   UNL A   1      39.342  32.835  30.334  1.00  0.00     0.074 A 
ATOM     34  C   UNL A   1      38.575  30.782  29.200  1.00  0.00     0.049 A 
ATOM     35  N   UNL A   1      40.589  32.531  30.593  1.00  0.00    -0.248 NA
ATOM     36  C   UNL A   1      38.933  34.164  30.816  1.00  0.00     0.031 C 
ATOM     37  C   UNL A   1      37.633  29.873  28.546  1.00  0.00     0.029 A 
ATOM     38  N   UNL A   1      39.746  30.070  29.259  1.00  0.00    -0.354 N 
ATOM     39  C   UNL A   1      41.113  33.630  31.262  1.00  0.00     0.074 A 
ATOM     40  C   UNL A   1      40.059  34.618  31.345  1.00  0.00     0.031 C 
ATOM     41  C   UNL A   1      38.267  28.722  28.263  1.00  0.00     0.029 A 
ATOM     42  C   UNL A   1      39.662  28.824  28.689  1.00  0.00     0.049 A 
ATOM     43  H   UNL A   1      40.570  30.419  29.671  1.00  0.00     0.167 HD
ATOM     44  C   UNL A   1      42.356  33.801  31.770  1.00  0.00     0.031 A 
ATOM     45  C   UNL A   1      40.606  27.878  28.518  1.00  0.00     0.031 A 
ATOM     46  C   UNL A   1      43.411  32.828  31.682  1.00  0.00     0.049 A 
ATOM     47  C   UNL A   1      42.003  28.123  29.023  1.00  0.00     0.074 A 
ATOM     48  C   UNL A   1      44.702  32.908  32.175  1.00  0.00     0.029 A 
ATOM     49  N   UNL A   1      43.297  31.598  31.055  1.00  0.00    -0.354 N 
ATOM     50  N   UNL A   1      42.479  29.158  29.669  1.00  0.00    -0.248 NA
ATOM     51  C   UNL A   1      42.990  27.061  28.777  1.00  0.00     0.031 C 
ATOM     52  C   UNL A   1      45.385  31.746  31.803  1.00  0.00     0.029 A 
ATOM     53  C   UNL A   1      44.502  30.921  31.124  1.00  0.00     0.049 A 
ATOM     54  H   UNL A   1      42.480  31.257  30.625  1.00  0.00     0.167 HD
ATOM     55  C   UNL A   1      43.811  28.862  29.932  1.00  0.00     0.074 A 
ATOM     56  C   UNL A   1      44.065  27.546  29.384  1.00  0.00     0.031 C 
ATOM     57  C   UNL A   1      44.740  29.612  30.574  1.00  0.00     0.031 A 
BRANCH  44  58
ATOM     58  C   UNL A   1      42.651  35.113  32.440  1.00  0.00    -0.014 A 
ATOM     59  C   UNL A   1      42.242  35.366  33.758  1.00  0.00     0.009 A 
ATOM     60  C   UNL A   1      43.371  36.100  31.749  1.00  0.00     0.009 A 
ATOM     61  C   UNL A   1      42.521  36.595  34.360  1.00  0.00     0.001 A 
ATOM     62  C   UNL A   1      43.670  37.318  32.362  1.00  0.00     0.001 A 
ATOM     63  C   UNL A   1      43.237  37.567  33.663  1.00  0.00     0.000 A 
ENDBRANCH  44  58
BRANCH  45  64
ATOM     64  C   UNL A   1      40.270  26.610  27.820  1.00  0.00    -0.014 A 
ATOM     65  C   UNL A   1      39.560  25.596  28.479  1.00  0.00     0.009 A 
ATOM     66  C   UNL A   1      40.679  26.403  26.493  1.00  0.00     0.009 A 
ATOM     67  C   UNL A   1      39.286  24.390  27.829  1.00  0.00     0.001 A 
ATOM     68  C   UNL A   1      40.381  25.206  25.838  1.00  0.00     0.001 A 
ATOM     69  C   UNL A   1      39.693  24.197  26.510  1.00  0.00     0.000 A 
ENDBRANCH  45  64
BRANCH  57  70
ATOM     70  C   UNL A   1      46.107  29.014  30.750  1.00  0.00    -0.014 A 
ATOM     71  C   UNL A   1      47.193  29.434  29.966  1.00  0.00     0.009 A 
ATOM     72  C   UNL A   1      46.319  28.048  31.746  1.00  0.00     0.009 A 
ATOM     73  C   UNL A   1      48.458  28.875  30.157  1.00  0.00     0.001 A 
ATOM     74  C   UNL A   1      47.591  27.510  31.952  1.00  0.00     0.001 A 
ATOM     75  C   UNL A   1      48.657  27.918  31.152  1.00  0.00     0.000 A 
ENDBRANCH  57  70
ENDBRANCH  31  32
ENDBRANCH  24  26
ENDBRANCH  23  24
ENDBRANCH  22  23
ENDBRANCH  21  22
ENDBRANCH   1  21
TORSDOF 16
ENDMDL
