MODEL 1
REMARK VINA RESULT:      -9.7      0.000      0.000
REMARK SMILES CC(C)[C@H](CO)NS(=O)(=O)c1ccc(C(=O)OCCOCCOC(=O)c2ccc(-c3c4nc(c(-c5ccccc5)c5ccc([nH]5)c(-c5ccccc5)c5nc(c(-c6ccccc6)c6ccc3[nH]6)C=C5)C=C4)cc2)cn1
REMARK SMILES IDX 18 1 17 2 15 3 16 4 14 5 11 6 12 7 75 8 13 9 74 10 8 11 9 12
REMARK SMILES IDX 10 13 7 14 4 16 2 17 1 18 3 19 5 20 6 21 19 23 20 24 21 25
REMARK SMILES IDX 22 26 23 27 24 28 25 29 26 30 27 31 73 32 28 33 72 34 29 35
REMARK SMILES IDX 30 36 31 37 66 38 32 39 71 40 65 41 67 42 33 43 70 44 64 45
REMARK SMILES IDX 63 46 34 48 56 49 41 50 55 51 42 52 45 53 54 54 68 55 43 56
REMARK SMILES IDX 44 57 53 59 69 60 46 61 35 62 36 63 40 64 37 65 39 66 38 67
REMARK SMILES IDX 57 68 58 69 62 70 59 71 61 72 60 73 47 74 48 75 52 76 49 77
REMARK SMILES IDX 51 78 50 79
REMARK H PARENT 7 15 6 22 67 47 45 58
REMARK Flexibility Score: inf
ROOT
ATOM      1  C   UNL A   1      32.903  36.108  31.160  1.00  0.00     0.261 C 
ENDROOT
BRANCH   1   2
ATOM      2  O   UNL A   1      33.211  35.001  32.027  1.00  0.00    -0.460 OA
BRANCH   2   3
ATOM      3  C   UNL A   1      34.183  35.253  32.935  1.00  0.00     0.339 C 
ATOM      4  O   UNL A   1      34.318  36.265  33.602  1.00  0.00    -0.246 OA
BRANCH   3   5
ATOM      5  C   UNL A   1      35.009  34.055  33.151  1.00  0.00     0.078 A 
ATOM      6  C   UNL A   1      36.689  31.999  33.764  1.00  0.00     0.170 A 
ATOM      7  C   UNL A   1      36.074  31.982  32.516  1.00  0.00     0.043 A 
ATOM      8  N   UNL A   1      36.475  32.945  34.715  1.00  0.00    -0.243 NA
ATOM      9  C   UNL A   1      35.199  33.033  32.213  1.00  0.00     0.020 A 
ATOM     10  C   UNL A   1      35.652  33.958  34.379  1.00  0.00     0.128 A 
BRANCH   6  11
ATOM     11  S   UNL A   1      38.007  30.861  34.185  1.00  0.00     0.258 S 
ATOM     12  O   UNL A   1      37.764  29.598  33.532  1.00  0.00    -0.205 OA
ATOM     13  O   UNL A   1      38.191  30.956  35.623  1.00  0.00    -0.205 OA
BRANCH  11  14
ATOM     14  N   UNL A   1      39.397  31.513  33.534  1.00  0.00    -0.204 NA
ATOM     15  H   UNL A   1      40.134  30.838  33.741  1.00  0.00     0.141 HD
BRANCH  14  16
ATOM     16  C   UNL A   1      39.969  32.828  33.870  1.00  0.00     0.098 C 
BRANCH  16  17
ATOM     17  C   UNL A   1      40.146  33.750  32.633  1.00  0.00     0.003 C 
ATOM     18  C   UNL A   1      38.882  34.563  32.320  1.00  0.00     0.009 C 
ATOM     19  C   UNL A   1      41.339  34.709  32.721  1.00  0.00     0.009 C 
ENDBRANCH  16  17
BRANCH  16  20
ATOM     20  C   UNL A   1      41.298  32.556  34.620  1.00  0.00     0.176 C 
BRANCH  20  21
ATOM     21  O   UNL A   1      41.036  32.092  35.949  1.00  0.00    -0.395 OA
ATOM     22  H   UNL A   1      40.483  31.295  35.910  1.00  0.00     0.210 HD
ENDBRANCH  20  21
ENDBRANCH  16  20
ENDBRANCH  14  16
ENDBRANCH  11  14
ENDBRANCH   6  11
ENDBRANCH   3   5
ENDBRANCH   2   3
ENDBRANCH   1   2
BRANCH   1  23
ATOM     23  C   UNL A   1      33.170  35.737  29.699  1.00  0.00     0.202 C 
BRANCH  23  24
ATOM     24  O   UNL A   1      33.174  34.334  29.428  1.00  0.00    -0.374 OA
BRANCH  24  25
ATOM     25  C   UNL A   1      34.230  33.847  28.597  1.00  0.00     0.202 C 
BRANCH  25  26
ATOM     26  C   UNL A   1      33.968  32.483  27.948  1.00  0.00     0.261 C 
BRANCH  26  27
ATOM     27  O   UNL A   1      34.379  31.412  28.821  1.00  0.00    -0.460 OA
BRANCH  27  28
ATOM     28  C   UNL A   1      34.749  30.268  28.196  1.00  0.00     0.338 C 
ATOM     29  O   UNL A   1      34.114  29.635  27.370  1.00  0.00    -0.246 OA
BRANCH  28  30
ATOM     30  C   UNL A   1      36.159  29.972  28.514  1.00  0.00     0.060 A 
ATOM     31  C   UNL A   1      37.103  30.148  27.493  1.00  0.00     0.016 A 
ATOM     32  C   UNL A   1      36.552  29.503  29.769  1.00  0.00     0.016 A 
ATOM     33  C   UNL A   1      38.440  29.825  27.715  1.00  0.00     0.010 A 
ATOM     34  C   UNL A   1      37.894  29.168  29.986  1.00  0.00     0.010 A 
ATOM     35  C   UNL A   1      38.838  29.305  28.953  1.00  0.00    -0.014 A 
BRANCH  35  36
ATOM     36  C   UNL A   1      40.221  28.806  29.132  1.00  0.00     0.031 A 
ATOM     37  C   UNL A   1      41.262  29.714  29.723  1.00  0.00     0.074 A 
ATOM     38  C   UNL A   1      40.544  27.547  28.785  1.00  0.00     0.049 A 
ATOM     39  N   UNL A   1      42.530  29.484  29.945  1.00  0.00    -0.248 NA
ATOM     40  C   UNL A   1      40.811  31.058  30.119  1.00  0.00     0.031 C 
ATOM     41  C   UNL A   1      39.617  26.554  28.242  1.00  0.00     0.029 A 
ATOM     42  N   UNL A   1      41.748  26.893  28.837  1.00  0.00    -0.354 N 
ATOM     43  C   UNL A   1      43.032  30.651  30.505  1.00  0.00     0.074 A 
ATOM     44  C   UNL A   1      41.937  31.597  30.564  1.00  0.00     0.031 C 
ATOM     45  C   UNL A   1      40.291  25.416  28.006  1.00  0.00     0.029 A 
ATOM     46  C   UNL A   1      41.698  25.610  28.351  1.00  0.00     0.049 A 
ATOM     47  H   UNL A   1      42.571  27.304  29.190  1.00  0.00     0.167 HD
ATOM     48  C   UNL A   1      44.288  30.913  30.937  1.00  0.00     0.031 A 
ATOM     49  C   UNL A   1      42.678  24.704  28.184  1.00  0.00     0.031 A 
ATOM     50  C   UNL A   1      45.383  29.984  30.863  1.00  0.00     0.049 A 
ATOM     51  C   UNL A   1      44.088  25.053  28.578  1.00  0.00     0.074 A 
ATOM     52  C   UNL A   1      46.687  30.149  31.298  1.00  0.00     0.029 A 
ATOM     53  N   UNL A   1      45.305  28.719  30.302  1.00  0.00    -0.354 N 
ATOM     54  N   UNL A   1      44.542  26.150  29.133  1.00  0.00    -0.248 NA
ATOM     55  C   UNL A   1      45.119  24.038  28.318  1.00  0.00     0.031 C 
ATOM     56  C   UNL A   1      47.412  29.004  30.950  1.00  0.00     0.029 A 
ATOM     57  C   UNL A   1      46.547  28.108  30.344  1.00  0.00     0.049 A 
ATOM     58  H   UNL A   1      44.488  28.315  29.930  1.00  0.00     0.167 HD
ATOM     59  C   UNL A   1      45.907  25.951  29.304  1.00  0.00     0.074 A 
ATOM     60  C   UNL A   1      46.204  24.623  28.807  1.00  0.00     0.031 C 
ATOM     61  C   UNL A   1      46.831  26.794  29.829  1.00  0.00     0.031 A 
BRANCH  48  62
ATOM     62  C   UNL A   1      44.550  32.282  31.498  1.00  0.00    -0.014 A 
ATOM     63  C   UNL A   1      44.539  32.516  32.882  1.00  0.00     0.009 A 
ATOM     64  C   UNL A   1      44.828  33.348  30.629  1.00  0.00     0.009 A 
ATOM     65  C   UNL A   1      44.771  33.799  33.383  1.00  0.00     0.001 A 
ATOM     66  C   UNL A   1      45.083  34.624  31.133  1.00  0.00     0.001 A 
ATOM     67  C   UNL A   1      45.044  34.850  32.509  1.00  0.00     0.000 A 
ENDBRANCH  48  62
BRANCH  49  68
ATOM     68  C   UNL A   1      42.368  23.379  27.589  1.00  0.00    -0.014 A 
ATOM     69  C   UNL A   1      41.756  22.377  28.356  1.00  0.00     0.009 A 
ATOM     70  C   UNL A   1      42.688  23.111  26.249  1.00  0.00     0.009 A 
ATOM     71  C   UNL A   1      41.484  21.127  27.796  1.00  0.00     0.001 A 
ATOM     72  C   UNL A   1      42.394  21.868  25.686  1.00  0.00     0.001 A 
ATOM     73  C   UNL A   1      41.797  20.875  26.461  1.00  0.00     0.000 A 
ENDBRANCH  49  68
BRANCH  61  74
ATOM     74  C   UNL A   1      48.248  26.300  29.898  1.00  0.00    -0.014 A 
ATOM     75  C   UNL A   1      49.112  26.424  28.799  1.00  0.00     0.009 A 
ATOM     76  C   UNL A   1      48.736  25.743  31.090  1.00  0.00     0.009 A 
ATOM     77  C   UNL A   1      50.431  25.974  28.885  1.00  0.00     0.001 A 
ATOM     78  C   UNL A   1      50.063  25.316  31.181  1.00  0.00     0.001 A 
ATOM     79  C   UNL A   1      50.906  25.426  30.077  1.00  0.00     0.000 A 
ENDBRANCH  61  74
ENDBRANCH  35  36
ENDBRANCH  28  30
ENDBRANCH  27  28
ENDBRANCH  26  27
ENDBRANCH  25  26
ENDBRANCH  24  25
ENDBRANCH  23  24
ENDBRANCH   1  23
TORSDOF 20
ENDMDL
MODEL 2
REMARK VINA RESULT:      -9.7      5.392     11.416
REMARK SMILES CC(C)[C@H](CO)NS(=O)(=O)c1ccc(C(=O)OCCOCCOC(=O)c2ccc(-c3c4nc(c(-c5ccccc5)c5ccc([nH]5)c(-c5ccccc5)c5nc(c(-c6ccccc6)c6ccc3[nH]6)C=C5)C=C4)cc2)cn1
REMARK SMILES IDX 18 1 17 2 15 3 16 4 14 5 11 6 12 7 75 8 13 9 74 10 8 11 9 12
REMARK SMILES IDX 10 13 7 14 4 16 2 17 1 18 3 19 5 20 6 21 19 23 20 24 21 25
REMARK SMILES IDX 22 26 23 27 24 28 25 29 26 30 27 31 73 32 28 33 72 34 29 35
REMARK SMILES IDX 30 36 31 37 66 38 32 39 71 40 65 41 67 42 33 43 70 44 64 45
REMARK SMILES IDX 63 46 34 48 56 49 41 50 55 51 42 52 45 53 54 54 68 55 43 56
REMARK SMILES IDX 44 57 53 59 69 60 46 61 35 62 36 63 40 64 37 65 39 66 38 67
REMARK SMILES IDX 57 68 58 69 62 70 59 71 61 72 60 73 47 74 48 75 52 76 49 77
REMARK SMILES IDX 51 78 50 79
REMARK H PARENT 7 15 6 22 67 47 45 58
REMARK Flexibility Score: inf
ROOT
ATOM      1  C   UNL A   1      40.865  20.535  26.821  1.00  0.00     0.261 C 
ENDROOT
BRANCH   1   2
ATOM      2  O   UNL A   1      39.679  20.926  26.105  1.00  0.00    -0.460 OA
BRANCH   2   3
ATOM      3  C   UNL A   1      39.355  22.234  26.228  1.00  0.00     0.339 C 
ATOM      4  O   UNL A   1      40.100  23.148  26.540  1.00  0.00    -0.246 OA
BRANCH   3   5
ATOM      5  C   UNL A   1      37.975  22.468  25.774  1.00  0.00     0.078 A 
ATOM      6  C   UNL A   1      35.461  22.667  24.741  1.00  0.00     0.170 A 
ATOM      7  C   UNL A   1      36.002  23.796  25.348  1.00  0.00     0.043 A 
ATOM      8  N   UNL A   1      36.081  21.461  24.668  1.00  0.00    -0.243 NA
ATOM      9  C   UNL A   1      37.288  23.683  25.891  1.00  0.00     0.020 A 
ATOM     10  C   UNL A   1      37.329  21.396  25.173  1.00  0.00     0.128 A 
BRANCH   6  11
ATOM     11  S   UNL A   1      33.940  22.737  23.796  1.00  0.00     0.258 S 
ATOM     12  O   UNL A   1      33.273  21.462  23.886  1.00  0.00    -0.205 OA
ATOM     13  O   UNL A   1      34.277  23.337  22.516  1.00  0.00    -0.205 OA
BRANCH  11  14
ATOM     14  N   UNL A   1      32.982  23.869  24.559  1.00  0.00    -0.204 NA
ATOM     15  H   UNL A   1      32.238  23.333  25.006  1.00  0.00     0.141 HD
BRANCH  14  16
ATOM     16  C   UNL A   1      32.306  25.003  23.906  1.00  0.00     0.098 C 
BRANCH  16  17
ATOM     17  C   UNL A   1      32.215  26.261  24.812  1.00  0.00     0.003 C 
ATOM     18  C   UNL A   1      33.422  26.399  25.749  1.00  0.00     0.009 C 
ATOM     19  C   UNL A   1      32.029  27.579  24.051  1.00  0.00     0.009 C 
ENDBRANCH  16  17
BRANCH  16  20
ATOM     20  C   UNL A   1      30.920  24.487  23.442  1.00  0.00     0.176 C 
BRANCH  20  21
ATOM     21  O   UNL A   1      31.056  23.238  22.756  1.00  0.00    -0.395 OA
ATOM     22  H   UNL A   1      31.216  23.403  21.812  1.00  0.00     0.210 HD
ENDBRANCH  20  21
ENDBRANCH  16  20
ENDBRANCH  14  16
ENDBRANCH  11  14
ENDBRANCH   6  11
ENDBRANCH   3   5
ENDBRANCH   2   3
ENDBRANCH   1   2
BRANCH   1  23
ATOM     23  C   UNL A   1      41.679  19.528  26.005  1.00  0.00     0.202 C 
BRANCH  23  24
ATOM     24  O   UNL A   1      42.841  20.068  25.374  1.00  0.00    -0.374 OA
BRANCH  24  25
ATOM     25  C   UNL A   1      43.232  21.383  25.775  1.00  0.00     0.202 C 
BRANCH  25  26
ATOM     26  C   UNL A   1      44.109  22.134  24.767  1.00  0.00     0.261 C 
BRANCH  26  27
ATOM     27  O   UNL A   1      43.620  23.474  24.559  1.00  0.00    -0.460 OA
BRANCH  27  28
ATOM     28  C   UNL A   1      44.415  24.460  25.043  1.00  0.00     0.338 C 
ATOM     29  O   UNL A   1      45.515  24.793  24.636  1.00  0.00    -0.246 OA
BRANCH  28  30
ATOM     30  C   UNL A   1      43.670  25.238  26.051  1.00  0.00     0.060 A 
ATOM     31  C   UNL A   1      43.824  26.631  26.036  1.00  0.00     0.016 A 
ATOM     32  C   UNL A   1      42.862  24.625  27.011  1.00  0.00     0.016 A 
ATOM     33  C   UNL A   1      43.195  27.414  27.001  1.00  0.00     0.010 A 
ATOM     34  C   UNL A   1      42.240  25.413  27.987  1.00  0.00     0.010 A 
ATOM     35  C   UNL A   1      42.423  26.807  28.000  1.00  0.00    -0.014 A 
BRANCH  35  36
ATOM     36  C   UNL A   1      41.897  27.620  29.120  1.00  0.00     0.031 A 
ATOM     37  C   UNL A   1      42.614  27.608  30.440  1.00  0.00     0.074 A 
ATOM     38  C   UNL A   1      40.797  28.378  28.957  1.00  0.00     0.049 A 
ATOM     39  N   UNL A   1      42.312  28.229  31.552  1.00  0.00    -0.248 NA
ATOM     40  C   UNL A   1      43.835  26.790  30.516  1.00  0.00     0.031 C 
ATOM     41  C   UNL A   1      40.036  28.511  27.716  1.00  0.00     0.029 A 
ATOM     42  N   UNL A   1      40.130  29.177  29.851  1.00  0.00    -0.354 N 
ATOM     43  C   UNL A   1      43.302  27.878  32.460  1.00  0.00     0.074 A 
ATOM     44  C   UNL A   1      44.198  26.968  31.778  1.00  0.00     0.031 C 
ATOM     45  C   UNL A   1      39.000  29.340  27.929  1.00  0.00     0.029 A 
ATOM     46  C   UNL A   1      39.008  29.770  29.326  1.00  0.00     0.049 A 
ATOM     47  H   UNL A   1      40.427  29.313  30.780  1.00  0.00     0.167 HD
ATOM     48  C   UNL A   1      43.455  28.279  33.744  1.00  0.00     0.031 A 
ATOM     49  C   UNL A   1      38.083  30.553  29.910  1.00  0.00     0.031 A 
ATOM     50  C   UNL A   1      42.557  29.166  34.431  1.00  0.00     0.049 A 
ATOM     51  C   UNL A   1      38.219  30.903  31.367  1.00  0.00     0.074 A 
ATOM     52  C   UNL A   1      42.643  29.650  35.725  1.00  0.00     0.029 A 
ATOM     53  N   UNL A   1      41.397  29.691  33.884  1.00  0.00    -0.354 N 
ATOM     54  N   UNL A   1      39.176  30.588  32.205  1.00  0.00    -0.248 NA
ATOM     55  C   UNL A   1      37.146  31.716  31.956  1.00  0.00     0.031 C 
ATOM     56  C   UNL A   1      41.505  30.424  35.979  1.00  0.00     0.029 A 
ATOM     57  C   UNL A   1      40.737  30.461  34.827  1.00  0.00     0.049 A 
ATOM     58  H   UNL A   1      41.088  29.538  32.961  1.00  0.00     0.167 HD
ATOM     59  C   UNL A   1      38.829  31.177  33.415  1.00  0.00     0.074 A 
ATOM     60  C   UNL A   1      37.581  31.880  33.198  1.00  0.00     0.031 C 
ATOM     61  C   UNL A   1      39.487  31.139  34.600  1.00  0.00     0.031 A 
BRANCH  48  62
ATOM     62  C   UNL A   1      44.629  27.724  34.500  1.00  0.00    -0.014 A 
ATOM     63  C   UNL A   1      44.529  26.522  35.220  1.00  0.00     0.009 A 
ATOM     64  C   UNL A   1      45.856  28.404  34.477  1.00  0.00     0.009 A 
ATOM     65  C   UNL A   1      45.627  26.031  35.928  1.00  0.00     0.001 A 
ATOM     66  C   UNL A   1      46.959  27.898  35.166  1.00  0.00     0.001 A 
ATOM     67  C   UNL A   1      46.841  26.717  35.899  1.00  0.00     0.000 A 
ENDBRANCH  48  62
BRANCH  49  68
ATOM     68  C   UNL A   1      36.922  31.041  29.123  1.00  0.00    -0.014 A 
ATOM     69  C   UNL A   1      35.891  30.166  28.754  1.00  0.00     0.009 A 
ATOM     70  C   UNL A   1      36.845  32.388  28.735  1.00  0.00     0.009 A 
ATOM     71  C   UNL A   1      34.811  30.627  27.998  1.00  0.00     0.001 A 
ATOM     72  C   UNL A   1      35.753  32.850  27.999  1.00  0.00     0.001 A 
ATOM     73  C   UNL A   1      34.740  31.969  27.626  1.00  0.00     0.000 A 
ENDBRANCH  49  68
BRANCH  61  74
ATOM     74  C   UNL A   1      38.873  31.887  35.750  1.00  0.00    -0.014 A 
ATOM     75  C   UNL A   1      38.113  31.219  36.723  1.00  0.00     0.009 A 
ATOM     76  C   UNL A   1      39.091  33.267  35.883  1.00  0.00     0.009 A 
ATOM     77  C   UNL A   1      37.562  31.926  37.794  1.00  0.00     0.001 A 
ATOM     78  C   UNL A   1      38.559  33.966  36.968  1.00  0.00     0.001 A 
ATOM     79  C   UNL A   1      37.790  33.297  37.918  1.00  0.00     0.000 A 
ENDBRANCH  61  74
ENDBRANCH  35  36
ENDBRANCH  28  30
ENDBRANCH  27  28
ENDBRANCH  26  27
ENDBRANCH  25  26
ENDBRANCH  24  25
ENDBRANCH  23  24
ENDBRANCH   1  23
TORSDOF 20
ENDMDL
MODEL 3
REMARK VINA RESULT:      -9.7      5.291     11.709
REMARK SMILES CC(C)[C@H](CO)NS(=O)(=O)c1ccc(C(=O)OCCOCCOC(=O)c2ccc(-c3c4nc(c(-c5ccccc5)c5ccc([nH]5)c(-c5ccccc5)c5nc(c(-c6ccccc6)c6ccc3[nH]6)C=C5)C=C4)cc2)cn1
REMARK SMILES IDX 18 1 17 2 15 3 16 4 14 5 11 6 12 7 75 8 13 9 74 10 8 11 9 12
REMARK SMILES IDX 10 13 7 14 4 16 2 17 1 18 3 19 5 20 6 21 19 23 20 24 21 25
REMARK SMILES IDX 22 26 23 27 24 28 25 29 26 30 27 31 73 32 28 33 72 34 29 35
REMARK SMILES IDX 30 36 31 37 66 38 32 39 71 40 65 41 67 42 33 43 70 44 64 45
REMARK SMILES IDX 63 46 34 48 56 49 41 50 55 51 42 52 45 53 54 54 68 55 43 56
REMARK SMILES IDX 44 57 53 59 69 60 46 61 35 62 36 63 40 64 37 65 39 66 38 67
REMARK SMILES IDX 57 68 58 69 62 70 59 71 61 72 60 73 47 74 48 75 52 76 49 77
REMARK SMILES IDX 51 78 50 79
REMARK H PARENT 7 15 6 22 67 47 45 58
REMARK Flexibility Score: inf
ROOT
ATOM      1  C   UNL A   1      40.168  21.215  26.593  1.00  0.00     0.261 C 
ENDROOT
BRANCH   1   2
ATOM      2  O   UNL A   1      39.056  22.045  26.209  1.00  0.00    -0.460 OA
BRANCH   2   3
ATOM      3  C   UNL A   1      38.175  21.451  25.370  1.00  0.00     0.339 C 
ATOM      4  O   UNL A   1      38.146  20.274  25.052  1.00  0.00    -0.246 OA
BRANCH   3   5
ATOM      5  C   UNL A   1      37.112  22.393  24.986  1.00  0.00     0.078 A 
ATOM      6  C   UNL A   1      35.050  24.124  24.565  1.00  0.00     0.170 A 
ATOM      7  C   UNL A   1      35.562  23.448  23.463  1.00  0.00     0.043 A 
ATOM      8  N   UNL A   1      35.536  24.015  25.830  1.00  0.00    -0.243 NA
ATOM      9  C   UNL A   1      36.633  22.571  23.683  1.00  0.00     0.020 A 
ATOM     10  C   UNL A   1      36.546  23.140  26.011  1.00  0.00     0.128 A 
BRANCH   6  11
ATOM     11  S   UNL A   1      33.536  25.078  24.472  1.00  0.00     0.258 S 
ATOM     12  O   UNL A   1      33.524  25.818  23.234  1.00  0.00    -0.205 OA
ATOM     13  O   UNL A   1      33.383  25.735  25.758  1.00  0.00    -0.205 OA
BRANCH  11  14
ATOM     14  N   UNL A   1      32.298  23.962  24.412  1.00  0.00    -0.204 NA
ATOM     15  H   UNL A   1      31.442  24.503  24.538  1.00  0.00     0.141 HD
BRANCH  14  16
ATOM     16  C   UNL A   1      32.151  22.793  25.297  1.00  0.00     0.098 C 
BRANCH  16  17
ATOM     17  C   UNL A   1      32.261  21.441  24.542  1.00  0.00     0.003 C 
ATOM     18  C   UNL A   1      32.247  21.616  23.017  1.00  0.00     0.009 C 
ATOM     19  C   UNL A   1      33.480  20.596  24.929  1.00  0.00     0.009 C 
ENDBRANCH  16  17
BRANCH  16  20
ATOM     20  C   UNL A   1      30.803  22.966  26.041  1.00  0.00     0.176 C 
BRANCH  20  21
ATOM     21  O   UNL A   1      30.991  23.709  27.251  1.00  0.00    -0.395 OA
ATOM     22  H   UNL A   1      31.510  23.179  27.878  1.00  0.00     0.210 HD
ENDBRANCH  20  21
ENDBRANCH  16  20
ENDBRANCH  14  16
ENDBRANCH  11  14
ENDBRANCH   6  11
ENDBRANCH   3   5
ENDBRANCH   2   3
ENDBRANCH   1   2
BRANCH   1  23
ATOM     23  C   UNL A   1      41.449  21.674  25.891  1.00  0.00     0.202 C 
BRANCH  23  24
ATOM     24  O   UNL A   1      42.658  21.184  26.472  1.00  0.00    -0.374 OA
BRANCH  24  25
ATOM     25  C   UNL A   1      43.716  20.859  25.567  1.00  0.00     0.202 C 
BRANCH  25  26
ATOM     26  C   UNL A   1      44.546  22.052  25.082  1.00  0.00     0.261 C 
BRANCH  26  27
ATOM     27  O   UNL A   1      44.666  23.049  26.117  1.00  0.00    -0.460 OA
BRANCH  27  28
ATOM     28  C   UNL A   1      44.564  24.333  25.695  1.00  0.00     0.338 C 
ATOM     29  O   UNL A   1      44.879  24.784  24.607  1.00  0.00    -0.246 OA
BRANCH  28  30
ATOM     30  C   UNL A   1      43.817  25.118  26.696  1.00  0.00     0.060 A 
ATOM     31  C   UNL A   1      44.157  26.469  26.842  1.00  0.00     0.016 A 
ATOM     32  C   UNL A   1      42.827  24.546  27.498  1.00  0.00     0.016 A 
ATOM     33  C   UNL A   1      43.529  27.246  27.815  1.00  0.00     0.010 A 
ATOM     34  C   UNL A   1      42.207  25.325  28.481  1.00  0.00     0.010 A 
ATOM     35  C   UNL A   1      42.572  26.671  28.659  1.00  0.00    -0.014 A 
BRANCH  35  36
ATOM     36  C   UNL A   1      42.032  27.449  29.797  1.00  0.00     0.031 A 
ATOM     37  C   UNL A   1      40.754  28.221  29.622  1.00  0.00     0.074 A 
ATOM     38  C   UNL A   1      42.665  27.456  30.984  1.00  0.00     0.049 A 
ATOM     39  N   UNL A   1      40.122  28.981  30.479  1.00  0.00    -0.248 NA
ATOM     40  C   UNL A   1      40.102  28.119  28.307  1.00  0.00     0.031 C 
ATOM     41  C   UNL A   1      43.887  26.716  31.296  1.00  0.00     0.029 A 
ATOM     42  N   UNL A   1      42.363  28.117  32.147  1.00  0.00    -0.354 N 
ATOM     43  C   UNL A   1      38.999  29.450  29.810  1.00  0.00     0.074 A 
ATOM     44  C   UNL A   1      39.051  28.911  28.467  1.00  0.00     0.031 C 
ATOM     45  C   UNL A   1      44.234  26.968  32.569  1.00  0.00     0.029 A 
ATOM     46  C   UNL A   1      43.279  27.910  33.150  1.00  0.00     0.049 A 
ATOM     47  H   UNL A   1      41.566  28.685  32.254  1.00  0.00     0.167 HD
ATOM     48  C   UNL A   1      38.011  30.252  30.271  1.00  0.00     0.031 A 
ATOM     49  C   UNL A   1      43.349  28.436  34.386  1.00  0.00     0.031 A 
ATOM     50  C   UNL A   1      37.966  30.805  31.597  1.00  0.00     0.049 A 
ATOM     51  C   UNL A   1      42.293  29.405  34.843  1.00  0.00     0.074 A 
ATOM     52  C   UNL A   1      36.992  31.608  32.165  1.00  0.00     0.029 A 
ATOM     53  N   UNL A   1      38.947  30.625  32.560  1.00  0.00    -0.354 N 
ATOM     54  N   UNL A   1      41.222  29.816  34.210  1.00  0.00    -0.248 NA
ATOM     55  C   UNL A   1      42.460  29.984  36.183  1.00  0.00     0.031 C 
ATOM     56  C   UNL A   1      37.411  31.960  33.453  1.00  0.00     0.029 A 
ATOM     57  C   UNL A   1      38.622  31.334  33.704  1.00  0.00     0.049 A 
ATOM     58  H   UNL A   1      39.755  30.074  32.446  1.00  0.00     0.167 HD
ATOM     59  C   UNL A   1      40.579  30.688  35.080  1.00  0.00     0.074 A 
ATOM     60  C   UNL A   1      41.372  30.735  36.291  1.00  0.00     0.031 C 
ATOM     61  C   UNL A   1      39.431  31.386  34.893  1.00  0.00     0.031 A 
BRANCH  48  62
ATOM     62  C   UNL A   1      36.912  30.607  29.311  1.00  0.00    -0.014 A 
ATOM     63  C   UNL A   1      36.722  31.930  28.880  1.00  0.00     0.009 A 
ATOM     64  C   UNL A   1      36.067  29.602  28.817  1.00  0.00     0.009 A 
ATOM     65  C   UNL A   1      35.685  32.243  27.998  1.00  0.00     0.001 A 
ATOM     66  C   UNL A   1      35.047  29.913  27.917  1.00  0.00     0.001 A 
ATOM     67  C   UNL A   1      34.851  31.235  27.516  1.00  0.00     0.000 A 
ENDBRANCH  48  62
BRANCH  49  68
ATOM     68  C   UNL A   1      44.480  28.078  35.280  1.00  0.00    -0.014 A 
ATOM     69  C   UNL A   1      45.634  28.874  35.325  1.00  0.00     0.009 A 
ATOM     70  C   UNL A   1      44.409  26.933  36.089  1.00  0.00     0.009 A 
ATOM     71  C   UNL A   1      46.702  28.522  36.154  1.00  0.00     0.001 A 
ATOM     72  C   UNL A   1      45.469  26.597  36.933  1.00  0.00     0.001 A 
ATOM     73  C   UNL A   1      46.617  27.388  36.961  1.00  0.00     0.000 A 
ENDBRANCH  49  68
BRANCH  61  74
ATOM     74  C   UNL A   1      38.963  32.253  36.027  1.00  0.00    -0.014 A 
ATOM     75  C   UNL A   1      38.117  31.745  37.025  1.00  0.00     0.009 A 
ATOM     76  C   UNL A   1      39.408  33.581  36.121  1.00  0.00     0.009 A 
ATOM     77  C   UNL A   1      37.704  32.560  38.081  1.00  0.00     0.001 A 
ATOM     78  C   UNL A   1      39.013  34.386  37.191  1.00  0.00     0.001 A 
ATOM     79  C   UNL A   1      38.156  33.877  38.166  1.00  0.00     0.000 A 
ENDBRANCH  61  74
ENDBRANCH  35  36
ENDBRANCH  28  30
ENDBRANCH  27  28
ENDBRANCH  26  27
ENDBRANCH  25  26
ENDBRANCH  24  25
ENDBRANCH  23  24
ENDBRANCH   1  23
TORSDOF 20
ENDMDL
