MODEL 1
REMARK VINA RESULT:     -10.4      0.000      0.000
REMARK SMILES COc1cc(C=C2C(=O)N(C)C(=S)N(C)C2=O)c(Br)cc1OCC(=O)OCCOCCOC(=O)c1ccc(-c2c3nc(c(-c4ccccc4)c4ccc([nH]4)c(-c4ccccc4)c4nc(c(-c5ccccc5)c5ccc2[nH]5)C=C4)C=C3)cc1
REMARK SMILES IDX 28 1 27 2 26 3 24 4 25 5 23 6 22 7 21 8 3 9 4 10 5 11 20 12
REMARK SMILES IDX 18 13 19 14 2 15 1 16 6 17 7 18 8 19 16 20 9 21 10 22 14 23
REMARK SMILES IDX 17 24 11 25 12 26 15 27 13 28 29 29 30 30 31 31 32 32 33 33
REMARK SMILES IDX 34 34 35 35 36 36 82 37 37 38 81 39 38 40 39 41 40 42 75 43
REMARK SMILES IDX 41 44 80 45 74 46 76 47 42 48 79 49 73 50 72 51 43 53 65 54
REMARK SMILES IDX 50 55 64 56 51 57 54 58 63 59 77 60 52 61 53 62 62 64 78 65
REMARK SMILES IDX 55 66 44 67 45 68 49 69 46 70 48 71 47 72 66 73 67 74 71 75
REMARK SMILES IDX 68 76 70 77 69 78 56 79 57 80 61 81 58 82 60 83 59 84
REMARK H PARENT 76 52 54 63
REMARK Flexibility Score: inf
ROOT
ATOM      1  C   UNL A   1      41.161  21.738  26.069  1.00  0.00     0.202 C 
ENDROOT
BRANCH   1   2
ATOM      2  C   UNL A   1      39.777  21.148  26.361  1.00  0.00     0.261 C 
BRANCH   2   3
ATOM      3  O   UNL A   1      38.702  21.920  25.776  1.00  0.00    -0.461 OA
BRANCH   3   4
ATOM      4  C   UNL A   1      37.660  21.195  25.264  1.00  0.00     0.344 C 
ATOM      5  O   UNL A   1      37.715  19.997  25.004  1.00  0.00    -0.248 OA
BRANCH   4   6
ATOM      6  C   UNL A   1      36.435  22.057  24.937  1.00  0.00     0.352 C 
BRANCH   6   7
ATOM      7  O   UNL A   1      35.309  21.509  24.282  1.00  0.00    -0.478 OA
BRANCH   7   8
ATOM      8  C   UNL A   1      34.113  22.169  24.212  1.00  0.00     0.163 A 
ATOM      9  C   UNL A   1      33.059  22.209  25.133  1.00  0.00     0.161 A 
ATOM     10  C   UNL A   1      31.977  23.091  24.907  1.00  0.00     0.059 A 
ATOM     11  C   UNL A   1      31.999  24.056  23.886  1.00  0.00    -0.006 A 
ATOM     12  C   UNL A   1      34.026  22.967  23.063  1.00  0.00     0.066 A 
ATOM     13  C   UNL A   1      33.004  23.914  22.910  1.00  0.00     0.029 A 
ATOM     14  Br  UNL A   1      33.137  25.039  21.377  1.00  0.00    -0.050 Br
BRANCH   9  15
ATOM     15  O   UNL A   1      33.146  21.422  26.249  1.00  0.00    -0.493 OA
ATOM     16  C   UNL A   1      33.733  21.994  27.417  1.00  0.00     0.278 C 
ENDBRANCH   9  15
BRANCH  11  17
ATOM     17  C   UNL A   1      31.080  25.232  23.867  1.00  0.00     0.029 C 
ATOM     18  C   UNL A   1      31.120  26.398  24.565  1.00  0.00     0.106 C 
ATOM     19  C   UNL A   1      31.985  26.668  25.728  1.00  0.00     0.265 C 
ATOM     20  C   UNL A   1      30.307  27.522  24.028  1.00  0.00     0.265 C 
ATOM     21  O   UNL A   1      32.314  25.779  26.507  1.00  0.00    -0.268 OA
ATOM     22  N   UNL A   1      32.347  27.989  25.945  1.00  0.00    -0.288 N 
ATOM     23  N   UNL A   1      30.647  28.797  24.492  1.00  0.00    -0.288 N 
ATOM     24  O   UNL A   1      29.425  27.317  23.196  1.00  0.00    -0.268 OA
ATOM     25  C   UNL A   1      33.531  28.138  26.804  1.00  0.00     0.156 C 
ATOM     26  C   UNL A   1      31.627  29.090  25.465  1.00  0.00     0.185 C 
ATOM     27  C   UNL A   1      29.943  29.906  23.834  1.00  0.00     0.156 C 
ATOM     28  S   UNL A   1      31.895  30.669  26.035  1.00  0.00    -0.040 S 
ENDBRANCH  11  17
ENDBRANCH   7   8
ENDBRANCH   6   7
ENDBRANCH   4   6
ENDBRANCH   3   4
ENDBRANCH   2   3
ENDBRANCH   1   2
BRANCH   1  29
ATOM     29  O   UNL A   1      42.150  20.862  25.523  1.00  0.00    -0.374 OA
BRANCH  29  30
ATOM     30  C   UNL A   1      43.510  21.210  25.736  1.00  0.00     0.202 C 
BRANCH  30  31
ATOM     31  C   UNL A   1      43.994  22.537  25.150  1.00  0.00     0.261 C 
BRANCH  31  32
ATOM     32  O   UNL A   1      44.427  23.496  26.102  1.00  0.00    -0.460 OA
BRANCH  32  33
ATOM     33  C   UNL A   1      44.405  24.758  25.633  1.00  0.00     0.338 C 
ATOM     34  O   UNL A   1      44.883  25.186  24.589  1.00  0.00    -0.246 OA
BRANCH  33  35
ATOM     35  C   UNL A   1      43.570  25.556  26.529  1.00  0.00     0.060 A 
ATOM     36  C   UNL A   1      43.948  26.885  26.738  1.00  0.00     0.016 A 
ATOM     37  C   UNL A   1      42.458  25.001  27.169  1.00  0.00     0.016 A 
ATOM     38  C   UNL A   1      43.245  27.652  27.653  1.00  0.00     0.010 A 
ATOM     39  C   UNL A   1      41.751  25.774  28.086  1.00  0.00     0.010 A 
ATOM     40  C   UNL A   1      42.177  27.083  28.362  1.00  0.00    -0.014 A 
BRANCH  40  41
ATOM     41  C   UNL A   1      41.635  27.825  29.516  1.00  0.00     0.031 A 
ATOM     42  C   UNL A   1      42.359  27.735  30.828  1.00  0.00     0.074 A 
ATOM     43  C   UNL A   1      40.575  28.634  29.354  1.00  0.00     0.049 A 
ATOM     44  N   UNL A   1      42.137  28.386  31.940  1.00  0.00    -0.248 NA
ATOM     45  C   UNL A   1      43.488  26.792  30.896  1.00  0.00     0.031 C 
ATOM     46  C   UNL A   1      39.832  28.811  28.106  1.00  0.00     0.029 A 
ATOM     47  N   UNL A   1      39.960  29.478  30.238  1.00  0.00    -0.354 N 
ATOM     48  C   UNL A   1      43.100  27.934  32.834  1.00  0.00     0.074 A 
ATOM     49  C   UNL A   1      43.879  26.924  32.153  1.00  0.00     0.031 C 
ATOM     50  C   UNL A   1      38.871  29.729  28.300  1.00  0.00     0.029 A 
ATOM     51  C   UNL A   1      38.919  30.182  29.689  1.00  0.00     0.049 A 
ATOM     52  H   UNL A   1      40.237  29.570  31.178  1.00  0.00     0.167 HD
ATOM     53  C   UNL A   1      43.322  28.337  34.106  1.00  0.00     0.031 A 
ATOM     54  C   UNL A   1      38.102  31.092  30.249  1.00  0.00     0.031 A 
ATOM     55  C   UNL A   1      42.525  29.328  34.777  1.00  0.00     0.049 A 
ATOM     56  C   UNL A   1      38.330  31.477  31.685  1.00  0.00     0.074 A 
ATOM     57  C   UNL A   1      42.652  29.815  36.064  1.00  0.00     0.029 A 
ATOM     58  N   UNL A   1      41.440  29.977  34.204  1.00  0.00    -0.354 N 
ATOM     59  N   UNL A   1      39.262  31.066  32.514  1.00  0.00    -0.248 NA
ATOM     60  C   UNL A   1      37.406  32.463  32.258  1.00  0.00     0.031 C 
ATOM     61  C   UNL A   1      41.610  30.720  36.289  1.00  0.00     0.029 A 
ATOM     62  C   UNL A   1      40.873  30.845  35.121  1.00  0.00     0.049 A 
ATOM     63  H   UNL A   1      41.121  29.842  33.284  1.00  0.00     0.167 HD
ATOM     64  C   UNL A   1      39.054  31.764  33.696  1.00  0.00     0.074 A 
ATOM     65  C   UNL A   1      37.918  32.636  33.468  1.00  0.00     0.031 C 
ATOM     66  C   UNL A   1      39.738  31.696  34.864  1.00  0.00     0.031 A 
BRANCH  53  67
ATOM     67  C   UNL A   1      44.445  27.675  34.855  1.00  0.00    -0.014 A 
ATOM     68  C   UNL A   1      44.245  26.484  35.574  1.00  0.00     0.009 A 
ATOM     69  C   UNL A   1      45.727  28.246  34.838  1.00  0.00     0.009 A 
ATOM     70  C   UNL A   1      45.295  25.901  36.287  1.00  0.00     0.001 A 
ATOM     71  C   UNL A   1      46.781  27.645  35.527  1.00  0.00     0.001 A 
ATOM     72  C   UNL A   1      46.562  26.480  36.260  1.00  0.00     0.000 A 
ENDBRANCH  53  67
BRANCH  54  73
ATOM     73  C   UNL A   1      37.006  31.701  29.450  1.00  0.00    -0.014 A 
ATOM     74  C   UNL A   1      37.167  32.955  28.845  1.00  0.00     0.009 A 
ATOM     75  C   UNL A   1      35.787  31.022  29.289  1.00  0.00     0.009 A 
ATOM     76  C   UNL A   1      36.122  33.528  28.115  1.00  0.00     0.001 A 
ATOM     77  C   UNL A   1      34.755  31.584  28.535  1.00  0.00     0.001 A 
ATOM     78  C   UNL A   1      34.920  32.840  27.955  1.00  0.00     0.000 A 
ENDBRANCH  54  73
BRANCH  66  79
ATOM     79  C   UNL A   1      39.297  32.616  35.966  1.00  0.00    -0.014 A 
ATOM     80  C   UNL A   1      38.333  32.222  36.907  1.00  0.00     0.009 A 
ATOM     81  C   UNL A   1      39.883  33.887  36.082  1.00  0.00     0.009 A 
ATOM     82  C   UNL A   1      37.935  33.100  37.917  1.00  0.00     0.001 A 
ATOM     83  C   UNL A   1      39.508  34.748  37.112  1.00  0.00     0.001 A 
ATOM     84  C   UNL A   1      38.526  34.358  38.021  1.00  0.00     0.000 A 
ENDBRANCH  66  79
ENDBRANCH  40  41
ENDBRANCH  33  35
ENDBRANCH  32  33
ENDBRANCH  31  32
ENDBRANCH  30  31
ENDBRANCH  29  30
ENDBRANCH   1  29
TORSDOF 18
ENDMDL
MODEL 2
REMARK VINA RESULT:     -10.1      4.170      6.365
REMARK SMILES COc1cc(C=C2C(=O)N(C)C(=S)N(C)C2=O)c(Br)cc1OCC(=O)OCCOCCOC(=O)c1ccc(-c2c3nc(c(-c4ccccc4)c4ccc([nH]4)c(-c4ccccc4)c4nc(c(-c5ccccc5)c5ccc2[nH]5)C=C4)C=C3)cc1
REMARK SMILES IDX 28 1 27 2 26 3 24 4 25 5 23 6 22 7 21 8 3 9 4 10 5 11 20 12
REMARK SMILES IDX 18 13 19 14 2 15 1 16 6 17 7 18 8 19 16 20 9 21 10 22 14 23
REMARK SMILES IDX 17 24 11 25 12 26 15 27 13 28 29 29 30 30 31 31 32 32 33 33
REMARK SMILES IDX 34 34 35 35 36 36 82 37 37 38 81 39 38 40 39 41 40 42 75 43
REMARK SMILES IDX 41 44 80 45 74 46 76 47 42 48 79 49 73 50 72 51 43 53 65 54
REMARK SMILES IDX 50 55 64 56 51 57 54 58 63 59 77 60 52 61 53 62 62 64 78 65
REMARK SMILES IDX 55 66 44 67 45 68 49 69 46 70 48 71 47 72 66 73 67 74 71 75
REMARK SMILES IDX 68 76 70 77 69 78 56 79 57 80 61 81 58 82 60 83 59 84
REMARK H PARENT 76 52 54 63
REMARK Flexibility Score: inf
ROOT
ATOM      1  C   UNL A   1      42.160  19.200  25.872  1.00  0.00     0.202 C 
ENDROOT
BRANCH   1   2
ATOM      2  C   UNL A   1      41.094  20.055  26.566  1.00  0.00     0.261 C 
BRANCH   2   3
ATOM      3  O   UNL A   1      41.095  21.431  26.115  1.00  0.00    -0.461 OA
BRANCH   3   4
ATOM      4  C   UNL A   1      39.989  22.166  26.447  1.00  0.00     0.344 C 
ATOM      5  O   UNL A   1      38.842  21.865  26.134  1.00  0.00    -0.248 OA
BRANCH   4   6
ATOM      6  C   UNL A   1      40.335  23.478  27.160  1.00  0.00     0.352 C 
BRANCH   6   7
ATOM      7  O   UNL A   1      39.706  24.692  26.804  1.00  0.00    -0.478 OA
BRANCH   7   8
ATOM      8  C   UNL A   1      40.095  25.896  27.323  1.00  0.00     0.163 A 
ATOM      9  C   UNL A   1      40.787  26.950  26.715  1.00  0.00     0.161 A 
ATOM     10  C   UNL A   1      40.945  28.169  27.414  1.00  0.00     0.059 A 
ATOM     11  C   UNL A   1      40.284  28.425  28.627  1.00  0.00    -0.006 A 
ATOM     12  C   UNL A   1      39.633  26.069  28.635  1.00  0.00     0.066 A 
ATOM     13  C   UNL A   1      39.700  27.317  29.271  1.00  0.00     0.029 A 
ATOM     14  Br  UNL A   1      38.864  27.425  30.980  1.00  0.00    -0.050 Br
BRANCH   9  15
ATOM     15  O   UNL A   1      41.243  26.771  25.437  1.00  0.00    -0.493 OA
ATOM     16  C   UNL A   1      42.328  27.589  25.001  1.00  0.00     0.278 C 
ENDBRANCH   9  15
BRANCH  11  17
ATOM     17  C   UNL A   1      40.112  29.803  29.177  1.00  0.00     0.029 C 
ATOM     18  C   UNL A   1      39.028  30.623  29.186  1.00  0.00     0.106 C 
ATOM     19  C   UNL A   1      37.796  30.419  28.403  1.00  0.00     0.265 C 
ATOM     20  C   UNL A   1      39.055  31.748  30.159  1.00  0.00     0.265 C 
ATOM     21  O   UNL A   1      37.813  29.870  27.305  1.00  0.00    -0.268 OA
ATOM     22  N   UNL A   1      36.625  30.947  28.928  1.00  0.00    -0.288 N 
ATOM     23  N   UNL A   1      37.818  32.334  30.449  1.00  0.00    -0.288 N 
ATOM     24  O   UNL A   1      40.108  32.092  30.692  1.00  0.00    -0.268 OA
ATOM     25  C   UNL A   1      35.408  30.344  28.367  1.00  0.00     0.156 C 
ATOM     26  C   UNL A   1      36.583  32.002  29.848  1.00  0.00     0.185 C 
ATOM     27  C   UNL A   1      37.840  33.332  31.526  1.00  0.00     0.156 C 
ATOM     28  S   UNL A   1      35.150  32.845  30.198  1.00  0.00    -0.040 S 
ENDBRANCH  11  17
ENDBRANCH   7   8
ENDBRANCH   6   7
ENDBRANCH   4   6
ENDBRANCH   3   4
ENDBRANCH   2   3
ENDBRANCH   1   2
BRANCH   1  29
ATOM     29  O   UNL A   1      43.144  19.880  25.089  1.00  0.00    -0.374 OA
BRANCH  29  30
ATOM     30  C   UNL A   1      44.230  20.471  25.788  1.00  0.00     0.202 C 
BRANCH  30  31
ATOM     31  C   UNL A   1      45.438  20.913  24.961  1.00  0.00     0.261 C 
BRANCH  31  32
ATOM     32  O   UNL A   1      46.294  21.850  25.596  1.00  0.00    -0.460 OA
BRANCH  32  33
ATOM     33  C   UNL A   1      46.231  23.081  25.053  1.00  0.00     0.338 C 
ATOM     34  O   UNL A   1      46.347  23.395  23.874  1.00  0.00    -0.246 OA
BRANCH  33  35
ATOM     35  C   UNL A   1      45.851  24.019  26.108  1.00  0.00     0.060 A 
ATOM     36  C   UNL A   1      44.487  24.267  26.280  1.00  0.00     0.016 A 
ATOM     37  C   UNL A   1      46.818  24.661  26.889  1.00  0.00     0.016 A 
ATOM     38  C   UNL A   1      44.084  25.220  27.201  1.00  0.00     0.010 A 
ATOM     39  C   UNL A   1      46.410  25.617  27.816  1.00  0.00     0.010 A 
ATOM     40  C   UNL A   1      45.047  25.930  27.935  1.00  0.00    -0.014 A 
BRANCH  40  41
ATOM     41  C   UNL A   1      44.609  27.118  28.691  1.00  0.00     0.031 A 
ATOM     42  C   UNL A   1      44.208  26.945  30.127  1.00  0.00     0.074 A 
ATOM     43  C   UNL A   1      44.667  28.333  28.121  1.00  0.00     0.049 A 
ATOM     44  N   UNL A   1      43.902  27.854  31.015  1.00  0.00    -0.248 NA
ATOM     45  C   UNL A   1      44.151  25.563  30.634  1.00  0.00     0.031 C 
ATOM     46  C   UNL A   1      45.079  28.599  26.742  1.00  0.00     0.029 A 
ATOM     47  N   UNL A   1      44.406  29.571  28.643  1.00  0.00    -0.354 N 
ATOM     48  C   UNL A   1      43.622  27.154  32.182  1.00  0.00     0.074 A 
ATOM     49  C   UNL A   1      43.750  25.746  31.882  1.00  0.00     0.031 C 
ATOM     50  C   UNL A   1      45.064  29.927  26.534  1.00  0.00     0.029 A 
ATOM     51  C   UNL A   1      44.619  30.595  27.755  1.00  0.00     0.049 A 
ATOM     52  H   UNL A   1      44.093  29.712  29.566  1.00  0.00     0.167 HD
ATOM     53  C   UNL A   1      43.300  27.646  33.401  1.00  0.00     0.031 A 
ATOM     54  C   UNL A   1      44.473  31.922  27.918  1.00  0.00     0.031 A 
ATOM     55  C   UNL A   1      43.156  29.049  33.679  1.00  0.00     0.049 A 
ATOM     56  C   UNL A   1      44.052  32.439  29.266  1.00  0.00     0.074 A 
ATOM     57  C   UNL A   1      42.830  29.666  34.873  1.00  0.00     0.029 A 
ATOM     58  N   UNL A   1      43.323  30.055  32.737  1.00  0.00    -0.354 N 
ATOM     59  N   UNL A   1      43.818  31.773  30.373  1.00  0.00    -0.248 NA
ATOM     60  C   UNL A   1      43.892  33.894  29.393  1.00  0.00     0.031 C 
ATOM     61  C   UNL A   1      42.747  31.043  34.639  1.00  0.00     0.029 A 
ATOM     62  C   UNL A   1      43.084  31.288  33.317  1.00  0.00     0.049 A 
ATOM     63  H   UNL A   1      43.575  29.913  31.797  1.00  0.00     0.167 HD
ATOM     64  C   UNL A   1      43.511  32.727  31.334  1.00  0.00     0.074 A 
ATOM     65  C   UNL A   1      43.607  34.018  30.681  1.00  0.00     0.031 C 
ATOM     66  C   UNL A   1      43.183  32.556  32.638  1.00  0.00     0.031 A 
BRANCH  53  67
ATOM     67  C   UNL A   1      43.047  26.654  34.502  1.00  0.00    -0.014 A 
ATOM     68  C   UNL A   1      41.755  26.170  34.770  1.00  0.00     0.009 A 
ATOM     69  C   UNL A   1      44.117  26.190  35.282  1.00  0.00     0.009 A 
ATOM     70  C   UNL A   1      41.537  25.271  35.816  1.00  0.00     0.001 A 
ATOM     71  C   UNL A   1      43.901  25.269  36.308  1.00  0.00     0.001 A 
ATOM     72  C   UNL A   1      42.611  24.819  36.581  1.00  0.00     0.000 A 
ENDBRANCH  53  67
BRANCH  54  73
ATOM     73  C   UNL A   1      44.733  32.845  26.782  1.00  0.00    -0.014 A 
ATOM     74  C   UNL A   1      45.929  33.572  26.704  1.00  0.00     0.009 A 
ATOM     75  C   UNL A   1      43.778  33.000  25.765  1.00  0.00     0.009 A 
ATOM     76  C   UNL A   1      46.154  34.454  25.643  1.00  0.00     0.001 A 
ATOM     77  C   UNL A   1      44.017  33.859  24.690  1.00  0.00     0.001 A 
ATOM     78  C   UNL A   1      45.200  34.593  24.635  1.00  0.00     0.000 A 
ENDBRANCH  54  73
BRANCH  66  79
ATOM     79  C   UNL A   1      42.942  33.798  33.448  1.00  0.00    -0.014 A 
ATOM     80  C   UNL A   1      43.993  34.456  34.107  1.00  0.00     0.009 A 
ATOM     81  C   UNL A   1      41.647  34.334  33.523  1.00  0.00     0.009 A 
ATOM     82  C   UNL A   1      43.741  35.604  34.860  1.00  0.00     0.001 A 
ATOM     83  C   UNL A   1      41.405  35.500  34.248  1.00  0.00     0.001 A 
ATOM     84  C   UNL A   1      42.450  36.127  34.926  1.00  0.00     0.000 A 
ENDBRANCH  66  79
ENDBRANCH  40  41
ENDBRANCH  33  35
ENDBRANCH  32  33
ENDBRANCH  31  32
ENDBRANCH  30  31
ENDBRANCH  29  30
ENDBRANCH   1  29
TORSDOF 18
ENDMDL
MODEL 3
REMARK VINA RESULT:     -10.0      4.579      9.807
REMARK SMILES COc1cc(C=C2C(=O)N(C)C(=S)N(C)C2=O)c(Br)cc1OCC(=O)OCCOCCOC(=O)c1ccc(-c2c3nc(c(-c4ccccc4)c4ccc([nH]4)c(-c4ccccc4)c4nc(c(-c5ccccc5)c5ccc2[nH]5)C=C4)C=C3)cc1
REMARK SMILES IDX 28 1 27 2 26 3 24 4 25 5 23 6 22 7 21 8 3 9 4 10 5 11 20 12
REMARK SMILES IDX 18 13 19 14 2 15 1 16 6 17 7 18 8 19 16 20 9 21 10 22 14 23
REMARK SMILES IDX 17 24 11 25 12 26 15 27 13 28 29 29 30 30 31 31 32 32 33 33
REMARK SMILES IDX 34 34 35 35 36 36 82 37 37 38 81 39 38 40 39 41 40 42 75 43
REMARK SMILES IDX 41 44 80 45 74 46 76 47 42 48 79 49 73 50 72 51 43 53 65 54
REMARK SMILES IDX 50 55 64 56 51 57 54 58 63 59 77 60 52 61 53 62 62 64 78 65
REMARK SMILES IDX 55 66 44 67 45 68 49 69 46 70 48 71 47 72 66 73 67 74 71 75
REMARK SMILES IDX 68 76 70 77 69 78 56 79 57 80 61 81 58 82 60 83 59 84
REMARK H PARENT 76 52 54 63
REMARK Flexibility Score: inf
ROOT
ATOM      1  C   UNL A   1      32.577  29.770  25.350  1.00  0.00     0.202 C 
ENDROOT
BRANCH   1   2
ATOM      2  C   UNL A   1      31.365  29.720  24.413  1.00  0.00     0.261 C 
BRANCH   2   3
ATOM      3  O   UNL A   1      31.348  28.538  23.577  1.00  0.00    -0.461 OA
BRANCH   3   4
ATOM      4  C   UNL A   1      30.173  28.289  22.923  1.00  0.00     0.344 C 
ATOM      5  O   UNL A   1      29.836  28.836  21.877  1.00  0.00    -0.248 OA
BRANCH   4   6
ATOM      6  C   UNL A   1      29.253  27.332  23.688  1.00  0.00     0.352 C 
BRANCH   6   7
ATOM      7  O   UNL A   1      29.616  25.983  23.902  1.00  0.00    -0.478 OA
BRANCH   7   8
ATOM      8  C   UNL A   1      30.848  25.625  24.376  1.00  0.00     0.163 A 
ATOM      9  C   UNL A   1      31.358  25.690  25.679  1.00  0.00     0.161 A 
ATOM     10  C   UNL A   1      32.619  25.115  25.957  1.00  0.00     0.059 A 
ATOM     11  C   UNL A   1      33.305  24.327  25.017  1.00  0.00    -0.006 A 
ATOM     12  C   UNL A   1      31.639  25.041  23.378  1.00  0.00     0.066 A 
ATOM     13  C   UNL A   1      32.835  24.380  23.691  1.00  0.00     0.029 A 
ATOM     14  Br  UNL A   1      33.693  23.485  22.243  1.00  0.00    -0.050 Br
BRANCH   9  15
ATOM     15  O   UNL A   1      30.583  26.268  26.648  1.00  0.00    -0.493 OA
ATOM     16  C   UNL A   1      31.095  27.433  27.294  1.00  0.00     0.278 C 
ENDBRANCH   9  15
BRANCH  11  17
ATOM     17  C   UNL A   1      34.415  23.401  25.395  1.00  0.00     0.029 C 
ATOM     18  C   UNL A   1      34.466  22.043  25.413  1.00  0.00     0.106 C 
ATOM     19  C   UNL A   1      33.306  21.142  25.290  1.00  0.00     0.265 C 
ATOM     20  C   UNL A   1      35.821  21.430  25.440  1.00  0.00     0.265 C 
ATOM     21  O   UNL A   1      32.196  21.458  25.710  1.00  0.00    -0.268 OA
ATOM     22  N   UNL A   1      33.542  19.888  24.747  1.00  0.00    -0.288 N 
ATOM     23  N   UNL A   1      35.891  20.086  25.061  1.00  0.00    -0.288 N 
ATOM     24  O   UNL A   1      36.807  22.101  25.738  1.00  0.00    -0.268 OA
ATOM     25  C   UNL A   1      32.327  19.231  24.241  1.00  0.00     0.156 C 
ATOM     26  C   UNL A   1      34.792  19.259  24.738  1.00  0.00     0.185 C 
ATOM     27  C   UNL A   1      37.250  19.543  24.940  1.00  0.00     0.156 C 
ATOM     28  S   UNL A   1      34.975  17.605  24.388  1.00  0.00    -0.040 S 
ENDBRANCH  11  17
ENDBRANCH   7   8
ENDBRANCH   6   7
ENDBRANCH   4   6
ENDBRANCH   3   4
ENDBRANCH   2   3
ENDBRANCH   1   2
BRANCH   1  29
ATOM     29  O   UNL A   1      32.372  30.289  26.666  1.00  0.00    -0.374 OA
BRANCH  29  30
ATOM     30  C   UNL A   1      33.370  31.160  27.178  1.00  0.00     0.202 C 
BRANCH  30  31
ATOM     31  C   UNL A   1      34.513  30.526  27.972  1.00  0.00     0.261 C 
BRANCH  31  32
ATOM     32  O   UNL A   1      35.581  31.402  28.297  1.00  0.00    -0.460 OA
BRANCH  32  33
ATOM     33  C   UNL A   1      36.133  31.145  29.499  1.00  0.00     0.338 C 
ATOM     34  O   UNL A   1      35.675  31.386  30.609  1.00  0.00    -0.246 OA
BRANCH  33  35
ATOM     35  C   UNL A   1      37.356  30.375  29.276  1.00  0.00     0.060 A 
ATOM     36  C   UNL A   1      38.095  30.012  30.404  1.00  0.00     0.016 A 
ATOM     37  C   UNL A   1      37.778  30.044  27.984  1.00  0.00     0.016 A 
ATOM     38  C   UNL A   1      39.310  29.367  30.237  1.00  0.00     0.010 A 
ATOM     39  C   UNL A   1      38.998  29.394  27.819  1.00  0.00     0.010 A 
ATOM     40  C   UNL A   1      39.785  29.101  28.944  1.00  0.00    -0.014 A 
BRANCH  40  41
ATOM     41  C   UNL A   1      41.188  28.674  28.793  1.00  0.00     0.031 A 
ATOM     42  C   UNL A   1      41.466  27.245  28.425  1.00  0.00     0.074 A 
ATOM     43  C   UNL A   1      42.177  29.578  28.887  1.00  0.00     0.049 A 
ATOM     44  N   UNL A   1      42.604  26.676  28.127  1.00  0.00    -0.248 NA
ATOM     45  C   UNL A   1      40.307  26.338  28.381  1.00  0.00     0.031 C 
ATOM     46  C   UNL A   1      41.996  30.995  29.205  1.00  0.00     0.029 A 
ATOM     47  N   UNL A   1      43.525  29.442  28.698  1.00  0.00    -0.354 N 
ATOM     48  C   UNL A   1      42.295  25.348  27.857  1.00  0.00     0.074 A 
ATOM     49  C   UNL A   1      40.875  25.184  28.068  1.00  0.00     0.031 C 
ATOM     50  C   UNL A   1      43.193  31.605  29.165  1.00  0.00     0.029 A 
ATOM     51  C   UNL A   1      44.220  30.616  28.845  1.00  0.00     0.049 A 
ATOM     52  H   UNL A   1      43.955  28.584  28.479  1.00  0.00     0.167 HD
ATOM     53  C   UNL A   1      43.124  24.357  27.454  1.00  0.00     0.031 A 
ATOM     54  C   UNL A   1      45.538  30.858  28.729  1.00  0.00     0.031 A 
ATOM     55  C   UNL A   1      44.539  24.530  27.269  1.00  0.00     0.049 A 
ATOM     56  C   UNL A   1      46.447  29.724  28.342  1.00  0.00     0.074 A 
ATOM     57  C   UNL A   1      45.480  23.600  26.867  1.00  0.00     0.029 A 
ATOM     58  N   UNL A   1      45.216  25.722  27.485  1.00  0.00    -0.354 N 
ATOM     59  N   UNL A   1      46.143  28.478  28.059  1.00  0.00    -0.248 NA
ATOM     60  C   UNL A   1      47.879  30.032  28.241  1.00  0.00     0.031 C 
ATOM     61  C   UNL A   1      46.736  24.216  26.892  1.00  0.00     0.029 A 
ATOM     62  C   UNL A   1      46.568  25.546  27.247  1.00  0.00     0.049 A 
ATOM     63  H   UNL A   1      44.798  26.567  27.764  1.00  0.00     0.167 HD
ATOM     64  C   UNL A   1      47.340  27.862  27.719  1.00  0.00     0.074 A 
ATOM     65  C   UNL A   1      48.370  28.878  27.815  1.00  0.00     0.031 C 
ATOM     66  C   UNL A   1      47.570  26.576  27.357  1.00  0.00     0.031 A 
BRANCH  53  67
ATOM     67  C   UNL A   1      42.519  22.999  27.229  1.00  0.00    -0.014 A 
ATOM     68  C   UNL A   1      42.397  22.068  28.275  1.00  0.00     0.009 A 
ATOM     69  C   UNL A   1      42.058  22.644  25.952  1.00  0.00     0.009 A 
ATOM     70  C   UNL A   1      41.859  20.801  28.037  1.00  0.00     0.001 A 
ATOM     71  C   UNL A   1      41.494  21.388  25.724  1.00  0.00     0.001 A 
ATOM     72  C   UNL A   1      41.404  20.464  26.763  1.00  0.00     0.000 A 
ENDBRANCH  53  67
BRANCH  54  73
ATOM     73  C   UNL A   1      46.068  32.225  28.975  1.00  0.00    -0.014 A 
ATOM     74  C   UNL A   1      46.420  32.640  30.267  1.00  0.00     0.009 A 
ATOM     75  C   UNL A   1      46.226  33.124  27.908  1.00  0.00     0.009 A 
ATOM     76  C   UNL A   1      46.897  33.935  30.489  1.00  0.00     0.001 A 
ATOM     77  C   UNL A   1      46.730  34.407  28.128  1.00  0.00     0.001 A 
ATOM     78  C   UNL A   1      47.057  34.815  29.420  1.00  0.00     0.000 A 
ENDBRANCH  54  73
BRANCH  66  79
ATOM     79  C   UNL A   1      48.983  26.211  27.003  1.00  0.00    -0.014 A 
ATOM     80  C   UNL A   1      49.874  25.716  27.968  1.00  0.00     0.009 A 
ATOM     81  C   UNL A   1      49.417  26.335  25.673  1.00  0.00     0.009 A 
ATOM     82  C   UNL A   1      51.185  25.392  27.614  1.00  0.00     0.001 A 
ATOM     83  C   UNL A   1      50.717  25.978  25.317  1.00  0.00     0.001 A 
ATOM     84  C   UNL A   1      51.603  25.518  26.290  1.00  0.00     0.000 A 
ENDBRANCH  66  79
ENDBRANCH  40  41
ENDBRANCH  33  35
ENDBRANCH  32  33
ENDBRANCH  31  32
ENDBRANCH  30  31
ENDBRANCH  29  30
ENDBRANCH   1  29
TORSDOF 18
ENDMDL
