MODEL 1
REMARK VINA RESULT:     -11.2      0.000      0.000
REMARK SMILES Cc1c(CCC(=O)NCC(=O)OCCOCCOC(=O)c2ccc(-c3c4nc(c(-c5ccccc5)c5ccc([nH]5)c(-c5ccccc5)c5nc(c(-c6ccccc6)c6ccc3[nH]6)C=C5)C=C4)cc2)c(=O)oc2cc(O)ccc12
REMARK SMILES IDX 13 1 12 2 10 3 11 4 9 5 8 6 6 7 7 8 5 10 4 11 3 12 1 13 2 14
REMARK SMILES IDX 78 15 69 16 72 17 77 18 70 19 71 20 73 21 76 22 74 23 75 24
REMARK SMILES IDX 14 26 15 27 16 28 17 29 18 30 19 31 20 32 21 33 22 34 68 35
REMARK SMILES IDX 23 36 67 37 24 38 25 39 26 40 61 41 27 42 66 43 60 44 62 45
REMARK SMILES IDX 28 46 65 47 59 48 58 49 29 51 51 52 36 53 50 54 37 55 40 56
REMARK SMILES IDX 49 57 63 58 38 59 39 60 48 62 64 63 41 64 30 65 31 66 35 67
REMARK SMILES IDX 32 68 34 69 33 70 52 71 53 72 57 73 54 74 56 75 55 76 42 77
REMARK SMILES IDX 43 78 47 79 44 80 46 81 45 82
REMARK H PARENT 8 9 75 25 62 50 40 61
REMARK Flexibility Score: inf
ROOT
ATOM      1  C   UNL A   1      40.197  21.506  26.694  1.00  0.00     0.261 C 
ENDROOT
BRANCH   1   2
ATOM      2  O   UNL A   1      39.126  21.492  25.698  1.00  0.00    -0.462 OA
BRANCH   2   3
ATOM      3  C   UNL A   1      38.424  20.377  25.355  1.00  0.00     0.325 C 
ATOM      4  O   UNL A   1      38.897  19.247  25.361  1.00  0.00    -0.250 OA
BRANCH   3   5
ATOM      5  C   UNL A   1      36.996  20.685  24.826  1.00  0.00     0.238 C 
BRANCH   5   6
ATOM      6  N   UNL A   1      36.889  21.792  23.879  1.00  0.00    -0.345 N 
ATOM      7  C   UNL A   1      35.974  22.793  23.755  1.00  0.00     0.220 C 
ATOM      8  O   UNL A   1      36.089  23.542  22.782  1.00  0.00    -0.275 OA
ATOM      9  H   UNL A   1      37.609  21.819  23.209  1.00  0.00     0.164 HD
BRANCH   7  10
ATOM     10  C   UNL A   1      34.861  23.016  24.773  1.00  0.00     0.105 C 
BRANCH  10  11
ATOM     11  C   UNL A   1      33.466  22.506  24.355  1.00  0.00     0.053 C 
BRANCH  11  12
ATOM     12  C   UNL A   1      33.239  21.027  24.636  1.00  0.00     0.042 A 
ATOM     13  C   UNL A   1      32.144  20.652  22.465  1.00  0.00     0.046 C 
ATOM     14  C   UNL A   1      32.826  20.146  23.706  1.00  0.00    -0.030 A 
ATOM     15  C   UNL A   1      32.976  18.709  24.032  1.00  0.00     0.021 A 
ATOM     16  C   UNL A   1      33.336  20.567  26.054  1.00  0.00     0.339 A 
ATOM     17  C   UNL A   1      32.870  18.317  25.351  1.00  0.00     0.142 A 
ATOM     18  C   UNL A   1      33.382  17.696  23.163  1.00  0.00     0.016 A 
ATOM     19  O   UNL A   1      33.714  21.321  26.945  1.00  0.00    -0.246 OA
ATOM     20  O   UNL A   1      32.828  19.301  26.350  1.00  0.00    -0.422 OA
ATOM     21  C   UNL A   1      32.943  16.970  25.750  1.00  0.00     0.094 A 
ATOM     22  C   UNL A   1      33.520  16.350  23.516  1.00  0.00     0.047 A 
ATOM     23  C   UNL A   1      33.252  15.988  24.815  1.00  0.00     0.119 A 
BRANCH  23  24
ATOM     24  O   UNL A   1      33.350  14.690  25.207  1.00  0.00    -0.508 OA
ATOM     25  H   UNL A   1      33.267  14.466  26.113  1.00  0.00     0.293 HD
ENDBRANCH  23  24
ENDBRANCH  11  12
ENDBRANCH  10  11
ENDBRANCH   7  10
ENDBRANCH   5   6
ENDBRANCH   3   5
ENDBRANCH   2   3
ENDBRANCH   1   2
BRANCH   1  26
ATOM     26  C   UNL A   1      41.396  20.552  26.698  1.00  0.00     0.202 C 
BRANCH  26  27
ATOM     27  O   UNL A   1      42.224  20.509  25.553  1.00  0.00    -0.374 OA
BRANCH  27  28
ATOM     28  C   UNL A   1      43.543  20.962  25.769  1.00  0.00     0.202 C 
BRANCH  28  29
ATOM     29  C   UNL A   1      43.951  22.069  24.782  1.00  0.00     0.261 C 
BRANCH  29  30
ATOM     30  O   UNL A   1      43.102  23.239  24.751  1.00  0.00    -0.460 OA
BRANCH  30  31
ATOM     31  C   UNL A   1      43.702  24.432  24.975  1.00  0.00     0.338 C 
ATOM     32  O   UNL A   1      44.839  24.764  24.630  1.00  0.00    -0.246 OA
BRANCH  31  33
ATOM     33  C   UNL A   1      42.790  25.374  25.666  1.00  0.00     0.060 A 
ATOM     34  C   UNL A   1      43.041  26.754  25.597  1.00  0.00     0.016 A 
ATOM     35  C   UNL A   1      41.765  24.895  26.487  1.00  0.00     0.016 A 
ATOM     36  C   UNL A   1      42.363  27.637  26.444  1.00  0.00     0.010 A 
ATOM     37  C   UNL A   1      41.093  25.778  27.339  1.00  0.00     0.010 A 
ATOM     38  C   UNL A   1      41.443  27.141  27.376  1.00  0.00    -0.014 A 
BRANCH  38  39
ATOM     39  C   UNL A   1      41.034  27.968  28.544  1.00  0.00     0.031 A 
ATOM     40  C   UNL A   1      41.808  27.816  29.833  1.00  0.00     0.074 A 
ATOM     41  C   UNL A   1      40.011  28.839  28.478  1.00  0.00     0.049 A 
ATOM     42  N   UNL A   1      41.592  28.355  31.006  1.00  0.00    -0.248 NA
ATOM     43  C   UNL A   1      42.980  26.925  29.791  1.00  0.00     0.031 C 
ATOM     44  C   UNL A   1      39.217  29.123  27.286  1.00  0.00     0.029 A 
ATOM     45  N   UNL A   1      39.458  29.636  29.451  1.00  0.00    -0.354 N 
ATOM     46  C   UNL A   1      42.585  27.853  31.841  1.00  0.00     0.074 A 
ATOM     47  C   UNL A   1      43.389  26.949  31.051  1.00  0.00     0.031 C 
ATOM     48  C   UNL A   1      38.268  30.021  27.600  1.00  0.00     0.029 A 
ATOM     49  C   UNL A   1      38.361  30.343  29.024  1.00  0.00     0.049 A 
ATOM     50  H   UNL A   1      39.813  29.694  30.368  1.00  0.00     0.167 HD
ATOM     51  C   UNL A   1      42.812  28.121  33.151  1.00  0.00     0.031 A 
ATOM     52  C   UNL A   1      37.512  31.136  29.708  1.00  0.00     0.031 A 
ATOM     53  C   UNL A   1      42.009  29.015  33.940  1.00  0.00     0.049 A 
ATOM     54  C   UNL A   1      37.737  31.361  31.182  1.00  0.00     0.074 A 
ATOM     55  C   UNL A   1      42.165  29.372  35.268  1.00  0.00     0.029 A 
ATOM     56  N   UNL A   1      40.890  29.688  33.473  1.00  0.00    -0.354 N 
ATOM     57  N   UNL A   1      38.692  30.898  31.954  1.00  0.00    -0.248 NA
ATOM     58  C   UNL A   1      36.768  32.223  31.877  1.00  0.00     0.031 C 
ATOM     59  C   UNL A   1      41.103  30.210  35.622  1.00  0.00     0.029 A 
ATOM     60  C   UNL A   1      40.326  30.432  34.496  1.00  0.00     0.049 A 
ATOM     61  H   UNL A   1      40.547  29.643  32.551  1.00  0.00     0.167 HD
ATOM     62  C   UNL A   1      38.457  31.435  33.214  1.00  0.00     0.074 A 
ATOM     63  C   UNL A   1      37.279  32.271  33.100  1.00  0.00     0.031 C 
ATOM     64  C   UNL A   1      39.153  31.257  34.364  1.00  0.00     0.031 A 
BRANCH  51  65
ATOM     65  C   UNL A   1      43.951  27.402  33.824  1.00  0.00    -0.014 A 
ATOM     66  C   UNL A   1      45.255  27.922  33.825  1.00  0.00     0.009 A 
ATOM     67  C   UNL A   1      43.705  26.196  34.502  1.00  0.00     0.009 A 
ATOM     68  C   UNL A   1      46.294  27.233  34.457  1.00  0.00     0.001 A 
ATOM     69  C   UNL A   1      44.739  25.525  35.159  1.00  0.00     0.001 A 
ATOM     70  C   UNL A   1      46.034  26.039  35.127  1.00  0.00     0.000 A 
ENDBRANCH  51  65
BRANCH  52  71
ATOM     71  C   UNL A   1      36.349  31.756  29.017  1.00  0.00    -0.014 A 
ATOM     72  C   UNL A   1      36.373  33.107  28.637  1.00  0.00     0.009 A 
ATOM     73  C   UNL A   1      35.196  31.001  28.748  1.00  0.00     0.009 A 
ATOM     74  C   UNL A   1      35.263  33.691  28.022  1.00  0.00     0.001 A 
ATOM     75  C   UNL A   1      34.100  31.578  28.104  1.00  0.00     0.001 A 
ATOM     76  C   UNL A   1      34.130  32.925  27.750  1.00  0.00     0.000 A 
ENDBRANCH  52  71
BRANCH  64  77
ATOM     77  C   UNL A   1      38.687  32.010  35.581  1.00  0.00    -0.014 A 
ATOM     78  C   UNL A   1      38.087  31.350  36.665  1.00  0.00     0.009 A 
ATOM     79  C   UNL A   1      38.898  33.395  35.661  1.00  0.00     0.009 A 
ATOM     80  C   UNL A   1      37.675  32.071  37.788  1.00  0.00     0.001 A 
ATOM     81  C   UNL A   1      38.516  34.108  36.798  1.00  0.00     0.001 A 
ATOM     82  C   UNL A   1      37.895  33.446  37.856  1.00  0.00     0.000 A 
ENDBRANCH  64  77
ENDBRANCH  38  39
ENDBRANCH  31  33
ENDBRANCH  30  31
ENDBRANCH  29  30
ENDBRANCH  28  29
ENDBRANCH  27  28
ENDBRANCH  26  27
ENDBRANCH   1  26
TORSDOF 19
ENDMDL
MODEL 2
REMARK VINA RESULT:     -10.9      1.853      3.604
REMARK SMILES Cc1c(CCC(=O)NCC(=O)OCCOCCOC(=O)c2ccc(-c3c4nc(c(-c5ccccc5)c5ccc([nH]5)c(-c5ccccc5)c5nc(c(-c6ccccc6)c6ccc3[nH]6)C=C5)C=C4)cc2)c(=O)oc2cc(O)ccc12
REMARK SMILES IDX 13 1 12 2 10 3 11 4 9 5 8 6 6 7 7 8 5 10 4 11 3 12 1 13 2 14
REMARK SMILES IDX 78 15 69 16 72 17 77 18 70 19 71 20 73 21 76 22 74 23 75 24
REMARK SMILES IDX 14 26 15 27 16 28 17 29 18 30 19 31 20 32 21 33 22 34 68 35
REMARK SMILES IDX 23 36 67 37 24 38 25 39 26 40 61 41 27 42 66 43 60 44 62 45
REMARK SMILES IDX 28 46 65 47 59 48 58 49 29 51 51 52 36 53 50 54 37 55 40 56
REMARK SMILES IDX 49 57 63 58 38 59 39 60 48 62 64 63 41 64 30 65 31 66 35 67
REMARK SMILES IDX 32 68 34 69 33 70 52 71 53 72 57 73 54 74 56 75 55 76 42 77
REMARK SMILES IDX 43 78 47 79 44 80 46 81 45 82
REMARK H PARENT 8 9 75 25 62 50 40 61
REMARK Flexibility Score: inf
ROOT
ATOM      1  C   UNL A   1      40.223  21.264  26.940  1.00  0.00     0.261 C 
ENDROOT
BRANCH   1   2
ATOM      2  O   UNL A   1      39.318  21.828  25.938  1.00  0.00    -0.462 OA
BRANCH   2   3
ATOM      3  C   UNL A   1      38.210  21.190  25.472  1.00  0.00     0.325 C 
ATOM      4  O   UNL A   1      38.214  20.039  25.052  1.00  0.00    -0.250 OA
BRANCH   3   5
ATOM      5  C   UNL A   1      36.955  22.103  25.399  1.00  0.00     0.238 C 
BRANCH   5   6
ATOM      6  N   UNL A   1      35.915  21.842  26.391  1.00  0.00    -0.345 N 
ATOM      7  C   UNL A   1      34.621  21.438  26.261  1.00  0.00     0.220 C 
ATOM      8  O   UNL A   1      33.941  21.393  27.289  1.00  0.00    -0.275 OA
ATOM      9  H   UNL A   1      36.202  21.984  27.321  1.00  0.00     0.164 HD
BRANCH   7  10
ATOM     10  C   UNL A   1      34.021  21.028  24.921  1.00  0.00     0.105 C 
BRANCH  10  11
ATOM     11  C   UNL A   1      32.490  21.187  24.802  1.00  0.00     0.053 C 
BRANCH  11  12
ATOM     12  C   UNL A   1      32.035  22.620  24.562  1.00  0.00     0.042 A 
ATOM     13  C   UNL A   1      30.622  22.643  26.576  1.00  0.00     0.046 C 
ATOM     14  C   UNL A   1      31.353  23.347  25.466  1.00  0.00    -0.030 A 
ATOM     15  C   UNL A   1      31.278  24.808  25.232  1.00  0.00     0.021 A 
ATOM     16  C   UNL A   1      32.227  23.189  23.193  1.00  0.00     0.339 A 
ATOM     17  C   UNL A   1      31.272  25.268  23.930  1.00  0.00     0.142 A 
ATOM     18  C   UNL A   1      31.378  25.812  26.195  1.00  0.00     0.016 A 
ATOM     19  O   UNL A   1      32.846  22.579  22.329  1.00  0.00    -0.246 OA
ATOM     20  O   UNL A   1      31.538  24.365  22.890  1.00  0.00    -0.422 OA
ATOM     21  C   UNL A   1      31.148  26.632  23.609  1.00  0.00     0.094 A 
ATOM     22  C   UNL A   1      31.312  27.183  25.928  1.00  0.00     0.047 A 
ATOM     23  C   UNL A   1      31.150  27.584  24.623  1.00  0.00     0.119 A 
BRANCH  23  24
ATOM     24  O   UNL A   1      31.058  28.904  24.310  1.00  0.00    -0.508 OA
ATOM     25  H   UNL A   1      30.752  29.517  24.948  1.00  0.00     0.293 HD
ENDBRANCH  23  24
ENDBRANCH  11  12
ENDBRANCH  10  11
ENDBRANCH   7  10
ENDBRANCH   5   6
ENDBRANCH   3   5
ENDBRANCH   2   3
ENDBRANCH   1   2
BRANCH   1  26
ATOM     26  C   UNL A   1      41.372  20.299  26.630  1.00  0.00     0.202 C 
BRANCH  26  27
ATOM     27  O   UNL A   1      42.124  20.507  25.452  1.00  0.00    -0.374 OA
BRANCH  27  28
ATOM     28  C   UNL A   1      43.503  20.722  25.668  1.00  0.00     0.202 C 
BRANCH  28  29
ATOM     29  C   UNL A   1      44.091  21.763  24.701  1.00  0.00     0.261 C 
BRANCH  29  30
ATOM     30  O   UNL A   1      43.322  22.974  24.523  1.00  0.00    -0.460 OA
BRANCH  30  31
ATOM     31  C   UNL A   1      43.940  24.138  24.834  1.00  0.00     0.338 C 
ATOM     32  O   UNL A   1      45.091  24.466  24.537  1.00  0.00    -0.246 OA
BRANCH  31  33
ATOM     33  C   UNL A   1      43.029  25.056  25.560  1.00  0.00     0.060 A 
ATOM     34  C   UNL A   1      43.213  26.443  25.445  1.00  0.00     0.016 A 
ATOM     35  C   UNL A   1      42.078  24.552  26.451  1.00  0.00     0.016 A 
ATOM     36  C   UNL A   1      42.548  27.316  26.313  1.00  0.00     0.010 A 
ATOM     37  C   UNL A   1      41.420  25.426  27.324  1.00  0.00     0.010 A 
ATOM     38  C   UNL A   1      41.709  26.803  27.310  1.00  0.00    -0.014 A 
BRANCH  38  39
ATOM     39  C   UNL A   1      41.335  27.640  28.483  1.00  0.00     0.031 A 
ATOM     40  C   UNL A   1      42.135  27.485  29.756  1.00  0.00     0.074 A 
ATOM     41  C   UNL A   1      40.319  28.521  28.435  1.00  0.00     0.049 A 
ATOM     42  N   UNL A   1      41.950  28.033  30.930  1.00  0.00    -0.248 NA
ATOM     43  C   UNL A   1      43.297  26.583  29.692  1.00  0.00     0.031 C 
ATOM     44  C   UNL A   1      39.502  28.807  27.259  1.00  0.00     0.029 A 
ATOM     45  N   UNL A   1      39.796  29.328  29.416  1.00  0.00    -0.354 N 
ATOM     46  C   UNL A   1      42.957  27.524  31.746  1.00  0.00     0.074 A 
ATOM     47  C   UNL A   1      43.733  26.608  30.942  1.00  0.00     0.031 C 
ATOM     48  C   UNL A   1      38.569  29.717  27.590  1.00  0.00     0.029 A 
ATOM     49  C   UNL A   1      38.697  30.045  29.009  1.00  0.00     0.049 A 
ATOM     50  H   UNL A   1      40.172  29.387  30.324  1.00  0.00     0.167 HD
ATOM     51  C   UNL A   1      43.214  27.796  33.048  1.00  0.00     0.031 A 
ATOM     52  C   UNL A   1      37.872  30.850  29.708  1.00  0.00     0.031 A 
ATOM     53  C   UNL A   1      42.438  28.702  33.851  1.00  0.00     0.049 A 
ATOM     54  C   UNL A   1      38.131  31.079  31.176  1.00  0.00     0.074 A 
ATOM     55  C   UNL A   1      42.627  29.064  35.174  1.00  0.00     0.029 A 
ATOM     56  N   UNL A   1      41.316  29.384  33.405  1.00  0.00    -0.354 N 
ATOM     57  N   UNL A   1      39.098  30.610  31.929  1.00  0.00    -0.248 NA
ATOM     58  C   UNL A   1      37.186  31.954  31.888  1.00  0.00     0.031 C 
ATOM     59  C   UNL A   1      41.581  29.913  35.546  1.00  0.00     0.029 A 
ATOM     60  C   UNL A   1      40.783  30.138  34.436  1.00  0.00     0.049 A 
ATOM     61  H   UNL A   1      40.952  29.338  32.492  1.00  0.00     0.167 HD
ATOM     62  C   UNL A   1      38.896  31.155  33.192  1.00  0.00     0.074 A 
ATOM     63  C   UNL A   1      37.724  32.002  33.099  1.00  0.00     0.031 C 
ATOM     64  C   UNL A   1      39.615  30.975  34.326  1.00  0.00     0.031 A 
BRANCH  51  65
ATOM     65  C   UNL A   1      44.360  27.068  33.700  1.00  0.00    -0.014 A 
ATOM     66  C   UNL A   1      44.181  25.831  34.341  1.00  0.00     0.009 A 
ATOM     67  C   UNL A   1      45.653  27.615  33.640  1.00  0.00     0.009 A 
ATOM     68  C   UNL A   1      45.262  25.178  34.939  1.00  0.00     0.001 A 
ATOM     69  C   UNL A   1      46.737  26.945  34.211  1.00  0.00     0.001 A 
ATOM     70  C   UNL A   1      46.539  25.733  34.869  1.00  0.00     0.000 A 
ENDBRANCH  51  65
BRANCH  52  71
ATOM     71  C   UNL A   1      36.700  31.479  29.040  1.00  0.00    -0.014 A 
ATOM     72  C   UNL A   1      35.545  30.733  28.758  1.00  0.00     0.009 A 
ATOM     73  C   UNL A   1      36.737  32.832  28.665  1.00  0.00     0.009 A 
ATOM     74  C   UNL A   1      34.464  31.321  28.097  1.00  0.00     0.001 A 
ATOM     75  C   UNL A   1      35.642  33.427  28.034  1.00  0.00     0.001 A 
ATOM     76  C   UNL A   1      34.510  32.669  27.742  1.00  0.00     0.000 A 
ENDBRANCH  52  71
BRANCH  64  77
ATOM     77  C   UNL A   1      39.184  31.738  35.550  1.00  0.00    -0.014 A 
ATOM     78  C   UNL A   1      39.647  33.038  35.802  1.00  0.00     0.009 A 
ATOM     79  C   UNL A   1      38.262  31.161  36.437  1.00  0.00     0.009 A 
ATOM     80  C   UNL A   1      39.221  33.730  36.939  1.00  0.00     0.001 A 
ATOM     81  C   UNL A   1      37.813  31.866  37.554  1.00  0.00     0.001 A 
ATOM     82  C   UNL A   1      38.301  33.146  37.810  1.00  0.00     0.000 A 
ENDBRANCH  64  77
ENDBRANCH  38  39
ENDBRANCH  31  33
ENDBRANCH  30  31
ENDBRANCH  29  30
ENDBRANCH  28  29
ENDBRANCH  27  28
ENDBRANCH  26  27
ENDBRANCH   1  26
TORSDOF 19
ENDMDL
MODEL 3
REMARK VINA RESULT:     -10.9      3.820      5.817
REMARK SMILES Cc1c(CCC(=O)NCC(=O)OCCOCCOC(=O)c2ccc(-c3c4nc(c(-c5ccccc5)c5ccc([nH]5)c(-c5ccccc5)c5nc(c(-c6ccccc6)c6ccc3[nH]6)C=C5)C=C4)cc2)c(=O)oc2cc(O)ccc12
REMARK SMILES IDX 13 1 12 2 10 3 11 4 9 5 8 6 6 7 7 8 5 10 4 11 3 12 1 13 2 14
REMARK SMILES IDX 78 15 69 16 72 17 77 18 70 19 71 20 73 21 76 22 74 23 75 24
REMARK SMILES IDX 14 26 15 27 16 28 17 29 18 30 19 31 20 32 21 33 22 34 68 35
REMARK SMILES IDX 23 36 67 37 24 38 25 39 26 40 61 41 27 42 66 43 60 44 62 45
REMARK SMILES IDX 28 46 65 47 59 48 58 49 29 51 51 52 36 53 50 54 37 55 40 56
REMARK SMILES IDX 49 57 63 58 38 59 39 60 48 62 64 63 41 64 30 65 31 66 35 67
REMARK SMILES IDX 32 68 34 69 33 70 52 71 53 72 57 73 54 74 56 75 55 76 42 77
REMARK SMILES IDX 43 78 47 79 44 80 46 81 45 82
REMARK H PARENT 8 9 75 25 62 50 40 61
REMARK Flexibility Score: inf
ROOT
ATOM      1  C   UNL A   1      39.670  21.029  26.108  1.00  0.00     0.261 C 
ENDROOT
BRANCH   1   2
ATOM      2  O   UNL A   1      39.594  22.482  26.258  1.00  0.00    -0.462 OA
BRANCH   2   3
ATOM      3  C   UNL A   1      38.433  23.191  26.194  1.00  0.00     0.325 C 
ATOM      4  O   UNL A   1      38.285  24.298  26.697  1.00  0.00    -0.250 OA
BRANCH   3   5
ATOM      5  C   UNL A   1      37.266  22.409  25.532  1.00  0.00     0.238 C 
BRANCH   5   6
ATOM      6  N   UNL A   1      36.156  22.051  26.412  1.00  0.00    -0.345 N 
ATOM      7  C   UNL A   1      34.942  21.489  26.156  1.00  0.00     0.220 C 
ATOM      8  O   UNL A   1      34.157  21.391  27.102  1.00  0.00    -0.275 OA
ATOM      9  H   UNL A   1      36.314  22.253  27.362  1.00  0.00     0.164 HD
BRANCH   7  10
ATOM     10  C   UNL A   1      34.554  20.972  24.775  1.00  0.00     0.105 C 
BRANCH  10  11
ATOM     11  C   UNL A   1      33.303  21.624  24.148  1.00  0.00     0.053 C 
BRANCH  11  12
ATOM     12  C   UNL A   1      33.324  23.146  24.171  1.00  0.00     0.042 A 
ATOM     13  C   UNL A   1      31.264  23.281  25.510  1.00  0.00     0.046 C 
ATOM     14  C   UNL A   1      32.521  23.892  24.953  1.00  0.00    -0.030 A 
ATOM     15  C   UNL A   1      32.883  25.319  25.118  1.00  0.00     0.021 A 
ATOM     16  C   UNL A   1      34.176  23.844  23.161  1.00  0.00     0.339 A 
ATOM     17  C   UNL A   1      33.508  25.966  24.071  1.00  0.00     0.142 A 
ATOM     18  C   UNL A   1      32.811  26.065  26.294  1.00  0.00     0.016 A 
ATOM     19  O   UNL A   1      34.935  23.221  22.426  1.00  0.00    -0.246 OA
ATOM     20  O   UNL A   1      33.957  25.210  22.977  1.00  0.00    -0.422 OA
ATOM     21  C   UNL A   1      33.839  27.332  24.114  1.00  0.00     0.094 A 
ATOM     22  C   UNL A   1      33.173  27.411  26.407  1.00  0.00     0.047 A 
ATOM     23  C   UNL A   1      33.648  28.053  25.288  1.00  0.00     0.119 A 
BRANCH  23  24
ATOM     24  O   UNL A   1      33.995  29.367  25.337  1.00  0.00    -0.508 OA
ATOM     25  H   UNL A   1      33.465  29.974  25.816  1.00  0.00     0.293 HD
ENDBRANCH  23  24
ENDBRANCH  11  12
ENDBRANCH  10  11
ENDBRANCH   7  10
ENDBRANCH   5   6
ENDBRANCH   3   5
ENDBRANCH   2   3
ENDBRANCH   1   2
BRANCH   1  26
ATOM     26  C   UNL A   1      40.815  20.157  26.636  1.00  0.00     0.202 C 
BRANCH  26  27
ATOM     27  O   UNL A   1      41.392  19.206  25.764  1.00  0.00    -0.374 OA
BRANCH  27  28
ATOM     28  C   UNL A   1      42.630  18.686  26.202  1.00  0.00     0.202 C 
BRANCH  28  29
ATOM     29  C   UNL A   1      43.742  18.865  25.155  1.00  0.00     0.261 C 
BRANCH  29  30
ATOM     30  O   UNL A   1      43.823  20.164  24.526  1.00  0.00    -0.460 OA
BRANCH  30  31
ATOM     31  C   UNL A   1      44.728  21.032  25.037  1.00  0.00     0.338 C 
ATOM     32  O   UNL A   1      45.953  20.887  25.070  1.00  0.00    -0.246 OA
BRANCH  31  33
ATOM     33  C   UNL A   1      44.074  22.267  25.530  1.00  0.00     0.060 A 
ATOM     34  C   UNL A   1      43.916  23.358  24.661  1.00  0.00     0.016 A 
ATOM     35  C   UNL A   1      43.734  22.398  26.879  1.00  0.00     0.016 A 
ATOM     36  C   UNL A   1      43.548  24.611  25.163  1.00  0.00     0.010 A 
ATOM     37  C   UNL A   1      43.374  23.653  27.382  1.00  0.00     0.010 A 
ATOM     38  C   UNL A   1      43.354  24.781  26.540  1.00  0.00    -0.014 A 
BRANCH  38  39
ATOM     39  C   UNL A   1      43.383  26.142  27.141  1.00  0.00     0.031 A 
ATOM     40  C   UNL A   1      44.728  26.761  27.446  1.00  0.00     0.074 A 
ATOM     41  C   UNL A   1      42.257  26.827  27.412  1.00  0.00     0.049 A 
ATOM     42  N   UNL A   1      45.013  27.889  28.046  1.00  0.00    -0.248 NA
ATOM     43  C   UNL A   1      45.912  25.995  27.019  1.00  0.00     0.031 C 
ATOM     44  C   UNL A   1      40.900  26.372  27.121  1.00  0.00     0.029 A 
ATOM     45  N   UNL A   1      42.083  28.051  28.009  1.00  0.00    -0.354 N 
ATOM     46  C   UNL A   1      46.402  27.954  28.087  1.00  0.00     0.074 A 
ATOM     47  C   UNL A   1      46.903  26.745  27.475  1.00  0.00     0.031 C 
ATOM     48  C   UNL A   1      40.029  27.300  27.554  1.00  0.00     0.029 A 
ATOM     49  C   UNL A   1      40.764  28.393  28.189  1.00  0.00     0.049 A 
ATOM     50  H   UNL A   1      42.831  28.629  28.284  1.00  0.00     0.167 HD
ATOM     51  C   UNL A   1      47.193  28.934  28.589  1.00  0.00     0.031 A 
ATOM     52  C   UNL A   1      40.214  29.450  28.818  1.00  0.00     0.031 A 
ATOM     53  C   UNL A   1      46.695  30.134  29.205  1.00  0.00     0.049 A 
ATOM     54  C   UNL A   1      41.112  30.491  29.437  1.00  0.00     0.074 A 
ATOM     55  C   UNL A   1      47.411  31.199  29.725  1.00  0.00     0.029 A 
ATOM     56  N   UNL A   1      45.352  30.424  29.390  1.00  0.00    -0.354 N 
ATOM     57  N   UNL A   1      42.422  30.553  29.450  1.00  0.00    -0.248 NA
ATOM     58  C   UNL A   1      40.452  31.613  30.124  1.00  0.00     0.031 C 
ATOM     59  C   UNL A   1      46.502  32.102  30.284  1.00  0.00     0.029 A 
ATOM     60  C   UNL A   1      45.219  31.635  30.048  1.00  0.00     0.049 A 
ATOM     61  H   UNL A   1      44.605  29.854  29.099  1.00  0.00     0.167 HD
ATOM     62  C   UNL A   1      42.742  31.730  30.116  1.00  0.00     0.074 A 
ATOM     63  C   UNL A   1      41.489  32.359  30.478  1.00  0.00     0.031 C 
ATOM     64  C   UNL A   1      43.963  32.246  30.401  1.00  0.00     0.031 A 
BRANCH  51  65
ATOM     65  C   UNL A   1      48.683  28.726  28.531  1.00  0.00    -0.014 A 
ATOM     66  C   UNL A   1      49.377  28.064  29.558  1.00  0.00     0.009 A 
ATOM     67  C   UNL A   1      49.403  29.171  27.410  1.00  0.00     0.009 A 
ATOM     68  C   UNL A   1      50.761  27.887  29.479  1.00  0.00     0.001 A 
ATOM     69  C   UNL A   1      50.781  28.965  27.320  1.00  0.00     0.001 A 
ATOM     70  C   UNL A   1      51.460  28.332  28.359  1.00  0.00     0.000 A 
ENDBRANCH  51  65
BRANCH  52  71
ATOM     71  C   UNL A   1      38.734  29.568  28.925  1.00  0.00    -0.014 A 
ATOM     72  C   UNL A   1      38.066  29.213  30.108  1.00  0.00     0.009 A 
ATOM     73  C   UNL A   1      37.975  30.022  27.834  1.00  0.00     0.009 A 
ATOM     74  C   UNL A   1      36.674  29.291  30.188  1.00  0.00     0.001 A 
ATOM     75  C   UNL A   1      36.587  30.131  27.927  1.00  0.00     0.001 A 
ATOM     76  C   UNL A   1      35.935  29.756  29.100  1.00  0.00     0.000 A 
ENDBRANCH  52  71
BRANCH  64  77
ATOM     77  C   UNL A   1      44.006  33.577  31.103  1.00  0.00    -0.014 A 
ATOM     78  C   UNL A   1      44.104  33.665  32.500  1.00  0.00     0.009 A 
ATOM     79  C   UNL A   1      43.997  34.759  30.347  1.00  0.00     0.009 A 
ATOM     80  C   UNL A   1      44.155  34.913  33.127  1.00  0.00     0.001 A 
ATOM     81  C   UNL A   1      44.081  36.004  30.973  1.00  0.00     0.001 A 
ATOM     82  C   UNL A   1      44.150  36.079  32.363  1.00  0.00     0.000 A 
ENDBRANCH  64  77
ENDBRANCH  38  39
ENDBRANCH  31  33
ENDBRANCH  30  31
ENDBRANCH  29  30
ENDBRANCH  28  29
ENDBRANCH  27  28
ENDBRANCH  26  27
ENDBRANCH   1  26
TORSDOF 19
ENDMDL
