MODEL 1
REMARK VINA RESULT:     -10.2      0.000      0.000
REMARK SMILES CC[NH2+][C@]1(C(=O)OCCOCCOC(=O)c2ccc(-c3c4nc(c(-c5ccccc5)c5ccc([nH]5)c(-c5ccccc5)c5nc(c(-c6ccccc6)c6ccc3[nH]6)C=C5)C=C4)cc2)CCC[C@H]([N@@H+]2CCC[C@@H]2C(C)C)C1
REMARK SMILES IDX 10 1 9 2 8 3 7 4 5 5 6 6 4 7 64 8 76 9 65 10 67 11 66 12
REMARK SMILES IDX 3 13 2 16 1 17 68 18 69 19 72 20 70 22 71 23 73 24 74 25
REMARK SMILES IDX 75 26 11 27 12 28 13 29 14 30 15 31 16 32 17 33 63 34 18 35
REMARK SMILES IDX 62 36 19 37 20 38 21 39 56 40 22 41 61 42 55 43 57 44 23 45
REMARK SMILES IDX 60 46 54 47 53 48 24 50 46 51 31 52 45 53 32 54 35 55 44 56
REMARK SMILES IDX 58 57 33 58 34 59 43 61 59 62 36 63 25 64 26 65 30 66 27 67
REMARK SMILES IDX 29 68 28 69 47 70 48 71 52 72 49 73 51 74 50 75 37 76 38 77
REMARK SMILES IDX 42 78 39 79 41 80 40 81
REMARK H PARENT 3 14 3 15 68 21 57 49 35 60
REMARK Flexibility Score: inf
ROOT
ATOM      1  O   UNL A   1      37.361  20.174  24.955  1.00  0.00    -0.374 OA
ENDROOT
BRANCH   1   2
ATOM      2  C   UNL A   1      35.944  20.092  25.019  1.00  0.00     0.202 C 
BRANCH   2   3
ATOM      3  C   UNL A   1      35.181  21.415  25.100  1.00  0.00     0.261 C 
BRANCH   3   4
ATOM      4  O   UNL A   1      34.256  21.597  24.022  1.00  0.00    -0.459 OA
BRANCH   4   5
ATOM      5  C   UNL A   1      34.246  22.817  23.387  1.00  0.00     0.368 C 
ATOM      6  O   UNL A   1      35.186  23.268  22.747  1.00  0.00    -0.245 OA
BRANCH   5   7
ATOM      7  C   UNL A   1      32.841  23.551  23.623  1.00  0.00     0.200 C 
ATOM      8  C   UNL A   1      32.011  22.435  24.340  1.00  0.00     0.081 C 
ATOM      9  C   UNL A   1      33.149  24.788  24.638  1.00  0.00     0.146 C 
ATOM     10  C   UNL A   1      31.242  22.766  25.633  1.00  0.00     0.013 C 
ATOM     11  C   UNL A   1      32.265  25.073  25.958  1.00  0.00     0.191 C 
ATOM     12  C   UNL A   1      31.933  23.723  26.590  1.00  0.00     0.065 C 
BRANCH   7  13
ATOM     13  N   UNL A   1      32.463  24.115  22.229  1.00  0.00    -0.332 N 
ATOM     14  H   UNL A   1      33.276  23.913  21.646  1.00  0.00     0.347 HD
ATOM     15  H   UNL A   1      31.545  23.677  22.143  1.00  0.00     0.347 HD
BRANCH  13  16
ATOM     16  C   UNL A   1      32.073  25.489  21.851  1.00  0.00     0.257 C 
ATOM     17  C   UNL A   1      33.252  26.504  21.660  1.00  0.00     0.071 C 
ENDBRANCH  13  16
ENDBRANCH   7  13
BRANCH  11  18
ATOM     18  N   UNL A   1      31.203  26.133  26.051  1.00  0.00    -0.330 N 
ATOM     19  C   UNL A   1      29.869  25.809  25.517  1.00  0.00     0.262 C 
ATOM     20  C   UNL A   1      31.380  27.541  25.661  1.00  0.00     0.187 C 
ATOM     21  H   UNL A   1      31.319  26.087  27.064  1.00  0.00     0.348 HD
ATOM     22  C   UNL A   1      29.712  26.598  24.220  1.00  0.00     0.067 C 
ATOM     23  C   UNL A   1      30.595  27.813  24.384  1.00  0.00     0.071 C 
BRANCH  20  24
ATOM     24  C   UNL A   1      32.806  28.005  25.778  1.00  0.00     0.041 C 
ATOM     25  C   UNL A   1      33.337  28.881  24.641  1.00  0.00     0.014 C 
ATOM     26  C   UNL A   1      32.982  28.390  27.270  1.00  0.00     0.014 C 
ENDBRANCH  20  24
ENDBRANCH  11  18
ENDBRANCH   5   7
ENDBRANCH   4   5
ENDBRANCH   3   4
ENDBRANCH   2   3
ENDBRANCH   1   2
BRANCH   1  27
ATOM     27  C   UNL A   1      37.957  21.436  25.267  1.00  0.00     0.202 C 
BRANCH  27  28
ATOM     28  C   UNL A   1      39.358  21.389  25.885  1.00  0.00     0.261 C 
BRANCH  28  29
ATOM     29  O   UNL A   1      39.819  20.034  26.057  1.00  0.00    -0.460 OA
BRANCH  29  30
ATOM     30  C   UNL A   1      41.158  19.874  26.049  1.00  0.00     0.338 C 
ATOM     31  O   UNL A   1      41.801  18.949  25.560  1.00  0.00    -0.246 OA
BRANCH  30  32
ATOM     32  C   UNL A   1      41.805  21.079  26.581  1.00  0.00     0.060 A 
ATOM     33  C   UNL A   1      41.711  21.332  27.955  1.00  0.00     0.016 A 
ATOM     34  C   UNL A   1      42.384  22.012  25.719  1.00  0.00     0.016 A 
ATOM     35  C   UNL A   1      42.151  22.546  28.471  1.00  0.00     0.010 A 
ATOM     36  C   UNL A   1      42.816  23.234  26.237  1.00  0.00     0.010 A 
ATOM     37  C   UNL A   1      42.664  23.521  27.606  1.00  0.00    -0.014 A 
BRANCH  37  38
ATOM     38  C   UNL A   1      42.887  24.897  28.104  1.00  0.00     0.031 A 
ATOM     39  C   UNL A   1      44.276  25.307  28.507  1.00  0.00     0.074 A 
ATOM     40  C   UNL A   1      41.868  25.771  28.177  1.00  0.00     0.049 A 
ATOM     41  N   UNL A   1      44.689  26.433  29.031  1.00  0.00    -0.248 NA
ATOM     42  C   UNL A   1      45.342  24.314  28.294  1.00  0.00     0.031 C 
ATOM     43  C   UNL A   1      40.493  25.504  27.759  1.00  0.00     0.029 A 
ATOM     44  N   UNL A   1      41.840  27.062  28.637  1.00  0.00    -0.354 N 
ATOM     45  C   UNL A   1      46.055  26.278  29.225  1.00  0.00     0.074 A 
ATOM     46  C   UNL A   1      46.398  24.941  28.790  1.00  0.00     0.031 C 
ATOM     47  C   UNL A   1      39.749  26.599  27.992  1.00  0.00     0.029 A 
ATOM     48  C   UNL A   1      40.587  27.623  28.612  1.00  0.00     0.049 A 
ATOM     49  H   UNL A   1      42.640  27.540  28.955  1.00  0.00     0.167 HD
ATOM     50  C   UNL A   1      46.946  27.170  29.719  1.00  0.00     0.031 A 
ATOM     51  C   UNL A   1      40.163  28.817  29.067  1.00  0.00     0.031 A 
ATOM     52  C   UNL A   1      46.595  28.493  30.165  1.00  0.00     0.049 A 
ATOM     53  C   UNL A   1      41.156  29.757  29.697  1.00  0.00     0.074 A 
ATOM     54  C   UNL A   1      47.422  29.480  30.672  1.00  0.00     0.029 A 
ATOM     55  N   UNL A   1      45.309  29.009  30.163  1.00  0.00    -0.354 N 
ATOM     56  N   UNL A   1      42.448  29.608  29.861  1.00  0.00    -0.248 NA
ATOM     57  C   UNL A   1      40.628  31.035  30.196  1.00  0.00     0.031 C 
ATOM     58  C   UNL A   1      46.625  30.569  31.038  1.00  0.00     0.029 A 
ATOM     59  C   UNL A   1      45.313  30.289  30.690  1.00  0.00     0.049 A 
ATOM     60  H   UNL A   1      44.510  28.536  29.836  1.00  0.00     0.167 HD
ATOM     61  C   UNL A   1      42.894  30.785  30.452  1.00  0.00     0.074 A 
ATOM     62  C   UNL A   1      41.735  31.641  30.602  1.00  0.00     0.031 C 
ATOM     63  C   UNL A   1      44.150  31.127  30.833  1.00  0.00     0.031 A 
BRANCH  50  64
ATOM     64  C   UNL A   1      48.378  26.726  29.846  1.00  0.00    -0.014 A 
ATOM     65  C   UNL A   1      49.316  26.972  28.831  1.00  0.00     0.009 A 
ATOM     66  C   UNL A   1      48.801  26.073  31.015  1.00  0.00     0.009 A 
ATOM     67  C   UNL A   1      50.638  26.541  28.969  1.00  0.00     0.001 A 
ATOM     68  C   UNL A   1      50.129  25.671  31.163  1.00  0.00     0.001 A 
ATOM     69  C   UNL A   1      51.044  25.896  30.137  1.00  0.00     0.000 A 
ENDBRANCH  50  64
BRANCH  51  70
ATOM     70  C   UNL A   1      38.725  29.183  28.967  1.00  0.00    -0.014 A 
ATOM     71  C   UNL A   1      38.206  29.728  27.782  1.00  0.00     0.009 A 
ATOM     72  C   UNL A   1      37.867  29.005  30.064  1.00  0.00     0.009 A 
ATOM     73  C   UNL A   1      36.865  30.111  27.709  1.00  0.00     0.001 A 
ATOM     74  C   UNL A   1      36.519  29.359  29.976  1.00  0.00     0.001 A 
ATOM     75  C   UNL A   1      36.021  29.921  28.802  1.00  0.00     0.000 A 
ENDBRANCH  51  70
BRANCH  63  76
ATOM     76  C   UNL A   1      44.344  32.504  31.406  1.00  0.00    -0.014 A 
ATOM     77  C   UNL A   1      44.604  33.612  30.585  1.00  0.00     0.009 A 
ATOM     78  C   UNL A   1      44.222  32.700  32.791  1.00  0.00     0.009 A 
ATOM     79  C   UNL A   1      44.775  34.881  31.144  1.00  0.00     0.001 A 
ATOM     80  C   UNL A   1      44.358  33.973  33.344  1.00  0.00     0.001 A 
ATOM     81  C   UNL A   1      44.646  35.061  32.522  1.00  0.00     0.000 A 
ENDBRANCH  63  76
ENDBRANCH  37  38
ENDBRANCH  30  32
ENDBRANCH  29  30
ENDBRANCH  28  29
ENDBRANCH  27  28
ENDBRANCH   1  27
TORSDOF 18
ENDMDL
MODEL 2
REMARK VINA RESULT:     -10.1      3.586      8.624
REMARK SMILES CC[NH2+][C@]1(C(=O)OCCOCCOC(=O)c2ccc(-c3c4nc(c(-c5ccccc5)c5ccc([nH]5)c(-c5ccccc5)c5nc(c(-c6ccccc6)c6ccc3[nH]6)C=C5)C=C4)cc2)CCC[C@H]([N@@H+]2CCC[C@@H]2C(C)C)C1
REMARK SMILES IDX 10 1 9 2 8 3 7 4 5 5 6 6 4 7 64 8 76 9 65 10 67 11 66 12
REMARK SMILES IDX 3 13 2 16 1 17 68 18 69 19 72 20 70 22 71 23 73 24 74 25
REMARK SMILES IDX 75 26 11 27 12 28 13 29 14 30 15 31 16 32 17 33 63 34 18 35
REMARK SMILES IDX 62 36 19 37 20 38 21 39 56 40 22 41 61 42 55 43 57 44 23 45
REMARK SMILES IDX 60 46 54 47 53 48 24 50 46 51 31 52 45 53 32 54 35 55 44 56
REMARK SMILES IDX 58 57 33 58 34 59 43 61 59 62 36 63 25 64 26 65 30 66 27 67
REMARK SMILES IDX 29 68 28 69 47 70 48 71 52 72 49 73 51 74 50 75 37 76 38 77
REMARK SMILES IDX 42 78 39 79 41 80 40 81
REMARK H PARENT 3 14 3 15 68 21 57 49 35 60
REMARK Flexibility Score: inf
ROOT
ATOM      1  O   UNL A   1      32.900  30.919  27.381  1.00  0.00    -0.374 OA
ENDROOT
BRANCH   1   2
ATOM      2  C   UNL A   1      33.340  29.840  26.567  1.00  0.00     0.202 C 
BRANCH   2   3
ATOM      3  C   UNL A   1      32.307  29.225  25.622  1.00  0.00     0.261 C 
BRANCH   3   4
ATOM      4  O   UNL A   1      32.423  27.802  25.511  1.00  0.00    -0.459 OA
BRANCH   4   5
ATOM      5  C   UNL A   1      31.585  27.031  26.282  1.00  0.00     0.368 C 
ATOM      6  O   UNL A   1      31.035  27.420  27.303  1.00  0.00    -0.245 OA
BRANCH   5   7
ATOM      7  C   UNL A   1      31.453  25.563  25.653  1.00  0.00     0.200 C 
ATOM      8  C   UNL A   1      30.459  25.807  24.470  1.00  0.00     0.081 C 
ATOM      9  C   UNL A   1      32.936  25.181  25.096  1.00  0.00     0.146 C 
ATOM     10  C   UNL A   1      30.795  25.269  23.065  1.00  0.00     0.013 C 
ATOM     11  C   UNL A   1      33.186  24.593  23.614  1.00  0.00     0.191 C 
ATOM     12  C   UNL A   1      32.257  25.340  22.660  1.00  0.00     0.065 C 
BRANCH   7  13
ATOM     13  N   UNL A   1      31.112  24.655  26.863  1.00  0.00    -0.332 N 
ATOM     14  H   UNL A   1      31.862  24.833  27.531  1.00  0.00     0.347 HD
ATOM     15  H   UNL A   1      30.135  24.930  26.976  1.00  0.00     0.347 HD
BRANCH  13  16
ATOM     16  C   UNL A   1      30.920  23.190  26.908  1.00  0.00     0.257 C 
ATOM     17  C   UNL A   1      29.456  22.704  27.184  1.00  0.00     0.071 C 
ENDBRANCH  13  16
ENDBRANCH   7  13
BRANCH  11  18
ATOM     18  N   UNL A   1      33.426  23.140  23.310  1.00  0.00    -0.330 N 
ATOM     19  C   UNL A   1      32.260  22.239  23.326  1.00  0.00     0.262 C 
ATOM     20  C   UNL A   1      34.485  22.316  23.915  1.00  0.00     0.187 C 
ATOM     21  H   UNL A   1      33.766  23.441  22.397  1.00  0.00     0.348 HD
ATOM     22  C   UNL A   1      32.379  21.389  24.587  1.00  0.00     0.067 C 
ATOM     23  C   UNL A   1      33.859  21.321  24.883  1.00  0.00     0.071 C 
BRANCH  20  24
ATOM     24  C   UNL A   1      35.682  23.122  24.338  1.00  0.00     0.041 C 
ATOM     25  C   UNL A   1      36.058  23.063  25.820  1.00  0.00     0.014 C 
ATOM     26  C   UNL A   1      36.727  22.912  23.211  1.00  0.00     0.014 C 
ENDBRANCH  20  24
ENDBRANCH  11  18
ENDBRANCH   5   7
ENDBRANCH   4   5
ENDBRANCH   3   4
ENDBRANCH   2   3
ENDBRANCH   1   2
BRANCH   1  27
ATOM     27  C   UNL A   1      31.841  31.733  26.870  1.00  0.00     0.202 C 
BRANCH  27  28
ATOM     28  C   UNL A   1      31.940  33.234  27.162  1.00  0.00     0.261 C 
BRANCH  28  29
ATOM     29  O   UNL A   1      33.277  33.615  27.544  1.00  0.00    -0.460 OA
BRANCH  29  30
ATOM     30  C   UNL A   1      33.384  34.217  28.745  1.00  0.00     0.338 C 
ATOM     31  O   UNL A   1      32.527  34.867  29.340  1.00  0.00    -0.246 OA
BRANCH  30  32
ATOM     32  C   UNL A   1      34.661  33.854  29.371  1.00  0.00     0.060 A 
ATOM     33  C   UNL A   1      35.843  34.104  28.662  1.00  0.00     0.016 A 
ATOM     34  C   UNL A   1      34.685  33.159  30.581  1.00  0.00     0.016 A 
ATOM     35  C   UNL A   1      37.055  33.614  29.136  1.00  0.00     0.010 A 
ATOM     36  C   UNL A   1      35.901  32.659  31.050  1.00  0.00     0.010 A 
ATOM     37  C   UNL A   1      37.082  32.849  30.310  1.00  0.00    -0.014 A 
BRANCH  37  38
ATOM     38  C   UNL A   1      38.313  32.111  30.674  1.00  0.00     0.031 A 
ATOM     39  C   UNL A   1      39.239  32.707  31.697  1.00  0.00     0.074 A 
ATOM     40  C   UNL A   1      38.587  30.922  30.114  1.00  0.00     0.049 A 
ATOM     41  N   UNL A   1      40.399  32.271  32.118  1.00  0.00    -0.248 NA
ATOM     42  C   UNL A   1      38.801  33.962  32.329  1.00  0.00     0.031 C 
ATOM     43  C   UNL A   1      37.734  30.221  29.155  1.00  0.00     0.029 A 
ATOM     44  N   UNL A   1      39.671  30.097  30.272  1.00  0.00    -0.354 N 
ATOM     45  C   UNL A   1      40.836  33.205  33.049  1.00  0.00     0.074 A 
ATOM     46  C   UNL A   1      39.832  34.244  33.112  1.00  0.00     0.031 C 
ATOM     47  C   UNL A   1      38.334  29.072  28.801  1.00  0.00     0.029 A 
ATOM     48  C   UNL A   1      39.627  28.980  29.475  1.00  0.00     0.049 A 
ATOM     49  H   UNL A   1      40.408  30.287  30.895  1.00  0.00     0.167 HD
ATOM     50  C   UNL A   1      41.971  33.196  33.787  1.00  0.00     0.031 A 
ATOM     51  C   UNL A   1      40.543  28.010  29.291  1.00  0.00     0.031 A 
ATOM     52  C   UNL A   1      42.973  32.166  33.708  1.00  0.00     0.049 A 
ATOM     53  C   UNL A   1      41.839  28.070  30.055  1.00  0.00     0.074 A 
ATOM     54  C   UNL A   1      44.155  32.055  34.419  1.00  0.00     0.029 A 
ATOM     55  N   UNL A   1      42.913  31.072  32.858  1.00  0.00    -0.354 N 
ATOM     56  N   UNL A   1      42.235  28.948  30.944  1.00  0.00    -0.248 NA
ATOM     57  C   UNL A   1      42.808  26.997  29.793  1.00  0.00     0.031 C 
ATOM     58  C   UNL A   1      44.840  30.929  33.952  1.00  0.00     0.029 A 
ATOM     59  C   UNL A   1      44.052  30.298  33.003  1.00  0.00     0.049 A 
ATOM     60  H   UNL A   1      42.171  30.875  32.241  1.00  0.00     0.167 HD
ATOM     61  C   UNL A   1      43.486  28.516  31.372  1.00  0.00     0.074 A 
ATOM     62  C   UNL A   1      43.772  27.290  30.656  1.00  0.00     0.031 C 
ATOM     63  C   UNL A   1      44.320  29.081  32.280  1.00  0.00     0.031 A 
BRANCH  50  64
ATOM     64  C   UNL A   1      42.209  34.359  34.711  1.00  0.00    -0.014 A 
ATOM     65  C   UNL A   1      41.782  34.335  36.048  1.00  0.00     0.009 A 
ATOM     66  C   UNL A   1      42.897  35.489  34.240  1.00  0.00     0.009 A 
ATOM     67  C   UNL A   1      42.008  35.433  36.883  1.00  0.00     0.001 A 
ATOM     68  C   UNL A   1      43.149  36.571  35.085  1.00  0.00     0.001 A 
ATOM     69  C   UNL A   1      42.695  36.547  36.402  1.00  0.00     0.000 A 
ENDBRANCH  50  64
BRANCH  51  70
ATOM     70  C   UNL A   1      40.280  26.912  28.324  1.00  0.00    -0.014 A 
ATOM     71  C   UNL A   1      39.533  25.786  28.704  1.00  0.00     0.009 A 
ATOM     72  C   UNL A   1      40.789  26.976  27.017  1.00  0.00     0.009 A 
ATOM     73  C   UNL A   1      39.326  24.738  27.806  1.00  0.00     0.001 A 
ATOM     74  C   UNL A   1      40.553  25.941  26.111  1.00  0.00     0.001 A 
ATOM     75  C   UNL A   1      39.831  24.818  26.508  1.00  0.00     0.000 A 
ENDBRANCH  51  70
BRANCH  63  76
ATOM     76  C   UNL A   1      45.602  28.354  32.584  1.00  0.00    -0.014 A 
ATOM     77  C   UNL A   1      46.781  28.616  31.870  1.00  0.00     0.009 A 
ATOM     78  C   UNL A   1      45.635  27.421  33.632  1.00  0.00     0.009 A 
ATOM     79  C   UNL A   1      47.960  27.930  32.176  1.00  0.00     0.001 A 
ATOM     80  C   UNL A   1      46.821  26.762  33.959  1.00  0.00     0.001 A 
ATOM     81  C   UNL A   1      47.979  27.009  33.224  1.00  0.00     0.000 A 
ENDBRANCH  63  76
ENDBRANCH  37  38
ENDBRANCH  30  32
ENDBRANCH  29  30
ENDBRANCH  28  29
ENDBRANCH  27  28
ENDBRANCH   1  27
TORSDOF 18
ENDMDL
MODEL 3
REMARK VINA RESULT:     -10.1      2.497      6.234
REMARK SMILES CC[NH2+][C@]1(C(=O)OCCOCCOC(=O)c2ccc(-c3c4nc(c(-c5ccccc5)c5ccc([nH]5)c(-c5ccccc5)c5nc(c(-c6ccccc6)c6ccc3[nH]6)C=C5)C=C4)cc2)CCC[C@H]([N@@H+]2CCC[C@@H]2C(C)C)C1
REMARK SMILES IDX 10 1 9 2 8 3 7 4 5 5 6 6 4 7 64 8 76 9 65 10 67 11 66 12
REMARK SMILES IDX 3 13 2 16 1 17 68 18 69 19 72 20 70 22 71 23 73 24 74 25
REMARK SMILES IDX 75 26 11 27 12 28 13 29 14 30 15 31 16 32 17 33 63 34 18 35
REMARK SMILES IDX 62 36 19 37 20 38 21 39 56 40 22 41 61 42 55 43 57 44 23 45
REMARK SMILES IDX 60 46 54 47 53 48 24 50 46 51 31 52 45 53 32 54 35 55 44 56
REMARK SMILES IDX 58 57 33 58 34 59 43 61 59 62 36 63 25 64 26 65 30 66 27 67
REMARK SMILES IDX 29 68 28 69 47 70 48 71 52 72 49 73 51 74 50 75 37 76 38 77
REMARK SMILES IDX 42 78 39 79 41 80 40 81
REMARK H PARENT 3 14 3 15 68 21 57 49 35 60
REMARK Flexibility Score: inf
ROOT
ATOM      1  O   UNL A   1      35.013  18.397  24.850  1.00  0.00    -0.374 OA
ENDROOT
BRANCH   1   2
ATOM      2  C   UNL A   1      33.980  18.305  23.878  1.00  0.00     0.202 C 
BRANCH   2   3
ATOM      3  C   UNL A   1      32.547  18.495  24.376  1.00  0.00     0.261 C 
BRANCH   3   4
ATOM      4  O   UNL A   1      32.268  19.839  24.784  1.00  0.00    -0.459 OA
BRANCH   4   5
ATOM      5  C   UNL A   1      32.307  20.820  23.822  1.00  0.00     0.368 C 
ATOM      6  O   UNL A   1      31.971  20.657  22.657  1.00  0.00    -0.245 OA
BRANCH   5   7
ATOM      7  C   UNL A   1      32.866  22.185  24.449  1.00  0.00     0.200 C 
ATOM      8  C   UNL A   1      34.198  22.384  23.652  1.00  0.00     0.081 C 
ATOM      9  C   UNL A   1      31.779  23.334  24.056  1.00  0.00     0.146 C 
ATOM     10  C   UNL A   1      34.507  23.747  23.004  1.00  0.00     0.013 C 
ATOM     11  C   UNL A   1      32.202  24.750  23.407  1.00  0.00     0.191 C 
ATOM     12  C   UNL A   1      33.319  24.479  22.401  1.00  0.00     0.065 C 
BRANCH   7  13
ATOM     13  N   UNL A   1      32.831  21.949  25.980  1.00  0.00    -0.332 N 
ATOM     14  H   UNL A   1      32.099  22.576  26.315  1.00  0.00     0.347 HD
ATOM     15  H   UNL A   1      32.781  20.929  25.966  1.00  0.00     0.347 HD
BRANCH  13  16
ATOM     16  C   UNL A   1      33.917  22.088  26.974  1.00  0.00     0.257 C 
ATOM     17  C   UNL A   1      35.010  23.159  26.641  1.00  0.00     0.071 C 
ENDBRANCH  13  16
ENDBRANCH   7  13
BRANCH  11  18
ATOM     18  N   UNL A   1      32.294  26.038  24.175  1.00  0.00    -0.330 N 
ATOM     19  C   UNL A   1      33.056  26.027  25.437  1.00  0.00     0.262 C 
ATOM     20  C   UNL A   1      31.156  26.917  24.487  1.00  0.00     0.187 C 
ATOM     21  H   UNL A   1      32.760  26.433  23.357  1.00  0.00     0.348 HD
ATOM     22  C   UNL A   1      32.034  26.110  26.567  1.00  0.00     0.067 C 
ATOM     23  C   UNL A   1      30.845  26.830  25.976  1.00  0.00     0.071 C 
BRANCH  20  24
ATOM     24  C   UNL A   1      30.043  26.811  23.481  1.00  0.00     0.041 C 
ATOM     25  C   UNL A   1      28.670  26.403  24.019  1.00  0.00     0.014 C 
ATOM     26  C   UNL A   1      30.233  28.030  22.541  1.00  0.00     0.014 C 
ENDBRANCH  20  24
ENDBRANCH  11  18
ENDBRANCH   5   7
ENDBRANCH   4   5
ENDBRANCH   3   4
ENDBRANCH   2   3
ENDBRANCH   1   2
BRANCH   1  27
ATOM     27  C   UNL A   1      35.712  19.641  24.944  1.00  0.00     0.202 C 
BRANCH  27  28
ATOM     28  C   UNL A   1      37.232  19.578  24.763  1.00  0.00     0.261 C 
BRANCH  28  29
ATOM     29  O   UNL A   1      37.877  20.769  25.258  1.00  0.00    -0.460 OA
BRANCH  29  30
ATOM     30  C   UNL A   1      39.092  20.581  25.811  1.00  0.00     0.338 C 
ATOM     31  O   UNL A   1      39.815  19.591  25.718  1.00  0.00    -0.246 OA
BRANCH  30  32
ATOM     32  C   UNL A   1      39.549  21.824  26.443  1.00  0.00     0.060 A 
ATOM     33  C   UNL A   1      38.947  23.027  26.053  1.00  0.00     0.016 A 
ATOM     34  C   UNL A   1      40.643  21.818  27.309  1.00  0.00     0.016 A 
ATOM     35  C   UNL A   1      39.470  24.240  26.489  1.00  0.00     0.010 A 
ATOM     36  C   UNL A   1      41.173  23.037  27.738  1.00  0.00     0.010 A 
ATOM     37  C   UNL A   1      40.614  24.251  27.297  1.00  0.00    -0.014 A 
BRANCH  37  38
ATOM     38  C   UNL A   1      41.323  25.526  27.546  1.00  0.00     0.031 A 
ATOM     39  C   UNL A   1      40.663  26.567  28.407  1.00  0.00     0.074 A 
ATOM     40  C   UNL A   1      42.542  25.743  27.025  1.00  0.00     0.049 A 
ATOM     41  N   UNL A   1      41.067  27.776  28.703  1.00  0.00    -0.248 NA
ATOM     42  C   UNL A   1      39.375  26.196  29.015  1.00  0.00     0.031 C 
ATOM     43  C   UNL A   1      43.303  24.785  26.225  1.00  0.00     0.029 A 
ATOM     44  N   UNL A   1      43.351  26.849  27.093  1.00  0.00    -0.354 N 
ATOM     45  C   UNL A   1      40.078  28.314  29.515  1.00  0.00     0.074 A 
ATOM     46  C   UNL A   1      39.041  27.313  29.644  1.00  0.00     0.031 C 
ATOM     47  C   UNL A   1      44.468  25.350  25.865  1.00  0.00     0.029 A 
ATOM     48  C   UNL A   1      44.513  26.719  26.375  1.00  0.00     0.049 A 
ATOM     49  H   UNL A   1      43.120  27.656  27.606  1.00  0.00     0.167 HD
ATOM     50  C   UNL A   1      40.037  29.534  30.104  1.00  0.00     0.031 A 
ATOM     51  C   UNL A   1      45.487  27.617  26.133  1.00  0.00     0.031 A 
ATOM     52  C   UNL A   1      41.064  30.530  29.958  1.00  0.00     0.049 A 
ATOM     53  C   UNL A   1      45.376  28.997  26.723  1.00  0.00     0.074 A 
ATOM     54  C   UNL A   1      41.127  31.794  30.521  1.00  0.00     0.029 A 
ATOM     55  N   UNL A   1      42.207  30.378  29.188  1.00  0.00    -0.354 N 
ATOM     56  N   UNL A   1      44.444  29.491  27.502  1.00  0.00    -0.248 NA
ATOM     57  C   UNL A   1      46.457  29.940  26.403  1.00  0.00     0.031 C 
ATOM     58  C   UNL A   1      42.275  32.428  30.037  1.00  0.00     0.029 A 
ATOM     59  C   UNL A   1      42.965  31.535  29.234  1.00  0.00     0.049 A 
ATOM     60  H   UNL A   1      42.444  29.566  28.683  1.00  0.00     0.167 HD
ATOM     61  C   UNL A   1      44.844  30.791  27.794  1.00  0.00     0.074 A 
ATOM     62  C   UNL A   1      46.108  31.000  27.119  1.00  0.00     0.031 C 
ATOM     63  C   UNL A   1      44.221  31.726  28.554  1.00  0.00     0.031 A 
BRANCH  50  64
ATOM     64  C   UNL A   1      38.820  29.871  30.920  1.00  0.00    -0.014 A 
ATOM     65  C   UNL A   1      38.771  29.628  32.302  1.00  0.00     0.009 A 
ATOM     66  C   UNL A   1      37.711  30.468  30.299  1.00  0.00     0.009 A 
ATOM     67  C   UNL A   1      37.625  29.942  33.037  1.00  0.00     0.001 A 
ATOM     68  C   UNL A   1      36.579  30.810  31.041  1.00  0.00     0.001 A 
ATOM     69  C   UNL A   1      36.532  30.537  32.406  1.00  0.00     0.000 A 
ENDBRANCH  50  64
BRANCH  51  70
ATOM     70  C   UNL A   1      46.642  27.248  25.272  1.00  0.00    -0.014 A 
ATOM     71  C   UNL A   1      47.621  26.353  25.732  1.00  0.00     0.009 A 
ATOM     72  C   UNL A   1      46.781  27.803  23.990  1.00  0.00     0.009 A 
ATOM     73  C   UNL A   1      48.726  26.044  24.937  1.00  0.00     0.001 A 
ATOM     74  C   UNL A   1      47.871  27.467  23.185  1.00  0.00     0.001 A 
ATOM     75  C   UNL A   1      48.848  26.596  23.662  1.00  0.00     0.000 A 
ENDBRANCH  51  70
BRANCH  63  76
ATOM     76  C   UNL A   1      44.923  33.044  28.735  1.00  0.00    -0.014 A 
ATOM     77  C   UNL A   1      45.944  33.209  29.683  1.00  0.00     0.009 A 
ATOM     78  C   UNL A   1      44.580  34.128  27.911  1.00  0.00     0.009 A 
ATOM     79  C   UNL A   1      46.583  34.443  29.826  1.00  0.00     0.001 A 
ATOM     80  C   UNL A   1      45.242  35.350  28.032  1.00  0.00     0.001 A 
ATOM     81  C   UNL A   1      46.236  35.510  28.997  1.00  0.00     0.000 A 
ENDBRANCH  63  76
ENDBRANCH  37  38
ENDBRANCH  30  32
ENDBRANCH  29  30
ENDBRANCH  28  29
ENDBRANCH  27  28
ENDBRANCH   1  27
TORSDOF 18
ENDMDL
