MODEL 1
REMARK VINA RESULT:     -10.4      0.000      0.000
REMARK SMILES CO[C@@H]1C[C@@H](C(=O)OCCOCCOC(=O)c2ccc(-c3c4nc(c(-c5ccccc5)c5ccc([nH]5)c(-c5ccccc5)c5nc(c(-c6ccccc6)c6ccc3[nH]6)C=C5)C=C4)cc2)N(C(=O)c2nc(C(C)C)n[nH]2)C1
REMARK SMILES IDX 10 1 9 2 8 3 6 4 7 5 5 6 3 7 4 8 76 9 65 10 2 11 1 12 66 13
REMARK SMILES IDX 67 14 68 15 69 16 75 17 70 18 74 19 71 21 72 22 73 23 11 24
REMARK SMILES IDX 12 25 13 26 14 27 15 28 16 29 17 30 18 31 64 32 19 33 63 34
REMARK SMILES IDX 20 35 21 36 22 37 57 38 23 39 62 40 56 41 58 42 24 43 61 44
REMARK SMILES IDX 55 45 54 46 25 48 47 49 32 50 46 51 33 52 36 53 45 54 59 55
REMARK SMILES IDX 34 56 35 57 44 59 60 60 37 61 26 62 27 63 31 64 28 65 30 66
REMARK SMILES IDX 29 67 48 68 49 69 53 70 50 71 52 72 51 73 38 74 39 75 43 76
REMARK SMILES IDX 40 77 42 78 41 79
REMARK H PARENT 75 20 58 47 36 58
REMARK Flexibility Score: inf
ROOT
ATOM      1  C   UNL A   1      31.088  26.698  26.129  1.00  0.00     0.202 C 
ENDROOT
BRANCH   1   2
ATOM      2  C   UNL A   1      30.108  25.518  26.069  1.00  0.00     0.261 C 
BRANCH   2   3
ATOM      3  O   UNL A   1      30.633  24.387  26.781  1.00  0.00    -0.462 OA
BRANCH   3   4
ATOM      4  C   UNL A   1      30.994  23.300  26.030  1.00  0.00     0.329 C 
ATOM      5  O   UNL A   1      30.359  22.259  25.983  1.00  0.00    -0.250 OA
BRANCH   4   6
ATOM      6  C   UNL A   1      32.327  23.564  25.293  1.00  0.00     0.198 C 
ATOM      7  C   UNL A   1      33.489  24.135  23.285  1.00  0.00     0.140 C 
ATOM      8  C   UNL A   1      32.114  23.691  23.767  1.00  0.00     0.071 C 
ATOM      9  C   UNL A   1      34.413  23.254  24.144  1.00  0.00     0.153 C 
ATOM     10  N   UNL A   1      33.598  22.801  25.289  1.00  0.00    -0.319 N 
BRANCH   7  11
ATOM     11  O   UNL A   1      33.789  25.507  23.552  1.00  0.00    -0.380 OA
ATOM     12  C   UNL A   1      33.546  26.408  22.481  1.00  0.00     0.195 C 
ENDBRANCH   7  11
BRANCH  10  13
ATOM     13  C   UNL A   1      34.040  21.656  25.948  1.00  0.00     0.292 C 
ATOM     14  O   UNL A   1      34.885  21.787  26.842  1.00  0.00    -0.265 OA
BRANCH  13  15
ATOM     15  C   UNL A   1      33.682  20.317  25.561  1.00  0.00     0.214 A 
ATOM     16  N   UNL A   1      33.842  19.678  24.420  1.00  0.00    -0.207 NA
ATOM     17  N   UNL A   1      32.903  19.548  26.378  1.00  0.00    -0.255 N 
ATOM     18  C   UNL A   1      33.143  18.500  24.613  1.00  0.00     0.153 A 
ATOM     19  N   UNL A   1      32.621  18.365  25.839  1.00  0.00    -0.158 NA
ATOM     20  H   UNL A   1      32.585  19.836  27.264  1.00  0.00     0.192 HD
BRANCH  18  21
ATOM     21  C   UNL A   1      32.869  17.480  23.547  1.00  0.00     0.053 C 
ATOM     22  C   UNL A   1      32.322  18.149  22.272  1.00  0.00     0.016 C 
ATOM     23  C   UNL A   1      34.108  16.662  23.184  1.00  0.00     0.016 C 
ENDBRANCH  18  21
ENDBRANCH  13  15
ENDBRANCH  10  13
ENDBRANCH   4   6
ENDBRANCH   3   4
ENDBRANCH   2   3
ENDBRANCH   1   2
BRANCH   1  24
ATOM     24  O   UNL A   1      31.136  27.411  27.369  1.00  0.00    -0.374 OA
BRANCH  24  25
ATOM     25  C   UNL A   1      31.791  28.676  27.296  1.00  0.00     0.202 C 
BRANCH  25  26
ATOM     26  C   UNL A   1      33.182  28.591  26.670  1.00  0.00     0.261 C 
BRANCH  26  27
ATOM     27  O   UNL A   1      34.147  28.693  27.711  1.00  0.00    -0.460 OA
BRANCH  27  28
ATOM     28  C   UNL A   1      34.658  29.941  27.806  1.00  0.00     0.338 C 
ATOM     29  O   UNL A   1      34.049  30.995  27.756  1.00  0.00    -0.246 OA
BRANCH  28  30
ATOM     30  C   UNL A   1      36.059  29.799  28.233  1.00  0.00     0.060 A 
ATOM     31  C   UNL A   1      37.056  30.076  27.291  1.00  0.00     0.016 A 
ATOM     32  C   UNL A   1      36.384  29.439  29.547  1.00  0.00     0.016 A 
ATOM     33  C   UNL A   1      38.389  29.901  27.635  1.00  0.00     0.010 A 
ATOM     34  C   UNL A   1      37.716  29.280  29.896  1.00  0.00     0.010 A 
ATOM     35  C   UNL A   1      38.709  29.451  28.920  1.00  0.00    -0.014 A 
BRANCH  35  36
ATOM     36  C   UNL A   1      40.050  28.913  29.191  1.00  0.00     0.031 A 
ATOM     37  C   UNL A   1      41.045  29.828  29.845  1.00  0.00     0.074 A 
ATOM     38  C   UNL A   1      40.364  27.660  28.833  1.00  0.00     0.049 A 
ATOM     39  N   UNL A   1      42.306  29.626  30.114  1.00  0.00    -0.248 NA
ATOM     40  C   UNL A   1      40.551  31.165  30.231  1.00  0.00     0.031 C 
ATOM     41  C   UNL A   1      39.453  26.703  28.206  1.00  0.00     0.029 A 
ATOM     42  N   UNL A   1      41.550  26.987  28.935  1.00  0.00    -0.354 N 
ATOM     43  C   UNL A   1      42.756  30.808  30.687  1.00  0.00     0.074 A 
ATOM     44  C   UNL A   1      41.652  31.739  30.690  1.00  0.00     0.031 C 
ATOM     45  C   UNL A   1      40.122  25.563  27.967  1.00  0.00     0.029 A 
ATOM     46  C   UNL A   1      41.507  25.725  28.398  1.00  0.00     0.049 A 
ATOM     47  H   UNL A   1      42.355  27.369  29.352  1.00  0.00     0.167 HD
ATOM     48  C   UNL A   1      43.985  31.087  31.178  1.00  0.00     0.031 A 
ATOM     49  C   UNL A   1      42.491  24.819  28.261  1.00  0.00     0.031 A 
ATOM     50  C   UNL A   1      45.074  30.151  31.150  1.00  0.00     0.049 A 
ATOM     51  C   UNL A   1      43.862  25.167  28.775  1.00  0.00     0.074 A 
ATOM     52  C   UNL A   1      46.361  30.305  31.629  1.00  0.00     0.029 A 
ATOM     53  N   UNL A   1      44.994  28.879  30.600  1.00  0.00    -0.354 N 
ATOM     54  N   UNL A   1      44.274  26.273  29.349  1.00  0.00    -0.248 NA
ATOM     55  C   UNL A   1      44.899  24.138  28.634  1.00  0.00     0.031 C 
ATOM     56  C   UNL A   1      47.074  29.140  31.325  1.00  0.00     0.029 A 
ATOM     57  C   UNL A   1      46.215  28.241  30.711  1.00  0.00     0.049 A 
ATOM     58  H   UNL A   1      44.187  28.488  30.194  1.00  0.00     0.167 HD
ATOM     59  C   UNL A   1      45.610  26.064  29.663  1.00  0.00     0.074 A 
ATOM     60  C   UNL A   1      45.932  24.720  29.227  1.00  0.00     0.031 C 
ATOM     61  C   UNL A   1      46.494  26.902  30.259  1.00  0.00     0.031 A 
BRANCH  48  62
ATOM     62  C   UNL A   1      44.205  32.459  31.748  1.00  0.00    -0.014 A 
ATOM     63  C   UNL A   1      44.011  32.722  33.116  1.00  0.00     0.009 A 
ATOM     64  C   UNL A   1      44.609  33.508  30.909  1.00  0.00     0.009 A 
ATOM     65  C   UNL A   1      44.179  34.013  33.621  1.00  0.00     0.001 A 
ATOM     66  C   UNL A   1      44.804  34.793  31.422  1.00  0.00     0.001 A 
ATOM     67  C   UNL A   1      44.580  35.045  32.775  1.00  0.00     0.000 A 
ENDBRANCH  48  62
BRANCH  49  68
ATOM     68  C   UNL A   1      42.212  23.512  27.616  1.00  0.00    -0.014 A 
ATOM     69  C   UNL A   1      42.455  23.324  26.248  1.00  0.00     0.009 A 
ATOM     70  C   UNL A   1      41.714  22.437  28.370  1.00  0.00     0.009 A 
ATOM     71  C   UNL A   1      42.183  22.094  25.643  1.00  0.00     0.001 A 
ATOM     72  C   UNL A   1      41.468  21.201  27.768  1.00  0.00     0.001 A 
ATOM     73  C   UNL A   1      41.696  21.033  26.404  1.00  0.00     0.000 A 
ENDBRANCH  49  68
BRANCH  61  74
ATOM     74  C   UNL A   1      47.878  26.369  30.500  1.00  0.00    -0.014 A 
ATOM     75  C   UNL A   1      48.221  25.759  31.715  1.00  0.00     0.009 A 
ATOM     76  C   UNL A   1      48.832  26.442  29.474  1.00  0.00     0.009 A 
ATOM     77  C   UNL A   1      49.510  25.258  31.909  1.00  0.00     0.001 A 
ATOM     78  C   UNL A   1      50.109  25.914  29.660  1.00  0.00     0.001 A 
ATOM     79  C   UNL A   1      50.450  25.331  30.880  1.00  0.00     0.000 A 
ENDBRANCH  61  74
ENDBRANCH  35  36
ENDBRANCH  28  30
ENDBRANCH  27  28
ENDBRANCH  26  27
ENDBRANCH  25  26
ENDBRANCH  24  25
ENDBRANCH   1  24
TORSDOF 18
ENDMDL
MODEL 2
REMARK VINA RESULT:     -10.3      3.286      8.167
REMARK SMILES CO[C@@H]1C[C@@H](C(=O)OCCOCCOC(=O)c2ccc(-c3c4nc(c(-c5ccccc5)c5ccc([nH]5)c(-c5ccccc5)c5nc(c(-c6ccccc6)c6ccc3[nH]6)C=C5)C=C4)cc2)N(C(=O)c2nc(C(C)C)n[nH]2)C1
REMARK SMILES IDX 10 1 9 2 8 3 6 4 7 5 5 6 3 7 4 8 76 9 65 10 2 11 1 12 66 13
REMARK SMILES IDX 67 14 68 15 69 16 75 17 70 18 74 19 71 21 72 22 73 23 11 24
REMARK SMILES IDX 12 25 13 26 14 27 15 28 16 29 17 30 18 31 64 32 19 33 63 34
REMARK SMILES IDX 20 35 21 36 22 37 57 38 23 39 62 40 56 41 58 42 24 43 61 44
REMARK SMILES IDX 55 45 54 46 25 48 47 49 32 50 46 51 33 52 36 53 45 54 59 55
REMARK SMILES IDX 34 56 35 57 44 59 60 60 37 61 26 62 27 63 31 64 28 65 30 66
REMARK SMILES IDX 29 67 48 68 49 69 53 70 50 71 52 72 51 73 38 74 39 75 43 76
REMARK SMILES IDX 40 77 42 78 41 79
REMARK H PARENT 75 20 58 47 36 58
REMARK Flexibility Score: inf
ROOT
ATOM      1  C   UNL A   1      33.978  22.329  24.533  1.00  0.00     0.202 C 
ENDROOT
BRANCH   1   2
ATOM      2  C   UNL A   1      32.965  23.451  24.797  1.00  0.00     0.261 C 
BRANCH   2   3
ATOM      3  O   UNL A   1      33.536  24.462  25.641  1.00  0.00    -0.462 OA
BRANCH   3   4
ATOM      4  C   UNL A   1      32.675  25.398  26.150  1.00  0.00     0.329 C 
ATOM      5  O   UNL A   1      31.644  25.128  26.745  1.00  0.00    -0.250 OA
BRANCH   4   6
ATOM      6  C   UNL A   1      33.169  26.827  25.829  1.00  0.00     0.198 C 
ATOM      7  C   UNL A   1      33.580  29.070  26.543  1.00  0.00     0.140 C 
ATOM      8  C   UNL A   1      32.845  27.809  26.979  1.00  0.00     0.071 C 
ATOM      9  C   UNL A   1      33.283  29.090  25.033  1.00  0.00     0.153 C 
ATOM     10  N   UNL A   1      32.883  27.714  24.676  1.00  0.00    -0.319 N 
BRANCH   7  11
ATOM     11  O   UNL A   1      34.997  29.018  26.729  1.00  0.00    -0.380 OA
ATOM     12  C   UNL A   1      35.481  29.611  27.924  1.00  0.00     0.195 C 
ENDBRANCH   7  11
BRANCH  10  13
ATOM     13  C   UNL A   1      32.140  27.569  23.507  1.00  0.00     0.292 C 
ATOM     14  O   UNL A   1      32.493  26.705  22.695  1.00  0.00    -0.265 OA
BRANCH  13  15
ATOM     15  C   UNL A   1      31.074  28.455  23.117  1.00  0.00     0.214 A 
ATOM     16  N   UNL A   1      29.840  28.567  23.562  1.00  0.00    -0.207 NA
ATOM     17  N   UNL A   1      31.203  29.240  22.006  1.00  0.00    -0.255 N 
ATOM     18  C   UNL A   1      29.262  29.463  22.680  1.00  0.00     0.153 A 
ATOM     19  N   UNL A   1      30.104  29.948  21.760  1.00  0.00    -0.158 NA
ATOM     20  H   UNL A   1      32.015  29.276  21.450  1.00  0.00     0.192 HD
BRANCH  18  21
ATOM     21  C   UNL A   1      27.802  29.810  22.643  1.00  0.00     0.053 C 
ATOM     22  C   UNL A   1      26.950  28.672  23.233  1.00  0.00     0.016 C 
ATOM     23  C   UNL A   1      27.488  31.104  23.393  1.00  0.00     0.016 C 
ENDBRANCH  18  21
ENDBRANCH  13  15
ENDBRANCH  10  13
ENDBRANCH   4   6
ENDBRANCH   3   4
ENDBRANCH   2   3
ENDBRANCH   1   2
BRANCH   1  24
ATOM     24  O   UNL A   1      35.319  22.580  24.967  1.00  0.00    -0.374 OA
BRANCH  24  25
ATOM     25  C   UNL A   1      35.892  21.532  25.746  1.00  0.00     0.202 C 
BRANCH  25  26
ATOM     26  C   UNL A   1      37.089  20.870  25.067  1.00  0.00     0.261 C 
BRANCH  26  27
ATOM     27  O   UNL A   1      38.167  21.799  25.057  1.00  0.00    -0.460 OA
BRANCH  27  28
ATOM     28  C   UNL A   1      39.104  21.495  25.982  1.00  0.00     0.338 C 
ATOM     29  O   UNL A   1      39.670  20.428  26.139  1.00  0.00    -0.246 OA
BRANCH  28  30
ATOM     30  C   UNL A   1      39.506  22.761  26.615  1.00  0.00     0.060 A 
ATOM     31  C   UNL A   1      38.728  23.894  26.352  1.00  0.00     0.016 A 
ATOM     32  C   UNL A   1      40.604  22.822  27.482  1.00  0.00     0.016 A 
ATOM     33  C   UNL A   1      39.104  25.119  26.884  1.00  0.00     0.010 A 
ATOM     34  C   UNL A   1      40.971  24.042  28.027  1.00  0.00     0.010 A 
ATOM     35  C   UNL A   1      40.255  25.197  27.675  1.00  0.00    -0.014 A 
BRANCH  35  36
ATOM     36  C   UNL A   1      40.873  26.505  27.938  1.00  0.00     0.031 A 
ATOM     37  C   UNL A   1      42.241  26.751  27.371  1.00  0.00     0.074 A 
ATOM     38  C   UNL A   1      40.235  27.419  28.683  1.00  0.00     0.049 A 
ATOM     39  N   UNL A   1      43.030  27.779  27.526  1.00  0.00    -0.248 NA
ATOM     40  C   UNL A   1      42.805  25.678  26.529  1.00  0.00     0.031 C 
ATOM     41  C   UNL A   1      38.900  27.263  29.259  1.00  0.00     0.029 A 
ATOM     42  N   UNL A   1      40.643  28.658  29.094  1.00  0.00    -0.354 N 
ATOM     43  C   UNL A   1      44.182  27.473  26.814  1.00  0.00     0.074 A 
ATOM     44  C   UNL A   1      44.012  26.150  26.261  1.00  0.00     0.031 C 
ATOM     45  C   UNL A   1      38.602  28.368  29.963  1.00  0.00     0.029 A 
ATOM     46  C   UNL A   1      39.734  29.287  29.907  1.00  0.00     0.049 A 
ATOM     47  H   UNL A   1      41.502  29.059  28.832  1.00  0.00     0.167 HD
ATOM     48  C   UNL A   1      45.281  28.238  26.629  1.00  0.00     0.031 A 
ATOM     49  C   UNL A   1      39.829  30.467  30.544  1.00  0.00     0.031 A 
ATOM     50  C   UNL A   1      45.435  29.546  27.202  1.00  0.00     0.049 A 
ATOM     51  C   UNL A   1      41.081  31.283  30.359  1.00  0.00     0.074 A 
ATOM     52  C   UNL A   1      46.492  30.427  27.077  1.00  0.00     0.029 A 
ATOM     53  N   UNL A   1      44.493  30.154  28.019  1.00  0.00    -0.354 N 
ATOM     54  N   UNL A   1      42.153  31.004  29.655  1.00  0.00    -0.248 NA
ATOM     55  C   UNL A   1      41.130  32.579  31.047  1.00  0.00     0.031 C 
ATOM     56  C   UNL A   1      46.207  31.552  27.859  1.00  0.00     0.029 A 
ATOM     57  C   UNL A   1      44.950  31.394  28.423  1.00  0.00     0.049 A 
ATOM     58  H   UNL A   1      43.626  29.761  28.272  1.00  0.00     0.167 HD
ATOM     59  C   UNL A   1      42.992  32.101  29.791  1.00  0.00     0.074 A 
ATOM     60  C   UNL A   1      42.297  33.054  30.634  1.00  0.00     0.031 C 
ATOM     61  C   UNL A   1      44.226  32.310  29.267  1.00  0.00     0.031 A 
BRANCH  48  62
ATOM     62  C   UNL A   1      46.396  27.657  25.806  1.00  0.00    -0.014 A 
ATOM     63  C   UNL A   1      46.542  27.978  24.445  1.00  0.00     0.009 A 
ATOM     64  C   UNL A   1      47.312  26.772  26.393  1.00  0.00     0.009 A 
ATOM     65  C   UNL A   1      47.558  27.396  23.683  1.00  0.00     0.001 A 
ATOM     66  C   UNL A   1      48.344  26.213  25.638  1.00  0.00     0.001 A 
ATOM     67  C   UNL A   1      48.460  26.518  24.282  1.00  0.00     0.000 A 
ENDBRANCH  48  62
BRANCH  49  68
ATOM     68  C   UNL A   1      38.715  30.939  31.403  1.00  0.00    -0.014 A 
ATOM     69  C   UNL A   1      38.734  30.712  32.786  1.00  0.00     0.009 A 
ATOM     70  C   UNL A   1      37.630  31.634  30.845  1.00  0.00     0.009 A 
ATOM     71  C   UNL A   1      37.679  31.150  33.591  1.00  0.00     0.001 A 
ATOM     72  C   UNL A   1      36.590  32.095  31.655  1.00  0.00     0.001 A 
ATOM     73  C   UNL A   1      36.611  31.845  33.026  1.00  0.00     0.000 A 
ENDBRANCH  49  68
BRANCH  61  74
ATOM     74  C   UNL A   1      44.877  33.629  29.568  1.00  0.00    -0.014 A 
ATOM     75  C   UNL A   1      44.666  34.748  28.750  1.00  0.00     0.009 A 
ATOM     76  C   UNL A   1      45.675  33.758  30.715  1.00  0.00     0.009 A 
ATOM     77  C   UNL A   1      45.272  35.968  29.059  1.00  0.00     0.001 A 
ATOM     78  C   UNL A   1      46.253  34.985  31.038  1.00  0.00     0.001 A 
ATOM     79  C   UNL A   1      46.059  36.086  30.205  1.00  0.00     0.000 A 
ENDBRANCH  61  74
ENDBRANCH  35  36
ENDBRANCH  28  30
ENDBRANCH  27  28
ENDBRANCH  26  27
ENDBRANCH  25  26
ENDBRANCH  24  25
ENDBRANCH   1  24
TORSDOF 18
ENDMDL
MODEL 3
REMARK VINA RESULT:     -10.3      3.547      8.061
REMARK SMILES CO[C@@H]1C[C@@H](C(=O)OCCOCCOC(=O)c2ccc(-c3c4nc(c(-c5ccccc5)c5ccc([nH]5)c(-c5ccccc5)c5nc(c(-c6ccccc6)c6ccc3[nH]6)C=C5)C=C4)cc2)N(C(=O)c2nc(C(C)C)n[nH]2)C1
REMARK SMILES IDX 10 1 9 2 8 3 6 4 7 5 5 6 3 7 4 8 76 9 65 10 2 11 1 12 66 13
REMARK SMILES IDX 67 14 68 15 69 16 75 17 70 18 74 19 71 21 72 22 73 23 11 24
REMARK SMILES IDX 12 25 13 26 14 27 15 28 16 29 17 30 18 31 64 32 19 33 63 34
REMARK SMILES IDX 20 35 21 36 22 37 57 38 23 39 62 40 56 41 58 42 24 43 61 44
REMARK SMILES IDX 55 45 54 46 25 48 47 49 32 50 46 51 33 52 36 53 45 54 59 55
REMARK SMILES IDX 34 56 35 57 44 59 60 60 37 61 26 62 27 63 31 64 28 65 30 66
REMARK SMILES IDX 29 67 48 68 49 69 53 70 50 71 52 72 51 73 38 74 39 75 43 76
REMARK SMILES IDX 40 77 42 78 41 79
REMARK H PARENT 75 20 58 47 36 58
REMARK Flexibility Score: inf
ROOT
ATOM      1  C   UNL A   1      39.529  22.125  26.149  1.00  0.00     0.202 C 
ENDROOT
BRANCH   1   2
ATOM      2  C   UNL A   1      38.107  21.808  25.666  1.00  0.00     0.261 C 
BRANCH   2   3
ATOM      3  O   UNL A   1      37.407  23.013  25.324  1.00  0.00    -0.462 OA
BRANCH   3   4
ATOM      4  C   UNL A   1      36.513  22.934  24.289  1.00  0.00     0.329 C 
ATOM      5  O   UNL A   1      36.800  22.557  23.164  1.00  0.00    -0.250 OA
BRANCH   4   6
ATOM      6  C   UNL A   1      35.116  23.423  24.735  1.00  0.00     0.198 C 
ATOM      7  C   UNL A   1      33.713  25.180  25.543  1.00  0.00     0.140 C 
ATOM      8  C   UNL A   1      35.186  24.831  25.369  1.00  0.00     0.071 C 
ATOM      9  C   UNL A   1      33.138  23.838  26.031  1.00  0.00     0.153 C 
ATOM     10  N   UNL A   1      34.120  22.806  25.643  1.00  0.00    -0.319 N 
BRANCH   7  11
ATOM     11  O   UNL A   1      33.050  25.548  24.331  1.00  0.00    -0.380 OA
ATOM     12  C   UNL A   1      32.212  26.691  24.413  1.00  0.00     0.195 C 
ENDBRANCH   7  11
BRANCH  10  13
ATOM     13  C   UNL A   1      34.068  21.607  26.349  1.00  0.00     0.292 C 
ATOM     14  O   UNL A   1      34.404  21.616  27.540  1.00  0.00    -0.265 OA
BRANCH  13  15
ATOM     15  C   UNL A   1      33.786  20.330  25.746  1.00  0.00     0.214 A 
ATOM     16  N   UNL A   1      34.366  19.704  24.743  1.00  0.00    -0.207 NA
ATOM     17  N   UNL A   1      32.656  19.643  26.086  1.00  0.00    -0.255 N 
ATOM     18  C   UNL A   1      33.540  18.615  24.526  1.00  0.00     0.153 A 
ATOM     19  N   UNL A   1      32.524  18.516  25.391  1.00  0.00    -0.158 NA
ATOM     20  H   UNL A   1      32.012  19.947  26.766  1.00  0.00     0.192 HD
BRANCH  18  21
ATOM     21  C   UNL A   1      33.663  17.662  23.373  1.00  0.00     0.053 C 
ATOM     22  C   UNL A   1      33.751  16.207  23.868  1.00  0.00     0.016 C 
ATOM     23  C   UNL A   1      32.501  17.780  22.387  1.00  0.00     0.016 C 
ENDBRANCH  18  21
ENDBRANCH  13  15
ENDBRANCH  10  13
ENDBRANCH   4   6
ENDBRANCH   3   4
ENDBRANCH   2   3
ENDBRANCH   1   2
BRANCH   1  24
ATOM     24  O   UNL A   1      40.581  21.363  25.547  1.00  0.00    -0.374 OA
BRANCH  24  25
ATOM     25  C   UNL A   1      41.793  21.336  26.298  1.00  0.00     0.202 C 
BRANCH  25  26
ATOM     26  C   UNL A   1      42.983  21.909  25.531  1.00  0.00     0.261 C 
BRANCH  26  27
ATOM     27  O   UNL A   1      42.608  23.179  25.010  1.00  0.00    -0.460 OA
BRANCH  27  28
ATOM     28  C   UNL A   1      43.513  24.137  25.312  1.00  0.00     0.338 C 
ATOM     29  O   UNL A   1      44.619  24.289  24.824  1.00  0.00    -0.246 OA
BRANCH  28  30
ATOM     30  C   UNL A   1      42.827  25.120  26.165  1.00  0.00     0.060 A 
ATOM     31  C   UNL A   1      43.318  26.430  26.169  1.00  0.00     0.016 A 
ATOM     32  C   UNL A   1      41.698  24.768  26.914  1.00  0.00     0.016 A 
ATOM     33  C   UNL A   1      42.736  27.376  27.000  1.00  0.00     0.010 A 
ATOM     34  C   UNL A   1      41.106  25.716  27.734  1.00  0.00     0.010 A 
ATOM     35  C   UNL A   1      41.666  26.999  27.820  1.00  0.00    -0.014 A 
BRANCH  35  36
ATOM     36  C   UNL A   1      41.280  27.852  28.953  1.00  0.00     0.031 A 
ATOM     37  C   UNL A   1      42.047  27.691  30.234  1.00  0.00     0.074 A 
ATOM     38  C   UNL A   1      40.259  28.714  28.837  1.00  0.00     0.049 A 
ATOM     39  N   UNL A   1      41.853  28.259  31.393  1.00  0.00    -0.248 NA
ATOM     40  C   UNL A   1      43.177  26.743  30.207  1.00  0.00     0.031 C 
ATOM     41  C   UNL A   1      39.473  28.939  27.625  1.00  0.00     0.029 A 
ATOM     42  N   UNL A   1      39.703  29.548  29.767  1.00  0.00    -0.354 N 
ATOM     43  C   UNL A   1      42.824  27.729  32.232  1.00  0.00     0.074 A 
ATOM     44  C   UNL A   1      43.581  26.766  31.467  1.00  0.00     0.031 C 
ATOM     45  C   UNL A   1      38.522  29.850  27.891  1.00  0.00     0.029 A 
ATOM     46  C   UNL A   1      38.620  30.243  29.293  1.00  0.00     0.049 A 
ATOM     47  H   UNL A   1      40.045  29.641  30.684  1.00  0.00     0.167 HD
ATOM     48  C   UNL A   1      43.070  28.032  33.527  1.00  0.00     0.031 A 
ATOM     49  C   UNL A   1      37.795  31.087  29.939  1.00  0.00     0.031 A 
ATOM     50  C   UNL A   1      42.294  28.983  34.272  1.00  0.00     0.049 A 
ATOM     51  C   UNL A   1      38.060  31.376  31.392  1.00  0.00     0.074 A 
ATOM     52  C   UNL A   1      42.450  29.390  35.583  1.00  0.00     0.029 A 
ATOM     53  N   UNL A   1      41.204  29.672  33.760  1.00  0.00    -0.354 N 
ATOM     54  N   UNL A   1      39.003  30.900  32.171  1.00  0.00    -0.248 NA
ATOM     55  C   UNL A   1      37.156  32.327  32.050  1.00  0.00     0.031 C 
ATOM     56  C   UNL A   1      41.422  30.293  35.878  1.00  0.00     0.029 A 
ATOM     57  C   UNL A   1      40.664  30.490  34.734  1.00  0.00     0.049 A 
ATOM     58  H   UNL A   1      40.866  29.592  32.839  1.00  0.00     0.167 HD
ATOM     59  C   UNL A   1      38.824  31.514  33.403  1.00  0.00     0.074 A 
ATOM     60  C   UNL A   1      37.691  32.407  33.261  1.00  0.00     0.031 C 
ATOM     61  C   UNL A   1      39.531  31.361  34.551  1.00  0.00     0.031 A 
BRANCH  48  62
ATOM     62  C   UNL A   1      44.195  27.303  34.205  1.00  0.00    -0.014 A 
ATOM     63  C   UNL A   1      45.488  27.851  34.268  1.00  0.00     0.009 A 
ATOM     64  C   UNL A   1      43.964  26.048  34.787  1.00  0.00     0.009 A 
ATOM     65  C   UNL A   1      46.531  27.141  34.864  1.00  0.00     0.001 A 
ATOM     66  C   UNL A   1      45.003  25.351  35.408  1.00  0.00     0.001 A 
ATOM     67  C   UNL A   1      46.287  25.894  35.438  1.00  0.00     0.000 A 
ENDBRANCH  48  62
BRANCH  49  68
ATOM     68  C   UNL A   1      36.657  31.710  29.218  1.00  0.00    -0.014 A 
ATOM     69  C   UNL A   1      35.453  31.014  29.047  1.00  0.00     0.009 A 
ATOM     70  C   UNL A   1      36.765  33.015  28.709  1.00  0.00     0.009 A 
ATOM     71  C   UNL A   1      34.387  31.601  28.361  1.00  0.00     0.001 A 
ATOM     72  C   UNL A   1      35.688  33.609  28.047  1.00  0.00     0.001 A 
ATOM     73  C   UNL A   1      34.503  32.899  27.866  1.00  0.00     0.000 A 
ENDBRANCH  49  68
BRANCH  61  74
ATOM     74  C   UNL A   1      39.112  32.201  35.723  1.00  0.00    -0.014 A 
ATOM     75  C   UNL A   1      39.565  33.519  35.872  1.00  0.00     0.009 A 
ATOM     76  C   UNL A   1      38.214  31.674  36.663  1.00  0.00     0.009 A 
ATOM     77  C   UNL A   1      39.150  34.285  36.963  1.00  0.00     0.001 A 
ATOM     78  C   UNL A   1      37.776  32.451  37.735  1.00  0.00     0.001 A 
ATOM     79  C   UNL A   1      38.253  33.753  37.889  1.00  0.00     0.000 A 
ENDBRANCH  61  74
ENDBRANCH  35  36
ENDBRANCH  28  30
ENDBRANCH  27  28
ENDBRANCH  26  27
ENDBRANCH  25  26
ENDBRANCH  24  25
ENDBRANCH   1  24
TORSDOF 18
ENDMDL
