MODEL 1
REMARK VINA RESULT:     -10.1      0.000      0.000
REMARK SMILES CCCc1cc(OCC(=O)OCCOCCOC(=O)c2ccc(-c3c4nc(c(-c5ccccc5)c5ccc([nH]5)c(-c5ccccc5)c5nc(c(-c6ccccc6)c6ccc3[nH]6)C=C5)C=C4)cc2)nc(Nc2ccc(C#N)cc2)n1
REMARK SMILES IDX 12 1 11 2 9 3 10 4 8 5 7 6 6 7 4 8 5 9 79 10 69 11 68 12
REMARK SMILES IDX 3 13 2 14 1 15 70 16 71 18 72 19 78 20 73 21 77 22 74 23
REMARK SMILES IDX 75 24 76 25 13 26 14 27 15 28 16 29 17 30 18 31 19 32 20 33
REMARK SMILES IDX 21 34 67 35 22 36 66 37 23 38 24 39 25 40 60 41 26 42 65 43
REMARK SMILES IDX 59 44 61 45 27 46 64 47 58 48 57 49 28 51 50 52 35 53 49 54
REMARK SMILES IDX 36 55 39 56 48 57 62 58 37 59 38 60 47 62 63 63 40 64 29 65
REMARK SMILES IDX 30 66 34 67 31 68 33 69 32 70 51 71 52 72 56 73 53 74 55 75
REMARK SMILES IDX 54 76 41 77 42 78 46 79 43 80 45 81 44 82
REMARK H PARENT 70 17 61 50 39 61
REMARK Flexibility Score: inf
ROOT
ATOM      1  C   UNL A   1      40.338  20.621  26.306  1.00  0.00     0.261 C 
ENDROOT
BRANCH   1   2
ATOM      2  O   UNL A   1      40.155  21.936  26.884  1.00  0.00    -0.461 OA
BRANCH   2   3
ATOM      3  C   UNL A   1      39.152  22.681  26.338  1.00  0.00     0.344 C 
ATOM      4  O   UNL A   1      39.058  23.901  26.448  1.00  0.00    -0.248 OA
BRANCH   3   5
ATOM      5  C   UNL A   1      38.105  21.871  25.557  1.00  0.00     0.353 C 
BRANCH   5   6
ATOM      6  O   UNL A   1      37.158  22.466  24.698  1.00  0.00    -0.466 OA
BRANCH   6   7
ATOM      7  C   UNL A   1      35.845  22.600  25.049  1.00  0.00     0.218 A 
ATOM      8  C   UNL A   1      33.920  23.805  25.663  1.00  0.00     0.050 A 
ATOM      9  C   UNL A   1      35.297  23.654  25.760  1.00  0.00     0.092 A 
ATOM     10  N   UNL A   1      33.167  22.893  25.033  1.00  0.00    -0.218 NA
ATOM     11  C   UNL A   1      33.759  21.840  24.451  1.00  0.00     0.230 A 
ATOM     12  N   UNL A   1      35.083  21.666  24.444  1.00  0.00    -0.177 NA
BRANCH   8  13
ATOM     13  C   UNL A   1      33.202  25.046  26.159  1.00  0.00     0.056 C 
BRANCH  13  14
ATOM     14  C   UNL A   1      33.854  26.410  25.832  1.00  0.00     0.003 C 
ATOM     15  C   UNL A   1      32.909  27.596  25.720  1.00  0.00     0.004 C 
ENDBRANCH  13  14
ENDBRANCH   8  13
BRANCH  11  16
ATOM     16  N   UNL A   1      32.969  20.907  23.782  1.00  0.00    -0.324 N 
ATOM     17  H   UNL A   1      32.463  21.229  23.000  1.00  0.00     0.170 HD
BRANCH  16  18
ATOM     18  C   UNL A   1      32.830  19.558  24.118  1.00  0.00     0.041 A 
ATOM     19  C   UNL A   1      32.805  18.576  23.126  1.00  0.00     0.027 A 
ATOM     20  C   UNL A   1      32.796  19.161  25.463  1.00  0.00     0.027 A 
ATOM     21  C   UNL A   1      32.848  17.219  23.470  1.00  0.00     0.021 A 
ATOM     22  C   UNL A   1      32.823  17.808  25.813  1.00  0.00     0.021 A 
ATOM     23  C   UNL A   1      32.882  16.833  24.815  1.00  0.00     0.052 A 
BRANCH  23  24
ATOM     24  C   UNL A   1      33.023  15.452  25.166  1.00  0.00     0.099 C 
ATOM     25  N   UNL A   1      33.123  14.332  25.466  1.00  0.00    -0.192 NA
ENDBRANCH  23  24
ENDBRANCH  16  18
ENDBRANCH  11  16
ENDBRANCH   6   7
ENDBRANCH   5   6
ENDBRANCH   3   5
ENDBRANCH   2   3
ENDBRANCH   1   2
BRANCH   1  26
ATOM     26  C   UNL A   1      41.730  20.008  26.516  1.00  0.00     0.202 C 
BRANCH  26  27
ATOM     27  O   UNL A   1      42.665  20.016  25.444  1.00  0.00    -0.374 OA
BRANCH  27  28
ATOM     28  C   UNL A   1      43.721  20.958  25.488  1.00  0.00     0.202 C 
BRANCH  28  29
ATOM     29  C   UNL A   1      43.652  22.213  24.614  1.00  0.00     0.261 C 
BRANCH  29  30
ATOM     30  O   UNL A   1      43.129  23.370  25.218  1.00  0.00    -0.460 OA
BRANCH  30  31
ATOM     31  C   UNL A   1      44.037  24.360  25.288  1.00  0.00     0.338 C 
ATOM     32  O   UNL A   1      44.910  24.676  24.503  1.00  0.00    -0.246 OA
BRANCH  31  33
ATOM     33  C   UNL A   1      43.698  25.097  26.486  1.00  0.00     0.060 A 
ATOM     34  C   UNL A   1      42.819  24.486  27.376  1.00  0.00     0.016 A 
ATOM     35  C   UNL A   1      44.259  26.358  26.707  1.00  0.00     0.016 A 
ATOM     36  C   UNL A   1      42.423  25.189  28.491  1.00  0.00     0.010 A 
ATOM     37  C   UNL A   1      43.868  27.057  27.834  1.00  0.00     0.010 A 
ATOM     38  C   UNL A   1      42.916  26.487  28.694  1.00  0.00    -0.014 A 
BRANCH  38  39
ATOM     39  C   UNL A   1      42.302  27.303  29.745  1.00  0.00     0.031 A 
ATOM     40  C   UNL A   1      42.997  27.399  31.067  1.00  0.00     0.074 A 
ATOM     41  C   UNL A   1      41.181  27.982  29.463  1.00  0.00     0.049 A 
ATOM     42  N   UNL A   1      42.654  28.084  32.124  1.00  0.00    -0.248 NA
ATOM     43  C   UNL A   1      44.240  26.623  31.227  1.00  0.00     0.031 C 
ATOM     44  C   UNL A   1      40.480  27.964  28.178  1.00  0.00     0.029 A 
ATOM     45  N   UNL A   1      40.446  28.830  30.241  1.00  0.00    -0.354 N 
ATOM     46  C   UNL A   1      43.624  27.804  33.077  1.00  0.00     0.074 A 
ATOM     47  C   UNL A   1      44.554  26.870  32.490  1.00  0.00     0.031 C 
ATOM     48  C   UNL A   1      39.421  28.786  28.250  1.00  0.00     0.029 A 
ATOM     49  C   UNL A   1      39.348  29.339  29.597  1.00  0.00     0.049 A 
ATOM     50  H   UNL A   1      40.682  29.054  31.169  1.00  0.00     0.167 HD
ATOM     51  C   UNL A   1      43.718  28.294  34.333  1.00  0.00     0.031 A 
ATOM     52  C   UNL A   1      38.383  30.149  30.068  1.00  0.00     0.031 A 
ATOM     53  C   UNL A   1      42.772  29.222  34.889  1.00  0.00     0.049 A 
ATOM     54  C   UNL A   1      38.485  30.617  31.493  1.00  0.00     0.074 A 
ATOM     55  C   UNL A   1      42.781  29.815  36.137  1.00  0.00     0.029 A 
ATOM     56  N   UNL A   1      41.639  29.680  34.230  1.00  0.00    -0.354 N 
ATOM     57  N   UNL A   1      39.429  30.389  32.375  1.00  0.00    -0.248 NA
ATOM     58  C   UNL A   1      37.390  31.463  31.984  1.00  0.00     0.031 C 
ATOM     59  C   UNL A   1      41.610  30.566  36.265  1.00  0.00     0.029 A 
ATOM     60  C   UNL A   1      40.917  30.514  35.065  1.00  0.00     0.049 A 
ATOM     61  H   UNL A   1      41.387  29.446  33.307  1.00  0.00     0.167 HD
ATOM     62  C   UNL A   1      39.061  31.093  33.514  1.00  0.00     0.074 A 
ATOM     63  C   UNL A   1      37.819  31.771  33.198  1.00  0.00     0.031 C 
ATOM     64  C   UNL A   1      39.686  31.175  34.715  1.00  0.00     0.031 A 
BRANCH  51  65
ATOM     65  C   UNL A   1      44.840  27.800  35.200  1.00  0.00    -0.014 A 
ATOM     66  C   UNL A   1      46.088  28.442  35.237  1.00  0.00     0.009 A 
ATOM     67  C   UNL A   1      44.622  26.693  36.036  1.00  0.00     0.009 A 
ATOM     68  C   UNL A   1      47.098  27.972  36.080  1.00  0.00     0.001 A 
ATOM     69  C   UNL A   1      45.621  26.246  36.899  1.00  0.00     0.001 A 
ATOM     70  C   UNL A   1      46.861  26.882  36.916  1.00  0.00     0.000 A 
ENDBRANCH  51  65
BRANCH  52  71
ATOM     71  C   UNL A   1      37.240  30.541  29.204  1.00  0.00    -0.014 A 
ATOM     72  C   UNL A   1      37.127  31.850  28.715  1.00  0.00     0.009 A 
ATOM     73  C   UNL A   1      36.233  29.612  28.895  1.00  0.00     0.009 A 
ATOM     74  C   UNL A   1      36.005  32.235  27.978  1.00  0.00     0.001 A 
ATOM     75  C   UNL A   1      35.132  29.989  28.124  1.00  0.00     0.001 A 
ATOM     76  C   UNL A   1      35.010  31.304  27.682  1.00  0.00     0.000 A 
ENDBRANCH  52  71
BRANCH  64  77
ATOM     77  C   UNL A   1      39.061  32.069  35.749  1.00  0.00    -0.014 A 
ATOM     78  C   UNL A   1      38.165  31.572  36.706  1.00  0.00     0.009 A 
ATOM     79  C   UNL A   1      39.409  33.429  35.781  1.00  0.00     0.009 A 
ATOM     80  C   UNL A   1      37.594  32.430  37.647  1.00  0.00     0.001 A 
ATOM     81  C   UNL A   1      38.869  34.275  36.748  1.00  0.00     0.001 A 
ATOM     82  C   UNL A   1      37.952  33.777  37.672  1.00  0.00     0.000 A 
ENDBRANCH  64  77
ENDBRANCH  38  39
ENDBRANCH  31  33
ENDBRANCH  30  31
ENDBRANCH  29  30
ENDBRANCH  28  29
ENDBRANCH  27  28
ENDBRANCH  26  27
ENDBRANCH   1  26
TORSDOF 21
ENDMDL
MODEL 2
REMARK VINA RESULT:     -10.1      4.113      8.042
REMARK SMILES CCCc1cc(OCC(=O)OCCOCCOC(=O)c2ccc(-c3c4nc(c(-c5ccccc5)c5ccc([nH]5)c(-c5ccccc5)c5nc(c(-c6ccccc6)c6ccc3[nH]6)C=C5)C=C4)cc2)nc(Nc2ccc(C#N)cc2)n1
REMARK SMILES IDX 12 1 11 2 9 3 10 4 8 5 7 6 6 7 4 8 5 9 79 10 69 11 68 12
REMARK SMILES IDX 3 13 2 14 1 15 70 16 71 18 72 19 78 20 73 21 77 22 74 23
REMARK SMILES IDX 75 24 76 25 13 26 14 27 15 28 16 29 17 30 18 31 19 32 20 33
REMARK SMILES IDX 21 34 67 35 22 36 66 37 23 38 24 39 25 40 60 41 26 42 65 43
REMARK SMILES IDX 59 44 61 45 27 46 64 47 58 48 57 49 28 51 50 52 35 53 49 54
REMARK SMILES IDX 36 55 39 56 48 57 62 58 37 59 38 60 47 62 63 63 40 64 29 65
REMARK SMILES IDX 30 66 34 67 31 68 33 69 32 70 51 71 52 72 56 73 53 74 55 75
REMARK SMILES IDX 54 76 41 77 42 78 46 79 43 80 45 81 44 82
REMARK H PARENT 70 17 61 50 39 61
REMARK Flexibility Score: inf
ROOT
ATOM      1  C   UNL A   1      32.858  22.621  24.743  1.00  0.00     0.261 C 
ENDROOT
BRANCH   1   2
ATOM      2  O   UNL A   1      32.141  21.934  25.797  1.00  0.00    -0.461 OA
BRANCH   2   3
ATOM      3  C   UNL A   1      31.743  22.716  26.840  1.00  0.00     0.344 C 
ATOM      4  O   UNL A   1      32.366  22.836  27.892  1.00  0.00    -0.248 OA
BRANCH   3   5
ATOM      5  C   UNL A   1      30.415  23.457  26.615  1.00  0.00     0.353 C 
BRANCH   5   6
ATOM      6  O   UNL A   1      30.302  24.862  26.664  1.00  0.00    -0.466 OA
BRANCH   6   7
ATOM      7  C   UNL A   1      30.956  25.673  25.781  1.00  0.00     0.218 A 
ATOM      8  C   UNL A   1      31.094  27.273  24.062  1.00  0.00     0.050 A 
ATOM      9  C   UNL A   1      30.440  26.171  24.598  1.00  0.00     0.092 A 
ATOM     10  N   UNL A   1      32.239  27.724  24.594  1.00  0.00    -0.218 NA
ATOM     11  C   UNL A   1      32.737  27.125  25.686  1.00  0.00     0.230 A 
ATOM     12  N   UNL A   1      32.126  26.105  26.295  1.00  0.00    -0.177 NA
BRANCH   8  13
ATOM     13  C   UNL A   1      30.509  28.093  22.929  1.00  0.00     0.056 C 
BRANCH  13  14
ATOM     14  C   UNL A   1      29.211  28.880  23.229  1.00  0.00     0.003 C 
ATOM     15  C   UNL A   1      29.372  30.371  23.480  1.00  0.00     0.004 C 
ENDBRANCH  13  14
ENDBRANCH   8  13
BRANCH  11  16
ATOM     16  N   UNL A   1      33.918  27.613  26.242  1.00  0.00    -0.324 N 
ATOM     17  H   UNL A   1      34.706  27.025  26.203  1.00  0.00     0.170 HD
BRANCH  16  18
ATOM     18  C   UNL A   1      34.084  28.860  26.850  1.00  0.00     0.041 A 
ATOM     19  C   UNL A   1      35.335  29.258  27.327  1.00  0.00     0.027 A 
ATOM     20  C   UNL A   1      33.016  29.766  26.917  1.00  0.00     0.027 A 
ATOM     21  C   UNL A   1      35.540  30.571  27.769  1.00  0.00     0.021 A 
ATOM     22  C   UNL A   1      33.211  31.074  27.372  1.00  0.00     0.021 A 
ATOM     23  C   UNL A   1      34.484  31.488  27.769  1.00  0.00     0.052 A 
BRANCH  23  24
ATOM     24  C   UNL A   1      34.715  32.855  28.130  1.00  0.00     0.099 C 
ATOM     25  N   UNL A   1      34.898  33.971  28.404  1.00  0.00    -0.192 NA
ENDBRANCH  23  24
ENDBRANCH  16  18
ENDBRANCH  11  16
ENDBRANCH   6   7
ENDBRANCH   5   6
ENDBRANCH   3   5
ENDBRANCH   2   3
ENDBRANCH   1   2
BRANCH   1  26
ATOM     26  C   UNL A   1      34.388  22.502  24.815  1.00  0.00     0.202 C 
BRANCH  26  27
ATOM     27  O   UNL A   1      34.970  21.477  25.611  1.00  0.00    -0.374 OA
BRANCH  27  28
ATOM     28  C   UNL A   1      35.796  20.523  24.968  1.00  0.00     0.202 C 
BRANCH  28  29
ATOM     29  C   UNL A   1      37.317  20.692  25.004  1.00  0.00     0.261 C 
BRANCH  29  30
ATOM     30  O   UNL A   1      37.826  21.593  25.956  1.00  0.00    -0.460 OA
BRANCH  30  31
ATOM     31  C   UNL A   1      39.142  21.418  26.168  1.00  0.00     0.338 C 
ATOM     32  O   UNL A   1      39.859  20.474  25.892  1.00  0.00    -0.246 OA
BRANCH  31  33
ATOM     33  C   UNL A   1      39.606  22.673  26.718  1.00  0.00     0.060 A 
ATOM     34  C   UNL A   1      39.014  23.834  26.228  1.00  0.00     0.016 A 
ATOM     35  C   UNL A   1      40.598  22.676  27.701  1.00  0.00     0.016 A 
ATOM     36  C   UNL A   1      39.481  25.047  26.680  1.00  0.00     0.010 A 
ATOM     37  C   UNL A   1      41.057  23.896  28.161  1.00  0.00     0.010 A 
ATOM     38  C   UNL A   1      40.528  25.074  27.613  1.00  0.00    -0.014 A 
BRANCH  38  39
ATOM     39  C   UNL A   1      41.169  26.361  27.895  1.00  0.00     0.031 A 
ATOM     40  C   UNL A   1      42.509  26.637  27.288  1.00  0.00     0.074 A 
ATOM     41  C   UNL A   1      40.505  27.266  28.629  1.00  0.00     0.049 A 
ATOM     42  N   UNL A   1      43.242  27.713  27.377  1.00  0.00    -0.248 NA
ATOM     43  C   UNL A   1      43.109  25.563  26.476  1.00  0.00     0.031 C 
ATOM     44  C   UNL A   1      39.176  27.072  29.212  1.00  0.00     0.029 A 
ATOM     45  N   UNL A   1      40.857  28.533  28.996  1.00  0.00    -0.354 N 
ATOM     46  C   UNL A   1      44.394  27.438  26.653  1.00  0.00     0.074 A 
ATOM     47  C   UNL A   1      44.281  26.088  26.153  1.00  0.00     0.031 C 
ATOM     48  C   UNL A   1      38.814  28.198  29.850  1.00  0.00     0.029 A 
ATOM     49  C   UNL A   1      39.907  29.159  29.760  1.00  0.00     0.049 A 
ATOM     50  H   UNL A   1      41.708  28.954  28.736  1.00  0.00     0.167 HD
ATOM     51  C   UNL A   1      45.449  28.252  26.432  1.00  0.00     0.031 A 
ATOM     52  C   UNL A   1      39.941  30.373  30.336  1.00  0.00     0.031 A 
ATOM     53  C   UNL A   1      45.532  29.591  26.947  1.00  0.00     0.049 A 
ATOM     54  C   UNL A   1      41.162  31.223  30.125  1.00  0.00     0.074 A 
ATOM     55  C   UNL A   1      46.535  30.523  26.762  1.00  0.00     0.029 A 
ATOM     56  N   UNL A   1      44.576  30.181  27.763  1.00  0.00    -0.354 N 
ATOM     57  N   UNL A   1      42.228  30.978  29.400  1.00  0.00    -0.248 NA
ATOM     58  C   UNL A   1      41.181  32.523  30.807  1.00  0.00     0.031 C 
ATOM     59  C   UNL A   1      46.226  31.646  27.533  1.00  0.00     0.029 A 
ATOM     60  C   UNL A   1      44.988  31.449  28.126  1.00  0.00     0.049 A 
ATOM     61  H   UNL A   1      43.731  29.758  28.041  1.00  0.00     0.167 HD
ATOM     62  C   UNL A   1      43.028  32.108  29.508  1.00  0.00     0.074 A 
ATOM     63  C   UNL A   1      42.310  33.043  30.351  1.00  0.00     0.031 C 
ATOM     64  C   UNL A   1      44.246  32.355  28.964  1.00  0.00     0.031 A 
BRANCH  51  65
ATOM     65  C   UNL A   1      46.610  27.706  25.652  1.00  0.00    -0.014 A 
ATOM     66  C   UNL A   1      47.555  26.844  26.231  1.00  0.00     0.009 A 
ATOM     67  C   UNL A   1      46.730  28.024  24.289  1.00  0.00     0.009 A 
ATOM     68  C   UNL A   1      48.605  26.331  25.466  1.00  0.00     0.001 A 
ATOM     69  C   UNL A   1      47.760  27.485  23.520  1.00  0.00     0.001 A 
ATOM     70  C   UNL A   1      48.701  26.643  24.111  1.00  0.00     0.000 A 
ENDBRANCH  51  65
BRANCH  52  71
ATOM     71  C   UNL A   1      38.809  30.840  31.177  1.00  0.00    -0.014 A 
ATOM     72  C   UNL A   1      38.748  30.517  32.541  1.00  0.00     0.009 A 
ATOM     73  C   UNL A   1      37.760  31.581  30.609  1.00  0.00     0.009 A 
ATOM     74  C   UNL A   1      37.639  30.884  33.305  1.00  0.00     0.001 A 
ATOM     75  C   UNL A   1      36.671  31.980  31.385  1.00  0.00     0.001 A 
ATOM     76  C   UNL A   1      36.603  31.616  32.727  1.00  0.00     0.000 A 
ENDBRANCH  52  71
BRANCH  64  77
ATOM     77  C   UNL A   1      44.845  33.709  29.225  1.00  0.00    -0.014 A 
ATOM     78  C   UNL A   1      44.585  34.802  28.385  1.00  0.00     0.009 A 
ATOM     79  C   UNL A   1      45.657  33.894  30.355  1.00  0.00     0.009 A 
ATOM     80  C   UNL A   1      45.166  36.044  28.648  1.00  0.00     0.001 A 
ATOM     81  C   UNL A   1      46.200  35.146  30.639  1.00  0.00     0.001 A 
ATOM     82  C   UNL A   1      45.965  36.216  29.777  1.00  0.00     0.000 A 
ENDBRANCH  64  77
ENDBRANCH  38  39
ENDBRANCH  31  33
ENDBRANCH  30  31
ENDBRANCH  29  30
ENDBRANCH  28  29
ENDBRANCH  27  28
ENDBRANCH  26  27
ENDBRANCH   1  26
TORSDOF 21
ENDMDL
MODEL 3
REMARK VINA RESULT:     -10.0      4.259      7.955
REMARK SMILES CCCc1cc(OCC(=O)OCCOCCOC(=O)c2ccc(-c3c4nc(c(-c5ccccc5)c5ccc([nH]5)c(-c5ccccc5)c5nc(c(-c6ccccc6)c6ccc3[nH]6)C=C5)C=C4)cc2)nc(Nc2ccc(C#N)cc2)n1
REMARK SMILES IDX 12 1 11 2 9 3 10 4 8 5 7 6 6 7 4 8 5 9 79 10 69 11 68 12
REMARK SMILES IDX 3 13 2 14 1 15 70 16 71 18 72 19 78 20 73 21 77 22 74 23
REMARK SMILES IDX 75 24 76 25 13 26 14 27 15 28 16 29 17 30 18 31 19 32 20 33
REMARK SMILES IDX 21 34 67 35 22 36 66 37 23 38 24 39 25 40 60 41 26 42 65 43
REMARK SMILES IDX 59 44 61 45 27 46 64 47 58 48 57 49 28 51 50 52 35 53 49 54
REMARK SMILES IDX 36 55 39 56 48 57 62 58 37 59 38 60 47 62 63 63 40 64 29 65
REMARK SMILES IDX 30 66 34 67 31 68 33 69 32 70 51 71 52 72 56 73 53 74 55 75
REMARK SMILES IDX 54 76 41 77 42 78 46 79 43 80 45 81 44 82
REMARK H PARENT 70 17 61 50 39 61
REMARK Flexibility Score: inf
ROOT
ATOM      1  C   UNL A   1      33.209  21.997  24.867  1.00  0.00     0.261 C 
ENDROOT
BRANCH   1   2
ATOM      2  O   UNL A   1      32.535  21.417  26.010  1.00  0.00    -0.461 OA
BRANCH   2   3
ATOM      3  C   UNL A   1      32.047  22.310  26.917  1.00  0.00     0.344 C 
ATOM      4  O   UNL A   1      32.616  22.615  27.963  1.00  0.00    -0.248 OA
BRANCH   3   5
ATOM      5  C   UNL A   1      30.690  22.928  26.542  1.00  0.00     0.353 C 
BRANCH   5   6
ATOM      6  O   UNL A   1      30.353  24.269  26.820  1.00  0.00    -0.466 OA
BRANCH   6   7
ATOM      7  C   UNL A   1      30.781  25.301  26.036  1.00  0.00     0.218 A 
ATOM      8  C   UNL A   1      32.349  26.472  24.729  1.00  0.00     0.050 A 
ATOM      9  C   UNL A   1      32.097  25.689  25.849  1.00  0.00     0.092 A 
ATOM     10  N   UNL A   1      31.348  26.934  23.968  1.00  0.00    -0.218 NA
ATOM     11  C   UNL A   1      30.085  26.599  24.270  1.00  0.00     0.230 A 
ATOM     12  N   UNL A   1      29.772  25.794  25.289  1.00  0.00    -0.177 NA
BRANCH   8  13
ATOM     13  C   UNL A   1      33.756  26.758  24.239  1.00  0.00     0.056 C 
BRANCH  13  14
ATOM     14  C   UNL A   1      33.965  28.065  23.437  1.00  0.00     0.003 C 
ATOM     15  C   UNL A   1      33.354  29.323  24.032  1.00  0.00     0.004 C 
ENDBRANCH  13  14
ENDBRANCH   8  13
BRANCH  11  16
ATOM     16  N   UNL A   1      29.051  27.069  23.461  1.00  0.00    -0.324 N 
ATOM     17  H   UNL A   1      28.408  26.403  23.127  1.00  0.00     0.170 HD
BRANCH  16  18
ATOM     18  C   UNL A   1      28.846  28.398  23.082  1.00  0.00     0.041 A 
ATOM     19  C   UNL A   1      29.821  29.092  22.362  1.00  0.00     0.027 A 
ATOM     20  C   UNL A   1      27.623  29.031  23.346  1.00  0.00     0.027 A 
ATOM     21  C   UNL A   1      29.543  30.357  21.829  1.00  0.00     0.021 A 
ATOM     22  C   UNL A   1      27.344  30.300  22.829  1.00  0.00     0.021 A 
ATOM     23  C   UNL A   1      28.295  30.952  22.041  1.00  0.00     0.052 A 
BRANCH  23  24
ATOM     24  C   UNL A   1      27.976  32.201  21.417  1.00  0.00     0.099 C 
ATOM     25  N   UNL A   1      27.729  33.212  20.895  1.00  0.00    -0.192 NA
ENDBRANCH  23  24
ENDBRANCH  16  18
ENDBRANCH  11  16
ENDBRANCH   6   7
ENDBRANCH   5   6
ENDBRANCH   3   5
ENDBRANCH   2   3
ENDBRANCH   1   2
BRANCH   1  26
ATOM     26  C   UNL A   1      34.697  22.313  25.082  1.00  0.00     0.202 C 
BRANCH  26  27
ATOM     27  O   UNL A   1      35.512  21.382  25.784  1.00  0.00    -0.374 OA
BRANCH  27  28
ATOM     28  C   UNL A   1      36.141  20.354  25.040  1.00  0.00     0.202 C 
BRANCH  28  29
ATOM     29  C   UNL A   1      37.669  20.299  24.968  1.00  0.00     0.261 C 
BRANCH  29  30
ATOM     30  O   UNL A   1      38.359  21.445  25.401  1.00  0.00    -0.460 OA
BRANCH  30  31
ATOM     31  C   UNL A   1      39.417  21.139  26.174  1.00  0.00     0.338 C 
ATOM     32  O   UNL A   1      39.983  20.075  26.336  1.00  0.00    -0.246 OA
BRANCH  31  33
ATOM     33  C   UNL A   1      39.856  22.401  26.728  1.00  0.00     0.060 A 
ATOM     34  C   UNL A   1      39.166  23.541  26.326  1.00  0.00     0.016 A 
ATOM     35  C   UNL A   1      40.923  22.429  27.630  1.00  0.00     0.016 A 
ATOM     36  C   UNL A   1      39.603  24.764  26.782  1.00  0.00     0.010 A 
ATOM     37  C   UNL A   1      41.353  23.658  28.093  1.00  0.00     0.010 A 
ATOM     38  C   UNL A   1      40.720  24.821  27.629  1.00  0.00    -0.014 A 
BRANCH  38  39
ATOM     39  C   UNL A   1      41.312  26.133  27.904  1.00  0.00     0.031 A 
ATOM     40  C   UNL A   1      42.616  26.476  27.252  1.00  0.00     0.074 A 
ATOM     41  C   UNL A   1      40.636  26.999  28.672  1.00  0.00     0.049 A 
ATOM     42  N   UNL A   1      43.302  27.582  27.327  1.00  0.00    -0.248 NA
ATOM     43  C   UNL A   1      43.232  25.438  26.405  1.00  0.00     0.031 C 
ATOM     44  C   UNL A   1      39.339  26.740  29.301  1.00  0.00     0.029 A 
ATOM     45  N   UNL A   1      40.945  28.276  29.041  1.00  0.00    -0.354 N 
ATOM     46  C   UNL A   1      44.438  27.367  26.559  1.00  0.00     0.074 A 
ATOM     47  C   UNL A   1      44.367  26.019  26.047  1.00  0.00     0.031 C 
ATOM     48  C   UNL A   1      38.952  27.841  29.964  1.00  0.00     0.029 A 
ATOM     49  C   UNL A   1      39.996  28.851  29.847  1.00  0.00     0.049 A 
ATOM     50  H   UNL A   1      41.766  28.739  28.756  1.00  0.00     0.167 HD
ATOM     51  C   UNL A   1      45.447  28.230  26.309  1.00  0.00     0.031 A 
ATOM     52  C   UNL A   1      39.997  30.059  30.436  1.00  0.00     0.031 A 
ATOM     53  C   UNL A   1      45.489  29.566  26.838  1.00  0.00     0.049 A 
ATOM     54  C   UNL A   1      41.171  30.966  30.192  1.00  0.00     0.074 A 
ATOM     55  C   UNL A   1      46.442  30.544  26.628  1.00  0.00     0.029 A 
ATOM     56  N   UNL A   1      44.538  30.103  27.695  1.00  0.00    -0.354 N 
ATOM     57  N   UNL A   1      42.219  30.777  29.425  1.00  0.00    -0.248 NA
ATOM     58  C   UNL A   1      41.156  32.258  30.888  1.00  0.00     0.031 C 
ATOM     59  C   UNL A   1      46.112  31.644  27.423  1.00  0.00     0.029 A 
ATOM     60  C   UNL A   1      44.907  31.385  28.058  1.00  0.00     0.049 A 
ATOM     61  H   UNL A   1      43.724  29.640  27.998  1.00  0.00     0.167 HD
ATOM     62  C   UNL A   1      42.971  31.940  29.518  1.00  0.00     0.074 A 
ATOM     63  C   UNL A   1      42.243  32.834  30.398  1.00  0.00     0.031 C 
ATOM     64  C   UNL A   1      44.156  32.248  28.934  1.00  0.00     0.031 A 
BRANCH  51  65
ATOM     65  C   UNL A   1      46.602  27.745  25.481  1.00  0.00    -0.014 A 
ATOM     66  C   UNL A   1      46.673  27.976  24.098  1.00  0.00     0.009 A 
ATOM     67  C   UNL A   1      47.667  27.083  26.113  1.00  0.00     0.009 A 
ATOM     68  C   UNL A   1      47.778  27.537  23.364  1.00  0.00     0.001 A 
ATOM     69  C   UNL A   1      48.783  26.674  25.383  1.00  0.00     0.001 A 
ATOM     70  C   UNL A   1      48.835  26.896  24.009  1.00  0.00     0.000 A 
ENDBRANCH  51  65
BRANCH  52  71
ATOM     71  C   UNL A   1      38.877  30.466  31.324  1.00  0.00    -0.014 A 
ATOM     72  C   UNL A   1      37.720  31.055  30.794  1.00  0.00     0.009 A 
ATOM     73  C   UNL A   1      38.977  30.300  32.714  1.00  0.00     0.009 A 
ATOM     74  C   UNL A   1      36.710  31.515  31.641  1.00  0.00     0.001 A 
ATOM     75  C   UNL A   1      37.949  30.725  33.556  1.00  0.00     0.001 A 
ATOM     76  C   UNL A   1      36.824  31.348  33.021  1.00  0.00     0.000 A 
ENDBRANCH  52  71
BRANCH  64  77
ATOM     77  C   UNL A   1      44.704  33.624  29.189  1.00  0.00    -0.014 A 
ATOM     78  C   UNL A   1      44.372  34.711  28.367  1.00  0.00     0.009 A 
ATOM     79  C   UNL A   1      45.540  33.836  30.297  1.00  0.00     0.009 A 
ATOM     80  C   UNL A   1      44.906  35.975  28.624  1.00  0.00     0.001 A 
ATOM     81  C   UNL A   1      46.036  35.108  30.576  1.00  0.00     0.001 A 
ATOM     82  C   UNL A   1      45.730  36.174  29.731  1.00  0.00     0.000 A 
ENDBRANCH  64  77
ENDBRANCH  38  39
ENDBRANCH  31  33
ENDBRANCH  30  31
ENDBRANCH  29  30
ENDBRANCH  28  29
ENDBRANCH  27  28
ENDBRANCH  26  27
ENDBRANCH   1  26
TORSDOF 21
ENDMDL
