MODEL 1
REMARK VINA RESULT:     -10.0      0.000      0.000
REMARK SMILES Nc1nc(N2CCOC[C@H]2C(=O)OCCOCCOC(=O)c2ccc(-c3c4nc(c(-c5ccccc5)c5ccc([nH]5)c(-c5ccccc5)c5nc(c(-c6ccccc6)c6ccc3[nH]6)C=C5)C=C4)cc2)ccc1[N+](=O)[O-]
REMARK SMILES IDX 16 1 15 2 14 3 13 4 11 5 12 6 10 7 5 8 6 9 7 10 9 11 8 12
REMARK SMILES IDX 4 13 2 14 3 15 72 16 71 17 70 18 1 19 73 22 74 23 75 24
REMARK SMILES IDX 17 25 18 26 19 27 20 28 21 29 22 30 23 31 69 32 24 33 68 34
REMARK SMILES IDX 25 35 26 36 27 37 62 38 28 39 67 40 61 41 63 42 29 43 66 44
REMARK SMILES IDX 60 45 59 46 30 48 52 49 37 50 51 51 38 52 41 53 50 54 64 55
REMARK SMILES IDX 39 56 40 57 49 59 65 60 42 61 31 62 32 63 36 64 33 65 35 66
REMARK SMILES IDX 34 67 53 68 54 69 58 70 55 71 57 72 56 73 43 74 44 75 48 76
REMARK SMILES IDX 45 77 47 78 46 79
REMARK H PARENT 1 20 1 21 63 47 41 58
REMARK Flexibility Score: inf
ROOT
ATOM      1  O   UNL A   1      34.046  30.830  27.368  1.00  0.00    -0.374 OA
ENDROOT
BRANCH   1   2
ATOM      2  C   UNL A   1      34.554  29.499  27.275  1.00  0.00     0.202 C 
BRANCH   2   3
ATOM      3  C   UNL A   1      33.514  28.420  26.970  1.00  0.00     0.261 C 
BRANCH   3   4
ATOM      4  O   UNL A   1      33.868  27.706  25.773  1.00  0.00    -0.462 OA
BRANCH   4   5
ATOM      5  C   UNL A   1      33.322  26.470  25.614  1.00  0.00     0.331 C 
ATOM      6  O   UNL A   1      33.697  25.466  26.216  1.00  0.00    -0.250 OA
BRANCH   5   7
ATOM      7  C   UNL A   1      32.207  26.421  24.565  1.00  0.00     0.220 C 
ATOM      8  N   UNL A   1      32.152  27.555  23.605  1.00  0.00    -0.339 N 
ATOM      9  C   UNL A   1      33.132  27.557  22.518  1.00  0.00     0.147 C 
ATOM     10  C   UNL A   1      33.196  26.178  21.855  1.00  0.00     0.181 C 
ATOM     11  C   UNL A   1      32.367  25.095  23.796  1.00  0.00     0.197 C 
ATOM     12  O   UNL A   1      33.426  25.141  22.818  1.00  0.00    -0.377 OA
BRANCH   8  13
ATOM     13  C   UNL A   1      31.004  28.311  23.533  1.00  0.00     0.132 A 
ATOM     14  C   UNL A   1      29.955  30.376  23.916  1.00  0.00     0.204 A 
ATOM     15  N   UNL A   1      31.006  29.537  24.106  1.00  0.00    -0.207 NA
ATOM     16  C   UNL A   1      28.831  29.980  23.196  1.00  0.00     0.311 A 
ATOM     17  C   UNL A   1      28.777  28.684  22.683  1.00  0.00     0.093 A 
ATOM     18  C   UNL A   1      29.878  27.851  22.852  1.00  0.00     0.054 A 
BRANCH  14  19
ATOM     19  N   UNL A   1      30.082  31.597  24.548  1.00  0.00    -0.378 N 
ATOM     20  H   UNL A   1      29.439  32.318  24.359  1.00  0.00     0.158 HD
ATOM     21  H   UNL A   1      30.815  31.745  25.189  1.00  0.00     0.158 HD
ENDBRANCH  14  19
BRANCH  16  22
ATOM     22  N   UNL A   1      27.729  30.894  22.917  1.00  0.00     0.066 N 
ATOM     23  O   UNL A   1      27.603  31.297  21.751  1.00  0.00    -0.258 OA
ATOM     24  O   UNL A   1      27.013  31.261  23.862  1.00  0.00    -0.258 OA
ENDBRANCH  16  22
ENDBRANCH   8  13
ENDBRANCH   5   7
ENDBRANCH   4   5
ENDBRANCH   3   4
ENDBRANCH   2   3
ENDBRANCH   1   2
BRANCH   1  25
ATOM     25  C   UNL A   1      32.659  31.018  27.078  1.00  0.00     0.202 C 
BRANCH  25  26
ATOM     26  C   UNL A   1      32.100  32.407  27.393  1.00  0.00     0.261 C 
BRANCH  26  27
ATOM     27  O   UNL A   1      33.108  33.429  27.295  1.00  0.00    -0.460 OA
BRANCH  27  28
ATOM     28  C   UNL A   1      33.256  34.182  28.407  1.00  0.00     0.338 C 
ATOM     29  O   UNL A   1      32.457  34.981  28.878  1.00  0.00    -0.246 OA
BRANCH  28  30
ATOM     30  C   UNL A   1      34.498  33.817  29.108  1.00  0.00     0.060 A 
ATOM     31  C   UNL A   1      35.704  34.226  28.526  1.00  0.00     0.016 A 
ATOM     32  C   UNL A   1      34.496  33.011  30.251  1.00  0.00     0.016 A 
ATOM     33  C   UNL A   1      36.914  33.773  29.041  1.00  0.00     0.010 A 
ATOM     34  C   UNL A   1      35.713  32.553  30.766  1.00  0.00     0.010 A 
ATOM     35  C   UNL A   1      36.923  32.895  30.135  1.00  0.00    -0.014 A 
BRANCH  35  36
ATOM     36  C   UNL A   1      38.189  32.218  30.499  1.00  0.00     0.031 A 
ATOM     37  C   UNL A   1      39.044  32.809  31.586  1.00  0.00     0.074 A 
ATOM     38  C   UNL A   1      38.538  31.057  29.920  1.00  0.00     0.049 A 
ATOM     39  N   UNL A   1      40.163  32.361  32.096  1.00  0.00    -0.248 NA
ATOM     40  C   UNL A   1      38.573  34.071  32.180  1.00  0.00     0.031 C 
ATOM     41  C   UNL A   1      37.767  30.358  28.894  1.00  0.00     0.029 A 
ATOM     42  N   UNL A   1      39.631  30.255  30.127  1.00  0.00    -0.354 N 
ATOM     43  C   UNL A   1      40.526  33.281  33.072  1.00  0.00     0.074 A 
ATOM     44  C   UNL A   1      39.532  34.332  33.056  1.00  0.00     0.031 C 
ATOM     45  C   UNL A   1      38.405  29.221  28.571  1.00  0.00     0.029 A 
ATOM     46  C   UNL A   1      39.641  29.128  29.346  1.00  0.00     0.049 A 
ATOM     47  H   UNL A   1      40.340  30.468  30.776  1.00  0.00     0.167 HD
ATOM     48  C   UNL A   1      41.585  33.251  33.915  1.00  0.00     0.031 A 
ATOM     49  C   UNL A   1      40.547  28.136  29.263  1.00  0.00     0.031 A 
ATOM     50  C   UNL A   1      42.587  32.219  33.921  1.00  0.00     0.049 A 
ATOM     51  C   UNL A   1      41.765  28.173  30.144  1.00  0.00     0.074 A 
ATOM     52  C   UNL A   1      43.699  32.098  34.735  1.00  0.00     0.029 A 
ATOM     53  N   UNL A   1      42.599  31.131  33.062  1.00  0.00    -0.354 N 
ATOM     54  N   UNL A   1      42.089  29.041  31.072  1.00  0.00    -0.248 NA
ATOM     55  C   UNL A   1      42.739  27.085  29.970  1.00  0.00     0.031 C 
ATOM     56  C   UNL A   1      44.411  30.962  34.334  1.00  0.00     0.029 A 
ATOM     57  C   UNL A   1      43.713  30.348  33.307  1.00  0.00     0.049 A 
ATOM     58  H   UNL A   1      41.915  30.944  32.378  1.00  0.00     0.167 HD
ATOM     59  C   UNL A   1      43.289  28.591  31.609  1.00  0.00     0.074 A 
ATOM     60  C   UNL A   1      43.628  27.367  30.911  1.00  0.00     0.031 C 
ATOM     61  C   UNL A   1      44.040  29.139  32.597  1.00  0.00     0.031 A 
BRANCH  48  62
ATOM     62  C   UNL A   1      41.725  34.396  34.879  1.00  0.00    -0.014 A 
ATOM     63  C   UNL A   1      42.421  35.564  34.527  1.00  0.00     0.009 A 
ATOM     64  C   UNL A   1      41.147  34.308  36.155  1.00  0.00     0.009 A 
ATOM     65  C   UNL A   1      42.571  36.602  35.449  1.00  0.00     0.001 A 
ATOM     66  C   UNL A   1      41.276  35.359  37.065  1.00  0.00     0.001 A 
ATOM     67  C   UNL A   1      41.996  36.500  36.715  1.00  0.00     0.000 A 
ENDBRANCH  48  62
BRANCH  49  68
ATOM     68  C   UNL A   1      40.338  27.019  28.307  1.00  0.00    -0.014 A 
ATOM     69  C   UNL A   1      39.631  25.870  28.696  1.00  0.00     0.009 A 
ATOM     70  C   UNL A   1      40.848  27.093  27.002  1.00  0.00     0.009 A 
ATOM     71  C   UNL A   1      39.456  24.812  27.802  1.00  0.00     0.001 A 
ATOM     72  C   UNL A   1      40.649  26.044  26.103  1.00  0.00     0.001 A 
ATOM     73  C   UNL A   1      39.959  24.901  26.506  1.00  0.00     0.000 A 
ENDBRANCH  49  68
BRANCH  61  74
ATOM     74  C   UNL A   1      45.286  28.402  32.998  1.00  0.00    -0.014 A 
ATOM     75  C   UNL A   1      45.268  27.441  34.021  1.00  0.00     0.009 A 
ATOM     76  C   UNL A   1      46.489  28.649  32.317  1.00  0.00     0.009 A 
ATOM     77  C   UNL A   1      46.437  26.767  34.376  1.00  0.00     0.001 A 
ATOM     78  C   UNL A   1      47.650  27.954  32.657  1.00  0.00     0.001 A 
ATOM     79  C   UNL A   1      47.626  27.020  33.692  1.00  0.00     0.000 A 
ENDBRANCH  61  74
ENDBRANCH  35  36
ENDBRANCH  28  30
ENDBRANCH  27  28
ENDBRANCH  26  27
ENDBRANCH  25  26
ENDBRANCH   1  25
TORSDOF 17
ENDMDL
MODEL 2
REMARK VINA RESULT:     -10.0      4.648      9.554
REMARK SMILES Nc1nc(N2CCOC[C@H]2C(=O)OCCOCCOC(=O)c2ccc(-c3c4nc(c(-c5ccccc5)c5ccc([nH]5)c(-c5ccccc5)c5nc(c(-c6ccccc6)c6ccc3[nH]6)C=C5)C=C4)cc2)ccc1[N+](=O)[O-]
REMARK SMILES IDX 16 1 15 2 14 3 13 4 11 5 12 6 10 7 5 8 6 9 7 10 9 11 8 12
REMARK SMILES IDX 4 13 2 14 3 15 72 16 71 17 70 18 1 19 73 22 74 23 75 24
REMARK SMILES IDX 17 25 18 26 19 27 20 28 21 29 22 30 23 31 69 32 24 33 68 34
REMARK SMILES IDX 25 35 26 36 27 37 62 38 28 39 67 40 61 41 63 42 29 43 66 44
REMARK SMILES IDX 60 45 59 46 30 48 52 49 37 50 51 51 38 52 41 53 50 54 64 55
REMARK SMILES IDX 39 56 40 57 49 59 65 60 42 61 31 62 32 63 36 64 33 65 35 66
REMARK SMILES IDX 34 67 53 68 54 69 58 70 55 71 57 72 56 73 43 74 44 75 48 76
REMARK SMILES IDX 45 77 47 78 46 79
REMARK H PARENT 1 20 1 21 63 47 41 58
REMARK Flexibility Score: inf
ROOT
ATOM      1  O   UNL A   1      38.101  21.376  25.623  1.00  0.00    -0.374 OA
ENDROOT
BRANCH   1   2
ATOM      2  C   UNL A   1      37.381  22.348  24.865  1.00  0.00     0.202 C 
BRANCH   2   3
ATOM      3  C   UNL A   1      36.777  23.497  25.675  1.00  0.00     0.261 C 
BRANCH   3   4
ATOM      4  O   UNL A   1      35.789  24.195  24.897  1.00  0.00    -0.462 OA
BRANCH   4   5
ATOM      5  C   UNL A   1      34.493  23.825  25.081  1.00  0.00     0.331 C 
ATOM      6  O   UNL A   1      33.798  24.192  26.025  1.00  0.00    -0.250 OA
BRANCH   5   7
ATOM      7  C   UNL A   1      33.974  22.854  24.017  1.00  0.00     0.220 C 
ATOM      8  N   UNL A   1      32.875  21.942  24.432  1.00  0.00    -0.339 N 
ATOM      9  C   UNL A   1      31.531  22.515  24.521  1.00  0.00     0.147 C 
ATOM     10  C   UNL A   1      31.220  23.340  23.268  1.00  0.00     0.181 C 
ATOM     11  C   UNL A   1      33.520  23.701  22.813  1.00  0.00     0.197 C 
ATOM     12  O   UNL A   1      32.235  24.323  23.020  1.00  0.00    -0.377 OA
BRANCH   8  13
ATOM     13  C   UNL A   1      33.068  20.582  24.341  1.00  0.00     0.132 A 
ATOM     14  C   UNL A   1      32.585  18.575  23.224  1.00  0.00     0.204 A 
ATOM     15  N   UNL A   1      32.313  19.885  23.462  1.00  0.00    -0.207 NA
ATOM     16  C   UNL A   1      33.587  17.905  23.919  1.00  0.00     0.311 A 
ATOM     17  C   UNL A   1      34.308  18.589  24.898  1.00  0.00     0.093 A 
ATOM     18  C   UNL A   1      34.044  19.940  25.100  1.00  0.00     0.054 A 
BRANCH  14  19
ATOM     19  N   UNL A   1      31.746  17.980  22.303  1.00  0.00    -0.378 N 
ATOM     20  H   UNL A   1      32.124  17.492  21.536  1.00  0.00     0.158 HD
ATOM     21  H   UNL A   1      30.770  18.043  22.414  1.00  0.00     0.158 HD
ENDBRANCH  14  19
BRANCH  16  22
ATOM     22  N   UNL A   1      33.943  16.522  23.621  1.00  0.00     0.066 N 
ATOM     23  O   UNL A   1      33.835  15.694  24.538  1.00  0.00    -0.258 OA
ATOM     24  O   UNL A   1      34.383  16.256  22.491  1.00  0.00    -0.258 OA
ENDBRANCH  16  22
ENDBRANCH   8  13
ENDBRANCH   5   7
ENDBRANCH   4   5
ENDBRANCH   3   4
ENDBRANCH   2   3
ENDBRANCH   1   2
BRANCH   1  25
ATOM     25  C   UNL A   1      38.326  20.107  25.005  1.00  0.00     0.202 C 
BRANCH  25  26
ATOM     26  C   UNL A   1      39.260  19.160  25.762  1.00  0.00     0.261 C 
BRANCH  26  27
ATOM     27  O   UNL A   1      40.624  19.282  25.320  1.00  0.00    -0.460 OA
BRANCH  27  28
ATOM     28  C   UNL A   1      41.527  19.428  26.314  1.00  0.00     0.338 C 
ATOM     29  O   UNL A   1      42.308  18.590  26.742  1.00  0.00    -0.246 OA
BRANCH  28  30
ATOM     30  C   UNL A   1      41.568  20.831  26.762  1.00  0.00     0.060 A 
ATOM     31  C   UNL A   1      41.876  21.799  25.799  1.00  0.00     0.016 A 
ATOM     32  C   UNL A   1      41.407  21.186  28.104  1.00  0.00     0.016 A 
ATOM     33  C   UNL A   1      42.097  23.117  26.185  1.00  0.00     0.010 A 
ATOM     34  C   UNL A   1      41.632  22.512  28.491  1.00  0.00     0.010 A 
ATOM     35  C   UNL A   1      42.023  23.470  27.540  1.00  0.00    -0.014 A 
BRANCH  35  36
ATOM     36  C   UNL A   1      42.517  24.802  27.960  1.00  0.00     0.031 A 
ATOM     37  C   UNL A   1      41.523  25.903  28.209  1.00  0.00     0.074 A 
ATOM     38  C   UNL A   1      43.826  25.010  28.185  1.00  0.00     0.049 A 
ATOM     39  N   UNL A   1      41.727  27.126  28.626  1.00  0.00    -0.248 NA
ATOM     40  C   UNL A   1      40.109  25.580  27.957  1.00  0.00     0.031 C 
ATOM     41  C   UNL A   1      44.880  24.009  28.034  1.00  0.00     0.029 A 
ATOM     42  N   UNL A   1      44.486  26.136  28.607  1.00  0.00    -0.354 N 
ATOM     43  C   UNL A   1      40.470  27.716  28.691  1.00  0.00     0.074 A 
ATOM     44  C   UNL A   1      39.515  26.731  28.235  1.00  0.00     0.031 C 
ATOM     45  C   UNL A   1      46.056  24.562  28.371  1.00  0.00     0.029 A 
ATOM     46  C   UNL A   1      45.841  25.961  28.735  1.00  0.00     0.049 A 
ATOM     47  H   UNL A   1      44.031  26.987  28.800  1.00  0.00     0.167 HD
ATOM     48  C   UNL A   1      40.138  28.962  29.105  1.00  0.00     0.031 A 
ATOM     49  C   UNL A   1      46.798  26.834  29.100  1.00  0.00     0.031 A 
ATOM     50  C   UNL A   1      41.086  29.951  29.541  1.00  0.00     0.049 A 
ATOM     51  C   UNL A   1      46.414  28.241  29.466  1.00  0.00     0.074 A 
ATOM     52  C   UNL A   1      40.850  31.242  29.980  1.00  0.00     0.029 A 
ATOM     53  N   UNL A   1      42.459  29.757  29.586  1.00  0.00    -0.354 N 
ATOM     54  N   UNL A   1      45.222  28.782  29.537  1.00  0.00    -0.248 NA
ATOM     55  C   UNL A   1      47.512  29.157  29.809  1.00  0.00     0.031 C 
ATOM     56  C   UNL A   1      42.085  31.846  30.243  1.00  0.00     0.029 A 
ATOM     57  C   UNL A   1      43.085  30.913  30.018  1.00  0.00     0.049 A 
ATOM     58  H   UNL A   1      42.919  28.921  29.346  1.00  0.00     0.167 HD
ATOM     59  C   UNL A   1      45.423  30.091  29.957  1.00  0.00     0.074 A 
ATOM     60  C   UNL A   1      46.852  30.258  30.136  1.00  0.00     0.031 C 
ATOM     61  C   UNL A   1      44.507  31.065  30.182  1.00  0.00     0.031 A 
BRANCH  48  62
ATOM     62  C   UNL A   1      38.681  29.328  29.069  1.00  0.00    -0.014 A 
ATOM     63  C   UNL A   1      38.094  29.871  27.914  1.00  0.00     0.009 A 
ATOM     64  C   UNL A   1      37.881  29.122  30.204  1.00  0.00     0.009 A 
ATOM     65  C   UNL A   1      36.747  30.239  27.911  1.00  0.00     0.001 A 
ATOM     66  C   UNL A   1      36.528  29.465  30.189  1.00  0.00     0.001 A 
ATOM     67  C   UNL A   1      35.965  30.033  29.047  1.00  0.00     0.000 A 
ENDBRANCH  48  62
BRANCH  49  68
ATOM     68  C   UNL A   1      48.219  26.402  29.141  1.00  0.00    -0.014 A 
ATOM     69  C   UNL A   1      48.768  25.866  30.315  1.00  0.00     0.009 A 
ATOM     70  C   UNL A   1      49.034  26.529  28.005  1.00  0.00     0.009 A 
ATOM     71  C   UNL A   1      50.110  25.482  30.357  1.00  0.00     0.001 A 
ATOM     72  C   UNL A   1      50.368  26.121  28.043  1.00  0.00     0.001 A 
ATOM     73  C   UNL A   1      50.907  25.604  29.220  1.00  0.00     0.000 A 
ENDBRANCH  49  68
BRANCH  61  74
ATOM     74  C   UNL A   1      45.022  32.389  30.672  1.00  0.00    -0.014 A 
ATOM     75  C   UNL A   1      45.140  32.662  32.043  1.00  0.00     0.009 A 
ATOM     76  C   UNL A   1      45.427  33.363  29.746  1.00  0.00     0.009 A 
ATOM     77  C   UNL A   1      45.623  33.898  32.477  1.00  0.00     0.001 A 
ATOM     78  C   UNL A   1      45.934  34.587  30.183  1.00  0.00     0.001 A 
ATOM     79  C   UNL A   1      46.023  34.858  31.547  1.00  0.00     0.000 A 
ENDBRANCH  61  74
ENDBRANCH  35  36
ENDBRANCH  28  30
ENDBRANCH  27  28
ENDBRANCH  26  27
ENDBRANCH  25  26
ENDBRANCH   1  25
TORSDOF 17
ENDMDL
MODEL 3
REMARK VINA RESULT:      -9.9      4.765      9.792
REMARK SMILES Nc1nc(N2CCOC[C@H]2C(=O)OCCOCCOC(=O)c2ccc(-c3c4nc(c(-c5ccccc5)c5ccc([nH]5)c(-c5ccccc5)c5nc(c(-c6ccccc6)c6ccc3[nH]6)C=C5)C=C4)cc2)ccc1[N+](=O)[O-]
REMARK SMILES IDX 16 1 15 2 14 3 13 4 11 5 12 6 10 7 5 8 6 9 7 10 9 11 8 12
REMARK SMILES IDX 4 13 2 14 3 15 72 16 71 17 70 18 1 19 73 22 74 23 75 24
REMARK SMILES IDX 17 25 18 26 19 27 20 28 21 29 22 30 23 31 69 32 24 33 68 34
REMARK SMILES IDX 25 35 26 36 27 37 62 38 28 39 67 40 61 41 63 42 29 43 66 44
REMARK SMILES IDX 60 45 59 46 30 48 52 49 37 50 51 51 38 52 41 53 50 54 64 55
REMARK SMILES IDX 39 56 40 57 49 59 65 60 42 61 31 62 32 63 36 64 33 65 35 66
REMARK SMILES IDX 34 67 53 68 54 69 58 70 55 71 57 72 56 73 43 74 44 75 48 76
REMARK SMILES IDX 45 77 47 78 46 79
REMARK H PARENT 1 20 1 21 63 47 41 58
REMARK Flexibility Score: inf
ROOT
ATOM      1  O   UNL A   1      37.611  21.241  25.575  1.00  0.00    -0.374 OA
ENDROOT
BRANCH   1   2
ATOM      2  C   UNL A   1      37.338  22.364  24.736  1.00  0.00     0.202 C 
BRANCH   2   3
ATOM      3  C   UNL A   1      36.896  23.635  25.463  1.00  0.00     0.261 C 
BRANCH   3   4
ATOM      4  O   UNL A   1      35.679  24.144  24.889  1.00  0.00    -0.462 OA
BRANCH   4   5
ATOM      5  C   UNL A   1      34.519  23.567  25.305  1.00  0.00     0.331 C 
ATOM      6  O   UNL A   1      34.037  23.716  26.425  1.00  0.00    -0.250 OA
BRANCH   5   7
ATOM      7  C   UNL A   1      33.873  22.660  24.254  1.00  0.00     0.220 C 
ATOM      8  N   UNL A   1      32.655  21.920  24.677  1.00  0.00    -0.339 N 
ATOM      9  C   UNL A   1      31.404  22.678  24.745  1.00  0.00     0.147 C 
ATOM     10  C   UNL A   1      31.219  23.515  23.476  1.00  0.00     0.181 C 
ATOM     11  C   UNL A   1      33.549  23.540  23.032  1.00  0.00     0.197 C 
ATOM     12  O   UNL A   1      32.364  24.340  23.218  1.00  0.00    -0.377 OA
BRANCH   8  13
ATOM     13  C   UNL A   1      32.655  20.545  24.611  1.00  0.00     0.132 A 
ATOM     14  C   UNL A   1      32.431  18.617  23.290  1.00  0.00     0.204 A 
ATOM     15  N   UNL A   1      32.287  19.959  23.448  1.00  0.00    -0.207 NA
ATOM     16  C   UNL A   1      32.887  17.809  24.328  1.00  0.00     0.311 A 
ATOM     17  C   UNL A   1      33.177  18.390  25.562  1.00  0.00     0.093 A 
ATOM     18  C   UNL A   1      33.063  19.770  25.695  1.00  0.00     0.054 A 
BRANCH  14  19
ATOM     19  N   UNL A   1      32.025  18.144  22.058  1.00  0.00    -0.378 N 
ATOM     20  H   UNL A   1      31.382  17.400  22.004  1.00  0.00     0.158 HD
ATOM     21  H   UNL A   1      32.377  18.551  21.234  1.00  0.00     0.158 HD
ENDBRANCH  14  19
BRANCH  16  22
ATOM     22  N   UNL A   1      33.121  16.380  24.151  1.00  0.00     0.066 N 
ATOM     23  O   UNL A   1      32.596  15.610  24.970  1.00  0.00    -0.258 OA
ATOM     24  O   UNL A   1      33.869  16.013  23.231  1.00  0.00    -0.258 OA
ENDBRANCH  16  22
ENDBRANCH   8  13
ENDBRANCH   5   7
ENDBRANCH   4   5
ENDBRANCH   3   4
ENDBRANCH   2   3
ENDBRANCH   1   2
BRANCH   1  25
ATOM     25  C   UNL A   1      38.384  20.180  25.009  1.00  0.00     0.202 C 
BRANCH  25  26
ATOM     26  C   UNL A   1      39.298  19.435  25.983  1.00  0.00     0.261 C 
BRANCH  26  27
ATOM     27  O   UNL A   1      40.583  19.148  25.404  1.00  0.00    -0.460 OA
BRANCH  27  28
ATOM     28  C   UNL A   1      41.635  19.399  26.213  1.00  0.00     0.338 C 
ATOM     29  O   UNL A   1      42.586  18.666  26.449  1.00  0.00    -0.246 OA
BRANCH  28  30
ATOM     30  C   UNL A   1      41.581  20.786  26.704  1.00  0.00     0.060 A 
ATOM     31  C   UNL A   1      41.792  21.804  25.766  1.00  0.00     0.016 A 
ATOM     32  C   UNL A   1      41.426  21.088  28.060  1.00  0.00     0.016 A 
ATOM     33  C   UNL A   1      41.922  23.123  26.188  1.00  0.00     0.010 A 
ATOM     34  C   UNL A   1      41.560  22.415  28.484  1.00  0.00     0.010 A 
ATOM     35  C   UNL A   1      41.854  23.429  27.554  1.00  0.00    -0.014 A 
BRANCH  35  36
ATOM     36  C   UNL A   1      42.256  24.781  28.006  1.00  0.00     0.031 A 
ATOM     37  C   UNL A   1      43.720  25.110  28.108  1.00  0.00     0.074 A 
ATOM     38  C   UNL A   1      41.332  25.725  28.255  1.00  0.00     0.049 A 
ATOM     39  N   UNL A   1      44.296  26.239  28.435  1.00  0.00    -0.248 NA
ATOM     40  C   UNL A   1      44.661  24.022  27.796  1.00  0.00     0.031 C 
ATOM     41  C   UNL A   1      39.886  25.545  28.139  1.00  0.00     0.029 A 
ATOM     42  N   UNL A   1      41.481  27.031  28.644  1.00  0.00    -0.354 N 
ATOM     43  C   UNL A   1      45.662  25.999  28.363  1.00  0.00     0.074 A 
ATOM     44  C   UNL A   1      45.831  24.608  28.001  1.00  0.00     0.031 C 
ATOM     45  C   UNL A   1      39.279  26.705  28.437  1.00  0.00     0.029 A 
ATOM     46  C   UNL A   1      40.292  27.699  28.791  1.00  0.00     0.049 A 
ATOM     47  H   UNL A   1      42.358  27.450  28.801  1.00  0.00     0.167 HD
ATOM     48  C   UNL A   1      46.688  26.859  28.569  1.00  0.00     0.031 A 
ATOM     49  C   UNL A   1      40.048  28.966  29.173  1.00  0.00     0.031 A 
ATOM     50  C   UNL A   1      46.525  28.237  28.949  1.00  0.00     0.049 A 
ATOM     51  C   UNL A   1      41.202  29.878  29.487  1.00  0.00     0.074 A 
ATOM     52  C   UNL A   1      47.500  29.191  29.182  1.00  0.00     0.029 A 
ATOM     53  N   UNL A   1      45.301  28.854  29.160  1.00  0.00    -0.354 N 
ATOM     54  N   UNL A   1      42.489  29.643  29.402  1.00  0.00    -0.248 NA
ATOM     55  C   UNL A   1      40.866  31.234  29.945  1.00  0.00     0.031 C 
ATOM     56  C   UNL A   1      46.866  30.373  29.582  1.00  0.00     0.029 A 
ATOM     57  C   UNL A   1      45.496  30.169  29.546  1.00  0.00     0.049 A 
ATOM     58  H   UNL A   1      44.424  28.421  29.050  1.00  0.00     0.167 HD
ATOM     59  C   UNL A   1      43.116  30.827  29.769  1.00  0.00     0.074 A 
ATOM     60  C   UNL A   1      42.067  31.782  30.066  1.00  0.00     0.031 C 
ATOM     61  C   UNL A   1      44.442  31.102  29.847  1.00  0.00     0.031 A 
BRANCH  48  62
ATOM     62  C   UNL A   1      48.079  26.313  28.418  1.00  0.00    -0.014 A 
ATOM     63  C   UNL A   1      48.729  26.308  27.172  1.00  0.00     0.009 A 
ATOM     64  C   UNL A   1      48.753  25.800  29.537  1.00  0.00     0.009 A 
ATOM     65  C   UNL A   1      50.008  25.764  27.044  1.00  0.00     0.001 A 
ATOM     66  C   UNL A   1      50.043  25.281  29.410  1.00  0.00     0.001 A 
ATOM     67  C   UNL A   1      50.665  25.253  28.163  1.00  0.00     0.000 A 
ENDBRANCH  48  62
BRANCH  49  68
ATOM     68  C   UNL A   1      38.649  29.453  29.278  1.00  0.00    -0.014 A 
ATOM     69  C   UNL A   1      37.930  29.303  30.474  1.00  0.00     0.009 A 
ATOM     70  C   UNL A   1      38.023  30.065  28.181  1.00  0.00     0.009 A 
ATOM     71  C   UNL A   1      36.607  29.740  30.563  1.00  0.00     0.001 A 
ATOM     72  C   UNL A   1      36.708  30.524  28.282  1.00  0.00     0.001 A 
ATOM     73  C   UNL A   1      35.999  30.355  29.470  1.00  0.00     0.000 A 
ENDBRANCH  49  68
BRANCH  61  74
ATOM     74  C   UNL A   1      44.829  32.499  30.242  1.00  0.00    -0.014 A 
ATOM     75  C   UNL A   1      45.153  32.817  31.570  1.00  0.00     0.009 A 
ATOM     76  C   UNL A   1      44.905  33.502  29.263  1.00  0.00     0.009 A 
ATOM     77  C   UNL A   1      45.512  34.121  31.915  1.00  0.00     0.001 A 
ATOM     78  C   UNL A   1      45.290  34.798  29.607  1.00  0.00     0.001 A 
ATOM     79  C   UNL A   1      45.584  35.109  30.933  1.00  0.00     0.000 A 
ENDBRANCH  61  74
ENDBRANCH  35  36
ENDBRANCH  28  30
ENDBRANCH  27  28
ENDBRANCH  26  27
ENDBRANCH  25  26
ENDBRANCH   1  25
TORSDOF 17
ENDMDL
