MODEL 1
REMARK VINA RESULT:     -10.7      0.000      0.000
REMARK SMILES CC(=O)OCC1=C(C(=O)OCCOCCOC(=O)c2ccc(-c3c4nc(c(-c5ccccc5)c5ccc([nH]5)c(-c5ccccc5)c5nc(c(-c6ccccc6)c6ccc3[nH]6)C=C5)C=C4)cc2)N2C(=O)[C@H](NC(=O)C3CCCCC3)[C@@H]2SC1
REMARK SMILES IDX 12 1 11 2 10 3 8 4 9 5 7 6 6 7 82 8 67 9 81 10 68 11 80 12
REMARK SMILES IDX 69 13 70 14 5 15 4 16 2 17 1 18 3 19 71 20 72 21 73 23 74 24
REMARK SMILES IDX 75 25 79 26 76 27 78 28 77 29 13 30 14 31 15 32 16 33 17 34
REMARK SMILES IDX 18 35 19 36 20 37 66 38 21 39 65 40 22 41 23 42 24 43 59 44
REMARK SMILES IDX 25 45 64 46 58 47 60 48 26 49 63 50 57 51 56 52 27 54 49 55
REMARK SMILES IDX 34 56 48 57 35 58 38 59 47 60 61 61 36 62 37 63 46 65 62 66
REMARK SMILES IDX 39 67 28 68 29 69 33 70 30 71 32 72 31 73 50 74 51 75 55 76
REMARK SMILES IDX 52 77 54 78 53 79 40 80 41 81 45 82 42 83 44 84 43 85
REMARK H PARENT 71 22 60 53 38 64
REMARK Flexibility Score: inf
ROOT
ATOM      1  C   UNL A   1      36.973  21.468  24.783  1.00  0.00     0.202 C 
ENDROOT
BRANCH   1   2
ATOM      2  C   UNL A   1      36.129  22.288  25.761  1.00  0.00     0.261 C 
BRANCH   2   3
ATOM      3  O   UNL A   1      35.324  21.393  26.541  1.00  0.00    -0.459 OA
BRANCH   3   4
ATOM      4  C   UNL A   1      34.033  21.776  26.684  1.00  0.00     0.355 C 
ATOM      5  O   UNL A   1      33.475  22.091  27.720  1.00  0.00    -0.244 OA
BRANCH   4   6
ATOM      6  C   UNL A   1      33.416  21.854  25.325  1.00  0.00     0.134 C 
ATOM      7  C   UNL A   1      33.060  20.749  24.631  1.00  0.00     0.008 C 
ATOM      8  C   UNL A   1      32.246  20.795  23.347  1.00  0.00     0.108 C 
ATOM      9  N   UNL A   1      33.189  23.098  24.826  1.00  0.00    -0.289 N 
ATOM     10  S   UNL A   1      31.419  22.378  23.019  1.00  0.00    -0.129 SA
ATOM     11  C   UNL A   1      33.303  24.377  25.224  1.00  0.00     0.253 C 
ATOM     12  C   UNL A   1      32.867  23.370  23.444  1.00  0.00     0.181 C 
ATOM     13  O   UNL A   1      33.732  24.888  26.235  1.00  0.00    -0.272 OA
ATOM     14  C   UNL A   1      32.648  24.862  23.876  1.00  0.00     0.205 C 
BRANCH   7  15
ATOM     15  C   UNL A   1      33.372  19.334  25.077  1.00  0.00     0.267 C 
BRANCH  15  16
ATOM     16  O   UNL A   1      34.161  18.692  24.056  1.00  0.00    -0.461 OA
BRANCH  16  17
ATOM     17  C   UNL A   1      33.819  17.413  23.743  1.00  0.00     0.302 C 
ATOM     18  C   UNL A   1      34.104  16.490  24.889  1.00  0.00     0.139 C 
ATOM     19  O   UNL A   1      33.353  17.047  22.674  1.00  0.00    -0.253 OA
ENDBRANCH  16  17
ENDBRANCH  15  16
ENDBRANCH   7  15
BRANCH  14  20
ATOM     20  N   UNL A   1      31.243  25.317  23.972  1.00  0.00    -0.342 N 
ATOM     21  C   UNL A   1      30.730  26.502  24.410  1.00  0.00     0.223 C 
ATOM     22  H   UNL A   1      30.573  24.661  23.672  1.00  0.00     0.164 HD
ATOM     23  O   UNL A   1      29.521  26.677  24.249  1.00  0.00    -0.275 OA
BRANCH  21  24
ATOM     24  C   UNL A   1      31.610  27.522  25.145  1.00  0.00     0.078 C 
ATOM     25  C   UNL A   1      31.372  28.985  24.745  1.00  0.00     0.013 C 
ATOM     26  C   UNL A   1      31.385  27.376  26.667  1.00  0.00     0.013 C 
ATOM     27  C   UNL A   1      32.269  29.933  25.545  1.00  0.00     0.001 C 
ATOM     28  C   UNL A   1      32.229  28.342  27.492  1.00  0.00     0.001 C 
ATOM     29  C   UNL A   1      32.043  29.786  27.043  1.00  0.00     0.000 C 
ENDBRANCH  21  24
ENDBRANCH  14  20
ENDBRANCH   4   6
ENDBRANCH   3   4
ENDBRANCH   2   3
ENDBRANCH   1   2
BRANCH   1  30
ATOM     30  O   UNL A   1      36.944  20.051  24.981  1.00  0.00    -0.374 OA
BRANCH  30  31
ATOM     31  C   UNL A   1      38.184  19.348  24.947  1.00  0.00     0.202 C 
BRANCH  31  32
ATOM     32  C   UNL A   1      39.383  20.059  25.587  1.00  0.00     0.261 C 
BRANCH  32  33
ATOM     33  O   UNL A   1      40.431  19.155  25.979  1.00  0.00    -0.460 OA
BRANCH  33  34
ATOM     34  C   UNL A   1      41.682  19.664  25.854  1.00  0.00     0.338 C 
ATOM     35  O   UNL A   1      42.624  19.174  25.254  1.00  0.00    -0.246 OA
BRANCH  34  36
ATOM     36  C   UNL A   1      41.749  21.014  26.440  1.00  0.00     0.060 A 
ATOM     37  C   UNL A   1      42.137  22.061  25.596  1.00  0.00     0.016 A 
ATOM     38  C   UNL A   1      41.537  21.243  27.803  1.00  0.00     0.016 A 
ATOM     39  C   UNL A   1      42.354  23.334  26.118  1.00  0.00     0.010 A 
ATOM     40  C   UNL A   1      41.763  22.522  28.327  1.00  0.00     0.010 A 
ATOM     41  C   UNL A   1      42.203  23.565  27.492  1.00  0.00    -0.014 A 
BRANCH  41  42
ATOM     42  C   UNL A   1      42.612  24.878  28.048  1.00  0.00     0.031 A 
ATOM     43  C   UNL A   1      41.581  25.953  28.254  1.00  0.00     0.074 A 
ATOM     44  C   UNL A   1      43.884  25.089  28.429  1.00  0.00     0.049 A 
ATOM     45  N   UNL A   1      41.715  27.135  28.804  1.00  0.00    -0.248 NA
ATOM     46  C   UNL A   1      40.218  25.660  27.782  1.00  0.00     0.031 C 
ATOM     47  C   UNL A   1      44.974  24.122  28.308  1.00  0.00     0.029 A 
ATOM     48  N   UNL A   1      44.469  26.187  29.008  1.00  0.00    -0.354 N 
ATOM     49  C   UNL A   1      40.457  27.721  28.751  1.00  0.00     0.074 A 
ATOM     50  C   UNL A   1      39.580  26.782  28.083  1.00  0.00     0.031 C 
ATOM     51  C   UNL A   1      46.096  24.667  28.807  1.00  0.00     0.029 A 
ATOM     52  C   UNL A   1      45.807  26.024  29.266  1.00  0.00     0.049 A 
ATOM     53  H   UNL A   1      43.976  27.013  29.218  1.00  0.00     0.167 HD
ATOM     54  C   UNL A   1      40.062  28.927  29.225  1.00  0.00     0.031 A 
ATOM     55  C   UNL A   1      46.699  26.872  29.812  1.00  0.00     0.031 A 
ATOM     56  C   UNL A   1      40.929  29.872  29.876  1.00  0.00     0.049 A 
ATOM     57  C   UNL A   1      46.248  28.230  30.276  1.00  0.00     0.074 A 
ATOM     58  C   UNL A   1      40.612  31.110  30.411  1.00  0.00     0.029 A 
ATOM     59  N   UNL A   1      42.289  29.690  30.072  1.00  0.00    -0.354 N 
ATOM     60  N   UNL A   1      45.046  28.752  30.260  1.00  0.00    -0.248 NA
ATOM     61  C   UNL A   1      47.280  29.110  30.844  1.00  0.00     0.031 C 
ATOM     62  C   UNL A   1      41.790  31.697  30.885  1.00  0.00     0.029 A 
ATOM     63  C   UNL A   1      42.830  30.803  30.693  1.00  0.00     0.049 A 
ATOM     64  H   UNL A   1      42.795  28.886  29.810  1.00  0.00     0.167 HD
ATOM     65  C   UNL A   1      45.172  30.010  30.836  1.00  0.00     0.074 A 
ATOM     66  C   UNL A   1      46.564  30.167  31.204  1.00  0.00     0.031 C 
ATOM     67  C   UNL A   1      44.219  30.951  31.042  1.00  0.00     0.031 A 
BRANCH  54  68
ATOM     68  C   UNL A   1      38.620  29.303  29.031  1.00  0.00    -0.014 A 
ATOM     69  C   UNL A   1      38.157  29.797  27.801  1.00  0.00     0.009 A 
ATOM     70  C   UNL A   1      37.706  29.127  30.082  1.00  0.00     0.009 A 
ATOM     71  C   UNL A   1      36.812  30.137  27.638  1.00  0.00     0.001 A 
ATOM     72  C   UNL A   1      36.359  29.446  29.908  1.00  0.00     0.001 A 
ATOM     73  C   UNL A   1      35.914  29.959  28.690  1.00  0.00     0.000 A 
ENDBRANCH  54  68
BRANCH  55  74
ATOM     74  C   UNL A   1      48.120  26.463  29.953  1.00  0.00    -0.014 A 
ATOM     75  C   UNL A   1      48.567  25.811  31.111  1.00  0.00     0.009 A 
ATOM     76  C   UNL A   1      49.040  26.739  28.929  1.00  0.00     0.009 A 
ATOM     77  C   UNL A   1      49.912  25.462  31.250  1.00  0.00     0.001 A 
ATOM     78  C   UNL A   1      50.379  26.366  29.061  1.00  0.00     0.001 A 
ATOM     79  C   UNL A   1      50.816  25.736  30.225  1.00  0.00     0.000 A 
ENDBRANCH  55  74
BRANCH  67  80
ATOM     80  C   UNL A   1      44.649  32.226  31.712  1.00  0.00    -0.014 A 
ATOM     81  C   UNL A   1      44.615  32.360  33.110  1.00  0.00     0.009 A 
ATOM     82  C   UNL A   1      45.116  33.299  30.938  1.00  0.00     0.009 A 
ATOM     83  C   UNL A   1      45.008  33.556  33.713  1.00  0.00     0.001 A 
ATOM     84  C   UNL A   1      45.534  34.483  31.546  1.00  0.00     0.001 A 
ATOM     85  C   UNL A   1      45.469  34.615  32.932  1.00  0.00     0.000 A 
ENDBRANCH  67  80
ENDBRANCH  41  42
ENDBRANCH  34  36
ENDBRANCH  33  34
ENDBRANCH  32  33
ENDBRANCH  31  32
ENDBRANCH  30  31
ENDBRANCH   1  30
TORSDOF 19
ENDMDL
MODEL 2
REMARK VINA RESULT:     -10.7      3.093      9.167
REMARK SMILES CC(=O)OCC1=C(C(=O)OCCOCCOC(=O)c2ccc(-c3c4nc(c(-c5ccccc5)c5ccc([nH]5)c(-c5ccccc5)c5nc(c(-c6ccccc6)c6ccc3[nH]6)C=C5)C=C4)cc2)N2C(=O)[C@H](NC(=O)C3CCCCC3)[C@@H]2SC1
REMARK SMILES IDX 12 1 11 2 10 3 8 4 9 5 7 6 6 7 82 8 67 9 81 10 68 11 80 12
REMARK SMILES IDX 69 13 70 14 5 15 4 16 2 17 1 18 3 19 71 20 72 21 73 23 74 24
REMARK SMILES IDX 75 25 79 26 76 27 78 28 77 29 13 30 14 31 15 32 16 33 17 34
REMARK SMILES IDX 18 35 19 36 20 37 66 38 21 39 65 40 22 41 23 42 24 43 59 44
REMARK SMILES IDX 25 45 64 46 58 47 60 48 26 49 63 50 57 51 56 52 27 54 49 55
REMARK SMILES IDX 34 56 48 57 35 58 38 59 47 60 61 61 36 62 37 63 46 65 62 66
REMARK SMILES IDX 39 67 28 68 29 69 33 70 30 71 32 72 31 73 50 74 51 75 55 76
REMARK SMILES IDX 52 77 54 78 53 79 40 80 41 81 45 82 42 83 44 84 43 85
REMARK H PARENT 71 22 60 53 38 64
REMARK Flexibility Score: inf
ROOT
ATOM      1  C   UNL A   1      31.906  28.897  26.698  1.00  0.00     0.202 C 
ENDROOT
BRANCH   1   2
ATOM      2  C   UNL A   1      31.777  27.566  27.442  1.00  0.00     0.261 C 
BRANCH   2   3
ATOM      3  O   UNL A   1      32.120  26.499  26.546  1.00  0.00    -0.459 OA
BRANCH   3   4
ATOM      4  C   UNL A   1      31.063  25.793  26.081  1.00  0.00     0.355 C 
ATOM      5  O   UNL A   1      29.914  25.846  26.484  1.00  0.00    -0.244 OA
BRANCH   4   6
ATOM      6  C   UNL A   1      31.516  24.997  24.901  1.00  0.00     0.134 C 
ATOM      7  C   UNL A   1      31.695  25.555  23.681  1.00  0.00     0.008 C 
ATOM      8  C   UNL A   1      32.350  24.827  22.518  1.00  0.00     0.108 C 
ATOM      9  N   UNL A   1      31.781  23.680  25.114  1.00  0.00    -0.289 N 
ATOM     10  S   UNL A   1      33.257  23.319  22.968  1.00  0.00    -0.129 SA
ATOM     11  C   UNL A   1      31.820  22.817  26.144  1.00  0.00     0.253 C 
ATOM     12  C   UNL A   1      31.956  22.708  24.060  1.00  0.00     0.181 C 
ATOM     13  O   UNL A   1      31.558  22.930  27.321  1.00  0.00    -0.272 OA
ATOM     14  C   UNL A   1      32.345  21.685  25.183  1.00  0.00     0.205 C 
BRANCH   7  15
ATOM     15  C   UNL A   1      31.326  26.986  23.345  1.00  0.00     0.267 C 
BRANCH  15  16
ATOM     16  O   UNL A   1      29.901  27.059  23.140  1.00  0.00    -0.461 OA
BRANCH  16  17
ATOM     17  C   UNL A   1      29.398  28.281  22.817  1.00  0.00     0.302 C 
ATOM     18  C   UNL A   1      30.496  29.221  22.426  1.00  0.00     0.139 C 
ATOM     19  O   UNL A   1      28.215  28.589  22.846  1.00  0.00    -0.253 OA
ENDBRANCH  16  17
ENDBRANCH  15  16
ENDBRANCH   7  15
BRANCH  14  20
ATOM     20  N   UNL A   1      33.783  21.357  25.302  1.00  0.00    -0.342 N 
ATOM     21  C   UNL A   1      34.460  20.228  24.946  1.00  0.00     0.223 C 
ATOM     22  H   UNL A   1      34.338  22.065  25.700  1.00  0.00     0.164 HD
ATOM     23  O   UNL A   1      35.690  20.271  25.024  1.00  0.00    -0.275 OA
BRANCH  21  24
ATOM     24  C   UNL A   1      33.713  18.947  24.555  1.00  0.00     0.078 C 
ATOM     25  C   UNL A   1      34.588  17.859  23.916  1.00  0.00     0.013 C 
ATOM     26  C   UNL A   1      33.026  18.362  25.811  1.00  0.00     0.013 C 
ATOM     27  C   UNL A   1      33.769  16.610  23.584  1.00  0.00     0.001 C 
ATOM     28  C   UNL A   1      32.241  17.087  25.524  1.00  0.00     0.001 C 
ATOM     29  C   UNL A   1      33.095  16.038  24.824  1.00  0.00     0.000 C 
ENDBRANCH  21  24
ENDBRANCH  14  20
ENDBRANCH   4   6
ENDBRANCH   3   4
ENDBRANCH   2   3
ENDBRANCH   1   2
BRANCH   1  30
ATOM     30  O   UNL A   1      32.715  29.886  27.340  1.00  0.00    -0.374 OA
BRANCH  30  31
ATOM     31  C   UNL A   1      32.488  31.253  27.003  1.00  0.00     0.202 C 
BRANCH  31  32
ATOM     32  C   UNL A   1      33.351  32.285  27.739  1.00  0.00     0.261 C 
BRANCH  32  33
ATOM     33  O   UNL A   1      32.875  33.633  27.583  1.00  0.00    -0.460 OA
BRANCH  33  34
ATOM     34  C   UNL A   1      33.215  34.465  28.598  1.00  0.00     0.338 C 
ATOM     35  O   UNL A   1      32.562  35.395  29.045  1.00  0.00    -0.246 OA
BRANCH  34  36
ATOM     36  C   UNL A   1      34.469  34.021  29.232  1.00  0.00     0.060 A 
ATOM     37  C   UNL A   1      35.664  34.315  28.564  1.00  0.00     0.016 A 
ATOM     38  C   UNL A   1      34.479  33.250  30.397  1.00  0.00     0.016 A 
ATOM     39  C   UNL A   1      36.871  33.804  29.037  1.00  0.00     0.010 A 
ATOM     40  C   UNL A   1      35.693  32.731  30.866  1.00  0.00     0.010 A 
ATOM     41  C   UNL A   1      36.889  32.980  30.170  1.00  0.00    -0.014 A 
BRANCH  41  42
ATOM     42  C   UNL A   1      38.156  32.306  30.547  1.00  0.00     0.031 A 
ATOM     43  C   UNL A   1      39.005  32.878  31.648  1.00  0.00     0.074 A 
ATOM     44  C   UNL A   1      38.515  31.153  29.954  1.00  0.00     0.049 A 
ATOM     45  N   UNL A   1      40.099  32.397  32.185  1.00  0.00    -0.248 NA
ATOM     46  C   UNL A   1      38.564  34.159  32.224  1.00  0.00     0.031 C 
ATOM     47  C   UNL A   1      37.769  30.480  28.893  1.00  0.00     0.029 A 
ATOM     48  N   UNL A   1      39.597  30.340  30.175  1.00  0.00    -0.354 N 
ATOM     49  C   UNL A   1      40.472  33.310  33.163  1.00  0.00     0.074 A 
ATOM     50  C   UNL A   1      39.510  34.391  33.123  1.00  0.00     0.031 C 
ATOM     51  C   UNL A   1      38.412  29.348  28.560  1.00  0.00     0.029 A 
ATOM     52  C   UNL A   1      39.620  29.227  29.372  1.00  0.00     0.049 A 
ATOM     53  H   UNL A   1      40.292  30.535  30.846  1.00  0.00     0.167 HD
ATOM     54  C   UNL A   1      41.514  33.250  34.027  1.00  0.00     0.031 A 
ATOM     55  C   UNL A   1      40.514  28.222  29.299  1.00  0.00     0.031 A 
ATOM     56  C   UNL A   1      42.483  32.187  34.063  1.00  0.00     0.049 A 
ATOM     57  C   UNL A   1      41.697  28.210  30.229  1.00  0.00     0.074 A 
ATOM     58  C   UNL A   1      43.560  32.030  34.920  1.00  0.00     0.029 A 
ATOM     59  N   UNL A   1      42.500  31.105  33.199  1.00  0.00    -0.354 N 
ATOM     60  N   UNL A   1      42.011  29.056  31.179  1.00  0.00    -0.248 NA
ATOM     61  C   UNL A   1      42.642  27.093  30.079  1.00  0.00     0.031 C 
ATOM     62  C   UNL A   1      44.257  30.878  34.541  1.00  0.00     0.029 A 
ATOM     63  C   UNL A   1      43.584  30.291  33.482  1.00  0.00     0.049 A 
ATOM     64  H   UNL A   1      41.838  30.938  32.489  1.00  0.00     0.167 HD
ATOM     65  C   UNL A   1      43.175  28.562  31.756  1.00  0.00     0.074 A 
ATOM     66  C   UNL A   1      43.502  27.336  31.059  1.00  0.00     0.031 C 
ATOM     67  C   UNL A   1      43.906  29.080  32.773  1.00  0.00     0.031 A 
BRANCH  54  68
ATOM     68  C   UNL A   1      41.672  34.390  34.993  1.00  0.00    -0.014 A 
ATOM     69  C   UNL A   1      42.406  35.536  34.651  1.00  0.00     0.009 A 
ATOM     70  C   UNL A   1      41.049  34.329  36.250  1.00  0.00     0.009 A 
ATOM     71  C   UNL A   1      42.539  36.587  35.561  1.00  0.00     0.001 A 
ATOM     72  C   UNL A   1      41.165  35.392  37.148  1.00  0.00     0.001 A 
ATOM     73  C   UNL A   1      41.916  36.516  36.806  1.00  0.00     0.000 A 
ENDBRANCH  54  68
BRANCH  55  74
ATOM     74  C   UNL A   1      40.328  27.136  28.304  1.00  0.00    -0.014 A 
ATOM     75  C   UNL A   1      39.601  25.982  28.630  1.00  0.00     0.009 A 
ATOM     76  C   UNL A   1      40.892  27.246  27.023  1.00  0.00     0.009 A 
ATOM     77  C   UNL A   1      39.462  24.949  27.701  1.00  0.00     0.001 A 
ATOM     78  C   UNL A   1      40.729  26.222  26.088  1.00  0.00     0.001 A 
ATOM     79  C   UNL A   1      40.022  25.071  26.430  1.00  0.00     0.000 A 
ENDBRANCH  55  74
BRANCH  67  80
ATOM     80  C   UNL A   1      45.122  28.309  33.203  1.00  0.00    -0.014 A 
ATOM     81  C   UNL A   1      46.384  28.572  32.646  1.00  0.00     0.009 A 
ATOM     82  C   UNL A   1      45.009  27.324  34.197  1.00  0.00     0.009 A 
ATOM     83  C   UNL A   1      47.500  27.837  33.051  1.00  0.00     0.001 A 
ATOM     84  C   UNL A   1      46.132  26.611  34.618  1.00  0.00     0.001 A 
ATOM     85  C   UNL A   1      47.374  26.860  34.038  1.00  0.00     0.000 A 
ENDBRANCH  67  80
ENDBRANCH  41  42
ENDBRANCH  34  36
ENDBRANCH  33  34
ENDBRANCH  32  33
ENDBRANCH  31  32
ENDBRANCH  30  31
ENDBRANCH   1  30
TORSDOF 19
ENDMDL
MODEL 3
REMARK VINA RESULT:     -10.5      1.173      5.851
REMARK SMILES CC(=O)OCC1=C(C(=O)OCCOCCOC(=O)c2ccc(-c3c4nc(c(-c5ccccc5)c5ccc([nH]5)c(-c5ccccc5)c5nc(c(-c6ccccc6)c6ccc3[nH]6)C=C5)C=C4)cc2)N2C(=O)[C@H](NC(=O)C3CCCCC3)[C@@H]2SC1
REMARK SMILES IDX 12 1 11 2 10 3 8 4 9 5 7 6 6 7 82 8 67 9 81 10 68 11 80 12
REMARK SMILES IDX 69 13 70 14 5 15 4 16 2 17 1 18 3 19 71 20 72 21 73 23 74 24
REMARK SMILES IDX 75 25 79 26 76 27 78 28 77 29 13 30 14 31 15 32 16 33 17 34
REMARK SMILES IDX 18 35 19 36 20 37 66 38 21 39 65 40 22 41 23 42 24 43 59 44
REMARK SMILES IDX 25 45 64 46 58 47 60 48 26 49 63 50 57 51 56 52 27 54 49 55
REMARK SMILES IDX 34 56 48 57 35 58 38 59 47 60 61 61 36 62 37 63 46 65 62 66
REMARK SMILES IDX 39 67 28 68 29 69 33 70 30 71 32 72 31 73 50 74 51 75 55 76
REMARK SMILES IDX 52 77 54 78 53 79 40 80 41 81 45 82 42 83 44 84 43 85
REMARK H PARENT 71 22 60 53 38 64
REMARK Flexibility Score: inf
ROOT
ATOM      1  C   UNL A   1      38.605  21.683  25.754  1.00  0.00     0.202 C 
ENDROOT
BRANCH   1   2
ATOM      2  C   UNL A   1      37.677  22.873  25.504  1.00  0.00     0.261 C 
BRANCH   2   3
ATOM      3  O   UNL A   1      36.321  22.408  25.485  1.00  0.00    -0.459 OA
BRANCH   3   4
ATOM      4  C   UNL A   1      35.772  22.323  24.250  1.00  0.00     0.355 C 
ATOM      5  O   UNL A   1      36.351  22.433  23.184  1.00  0.00    -0.244 OA
BRANCH   4   6
ATOM      6  C   UNL A   1      34.331  21.962  24.404  1.00  0.00     0.134 C 
ATOM      7  C   UNL A   1      33.932  20.713  24.741  1.00  0.00     0.008 C 
ATOM      8  C   UNL A   1      32.498  20.365  25.108  1.00  0.00     0.108 C 
ATOM      9  N   UNL A   1      33.425  22.962  24.228  1.00  0.00    -0.289 N 
ATOM     10  S   UNL A   1      31.432  21.788  25.478  1.00  0.00    -0.129 SA
ATOM     11  C   UNL A   1      33.424  24.286  23.995  1.00  0.00     0.253 C 
ATOM     12  C   UNL A   1      32.006  22.750  24.062  1.00  0.00     0.181 C 
ATOM     13  O   UNL A   1      34.310  25.087  23.798  1.00  0.00    -0.272 OA
ATOM     14  C   UNL A   1      31.853  24.310  24.110  1.00  0.00     0.205 C 
BRANCH   7  15
ATOM     15  C   UNL A   1      34.872  19.530  24.856  1.00  0.00     0.267 C 
BRANCH  15  16
ATOM     16  O   UNL A   1      34.381  18.468  24.013  1.00  0.00    -0.461 OA
BRANCH  16  17
ATOM     17  C   UNL A   1      34.565  17.200  24.469  1.00  0.00     0.302 C 
ATOM     18  C   UNL A   1      33.413  16.323  24.084  1.00  0.00     0.139 C 
ATOM     19  O   UNL A   1      35.528  16.813  25.115  1.00  0.00    -0.253 OA
ENDBRANCH  16  17
ENDBRANCH  15  16
ENDBRANCH   7  15
BRANCH  14  20
ATOM     20  N   UNL A   1      31.309  24.877  25.363  1.00  0.00    -0.342 N 
ATOM     21  C   UNL A   1      30.699  26.075  25.595  1.00  0.00     0.223 C 
ATOM     22  H   UNL A   1      31.402  24.300  26.154  1.00  0.00     0.164 HD
ATOM     23  O   UNL A   1      30.208  26.241  26.713  1.00  0.00    -0.275 OA
BRANCH  21  24
ATOM     24  C   UNL A   1      30.707  27.186  24.536  1.00  0.00     0.078 C 
ATOM     25  C   UNL A   1      29.406  27.323  23.734  1.00  0.00     0.013 C 
ATOM     26  C   UNL A   1      31.015  28.535  25.225  1.00  0.00     0.013 C 
ATOM     27  C   UNL A   1      29.493  28.469  22.724  1.00  0.00     0.001 C 
ATOM     28  C   UNL A   1      31.059  29.708  24.252  1.00  0.00     0.001 C 
ATOM     29  C   UNL A   1      29.794  29.795  23.408  1.00  0.00     0.000 C 
ENDBRANCH  21  24
ENDBRANCH  14  20
ENDBRANCH   4   6
ENDBRANCH   3   4
ENDBRANCH   2   3
ENDBRANCH   1   2
BRANCH   1  30
ATOM     30  O   UNL A   1      38.245  20.470  25.087  1.00  0.00    -0.374 OA
BRANCH  30  31
ATOM     31  C   UNL A   1      38.972  19.288  25.416  1.00  0.00     0.202 C 
BRANCH  31  32
ATOM     32  C   UNL A   1      40.307  19.495  26.144  1.00  0.00     0.261 C 
BRANCH  32  33
ATOM     33  O   UNL A   1      41.450  19.249  25.307  1.00  0.00    -0.460 OA
BRANCH  33  34
ATOM     34  C   UNL A   1      42.633  19.618  25.857  1.00  0.00     0.338 C 
ATOM     35  O   UNL A   1      43.698  19.025  25.789  1.00  0.00    -0.246 OA
BRANCH  34  36
ATOM     36  C   UNL A   1      42.524  20.955  26.467  1.00  0.00     0.060 A 
ATOM     37  C   UNL A   1      42.767  22.058  25.640  1.00  0.00     0.016 A 
ATOM     38  C   UNL A   1      42.287  21.129  27.833  1.00  0.00     0.016 A 
ATOM     39  C   UNL A   1      42.817  23.339  26.186  1.00  0.00     0.010 A 
ATOM     40  C   UNL A   1      42.344  22.418  28.379  1.00  0.00     0.010 A 
ATOM     41  C   UNL A   1      42.640  23.525  27.563  1.00  0.00    -0.014 A 
BRANCH  41  42
ATOM     42  C   UNL A   1      42.874  24.870  28.142  1.00  0.00     0.031 A 
ATOM     43  C   UNL A   1      44.271  25.294  28.500  1.00  0.00     0.074 A 
ATOM     44  C   UNL A   1      41.854  25.734  28.288  1.00  0.00     0.049 A 
ATOM     45  N   UNL A   1      44.699  26.453  28.936  1.00  0.00    -0.248 NA
ATOM     46  C   UNL A   1      45.329  24.282  28.343  1.00  0.00     0.031 C 
ATOM     47  C   UNL A   1      40.457  25.457  27.957  1.00  0.00     0.029 A 
ATOM     48  N   UNL A   1      41.843  27.028  28.745  1.00  0.00    -0.354 N 
ATOM     49  C   UNL A   1      46.071  26.313  29.099  1.00  0.00     0.074 A 
ATOM     50  C   UNL A   1      46.401  24.947  28.750  1.00  0.00     0.031 C 
ATOM     51  C   UNL A   1      39.724  26.554  28.212  1.00  0.00     0.029 A 
ATOM     52  C   UNL A   1      40.595  27.601  28.740  1.00  0.00     0.049 A 
ATOM     53  H   UNL A   1      42.652  27.500  29.048  1.00  0.00     0.167 HD
ATOM     54  C   UNL A   1      46.978  27.238  29.492  1.00  0.00     0.031 A 
ATOM     55  C   UNL A   1      40.200  28.832  29.117  1.00  0.00     0.031 A 
ATOM     56  C   UNL A   1      46.657  28.593  29.854  1.00  0.00     0.049 A 
ATOM     57  C   UNL A   1      41.220  29.823  29.607  1.00  0.00     0.074 A 
ATOM     58  C   UNL A   1      47.514  29.609  30.243  1.00  0.00     0.029 A 
ATOM     59  N   UNL A   1      45.376  29.119  29.885  1.00  0.00    -0.354 N 
ATOM     60  N   UNL A   1      42.519  29.690  29.712  1.00  0.00    -0.248 NA
ATOM     61  C   UNL A   1      40.713  31.141  30.020  1.00  0.00     0.031 C 
ATOM     62  C   UNL A   1      46.746  30.735  30.556  1.00  0.00     0.029 A 
ATOM     63  C   UNL A   1      45.415  30.436  30.313  1.00  0.00     0.049 A 
ATOM     64  H   UNL A   1      44.558  28.629  29.637  1.00  0.00     0.167 HD
ATOM     65  C   UNL A   1      42.988  30.911  30.180  1.00  0.00     0.074 A 
ATOM     66  C   UNL A   1      41.837  31.777  30.324  1.00  0.00     0.031 C 
ATOM     67  C   UNL A   1      44.261  31.282  30.464  1.00  0.00     0.031 A 
BRANCH  54  68
ATOM     68  C   UNL A   1      48.414  26.802  29.573  1.00  0.00    -0.014 A 
ATOM     69  C   UNL A   1      48.907  26.130  30.702  1.00  0.00     0.009 A 
ATOM     70  C   UNL A   1      49.276  27.037  28.490  1.00  0.00     0.009 A 
ATOM     71  C   UNL A   1      50.244  25.729  30.758  1.00  0.00     0.001 A 
ATOM     72  C   UNL A   1      50.605  26.613  28.539  1.00  0.00     0.001 A 
ATOM     73  C   UNL A   1      51.090  25.968  29.676  1.00  0.00     0.000 A 
ENDBRANCH  54  68
BRANCH  55  74
ATOM     74  C   UNL A   1      38.764  29.202  29.047  1.00  0.00    -0.014 A 
ATOM     75  C   UNL A   1      38.220  29.747  27.874  1.00  0.00     0.009 A 
ATOM     76  C   UNL A   1      37.932  29.024  30.164  1.00  0.00     0.009 A 
ATOM     77  C   UNL A   1      36.877  30.126  27.829  1.00  0.00     0.001 A 
ATOM     78  C   UNL A   1      36.584  29.381  30.106  1.00  0.00     0.001 A 
ATOM     79  C   UNL A   1      36.059  29.940  28.942  1.00  0.00     0.000 A 
ENDBRANCH  55  74
BRANCH  67  80
ATOM     80  C   UNL A   1      44.473  32.691  30.942  1.00  0.00    -0.014 A 
ATOM     81  C   UNL A   1      44.464  33.003  32.311  1.00  0.00     0.009 A 
ATOM     82  C   UNL A   1      44.710  33.715  30.012  1.00  0.00     0.009 A 
ATOM     83  C   UNL A   1      44.653  34.320  32.735  1.00  0.00     0.001 A 
ATOM     84  C   UNL A   1      44.925  35.025  30.442  1.00  0.00     0.001 A 
ATOM     85  C   UNL A   1      44.886  35.329  31.801  1.00  0.00     0.000 A 
ENDBRANCH  67  80
ENDBRANCH  41  42
ENDBRANCH  34  36
ENDBRANCH  33  34
ENDBRANCH  32  33
ENDBRANCH  31  32
ENDBRANCH  30  31
ENDBRANCH   1  30
TORSDOF 19
ENDMDL
