MODEL 1
REMARK VINA RESULT:     -12.1      0.000      0.000
REMARK SMILES Cc1ccc(NC(=O)[C@H]2CC=CC[C@H]2C(=O)OCCOCCOC(=O)c2ccc(-c3c4nc(c(-c5ccccc5)c5ccc([nH]5)c(-c5ccccc5)c5nc(c(-c6ccccc6)c6ccc3[nH]6)C=C5)C=C4)cc2)cc1F
REMARK SMILES IDX 20 1 19 2 18 3 17 4 15 5 16 6 14 7 9 8 10 9 11 10 13 11
REMARK SMILES IDX 12 12 7 13 6 14 8 16 5 17 1 18 2 19 3 20 75 21 4 22 74 23
REMARK SMILES IDX 76 24 21 25 22 26 23 27 24 28 25 29 26 30 27 31 73 32 28 33
REMARK SMILES IDX 72 34 29 35 30 36 31 37 66 38 32 39 71 40 65 41 67 42 33 43
REMARK SMILES IDX 70 44 64 45 63 46 34 48 56 49 41 50 55 51 42 52 45 53 54 54
REMARK SMILES IDX 68 55 43 56 44 57 53 59 69 60 46 61 35 62 36 63 40 64 37 65
REMARK SMILES IDX 39 66 38 67 57 68 58 69 62 70 59 71 61 72 60 73 47 74 48 75
REMARK SMILES IDX 52 76 49 77 51 78 50 79
REMARK H PARENT 6 15 67 47 45 58
REMARK Flexibility Score: inf
ROOT
ATOM      1  O   UNL A   1      33.730  31.672  27.678  1.00  0.00    -0.374 OA
ENDROOT
BRANCH   1   2
ATOM      2  C   UNL A   1      34.695  30.635  27.371  1.00  0.00     0.202 C 
BRANCH   2   3
ATOM      3  C   UNL A   1      34.392  29.145  27.518  1.00  0.00     0.261 C 
BRANCH   3   4
ATOM      4  O   UNL A   1      33.930  28.516  26.314  1.00  0.00    -0.463 OA
BRANCH   4   5
ATOM      5  C   UNL A   1      32.599  28.296  26.252  1.00  0.00     0.310 C 
ATOM      6  O   UNL A   1      31.829  28.481  27.187  1.00  0.00    -0.252 OA
BRANCH   5   7
ATOM      7  C   UNL A   1      32.133  27.700  24.938  1.00  0.00     0.116 C 
ATOM      8  C   UNL A   1      31.839  26.195  24.805  1.00  0.00     0.097 C 
ATOM      9  C   UNL A   1      31.318  25.806  23.403  1.00  0.00     0.041 C 
ATOM     10  C   UNL A   1      30.662  26.902  22.624  1.00  0.00    -0.030 C 
ATOM     11  C   UNL A   1      30.972  28.563  24.448  1.00  0.00     0.043 C 
ATOM     12  C   UNL A   1      30.492  28.142  23.096  1.00  0.00    -0.030 C 
BRANCH   8  13
ATOM     13  C   UNL A   1      31.131  25.534  25.980  1.00  0.00     0.228 C 
ATOM     14  N   UNL A   1      31.687  24.436  26.596  1.00  0.00    -0.326 N 
ATOM     15  H   UNL A   1      31.247  24.187  27.441  1.00  0.00     0.169 HD
ATOM     16  O   UNL A   1      30.082  25.992  26.436  1.00  0.00    -0.274 OA
BRANCH  14  17
ATOM     17  C   UNL A   1      32.768  23.598  26.246  1.00  0.00     0.044 A 
ATOM     18  C   UNL A   1      36.696  20.650  24.878  1.00  0.00     0.047 C 
ATOM     19  C   UNL A   1      35.631  21.532  25.461  1.00  0.00    -0.015 A 
ATOM     20  C   UNL A   1      35.895  23.259  25.822  1.00  0.00     0.008 A 
ATOM     21  C   UNL A   1      34.002  20.859  25.472  1.00  0.00     0.128 A 
ATOM     22  C   UNL A   1      34.471  24.302  26.253  1.00  0.00     0.026 A 
ATOM     23  C   UNL A   1      32.591  21.840  25.877  1.00  0.00     0.065 A 
ATOM     24  F   UNL A   1      33.809  19.589  25.093  1.00  0.00    -0.207 F 
ENDBRANCH  14  17
ENDBRANCH   8  13
ENDBRANCH   5   7
ENDBRANCH   4   5
ENDBRANCH   3   4
ENDBRANCH   2   3
ENDBRANCH   1   2
BRANCH   1  25
ATOM     25  C   UNL A   1      34.069  33.094  28.376  1.00  0.00     0.202 C 
BRANCH  25  26
ATOM     26  C   UNL A   1      34.309  33.638  30.482  1.00  0.00     0.261 C 
BRANCH  26  27
ATOM     27  O   UNL A   1      34.406  32.497  31.780  1.00  0.00    -0.460 OA
BRANCH  27  28
ATOM     28  C   UNL A   1      35.564  32.237  32.470  1.00  0.00     0.338 C 
ATOM     29  O   UNL A   1      35.736  32.504  33.651  1.00  0.00    -0.246 OA
BRANCH  28  30
ATOM     30  C   UNL A   1      36.472  31.231  31.772  1.00  0.00     0.060 A 
ATOM     31  C   UNL A   1      37.539  30.672  32.515  1.00  0.00     0.016 A 
ATOM     32  C   UNL A   1      36.397  30.905  30.418  1.00  0.00     0.016 A 
ATOM     33  C   UNL A   1      38.521  29.850  31.937  1.00  0.00     0.010 A 
ATOM     34  C   UNL A   1      37.426  30.129  29.816  1.00  0.00     0.010 A 
ATOM     35  C   UNL A   1      38.524  29.638  30.558  1.00  0.00    -0.014 A 
BRANCH  35  36
ATOM     36  C   UNL A   1      39.790  29.178  29.892  1.00  0.00     0.031 A 
ATOM     37  C   UNL A   1      40.923  30.173  29.753  1.00  0.00     0.074 A 
ATOM     38  C   UNL A   1      39.997  27.909  29.484  1.00  0.00     0.049 A 
ATOM     39  N   UNL A   1      42.075  30.060  29.137  1.00  0.00    -0.248 NA
ATOM     40  C   UNL A   1      40.723  31.479  30.405  1.00  0.00     0.031 C 
ATOM     41  C   UNL A   1      39.061  26.800  29.646  1.00  0.00     0.029 A 
ATOM     42  N   UNL A   1      41.074  27.341  28.835  1.00  0.00    -0.354 N 
ATOM     43  C   UNL A   1      42.713  31.289  29.294  1.00  0.00     0.074 A 
ATOM     44  C   UNL A   1      41.817  32.134  30.050  1.00  0.00     0.031 C 
ATOM     45  C   UNL A   1      39.591  25.693  29.092  1.00  0.00     0.029 A 
ATOM     46  C   UNL A   1      40.884  26.022  28.491  1.00  0.00     0.049 A 
ATOM     47  H   UNL A   1      41.904  27.835  28.637  1.00  0.00     0.167 HD
ATOM     48  C   UNL A   1      43.931  31.686  28.846  1.00  0.00     0.031 A 
ATOM     49  C   UNL A   1      41.639  25.186  27.746  1.00  0.00     0.031 A 
ATOM     50  C   UNL A   1      44.827  30.850  28.090  1.00  0.00     0.049 A 
ATOM     51  C   UNL A   1      42.942  25.677  27.163  1.00  0.00     0.074 A 
ATOM     52  C   UNL A   1      46.082  31.158  27.593  1.00  0.00     0.029 A 
ATOM     53  N   UNL A   1      44.561  29.541  27.717  1.00  0.00    -0.354 N 
ATOM     54  N   UNL A   1      43.523  26.845  27.300  1.00  0.00    -0.248 NA
ATOM     55  C   UNL A   1      43.695  24.732  26.322  1.00  0.00     0.031 C 
ATOM     56  C   UNL A   1      46.543  30.063  26.856  1.00  0.00     0.029 A 
ATOM     57  C   UNL A   1      45.613  29.042  26.966  1.00  0.00     0.049 A 
ATOM     58  H   UNL A   1      43.746  29.041  27.950  1.00  0.00     0.167 HD
ATOM     59  C   UNL A   1      44.720  26.762  26.596  1.00  0.00     0.074 A 
ATOM     60  C   UNL A   1      44.791  25.424  26.047  1.00  0.00     0.031 C 
ATOM     61  C   UNL A   1      45.676  27.708  26.423  1.00  0.00     0.031 A 
BRANCH  48  62
ATOM     62  C   UNL A   1      44.342  33.113  29.106  1.00  0.00    -0.014 A 
ATOM     63  C   UNL A   1      44.013  34.154  28.223  1.00  0.00     0.009 A 
ATOM     64  C   UNL A   1      45.045  33.426  30.281  1.00  0.00     0.009 A 
ATOM     65  C   UNL A   1      44.415  35.466  28.490  1.00  0.00     0.001 A 
ATOM     66  C   UNL A   1      45.416  34.742  30.564  1.00  0.00     0.001 A 
ATOM     67  C   UNL A   1      45.111  35.759  29.662  1.00  0.00     0.000 A 
ENDBRANCH  48  62
BRANCH  49  68
ATOM     68  C   UNL A   1      41.167  23.799  27.459  1.00  0.00    -0.014 A 
ATOM     69  C   UNL A   1      40.106  23.565  26.568  1.00  0.00     0.009 A 
ATOM     70  C   UNL A   1      41.759  22.698  28.100  1.00  0.00     0.009 A 
ATOM     71  C   UNL A   1      39.638  22.266  26.344  1.00  0.00     0.001 A 
ATOM     72  C   UNL A   1      41.314  21.398  27.846  1.00  0.00     0.001 A 
ATOM     73  C   UNL A   1      40.248  21.184  26.975  1.00  0.00     0.000 A 
ENDBRANCH  49  68
BRANCH  61  74
ATOM     74  C   UNL A   1      46.910  27.320  25.653  1.00  0.00    -0.014 A 
ATOM     75  C   UNL A   1      47.918  26.524  26.222  1.00  0.00     0.009 A 
ATOM     76  C   UNL A   1      47.045  27.726  24.315  1.00  0.00     0.009 A 
ATOM     77  C   UNL A   1      49.051  26.181  25.481  1.00  0.00     0.001 A 
ATOM     78  C   UNL A   1      48.161  27.351  23.565  1.00  0.00     0.001 A 
ATOM     79  C   UNL A   1      49.169  26.589  24.152  1.00  0.00     0.000 A 
ENDBRANCH  61  74
ENDBRANCH  35  36
ENDBRANCH  28  30
ENDBRANCH  27  28
ENDBRANCH  26  27
ENDBRANCH  25  26
ENDBRANCH   1  25
TORSDOF 16
ENDMDL
MODEL 2
REMARK VINA RESULT:     -11.7      2.967      5.005
REMARK SMILES Cc1ccc(NC(=O)[C@H]2CC=CC[C@H]2C(=O)OCCOCCOC(=O)c2ccc(-c3c4nc(c(-c5ccccc5)c5ccc([nH]5)c(-c5ccccc5)c5nc(c(-c6ccccc6)c6ccc3[nH]6)C=C5)C=C4)cc2)cc1F
REMARK SMILES IDX 20 1 19 2 18 3 17 4 15 5 16 6 14 7 9 8 10 9 11 10 13 11
REMARK SMILES IDX 12 12 7 13 6 14 8 16 5 17 1 18 2 19 3 20 75 21 4 22 74 23
REMARK SMILES IDX 76 24 21 25 22 26 23 27 24 28 25 29 26 30 27 31 73 32 28 33
REMARK SMILES IDX 72 34 29 35 30 36 31 37 66 38 32 39 71 40 65 41 67 42 33 43
REMARK SMILES IDX 70 44 64 45 63 46 34 48 56 49 41 50 55 51 42 52 45 53 54 54
REMARK SMILES IDX 68 55 43 56 44 57 53 59 69 60 46 61 35 62 36 63 40 64 37 65
REMARK SMILES IDX 39 66 38 67 57 68 58 69 62 70 59 71 61 72 60 73 47 74 48 75
REMARK SMILES IDX 52 76 49 77 51 78 50 79
REMARK H PARENT 6 15 67 47 45 58
REMARK Flexibility Score: inf
ROOT
ATOM      1  O   UNL A   1      33.559  26.999  21.775  1.00  0.00    -0.374 OA
ENDROOT
BRANCH   1   2
ATOM      2  C   UNL A   1      33.229  25.593  21.886  1.00  0.00     0.202 C 
BRANCH   2   3
ATOM      3  C   UNL A   1      34.037  24.612  22.734  1.00  0.00     0.261 C 
BRANCH   3   4
ATOM      4  O   UNL A   1      33.623  23.244  22.607  1.00  0.00    -0.463 OA
BRANCH   4   5
ATOM      5  C   UNL A   1      34.048  22.420  23.589  1.00  0.00     0.310 C 
ATOM      6  O   UNL A   1      33.488  21.374  23.897  1.00  0.00    -0.252 OA
BRANCH   5   7
ATOM      7  C   UNL A   1      35.241  22.945  24.363  1.00  0.00     0.116 C 
ATOM      8  C   UNL A   1      35.077  23.547  25.770  1.00  0.00     0.097 C 
ATOM      9  C   UNL A   1      36.422  23.966  26.405  1.00  0.00     0.041 C 
ATOM     10  C   UNL A   1      37.636  23.261  25.888  1.00  0.00    -0.030 C 
ATOM     11  C   UNL A   1      36.311  21.857  24.320  1.00  0.00     0.043 C 
ATOM     12  C   UNL A   1      37.589  22.300  24.958  1.00  0.00    -0.030 C 
BRANCH   8  13
ATOM     13  C   UNL A   1      34.097  22.845  26.700  1.00  0.00     0.228 C 
ATOM     14  N   UNL A   1      32.753  23.133  26.637  1.00  0.00    -0.326 N 
ATOM     15  H   UNL A   1      32.187  22.514  27.151  1.00  0.00     0.169 HD
ATOM     16  O   UNL A   1      34.471  21.974  27.486  1.00  0.00    -0.274 OA
BRANCH  14  17
ATOM     17  C   UNL A   1      32.031  24.150  25.973  1.00  0.00     0.044 A 
ATOM     18  C   UNL A   1      29.493  27.793  23.469  1.00  0.00     0.047 C 
ATOM     19  C   UNL A   1      30.058  26.644  24.251  1.00  0.00    -0.015 A 
ATOM     20  C   UNL A   1      30.000  24.958  23.672  1.00  0.00     0.008 A 
ATOM     21  C   UNL A   1      31.072  27.079  25.625  1.00  0.00     0.128 A 
ATOM     22  C   UNL A   1      30.958  23.686  24.548  1.00  0.00     0.026 A 
ATOM     23  C   UNL A   1      32.024  25.876  26.499  1.00  0.00     0.065 A 
ATOM     24  F   UNL A   1      31.188  28.366  25.979  1.00  0.00    -0.207 F 
ENDBRANCH  14  17
ENDBRANCH   8  13
ENDBRANCH   5   7
ENDBRANCH   4   5
ENDBRANCH   3   4
ENDBRANCH   2   3
ENDBRANCH   1   2
BRANCH   1  25
ATOM     25  C   UNL A   1      33.042  28.167  22.772  1.00  0.00     0.202 C 
BRANCH  25  26
ATOM     26  C   UNL A   1      34.087  29.284  24.337  1.00  0.00     0.261 C 
BRANCH  26  27
ATOM     27  O   UNL A   1      34.121  28.826  26.007  1.00  0.00    -0.460 OA
BRANCH  27  28
ATOM     28  C   UNL A   1      34.230  29.731  27.034  1.00  0.00     0.338 C 
ATOM     29  O   UNL A   1      33.278  30.253  27.596  1.00  0.00    -0.246 OA
BRANCH  28  30
ATOM     30  C   UNL A   1      35.605  29.736  27.693  1.00  0.00     0.060 A 
ATOM     31  C   UNL A   1      36.736  29.946  26.868  1.00  0.00     0.016 A 
ATOM     32  C   UNL A   1      35.840  29.434  29.034  1.00  0.00     0.016 A 
ATOM     33  C   UNL A   1      38.054  29.827  27.339  1.00  0.00     0.010 A 
ATOM     34  C   UNL A   1      37.172  29.248  29.497  1.00  0.00     0.010 A 
ATOM     35  C   UNL A   1      38.289  29.391  28.643  1.00  0.00    -0.014 A 
BRANCH  35  36
ATOM     36  C   UNL A   1      39.633  28.820  28.993  1.00  0.00     0.031 A 
ATOM     37  C   UNL A   1      40.592  29.688  29.782  1.00  0.00     0.074 A 
ATOM     38  C   UNL A   1      40.000  27.553  28.711  1.00  0.00     0.049 A 
ATOM     39  N   UNL A   1      41.838  29.472  30.126  1.00  0.00    -0.248 NA
ATOM     40  C   UNL A   1      40.061  30.981  30.247  1.00  0.00     0.031 C 
ATOM     41  C   UNL A   1      39.161  26.549  28.063  1.00  0.00     0.029 A 
ATOM     42  N   UNL A   1      41.193  26.895  28.932  1.00  0.00    -0.354 N 
ATOM     43  C   UNL A   1      42.248  30.616  30.809  1.00  0.00     0.074 A 
ATOM     44  C   UNL A   1      41.124  31.525  30.819  1.00  0.00     0.031 C 
ATOM     45  C   UNL A   1      39.869  25.413  27.916  1.00  0.00     0.029 A 
ATOM     46  C   UNL A   1      41.229  25.620  28.416  1.00  0.00     0.049 A 
ATOM     47  H   UNL A   1      41.949  27.301  29.416  1.00  0.00     0.167 HD
ATOM     48  C   UNL A   1      43.451  30.893  31.372  1.00  0.00     0.031 A 
ATOM     49  C   UNL A   1      42.244  24.735  28.317  1.00  0.00     0.031 A 
ATOM     50  C   UNL A   1      44.575  29.993  31.364  1.00  0.00     0.049 A 
ATOM     51  C   UNL A   1      43.607  25.101  28.853  1.00  0.00     0.074 A 
ATOM     52  C   UNL A   1      45.834  30.179  31.910  1.00  0.00     0.029 A 
ATOM     53  N   UNL A   1      44.577  28.737  30.776  1.00  0.00    -0.354 N 
ATOM     54  N   UNL A   1      43.987  26.191  29.476  1.00  0.00    -0.248 NA
ATOM     55  C   UNL A   1      44.683  24.112  28.673  1.00  0.00     0.031 C 
ATOM     56  C   UNL A   1      46.621  29.070  31.585  1.00  0.00     0.029 A 
ATOM     57  C   UNL A   1      45.827  28.154  30.914  1.00  0.00     0.049 A 
ATOM     58  H   UNL A   1      43.807  28.322  30.326  1.00  0.00     0.167 HD
ATOM     59  C   UNL A   1      45.329  26.004  29.791  1.00  0.00     0.074 A 
ATOM     60  C   UNL A   1      45.694  24.689  29.306  1.00  0.00     0.031 C 
ATOM     61  C   UNL A   1      46.182  26.845  30.429  1.00  0.00     0.031 A 
BRANCH  48  62
ATOM     62  C   UNL A   1      43.637  32.254  31.993  1.00  0.00    -0.014 A 
ATOM     63  C   UNL A   1      44.068  33.360  31.243  1.00  0.00     0.009 A 
ATOM     64  C   UNL A   1      43.340  32.440  33.354  1.00  0.00     0.009 A 
ATOM     65  C   UNL A   1      44.237  34.608  31.851  1.00  0.00     0.001 A 
ATOM     66  C   UNL A   1      43.475  33.694  33.951  1.00  0.00     0.001 A 
ATOM     67  C   UNL A   1      43.936  34.775  33.202  1.00  0.00     0.000 A 
ENDBRANCH  48  62
BRANCH  49  68
ATOM     68  C   UNL A   1      42.036  23.421  27.639  1.00  0.00    -0.014 A 
ATOM     69  C   UNL A   1      41.508  22.322  28.337  1.00  0.00     0.009 A 
ATOM     70  C   UNL A   1      42.396  23.250  26.292  1.00  0.00     0.009 A 
ATOM     71  C   UNL A   1      41.364  21.081  27.707  1.00  0.00     0.001 A 
ATOM     72  C   UNL A   1      42.217  22.019  25.655  1.00  0.00     0.001 A 
ATOM     73  C   UNL A   1      41.709  20.933  26.366  1.00  0.00     0.000 A 
ENDBRANCH  49  68
BRANCH  61  74
ATOM     74  C   UNL A   1      47.580  26.353  30.690  1.00  0.00    -0.014 A 
ATOM     75  C   UNL A   1      48.603  26.491  29.737  1.00  0.00     0.009 A 
ATOM     76  C   UNL A   1      47.890  25.777  31.933  1.00  0.00     0.009 A 
ATOM     77  C   UNL A   1      49.891  26.024  30.009  1.00  0.00     0.001 A 
ATOM     78  C   UNL A   1      49.186  25.345  32.216  1.00  0.00     0.001 A 
ATOM     79  C   UNL A   1      50.184  25.458  31.249  1.00  0.00     0.000 A 
ENDBRANCH  61  74
ENDBRANCH  35  36
ENDBRANCH  28  30
ENDBRANCH  27  28
ENDBRANCH  26  27
ENDBRANCH  25  26
ENDBRANCH   1  25
TORSDOF 16
ENDMDL
MODEL 3
REMARK VINA RESULT:     -11.6      4.407      9.427
REMARK SMILES Cc1ccc(NC(=O)[C@H]2CC=CC[C@H]2C(=O)OCCOCCOC(=O)c2ccc(-c3c4nc(c(-c5ccccc5)c5ccc([nH]5)c(-c5ccccc5)c5nc(c(-c6ccccc6)c6ccc3[nH]6)C=C5)C=C4)cc2)cc1F
REMARK SMILES IDX 20 1 19 2 18 3 17 4 15 5 16 6 14 7 9 8 10 9 11 10 13 11
REMARK SMILES IDX 12 12 7 13 6 14 8 16 5 17 1 18 2 19 3 20 75 21 4 22 74 23
REMARK SMILES IDX 76 24 21 25 22 26 23 27 24 28 25 29 26 30 27 31 73 32 28 33
REMARK SMILES IDX 72 34 29 35 30 36 31 37 66 38 32 39 71 40 65 41 67 42 33 43
REMARK SMILES IDX 70 44 64 45 63 46 34 48 56 49 41 50 55 51 42 52 45 53 54 54
REMARK SMILES IDX 68 55 43 56 44 57 53 59 69 60 46 61 35 62 36 63 40 64 37 65
REMARK SMILES IDX 39 66 38 67 57 68 58 69 62 70 59 71 61 72 60 73 47 74 48 75
REMARK SMILES IDX 52 76 49 77 51 78 50 79
REMARK H PARENT 6 15 67 47 45 58
REMARK Flexibility Score: inf
ROOT
ATOM      1  O   UNL A   1      40.285  22.122  27.244  1.00  0.00    -0.374 OA
ENDROOT
BRANCH   1   2
ATOM      2  C   UNL A   1      39.146  22.588  26.479  1.00  0.00     0.202 C 
BRANCH   2   3
ATOM      3  C   UNL A   1      38.303  21.669  25.597  1.00  0.00     0.261 C 
BRANCH   3   4
ATOM      4  O   UNL A   1      36.914  22.025  25.533  1.00  0.00    -0.463 OA
BRANCH   4   5
ATOM      5  C   UNL A   1      36.103  21.088  24.995  1.00  0.00     0.310 C 
ATOM      6  O   UNL A   1      36.340  19.886  25.010  1.00  0.00    -0.252 OA
BRANCH   5   7
ATOM      7  C   UNL A   1      34.898  21.657  24.272  1.00  0.00     0.116 C 
ATOM      8  C   UNL A   1      33.496  21.619  24.907  1.00  0.00     0.097 C 
ATOM      9  C   UNL A   1      32.422  22.304  24.032  1.00  0.00     0.041 C 
ATOM     10  C   UNL A   1      32.924  23.336  23.071  1.00  0.00    -0.030 C 
ATOM     11  C   UNL A   1      35.284  23.058  23.804  1.00  0.00     0.043 C 
ATOM     12  C   UNL A   1      34.211  23.688  22.974  1.00  0.00    -0.030 C 
BRANCH   8  13
ATOM     13  C   UNL A   1      33.417  21.908  26.399  1.00  0.00     0.228 C 
ATOM     14  N   UNL A   1      32.872  23.089  26.849  1.00  0.00    -0.326 N 
ATOM     15  H   UNL A   1      32.712  23.110  27.820  1.00  0.00     0.169 HD
ATOM     16  O   UNL A   1      33.786  21.079  27.233  1.00  0.00    -0.274 OA
BRANCH  14  17
ATOM     17  C   UNL A   1      32.501  24.277  26.182  1.00  0.00     0.044 A 
ATOM     18  C   UNL A   1      31.115  28.493  23.674  1.00  0.00     0.047 C 
ATOM     19  C   UNL A   1      31.408  27.321  24.564  1.00  0.00    -0.015 A 
ATOM     20  C   UNL A   1      30.192  26.077  24.956  1.00  0.00     0.008 A 
ATOM     21  C   UNL A   1      33.108  27.056  24.946  1.00  0.00     0.128 A 
ATOM     22  C   UNL A   1      30.719  24.556  25.801  1.00  0.00     0.026 A 
ATOM     23  C   UNL A   1      33.663  25.590  25.759  1.00  0.00     0.065 A 
ATOM     24  F   UNL A   1      34.022  27.951  24.548  1.00  0.00    -0.207 F 
ENDBRANCH  14  17
ENDBRANCH   8  13
ENDBRANCH   5   7
ENDBRANCH   4   5
ENDBRANCH   3   4
ENDBRANCH   2   3
ENDBRANCH   1   2
BRANCH   1  25
ATOM     25  C   UNL A   1      41.593  21.388  26.630  1.00  0.00     0.202 C 
BRANCH  25  26
ATOM     26  C   UNL A   1      43.254  22.175  25.443  1.00  0.00     0.261 C 
BRANCH  26  27
ATOM     27  O   UNL A   1      43.242  23.710  24.643  1.00  0.00    -0.460 OA
BRANCH  27  28
ATOM     28  C   UNL A   1      43.931  24.806  25.103  1.00  0.00     0.338 C 
ATOM     29  O   UNL A   1      44.980  25.210  24.624  1.00  0.00    -0.246 OA
BRANCH  28  30
ATOM     30  C   UNL A   1      43.093  25.717  25.994  1.00  0.00     0.060 A 
ATOM     31  C   UNL A   1      43.666  26.939  26.419  1.00  0.00     0.016 A 
ATOM     32  C   UNL A   1      41.843  25.383  26.514  1.00  0.00     0.016 A 
ATOM     33  C   UNL A   1      43.046  27.786  27.353  1.00  0.00     0.010 A 
ATOM     34  C   UNL A   1      41.245  26.204  27.510  1.00  0.00     0.010 A 
ATOM     35  C   UNL A   1      41.865  27.385  27.976  1.00  0.00    -0.014 A 
BRANCH  35  36
ATOM     36  C   UNL A   1      41.465  28.031  29.272  1.00  0.00     0.031 A 
ATOM     37  C   UNL A   1      40.239  28.920  29.276  1.00  0.00     0.074 A 
ATOM     38  C   UNL A   1      42.093  27.799  30.444  1.00  0.00     0.049 A 
ATOM     39  N   UNL A   1      39.740  29.666  30.232  1.00  0.00    -0.248 NA
ATOM     40  C   UNL A   1      39.469  28.968  28.021  1.00  0.00     0.031 C 
ATOM     41  C   UNL A   1      43.214  26.885  30.642  1.00  0.00     0.029 A 
ATOM     42  N   UNL A   1      41.874  28.331  31.698  1.00  0.00    -0.354 N 
ATOM     43  C   UNL A   1      38.628  30.299  29.680  1.00  0.00     0.074 A 
ATOM     44  C   UNL A   1      38.533  29.859  28.306  1.00  0.00     0.031 C 
ATOM     45  C   UNL A   1      43.600  26.936  31.931  1.00  0.00     0.029 A 
ATOM     46  C   UNL A   1      42.787  27.922  32.643  1.00  0.00     0.049 A 
ATOM     47  H   UNL A   1      41.131  28.946  31.899  1.00  0.00     0.167 HD
ATOM     48  C   UNL A   1      37.765  31.172  30.257  1.00  0.00     0.031 A 
ATOM     49  C   UNL A   1      42.977  28.321  33.919  1.00  0.00     0.031 A 
ATOM     50  C   UNL A   1      37.855  31.616  31.624  1.00  0.00     0.049 A 
ATOM     51  C   UNL A   1      42.074  29.374  34.513  1.00  0.00     0.074 A 
ATOM     52  C   UNL A   1      37.028  32.495  32.303  1.00  0.00     0.029 A 
ATOM     53  N   UNL A   1      38.834  31.217  32.521  1.00  0.00    -0.354 N 
ATOM     54  N   UNL A   1      41.042  29.979  33.976  1.00  0.00    -0.248 NA
ATOM     55  C   UNL A   1      42.362  29.799  35.893  1.00  0.00     0.031 C 
ATOM     56  C   UNL A   1      37.550  32.688  33.585  1.00  0.00     0.029 A 
ATOM     57  C   UNL A   1      38.652  31.861  33.735  1.00  0.00     0.049 A 
ATOM     58  H   UNL A   1      39.551  30.573  32.325  1.00  0.00     0.167 HD
ATOM     59  C   UNL A   1      40.539  30.825  34.959  1.00  0.00     0.074 A 
ATOM     60  C   UNL A   1      41.369  30.644  36.132  1.00  0.00     0.031 C 
ATOM     61  C   UNL A   1      39.482  31.674  34.898  1.00  0.00     0.031 A 
BRANCH  48  62
ATOM     62  C   UNL A   1      36.679  31.760  29.391  1.00  0.00    -0.014 A 
ATOM     63  C   UNL A   1      36.808  33.024  28.794  1.00  0.00     0.009 A 
ATOM     64  C   UNL A   1      35.516  31.013  29.140  1.00  0.00     0.009 A 
ATOM     65  C   UNL A   1      35.779  33.543  28.002  1.00  0.00     0.001 A 
ATOM     66  C   UNL A   1      34.505  31.518  28.320  1.00  0.00     0.001 A 
ATOM     67  C   UNL A   1      34.632  32.788  27.761  1.00  0.00     0.000 A 
ENDBRANCH  48  62
BRANCH  49  68
ATOM     68  C   UNL A   1      44.102  27.761  34.725  1.00  0.00    -0.014 A 
ATOM     69  C   UNL A   1      45.381  28.341  34.684  1.00  0.00     0.009 A 
ATOM     70  C   UNL A   1      43.910  26.618  35.519  1.00  0.00     0.009 A 
ATOM     71  C   UNL A   1      46.442  27.780  35.403  1.00  0.00     0.001 A 
ATOM     72  C   UNL A   1      44.963  26.081  36.265  1.00  0.00     0.001 A 
ATOM     73  C   UNL A   1      46.230  26.656  36.199  1.00  0.00     0.000 A 
ENDBRANCH  49  68
BRANCH  61  74
ATOM     74  C   UNL A   1      39.125  32.434  36.147  1.00  0.00    -0.014 A 
ATOM     75  C   UNL A   1      39.729  33.662  36.463  1.00  0.00     0.009 A 
ATOM     76  C   UNL A   1      38.132  31.930  37.003  1.00  0.00     0.009 A 
ATOM     77  C   UNL A   1      39.376  34.344  37.631  1.00  0.00     0.001 A 
ATOM     78  C   UNL A   1      37.755  32.631  38.149  1.00  0.00     0.001 A 
ATOM     79  C   UNL A   1      38.385  33.832  38.468  1.00  0.00     0.000 A 
ENDBRANCH  61  74
ENDBRANCH  35  36
ENDBRANCH  28  30
ENDBRANCH  27  28
ENDBRANCH  26  27
ENDBRANCH  25  26
ENDBRANCH   1  25
TORSDOF 16
ENDMDL
