MODEL 1
REMARK VINA RESULT:     -10.9      0.000      0.000
REMARK SMILES Cc1c(Br)c(C)c2c(c1Br)O[C@H](C(F)(F)F)C(C(=O)OCCOCCOC(=O)c1ccc(-c3c4nc(c(-c5ccccc5)c5ccc([nH]5)c(-c5ccccc5)c5nc(c(-c6ccccc6)c6ccc3[nH]6)C=C5)C=C4)cc1)=C2
REMARK SMILES IDX 24 1 23 2 22 3 21 4 20 5 18 6 19 7 17 8 1 9 2 10 3 11 9 12
REMARK SMILES IDX 4 13 5 14 8 15 10 16 6 17 7 18 11 19 77 20 12 21 13 22 14 23
REMARK SMILES IDX 15 24 16 25 25 26 26 27 27 28 28 29 29 30 30 31 76 32 31 33
REMARK SMILES IDX 75 34 32 35 33 36 34 37 69 38 35 39 74 40 68 41 70 42 36 43
REMARK SMILES IDX 73 44 67 45 66 46 37 48 59 49 44 50 58 51 45 52 48 53 57 54
REMARK SMILES IDX 71 55 46 56 47 57 56 59 72 60 49 61 38 62 39 63 43 64 40 65
REMARK SMILES IDX 42 66 41 67 60 68 61 69 65 70 62 71 64 72 63 73 50 74 51 75
REMARK SMILES IDX 55 76 52 77 54 78 53 79
REMARK H PARENT 70 47 48 58
REMARK Flexibility Score: inf
ROOT
ATOM      1  C   UNL A   1      31.165  32.273  26.612  1.00  0.00     0.202 C 
ENDROOT
BRANCH   1   2
ATOM      2  O   UNL A   1      31.684  31.019  26.166  1.00  0.00    -0.374 OA
BRANCH   2   3
ATOM      3  C   UNL A   1      32.366  30.206  27.118  1.00  0.00     0.202 C 
BRANCH   3   4
ATOM      4  C   UNL A   1      33.865  30.005  26.890  1.00  0.00     0.261 C 
BRANCH   4   5
ATOM      5  O   UNL A   1      34.194  28.613  26.756  1.00  0.00    -0.460 OA
BRANCH   5   6
ATOM      6  C   UNL A   1      33.852  28.066  25.568  1.00  0.00     0.338 C 
ATOM      7  O   UNL A   1      33.952  28.585  24.465  1.00  0.00    -0.246 OA
BRANCH   6   8
ATOM      8  C   UNL A   1      33.442  26.663  25.760  1.00  0.00     0.087 C 
ATOM      9  C   UNL A   1      32.767  20.207  25.245  1.00  0.00     0.047 C 
ATOM     10  C   UNL A   1      33.247  21.627  25.434  1.00  0.00    -0.019 A 
ATOM     11  C   UNL A   1      34.613  21.979  25.310  1.00  0.00     0.025 A 
ATOM     12  C   UNL A   1      32.329  22.640  25.784  1.00  0.00     0.064 A 
ATOM     13  Br  UNL A   1      35.910  20.598  25.001  1.00  0.00    -0.050 Br
ATOM     14  C   UNL A   1      35.039  23.326  25.420  1.00  0.00    -0.026 A 
ATOM     15  C   UNL A   1      32.730  23.984  25.881  1.00  0.00     0.142 A 
ATOM     16  Br  UNL A   1      30.491  22.217  26.134  1.00  0.00    -0.046 Br
ATOM     17  C   UNL A   1      36.493  23.734  25.295  1.00  0.00     0.046 C 
ATOM     18  C   UNL A   1      34.067  24.332  25.652  1.00  0.00     0.022 A 
ATOM     19  O   UNL A   1      31.772  24.902  26.227  1.00  0.00    -0.474 OA
ATOM     20  C   UNL A   1      34.410  25.752  25.610  1.00  0.00     0.027 C 
ATOM     21  C   UNL A   1      32.021  26.320  26.075  1.00  0.00     0.316 C 
BRANCH  21  22
ATOM     22  C   UNL A   1      31.029  26.887  25.049  1.00  0.00     0.430 C 
ATOM     23  F   UNL A   1      31.451  26.660  23.781  1.00  0.00    -0.167 F 
ATOM     24  F   UNL A   1      29.810  26.308  25.158  1.00  0.00    -0.167 F 
ATOM     25  F   UNL A   1      30.860  28.221  25.190  1.00  0.00    -0.167 F 
ENDBRANCH  21  22
ENDBRANCH   6   8
ENDBRANCH   5   6
ENDBRANCH   4   5
ENDBRANCH   3   4
ENDBRANCH   2   3
ENDBRANCH   1   2
BRANCH   1  26
ATOM     26  C   UNL A   1      32.178  33.403  26.834  1.00  0.00     0.261 C 
BRANCH  26  27
ATOM     27  O   UNL A   1      32.157  33.886  28.191  1.00  0.00    -0.460 OA
BRANCH  27  28
ATOM     28  C   UNL A   1      33.217  34.650  28.538  1.00  0.00     0.338 C 
ATOM     29  O   UNL A   1      33.226  35.855  28.761  1.00  0.00    -0.246 OA
BRANCH  28  30
ATOM     30  C   UNL A   1      34.386  33.797  28.806  1.00  0.00     0.060 A 
ATOM     31  C   UNL A   1      34.165  32.581  29.466  1.00  0.00     0.016 A 
ATOM     32  C   UNL A   1      35.682  34.214  28.500  1.00  0.00     0.016 A 
ATOM     33  C   UNL A   1      35.245  31.796  29.863  1.00  0.00     0.010 A 
ATOM     34  C   UNL A   1      36.767  33.431  28.910  1.00  0.00     0.010 A 
ATOM     35  C   UNL A   1      36.553  32.237  29.622  1.00  0.00    -0.014 A 
BRANCH  35  36
ATOM     36  C   UNL A   1      37.686  31.518  30.247  1.00  0.00     0.031 A 
ATOM     37  C   UNL A   1      38.012  31.782  31.691  1.00  0.00     0.074 A 
ATOM     38  C   UNL A   1      38.384  30.601  29.554  1.00  0.00     0.049 A 
ATOM     39  N   UNL A   1      38.949  31.255  32.438  1.00  0.00    -0.248 NA
ATOM     40  C   UNL A   1      37.166  32.765  32.389  1.00  0.00     0.031 C 
ATOM     41  C   UNL A   1      38.127  30.213  28.169  1.00  0.00     0.029 A 
ATOM     42  N   UNL A   1      39.447  29.821  29.933  1.00  0.00    -0.354 N 
ATOM     43  C   UNL A   1      38.801  31.835  33.692  1.00  0.00     0.074 A 
ATOM     44  C   UNL A   1      37.709  32.778  33.598  1.00  0.00     0.031 C 
ATOM     45  C   UNL A   1      39.007  29.260  27.815  1.00  0.00     0.029 A 
ATOM     46  C   UNL A   1      39.906  28.995  28.937  1.00  0.00     0.049 A 
ATOM     47  H   UNL A   1      39.845  29.850  30.834  1.00  0.00     0.167 HD
ATOM     48  C   UNL A   1      39.505  31.596  34.822  1.00  0.00     0.031 A 
ATOM     49  C   UNL A   1      40.939  28.131  28.928  1.00  0.00     0.031 A 
ATOM     50  C   UNL A   1      40.603  30.673  34.913  1.00  0.00     0.049 A 
ATOM     51  C   UNL A   1      41.773  27.960  30.168  1.00  0.00     0.074 A 
ATOM     52  C   UNL A   1      41.380  30.367  36.017  1.00  0.00     0.029 A 
ATOM     53  N   UNL A   1      41.083  29.913  33.860  1.00  0.00    -0.354 N 
ATOM     54  N   UNL A   1      41.618  28.509  31.349  1.00  0.00    -0.248 NA
ATOM     55  C   UNL A   1      42.923  27.049  30.075  1.00  0.00     0.031 C 
ATOM     56  C   UNL A   1      42.365  29.459  35.618  1.00  0.00     0.029 A 
ATOM     57  C   UNL A   1      42.164  29.158  34.279  1.00  0.00     0.049 A 
ATOM     58  H   UNL A   1      40.711  29.910  32.948  1.00  0.00     0.167 HD
ATOM     59  C   UNL A   1      42.636  27.995  32.143  1.00  0.00     0.074 A 
ATOM     60  C   UNL A   1      43.395  27.081  31.315  1.00  0.00     0.031 C 
ATOM     61  C   UNL A   1      42.912  28.255  33.444  1.00  0.00     0.031 A 
BRANCH  48  62
ATOM     62  C   UNL A   1      39.120  32.363  36.055  1.00  0.00    -0.014 A 
ATOM     63  C   UNL A   1      39.673  33.624  36.323  1.00  0.00     0.009 A 
ATOM     64  C   UNL A   1      38.153  31.843  36.928  1.00  0.00     0.009 A 
ATOM     65  C   UNL A   1      39.280  34.341  37.455  1.00  0.00     0.001 A 
ATOM     66  C   UNL A   1      37.745  32.571  38.047  1.00  0.00     0.001 A 
ATOM     67  C   UNL A   1      38.312  33.817  38.312  1.00  0.00     0.000 A 
ENDBRANCH  48  62
BRANCH  49  68
ATOM     68  C   UNL A   1      41.246  27.359  27.695  1.00  0.00    -0.014 A 
ATOM     69  C   UNL A   1      42.107  27.885  26.721  1.00  0.00     0.009 A 
ATOM     70  C   UNL A   1      40.680  26.091  27.490  1.00  0.00     0.009 A 
ATOM     71  C   UNL A   1      42.387  27.158  25.560  1.00  0.00     0.001 A 
ATOM     72  C   UNL A   1      40.982  25.357  26.342  1.00  0.00     0.001 A 
ATOM     73  C   UNL A   1      41.830  25.894  25.375  1.00  0.00     0.000 A 
ENDBRANCH  49  68
BRANCH  61  74
ATOM     74  C   UNL A   1      44.071  27.533  34.069  1.00  0.00    -0.014 A 
ATOM     75  C   UNL A   1      45.330  28.141  34.177  1.00  0.00     0.009 A 
ATOM     76  C   UNL A   1      43.877  26.261  34.633  1.00  0.00     0.009 A 
ATOM     77  C   UNL A   1      46.378  27.482  34.825  1.00  0.00     0.001 A 
ATOM     78  C   UNL A   1      44.919  25.617  35.301  1.00  0.00     0.001 A 
ATOM     79  C   UNL A   1      46.169  26.225  35.392  1.00  0.00     0.000 A 
ENDBRANCH  61  74
ENDBRANCH  35  36
ENDBRANCH  28  30
ENDBRANCH  27  28
ENDBRANCH  26  27
ENDBRANCH   1  26
TORSDOF 15
ENDMDL
MODEL 2
REMARK VINA RESULT:     -10.4      1.720      2.424
REMARK SMILES Cc1c(Br)c(C)c2c(c1Br)O[C@H](C(F)(F)F)C(C(=O)OCCOCCOC(=O)c1ccc(-c3c4nc(c(-c5ccccc5)c5ccc([nH]5)c(-c5ccccc5)c5nc(c(-c6ccccc6)c6ccc3[nH]6)C=C5)C=C4)cc1)=C2
REMARK SMILES IDX 24 1 23 2 22 3 21 4 20 5 18 6 19 7 17 8 1 9 2 10 3 11 9 12
REMARK SMILES IDX 4 13 5 14 8 15 10 16 6 17 7 18 11 19 77 20 12 21 13 22 14 23
REMARK SMILES IDX 15 24 16 25 25 26 26 27 27 28 28 29 29 30 30 31 76 32 31 33
REMARK SMILES IDX 75 34 32 35 33 36 34 37 69 38 35 39 74 40 68 41 70 42 36 43
REMARK SMILES IDX 73 44 67 45 66 46 37 48 59 49 44 50 58 51 45 52 48 53 57 54
REMARK SMILES IDX 71 55 46 56 47 57 56 59 72 60 49 61 38 62 39 63 43 64 40 65
REMARK SMILES IDX 42 66 41 67 60 68 61 69 65 70 62 71 64 72 63 73 50 74 51 75
REMARK SMILES IDX 55 76 52 77 54 78 53 79
REMARK H PARENT 70 47 48 58
REMARK Flexibility Score: inf
ROOT
ATOM      1  C   UNL A   1      31.374  30.484  25.491  1.00  0.00     0.202 C 
ENDROOT
BRANCH   1   2
ATOM      2  O   UNL A   1      31.893  29.157  25.597  1.00  0.00    -0.374 OA
BRANCH   2   3
ATOM      3  C   UNL A   1      31.039  28.078  25.222  1.00  0.00     0.202 C 
BRANCH   3   4
ATOM      4  C   UNL A   1      31.501  26.676  25.624  1.00  0.00     0.261 C 
BRANCH   4   5
ATOM      5  O   UNL A   1      32.927  26.621  25.790  1.00  0.00    -0.460 OA
BRANCH   5   6
ATOM      6  C   UNL A   1      33.605  26.206  24.696  1.00  0.00     0.338 C 
ATOM      7  O   UNL A   1      33.906  26.879  23.720  1.00  0.00    -0.246 OA
BRANCH   6   8
ATOM      8  C   UNL A   1      34.063  24.818  24.885  1.00  0.00     0.087 C 
ATOM      9  C   UNL A   1      37.603  19.354  25.037  1.00  0.00     0.047 C 
ATOM     10  C   UNL A   1      37.020  20.737  25.216  1.00  0.00    -0.019 A 
ATOM     11  C   UNL A   1      37.807  21.832  25.649  1.00  0.00     0.025 A 
ATOM     12  C   UNL A   1      35.644  20.956  24.987  1.00  0.00     0.064 A 
ATOM     13  Br  UNL A   1      39.641  21.533  26.130  1.00  0.00    -0.050 Br
ATOM     14  C   UNL A   1      37.263  23.138  25.742  1.00  0.00    -0.026 A 
ATOM     15  C   UNL A   1      35.092  22.247  25.059  1.00  0.00     0.142 A 
ATOM     16  Br  UNL A   1      34.478  19.495  24.560  1.00  0.00    -0.046 Br
ATOM     17  C   UNL A   1      38.078  24.328  26.206  1.00  0.00     0.046 C 
ATOM     18  C   UNL A   1      35.905  23.338  25.386  1.00  0.00     0.022 A 
ATOM     19  O   UNL A   1      33.746  22.367  24.823  1.00  0.00    -0.474 OA
ATOM     20  C   UNL A   1      35.328  24.677  25.299  1.00  0.00     0.027 C 
ATOM     21  C   UNL A   1      33.151  23.669  24.597  1.00  0.00     0.316 C 
BRANCH  21  22
ATOM     22  C   UNL A   1      32.575  23.706  23.174  1.00  0.00     0.430 C 
ATOM     23  F   UNL A   1      33.507  24.112  22.278  1.00  0.00    -0.167 F 
ATOM     24  F   UNL A   1      32.160  22.483  22.769  1.00  0.00    -0.167 F 
ATOM     25  F   UNL A   1      31.522  24.547  23.075  1.00  0.00    -0.167 F 
ENDBRANCH  21  22
ENDBRANCH   6   8
ENDBRANCH   5   6
ENDBRANCH   4   5
ENDBRANCH   3   4
ENDBRANCH   2   3
ENDBRANCH   1   2
BRANCH   1  26
ATOM     26  C   UNL A   1      31.635  31.425  26.674  1.00  0.00     0.261 C 
BRANCH  26  27
ATOM     27  O   UNL A   1      32.821  31.057  27.403  1.00  0.00    -0.460 OA
BRANCH  27  28
ATOM     28  C   UNL A   1      33.670  32.079  27.661  1.00  0.00     0.338 C 
ATOM     29  O   UNL A   1      33.396  33.268  27.754  1.00  0.00    -0.246 OA
BRANCH  28  30
ATOM     30  C   UNL A   1      34.999  31.552  28.012  1.00  0.00     0.060 A 
ATOM     31  C   UNL A   1      35.113  30.174  28.236  1.00  0.00     0.016 A 
ATOM     32  C   UNL A   1      36.093  32.398  28.206  1.00  0.00     0.016 A 
ATOM     33  C   UNL A   1      36.314  29.640  28.698  1.00  0.00     0.010 A 
ATOM     34  C   UNL A   1      37.294  31.862  28.683  1.00  0.00     0.010 A 
ATOM     35  C   UNL A   1      37.398  30.487  28.962  1.00  0.00    -0.014 A 
BRANCH  35  36
ATOM     36  C   UNL A   1      38.583  29.948  29.669  1.00  0.00     0.031 A 
ATOM     37  C   UNL A   1      38.803  30.314  31.111  1.00  0.00     0.074 A 
ATOM     38  C   UNL A   1      39.424  29.100  29.051  1.00  0.00     0.049 A 
ATOM     39  N   UNL A   1      39.763  29.944  31.920  1.00  0.00    -0.248 NA
ATOM     40  C   UNL A   1      37.806  31.207  31.724  1.00  0.00     0.031 C 
ATOM     41  C   UNL A   1      39.284  28.624  27.676  1.00  0.00     0.029 A 
ATOM     42  N   UNL A   1      40.559  28.481  29.511  1.00  0.00    -0.354 N 
ATOM     43  C   UNL A   1      39.483  30.554  33.137  1.00  0.00     0.074 A 
ATOM     44  C   UNL A   1      38.285  31.342  32.952  1.00  0.00     0.031 C 
ATOM     45  C   UNL A   1      40.294  27.779  27.406  1.00  0.00     0.029 A 
ATOM     46  C   UNL A   1      41.166  27.681  28.575  1.00  0.00     0.049 A 
ATOM     47  H   UNL A   1      40.906  28.601  30.425  1.00  0.00     0.167 HD
ATOM     48  C   UNL A   1      40.157  30.456  34.306  1.00  0.00     0.031 A 
ATOM     49  C   UNL A   1      42.299  26.958  28.651  1.00  0.00     0.031 A 
ATOM     50  C   UNL A   1      41.358  29.688  34.487  1.00  0.00     0.049 A 
ATOM     51  C   UNL A   1      43.089  26.950  29.932  1.00  0.00     0.074 A 
ATOM     52  C   UNL A   1      42.115  29.532  35.636  1.00  0.00     0.029 A 
ATOM     53  N   UNL A   1      41.981  28.952  33.493  1.00  0.00    -0.354 N 
ATOM     54  N   UNL A   1      42.810  27.524  31.077  1.00  0.00    -0.248 NA
ATOM     55  C   UNL A   1      44.349  26.193  29.931  1.00  0.00     0.031 C 
ATOM     56  C   UNL A   1      43.225  28.743  35.322  1.00  0.00     0.029 A 
ATOM     57  C   UNL A   1      43.129  28.362  33.993  1.00  0.00     0.049 A 
ATOM     58  H   UNL A   1      41.656  28.862  32.568  1.00  0.00     0.167 HD
ATOM     59  C   UNL A   1      43.845  27.180  31.937  1.00  0.00     0.074 A 
ATOM     60  C   UNL A   1      44.753  26.338  31.186  1.00  0.00     0.031 C 
ATOM     61  C   UNL A   1      44.024  27.529  33.234  1.00  0.00     0.031 A 
BRANCH  48  62
ATOM     62  C   UNL A   1      39.620  31.218  35.483  1.00  0.00    -0.014 A 
ATOM     63  C   UNL A   1      40.169  32.455  35.855  1.00  0.00     0.009 A 
ATOM     64  C   UNL A   1      38.516  30.721  36.193  1.00  0.00     0.009 A 
ATOM     65  C   UNL A   1      39.636  33.168  36.931  1.00  0.00     0.001 A 
ATOM     66  C   UNL A   1      37.971  31.447  37.254  1.00  0.00     0.001 A 
ATOM     67  C   UNL A   1      38.535  32.667  37.625  1.00  0.00     0.000 A 
ENDBRANCH  48  62
BRANCH  49  68
ATOM     68  C   UNL A   1      42.761  26.181  27.471  1.00  0.00    -0.014 A 
ATOM     69  C   UNL A   1      43.624  26.759  26.529  1.00  0.00     0.009 A 
ATOM     70  C   UNL A   1      42.341  24.854  27.284  1.00  0.00     0.009 A 
ATOM     71  C   UNL A   1      44.049  26.027  25.417  1.00  0.00     0.001 A 
ATOM     72  C   UNL A   1      42.788  24.117  26.186  1.00  0.00     0.001 A 
ATOM     73  C   UNL A   1      43.636  24.706  25.250  1.00  0.00     0.000 A 
ENDBRANCH  49  68
BRANCH  61  74
ATOM     74  C   UNL A   1      45.235  26.990  33.941  1.00  0.00    -0.014 A 
ATOM     75  C   UNL A   1      46.430  27.722  33.990  1.00  0.00     0.009 A 
ATOM     76  C   UNL A   1      45.150  25.774  34.639  1.00  0.00     0.009 A 
ATOM     77  C   UNL A   1      47.524  27.238  34.712  1.00  0.00     0.001 A 
ATOM     78  C   UNL A   1      46.237  25.306  35.379  1.00  0.00     0.001 A 
ATOM     79  C   UNL A   1      47.423  26.035  35.411  1.00  0.00     0.000 A 
ENDBRANCH  61  74
ENDBRANCH  35  36
ENDBRANCH  28  30
ENDBRANCH  27  28
ENDBRANCH  26  27
ENDBRANCH   1  26
TORSDOF 15
ENDMDL
MODEL 3
REMARK VINA RESULT:     -10.4      1.779      6.360
REMARK SMILES Cc1c(Br)c(C)c2c(c1Br)O[C@H](C(F)(F)F)C(C(=O)OCCOCCOC(=O)c1ccc(-c3c4nc(c(-c5ccccc5)c5ccc([nH]5)c(-c5ccccc5)c5nc(c(-c6ccccc6)c6ccc3[nH]6)C=C5)C=C4)cc1)=C2
REMARK SMILES IDX 24 1 23 2 22 3 21 4 20 5 18 6 19 7 17 8 1 9 2 10 3 11 9 12
REMARK SMILES IDX 4 13 5 14 8 15 10 16 6 17 7 18 11 19 77 20 12 21 13 22 14 23
REMARK SMILES IDX 15 24 16 25 25 26 26 27 27 28 28 29 29 30 30 31 76 32 31 33
REMARK SMILES IDX 75 34 32 35 33 36 34 37 69 38 35 39 74 40 68 41 70 42 36 43
REMARK SMILES IDX 73 44 67 45 66 46 37 48 59 49 44 50 58 51 45 52 48 53 57 54
REMARK SMILES IDX 71 55 46 56 47 57 56 59 72 60 49 61 38 62 39 63 43 64 40 65
REMARK SMILES IDX 42 66 41 67 60 68 61 69 65 70 62 71 64 72 63 73 50 74 51 75
REMARK SMILES IDX 55 76 52 77 54 78 53 79
REMARK H PARENT 70 47 48 58
REMARK Flexibility Score: inf
ROOT
ATOM      1  C   UNL A   1      32.757  29.293  24.928  1.00  0.00     0.202 C 
ENDROOT
BRANCH   1   2
ATOM      2  O   UNL A   1      32.726  29.384  23.503  1.00  0.00    -0.374 OA
BRANCH   2   3
ATOM      3  C   UNL A   1      33.539  28.477  22.761  1.00  0.00     0.202 C 
BRANCH   3   4
ATOM      4  C   UNL A   1      33.217  26.990  22.922  1.00  0.00     0.261 C 
BRANCH   4   5
ATOM      5  O   UNL A   1      34.054  26.377  23.916  1.00  0.00    -0.460 OA
BRANCH   5   6
ATOM      6  C   UNL A   1      33.387  25.671  24.855  1.00  0.00     0.338 C 
ATOM      7  O   UNL A   1      32.363  26.004  25.434  1.00  0.00    -0.246 OA
BRANCH   6   8
ATOM      8  C   UNL A   1      34.001  24.341  25.015  1.00  0.00     0.087 C 
ATOM      9  C   UNL A   1      38.147  19.318  25.050  1.00  0.00     0.047 C 
ATOM     10  C   UNL A   1      37.410  20.621  25.258  1.00  0.00    -0.019 A 
ATOM     11  C   UNL A   1      38.066  21.790  25.715  1.00  0.00     0.025 A 
ATOM     12  C   UNL A   1      36.017  20.685  25.033  1.00  0.00     0.064 A 
ATOM     13  Br  UNL A   1      39.923  21.693  26.191  1.00  0.00    -0.050 Br
ATOM     14  C   UNL A   1      37.376  23.021  25.837  1.00  0.00    -0.026 A 
ATOM     15  C   UNL A   1      35.320  21.902  25.133  1.00  0.00     0.142 A 
ATOM     16  Br  UNL A   1      35.026  19.109  24.573  1.00  0.00    -0.046 Br
ATOM     17  C   UNL A   1      38.049  24.287  26.326  1.00  0.00     0.046 C 
ATOM     18  C   UNL A   1      36.003  23.072  25.484  1.00  0.00     0.022 A 
ATOM     19  O   UNL A   1      33.969  21.871  24.898  1.00  0.00    -0.474 OA
ATOM     20  C   UNL A   1      35.275  24.338  25.426  1.00  0.00     0.027 C 
ATOM     21  C   UNL A   1      33.228  23.100  24.701  1.00  0.00     0.316 C 
BRANCH  21  22
ATOM     22  C   UNL A   1      32.649  23.102  23.278  1.00  0.00     0.430 C 
ATOM     23  F   UNL A   1      33.529  23.625  22.391  1.00  0.00    -0.167 F 
ATOM     24  F   UNL A   1      32.369  21.849  22.850  1.00  0.00    -0.167 F 
ATOM     25  F   UNL A   1      31.509  23.824  23.196  1.00  0.00    -0.167 F 
ENDBRANCH  21  22
ENDBRANCH   6   8
ENDBRANCH   5   6
ENDBRANCH   4   5
ENDBRANCH   3   4
ENDBRANCH   2   3
ENDBRANCH   1   2
BRANCH   1  26
ATOM     26  C   UNL A   1      31.908  30.307  25.706  1.00  0.00     0.261 C 
BRANCH  26  27
ATOM     27  O   UNL A   1      32.386  30.488  27.052  1.00  0.00    -0.460 OA
BRANCH  27  28
ATOM     28  C   UNL A   1      33.126  31.604  27.247  1.00  0.00     0.338 C 
ATOM     29  O   UNL A   1      32.748  32.767  27.188  1.00  0.00    -0.246 OA
BRANCH  28  30
ATOM     30  C   UNL A   1      34.465  31.241  27.738  1.00  0.00     0.060 A 
ATOM     31  C   UNL A   1      34.702  29.893  28.040  1.00  0.00     0.016 A 
ATOM     32  C   UNL A   1      35.441  32.207  27.983  1.00  0.00     0.016 A 
ATOM     33  C   UNL A   1      35.904  29.513  28.631  1.00  0.00     0.010 A 
ATOM     34  C   UNL A   1      36.644  31.826  28.590  1.00  0.00     0.010 A 
ATOM     35  C   UNL A   1      36.865  30.483  28.945  1.00  0.00    -0.014 A 
BRANCH  35  36
ATOM     36  C   UNL A   1      38.030  30.106  29.778  1.00  0.00     0.031 A 
ATOM     37  C   UNL A   1      39.097  29.226  29.187  1.00  0.00     0.074 A 
ATOM     38  C   UNL A   1      38.164  30.583  31.029  1.00  0.00     0.049 A 
ATOM     39  N   UNL A   1      40.204  28.788  29.732  1.00  0.00    -0.248 NA
ATOM     40  C   UNL A   1      38.895  28.790  27.795  1.00  0.00     0.031 C 
ATOM     41  C   UNL A   1      37.229  31.490  31.692  1.00  0.00     0.029 A 
ATOM     42  N   UNL A   1      39.153  30.376  31.957  1.00  0.00    -0.354 N 
ATOM     43  C   UNL A   1      40.831  28.032  28.750  1.00  0.00     0.074 A 
ATOM     44  C   UNL A   1      39.969  28.041  27.589  1.00  0.00     0.031 C 
ATOM     45  C   UNL A   1      37.694  31.768  32.922  1.00  0.00     0.029 A 
ATOM     46  C   UNL A   1      38.939  31.035  33.143  1.00  0.00     0.049 A 
ATOM     47  H   UNL A   1      39.940  29.808  31.790  1.00  0.00     0.167 HD
ATOM     48  C   UNL A   1      42.024  27.395  28.807  1.00  0.00     0.031 A 
ATOM     49  C   UNL A   1      39.661  31.039  34.279  1.00  0.00     0.031 A 
ATOM     50  C   UNL A   1      42.873  27.368  29.966  1.00  0.00     0.049 A 
ATOM     51  C   UNL A   1      40.932  30.237  34.353  1.00  0.00     0.074 A 
ATOM     52  C   UNL A   1      44.100  26.744  30.119  1.00  0.00     0.029 A 
ATOM     53  N   UNL A   1      42.583  27.986  31.171  1.00  0.00    -0.354 N 
ATOM     54  N   UNL A   1      41.518  29.531  33.415  1.00  0.00    -0.248 NA
ATOM     55  C   UNL A   1      41.642  30.232  35.640  1.00  0.00     0.031 C 
ATOM     56  C   UNL A   1      44.528  26.942  31.435  1.00  0.00     0.029 A 
ATOM     57  C   UNL A   1      43.594  27.736  32.083  1.00  0.00     0.049 A 
ATOM     58  H   UNL A   1      41.778  28.523  31.352  1.00  0.00     0.167 HD
ATOM     59  C   UNL A   1      42.674  29.019  33.992  1.00  0.00     0.074 A 
ATOM     60  C   UNL A   1      42.714  29.503  35.357  1.00  0.00     0.031 C 
ATOM     61  C   UNL A   1      43.619  28.221  33.438  1.00  0.00     0.031 A 
BRANCH  48  62
ATOM     62  C   UNL A   1      42.474  26.653  27.581  1.00  0.00    -0.014 A 
ATOM     63  C   UNL A   1      42.104  25.317  27.369  1.00  0.00     0.009 A 
ATOM     64  C   UNL A   1      43.229  27.316  26.601  1.00  0.00     0.009 A 
ATOM     65  C   UNL A   1      42.502  24.651  26.207  1.00  0.00     0.001 A 
ATOM     66  C   UNL A   1      43.606  26.655  25.431  1.00  0.00     0.001 A 
ATOM     67  C   UNL A   1      43.247  25.322  25.237  1.00  0.00     0.000 A 
ENDBRANCH  48  62
BRANCH  49  68
ATOM     68  C   UNL A   1      39.196  31.831  35.448  1.00  0.00    -0.014 A 
ATOM     69  C   UNL A   1      39.606  33.161  35.616  1.00  0.00     0.009 A 
ATOM     70  C   UNL A   1      38.336  31.258  36.399  1.00  0.00     0.009 A 
ATOM     71  C   UNL A   1      39.172  33.900  36.720  1.00  0.00     0.001 A 
ATOM     72  C   UNL A   1      37.884  32.007  37.487  1.00  0.00     0.001 A 
ATOM     73  C   UNL A   1      38.308  33.325  37.650  1.00  0.00     0.000 A 
ENDBRANCH  49  68
BRANCH  61  74
ATOM     74  C   UNL A   1      44.791  27.831  34.292  1.00  0.00    -0.014 A 
ATOM     75  C   UNL A   1      45.865  28.710  34.493  1.00  0.00     0.009 A 
ATOM     76  C   UNL A   1      44.778  26.602  34.972  1.00  0.00     0.009 A 
ATOM     77  C   UNL A   1      46.913  28.359  35.348  1.00  0.00     0.001 A 
ATOM     78  C   UNL A   1      45.814  26.265  35.844  1.00  0.00     0.001 A 
ATOM     79  C   UNL A   1      46.882  27.141  36.027  1.00  0.00     0.000 A 
ENDBRANCH  61  74
ENDBRANCH  35  36
ENDBRANCH  28  30
ENDBRANCH  27  28
ENDBRANCH  26  27
ENDBRANCH   1  26
TORSDOF 15
ENDMDL
