MODEL 1
REMARK VINA RESULT:     -11.4      0.000      0.000
REMARK SMILES Cc1c(CCC(=O)N2CCC(C(=O)OCCOCCOC(=O)c3ccc(-c4c5nc(c(-c6ccccc6)c6ccc([nH]6)c(-c6ccccc6)c6nc(c(-c7ccccc7)c7ccc4[nH]7)C=C6)C=C5)cc3)CC2)c(=O)oc2cc3oc4c(c3cc12)CCCC4
REMARK SMILES IDX 16 1 15 2 14 3 12 4 13 5 11 6 6 7 7 8 8 9 9 10 72 11 10 12
REMARK SMILES IDX 71 13 5 14 4 15 3 16 1 17 2 18 84 19 73 20 76 21 83 22 74 23
REMARK SMILES IDX 75 24 77 25 82 26 78 27 81 28 79 29 80 30 85 31 88 32 86 33
REMARK SMILES IDX 87 34 17 35 18 36 19 37 20 38 21 39 22 40 23 41 24 42 70 43
REMARK SMILES IDX 25 44 69 45 26 46 27 47 28 48 63 49 29 50 68 51 62 52 64 53
REMARK SMILES IDX 30 54 67 55 61 56 60 57 31 59 53 60 38 61 52 62 39 63 42 64
REMARK SMILES IDX 51 65 65 66 40 67 41 68 50 70 66 71 43 72 32 73 33 74 37 75
REMARK SMILES IDX 34 76 36 77 35 78 54 79 55 80 59 81 56 82 58 83 57 84 44 85
REMARK SMILES IDX 45 86 49 87 46 88 48 89 47 90
REMARK H PARENT 64 58 42 69
REMARK Flexibility Score: inf
ROOT
ATOM      1  C   UNL A   1      34.209  23.362  22.788  1.00  0.00     0.202 C 
ENDROOT
BRANCH   1   2
ATOM      2  C   UNL A   1      32.897  24.000  22.322  1.00  0.00     0.261 C 
BRANCH   2   3
ATOM      3  O   UNL A   1      32.204  24.876  23.234  1.00  0.00    -0.463 OA
BRANCH   3   4
ATOM      4  C   UNL A   1      31.890  26.092  22.722  1.00  0.00     0.309 C 
ATOM      5  O   UNL A   1      31.427  26.265  21.599  1.00  0.00    -0.252 OA
BRANCH   4   6
ATOM      6  C   UNL A   1      32.338  27.272  23.552  1.00  0.00     0.103 C 
ATOM      7  C   UNL A   1      33.554  29.687  26.863  1.00  0.00     0.222 C 
ATOM      8  O   UNL A   1      32.836  30.583  27.313  1.00  0.00    -0.275 OA
ATOM      9  N   UNL A   1      33.163  28.956  25.741  1.00  0.00    -0.343 N 
ATOM     10  C   UNL A   1      32.342  29.549  24.661  1.00  0.00     0.120 C 
ATOM     11  C   UNL A   1      33.671  27.635  25.540  1.00  0.00     0.120 C 
ATOM     12  C   UNL A   1      31.528  28.543  23.782  1.00  0.00     0.037 C 
ATOM     13  C   UNL A   1      32.651  26.722  24.921  1.00  0.00     0.037 C 
BRANCH   7  14
ATOM     14  C   UNL A   1      34.997  29.490  27.429  1.00  0.00     0.105 C 
BRANCH  14  15
ATOM     15  C   UNL A   1      35.875  30.648  27.975  1.00  0.00     0.053 C 
BRANCH  15  16
ATOM     16  C   UNL A   1      35.539  31.154  29.375  1.00  0.00     0.042 A 
ATOM     17  C   UNL A   1      36.695  29.226  30.569  1.00  0.00     0.046 C 
ATOM     18  C   UNL A   1      36.019  30.575  30.491  1.00  0.00    -0.030 A 
ATOM     19  C   UNL A   1      36.113  31.447  31.658  1.00  0.00     0.022 A 
ATOM     20  C   UNL A   1      34.648  32.356  29.505  1.00  0.00     0.339 A 
ATOM     21  C   UNL A   1      35.207  32.479  31.861  1.00  0.00     0.142 A 
ATOM     22  C   UNL A   1      37.216  31.356  32.491  1.00  0.00     0.024 A 
ATOM     23  O   UNL A   1      34.144  32.875  28.515  1.00  0.00    -0.246 OA
ATOM     24  O   UNL A   1      34.344  32.808  30.798  1.00  0.00    -0.422 OA
ATOM     25  C   UNL A   1      35.159  33.226  33.058  1.00  0.00     0.095 A 
ATOM     26  C   UNL A   1      37.324  32.234  33.560  1.00  0.00     0.025 A 
ATOM     27  C   UNL A   1      36.219  32.982  33.935  1.00  0.00     0.138 A 
ATOM     28  C   UNL A   1      38.312  32.463  34.518  1.00  0.00     0.001 A 
ATOM     29  O   UNL A   1      36.349  33.277  35.282  1.00  0.00    -0.461 OA
ATOM     30  C   UNL A   1      37.575  32.775  35.630  1.00  0.00     0.108 A 
ATOM     31  C   UNL A   1      39.657  31.884  34.635  1.00  0.00     0.040 C 
ATOM     32  C   UNL A   1      37.859  32.082  36.922  1.00  0.00     0.076 C 
ATOM     33  C   UNL A   1      39.603  30.645  35.517  1.00  0.00     0.005 C 
ATOM     34  C   UNL A   1      38.432  30.670  36.539  1.00  0.00     0.008 C 
ENDBRANCH  15  16
ENDBRANCH  14  15
ENDBRANCH   7  14
ENDBRANCH   4   6
ENDBRANCH   3   4
ENDBRANCH   2   3
ENDBRANCH   1   2
BRANCH   1  35
ATOM     35  O   UNL A   1      34.158  22.497  23.908  1.00  0.00    -0.374 OA
BRANCH  35  36
ATOM     36  C   UNL A   1      34.305  23.052  25.212  1.00  0.00     0.202 C 
BRANCH  36  37
ATOM     37  C   UNL A   1      35.396  22.490  26.140  1.00  0.00     0.261 C 
BRANCH  37  38
ATOM     38  O   UNL A   1      36.632  23.235  26.084  1.00  0.00    -0.460 OA
BRANCH  38  39
ATOM     39  C   UNL A   1      37.770  22.506  25.908  1.00  0.00     0.338 C 
ATOM     40  O   UNL A   1      37.908  21.523  25.221  1.00  0.00    -0.246 OA
BRANCH  39  41
ATOM     41  C   UNL A   1      38.917  23.264  26.474  1.00  0.00     0.060 A 
ATOM     42  C   UNL A   1      40.166  22.680  26.677  1.00  0.00     0.016 A 
ATOM     43  C   UNL A   1      38.697  24.596  26.849  1.00  0.00     0.016 A 
ATOM     44  C   UNL A   1      41.196  23.440  27.246  1.00  0.00     0.010 A 
ATOM     45  C   UNL A   1      39.714  25.334  27.458  1.00  0.00     0.010 A 
ATOM     46  C   UNL A   1      40.983  24.774  27.647  1.00  0.00    -0.014 A 
BRANCH  46  47
ATOM     47  C   UNL A   1      42.139  25.603  28.069  1.00  0.00     0.031 A 
ATOM     48  C   UNL A   1      41.867  27.033  28.441  1.00  0.00     0.074 A 
ATOM     49  C   UNL A   1      43.288  25.069  28.532  1.00  0.00     0.049 A 
ATOM     50  N   UNL A   1      41.601  27.448  29.650  1.00  0.00    -0.248 NA
ATOM     51  C   UNL A   1      41.644  28.042  27.404  1.00  0.00     0.031 C 
ATOM     52  C   UNL A   1      43.341  23.984  29.519  1.00  0.00     0.029 A 
ATOM     53  N   UNL A   1      44.577  25.539  28.467  1.00  0.00    -0.354 N 
ATOM     54  C   UNL A   1      41.146  28.755  29.537  1.00  0.00     0.074 A 
ATOM     55  C   UNL A   1      41.191  29.076  28.126  1.00  0.00     0.031 C 
ATOM     56  C   UNL A   1      44.565  23.986  30.090  1.00  0.00     0.029 A 
ATOM     57  C   UNL A   1      45.420  24.952  29.404  1.00  0.00     0.049 A 
ATOM     58  H   UNL A   1      44.874  26.221  27.823  1.00  0.00     0.167 HD
ATOM     59  C   UNL A   1      40.748  29.533  30.582  1.00  0.00     0.031 A 
ATOM     60  C   UNL A   1      46.536  25.541  29.915  1.00  0.00     0.031 A 
ATOM     61  C   UNL A   1      40.870  28.970  31.889  1.00  0.00     0.049 A 
ATOM     62  C   UNL A   1      45.912  26.518  30.882  1.00  0.00     0.074 A 
ATOM     63  C   UNL A   1      40.065  28.378  32.839  1.00  0.00     0.029 A 
ATOM     64  N   UNL A   1      42.104  29.006  32.489  1.00  0.00    -0.354 N 
ATOM     65  N   UNL A   1      45.451  26.267  32.075  1.00  0.00    -0.248 NA
ATOM     66  C   UNL A   1      45.487  27.801  30.319  1.00  0.00     0.031 C 
ATOM     67  C   UNL A   1      40.957  27.682  33.719  1.00  0.00     0.029 A 
ATOM     68  C   UNL A   1      42.243  27.847  33.208  1.00  0.00     0.049 A 
ATOM     69  H   UNL A   1      42.768  29.730  32.417  1.00  0.00     0.167 HD
ATOM     70  C   UNL A   1      44.449  27.216  32.294  1.00  0.00     0.074 A 
ATOM     71  C   UNL A   1      44.535  28.135  31.176  1.00  0.00     0.031 C 
ATOM     72  C   UNL A   1      43.492  27.110  33.264  1.00  0.00     0.031 A 
BRANCH  59  73
ATOM     73  C   UNL A   1      40.368  30.955  30.425  1.00  0.00    -0.014 A 
ATOM     74  C   UNL A   1      39.324  31.358  29.584  1.00  0.00     0.009 A 
ATOM     75  C   UNL A   1      40.987  31.908  31.249  1.00  0.00     0.009 A 
ATOM     76  C   UNL A   1      38.899  32.691  29.584  1.00  0.00     0.001 A 
ATOM     77  C   UNL A   1      40.556  33.234  31.255  1.00  0.00     0.001 A 
ATOM     78  C   UNL A   1      39.508  33.624  30.426  1.00  0.00     0.000 A 
ENDBRANCH  59  73
BRANCH  60  79
ATOM     79  C   UNL A   1      47.570  25.982  28.916  1.00  0.00    -0.014 A 
ATOM     80  C   UNL A   1      47.275  26.597  27.690  1.00  0.00     0.009 A 
ATOM     81  C   UNL A   1      48.932  25.776  29.219  1.00  0.00     0.009 A 
ATOM     82  C   UNL A   1      48.279  26.844  26.743  1.00  0.00     0.001 A 
ATOM     83  C   UNL A   1      49.938  26.052  28.289  1.00  0.00     0.001 A 
ATOM     84  C   UNL A   1      49.608  26.555  27.036  1.00  0.00     0.000 A 
ENDBRANCH  60  79
BRANCH  72  85
ATOM     85  C   UNL A   1      43.679  26.018  34.277  1.00  0.00    -0.014 A 
ATOM     86  C   UNL A   1      44.505  26.200  35.396  1.00  0.00     0.009 A 
ATOM     87  C   UNL A   1      43.085  24.761  34.089  1.00  0.00     0.009 A 
ATOM     88  C   UNL A   1      44.781  25.134  36.254  1.00  0.00     0.001 A 
ATOM     89  C   UNL A   1      43.325  23.710  34.979  1.00  0.00     0.001 A 
ATOM     90  C   UNL A   1      44.189  23.893  36.053  1.00  0.00     0.000 A 
ENDBRANCH  72  85
ENDBRANCH  46  47
ENDBRANCH  39  41
ENDBRANCH  38  39
ENDBRANCH  37  38
ENDBRANCH  36  37
ENDBRANCH  35  36
ENDBRANCH   1  35
TORSDOF 17
ENDMDL
MODEL 2
REMARK VINA RESULT:     -10.9      2.008      4.075
REMARK SMILES Cc1c(CCC(=O)N2CCC(C(=O)OCCOCCOC(=O)c3ccc(-c4c5nc(c(-c6ccccc6)c6ccc([nH]6)c(-c6ccccc6)c6nc(c(-c7ccccc7)c7ccc4[nH]7)C=C6)C=C5)cc3)CC2)c(=O)oc2cc3oc4c(c3cc12)CCCC4
REMARK SMILES IDX 16 1 15 2 14 3 12 4 13 5 11 6 6 7 7 8 8 9 9 10 72 11 10 12
REMARK SMILES IDX 71 13 5 14 4 15 3 16 1 17 2 18 84 19 73 20 76 21 83 22 74 23
REMARK SMILES IDX 75 24 77 25 82 26 78 27 81 28 79 29 80 30 85 31 88 32 86 33
REMARK SMILES IDX 87 34 17 35 18 36 19 37 20 38 21 39 22 40 23 41 24 42 70 43
REMARK SMILES IDX 25 44 69 45 26 46 27 47 28 48 63 49 29 50 68 51 62 52 64 53
REMARK SMILES IDX 30 54 67 55 61 56 60 57 31 59 53 60 38 61 52 62 39 63 42 64
REMARK SMILES IDX 51 65 65 66 40 67 41 68 50 70 66 71 43 72 32 73 33 74 37 75
REMARK SMILES IDX 34 76 36 77 35 78 54 79 55 80 59 81 56 82 58 83 57 84 44 85
REMARK SMILES IDX 45 86 49 87 46 88 48 89 47 90
REMARK H PARENT 64 58 42 69
REMARK Flexibility Score: inf
ROOT
ATOM      1  C   UNL A   1      35.018  18.418  24.601  1.00  0.00     0.202 C 
ENDROOT
BRANCH   1   2
ATOM      2  C   UNL A   1      33.770  19.308  24.607  1.00  0.00     0.261 C 
BRANCH   2   3
ATOM      3  O   UNL A   1      33.114  19.552  25.867  1.00  0.00    -0.463 OA
BRANCH   3   4
ATOM      4  C   UNL A   1      33.240  20.818  26.335  1.00  0.00     0.309 C 
ATOM      5  O   UNL A   1      33.879  21.119  27.339  1.00  0.00    -0.252 OA
BRANCH   4   6
ATOM      6  C   UNL A   1      32.366  21.844  25.652  1.00  0.00     0.103 C 
ATOM      7  C   UNL A   1      30.852  25.557  24.172  1.00  0.00     0.222 C 
ATOM      8  O   UNL A   1      29.827  26.069  24.629  1.00  0.00    -0.275 OA
ATOM      9  N   UNL A   1      31.289  24.313  24.627  1.00  0.00    -0.343 N 
ATOM     10  C   UNL A   1      30.349  23.264  25.081  1.00  0.00     0.120 C 
ATOM     11  C   UNL A   1      32.674  23.968  24.532  1.00  0.00     0.120 C 
ATOM     12  C   UNL A   1      30.935  22.184  26.050  1.00  0.00     0.037 C 
ATOM     13  C   UNL A   1      33.134  23.141  25.699  1.00  0.00     0.037 C 
BRANCH   7  14
ATOM     14  C   UNL A   1      31.565  26.209  22.945  1.00  0.00     0.105 C 
BRANCH  14  15
ATOM     15  C   UNL A   1      32.695  27.267  23.064  1.00  0.00     0.053 C 
BRANCH  15  16
ATOM     16  C   UNL A   1      32.693  28.123  24.328  1.00  0.00     0.042 A 
ATOM     17  C   UNL A   1      34.106  26.491  25.678  1.00  0.00     0.046 C 
ATOM     18  C   UNL A   1      33.424  27.814  25.415  1.00  0.00    -0.030 A 
ATOM     19  C   UNL A   1      33.783  28.941  26.269  1.00  0.00     0.022 A 
ATOM     20  C   UNL A   1      31.851  29.365  24.347  1.00  0.00     0.339 A 
ATOM     21  C   UNL A   1      32.945  30.040  26.403  1.00  0.00     0.142 A 
ATOM     22  C   UNL A   1      35.051  29.001  26.824  1.00  0.00     0.024 A 
ATOM     23  O   UNL A   1      31.126  29.649  23.399  1.00  0.00    -0.246 OA
ATOM     24  O   UNL A   1      31.855  30.141  25.516  1.00  0.00    -0.422 OA
ATOM     25  C   UNL A   1      33.175  31.063  27.349  1.00  0.00     0.095 A 
ATOM     26  C   UNL A   1      35.401  30.110  27.580  1.00  0.00     0.025 A 
ATOM     27  C   UNL A   1      34.411  30.987  27.995  1.00  0.00     0.138 A 
ATOM     28  C   UNL A   1      36.585  30.515  28.198  1.00  0.00     0.001 A 
ATOM     29  O   UNL A   1      34.851  31.600  29.155  1.00  0.00    -0.461 OA
ATOM     30  C   UNL A   1      36.127  31.135  29.332  1.00  0.00     0.108 A 
ATOM     31  C   UNL A   1      37.923  29.911  28.149  1.00  0.00     0.040 C 
ATOM     32  C   UNL A   1      36.709  30.769  30.657  1.00  0.00     0.076 C 
ATOM     33  C   UNL A   1      38.083  28.936  29.306  1.00  0.00     0.005 C 
ATOM     34  C   UNL A   1      37.184  29.277  30.526  1.00  0.00     0.008 C 
ENDBRANCH  15  16
ENDBRANCH  14  15
ENDBRANCH   7  14
ENDBRANCH   4   6
ENDBRANCH   3   4
ENDBRANCH   2   3
ENDBRANCH   1   2
BRANCH   1  35
ATOM     35  O   UNL A   1      36.273  19.045  24.794  1.00  0.00    -0.374 OA
BRANCH  35  36
ATOM     36  C   UNL A   1      36.331  20.468  24.833  1.00  0.00     0.202 C 
BRANCH  36  37
ATOM     37  C   UNL A   1      37.630  21.146  25.302  1.00  0.00     0.261 C 
BRANCH  37  38
ATOM     38  O   UNL A   1      37.676  22.558  25.004  1.00  0.00    -0.460 OA
BRANCH  38  39
ATOM     39  C   UNL A   1      37.399  23.404  26.037  1.00  0.00     0.338 C 
ATOM     40  O   UNL A   1      36.350  23.524  26.620  1.00  0.00    -0.246 OA
BRANCH  39  41
ATOM     41  C   UNL A   1      38.675  23.978  26.541  1.00  0.00     0.060 A 
ATOM     42  C   UNL A   1      39.893  23.315  26.403  1.00  0.00     0.016 A 
ATOM     43  C   UNL A   1      38.618  25.207  27.212  1.00  0.00     0.016 A 
ATOM     44  C   UNL A   1      41.055  23.894  26.930  1.00  0.00     0.010 A 
ATOM     45  C   UNL A   1      39.772  25.756  27.775  1.00  0.00     0.010 A 
ATOM     46  C   UNL A   1      41.009  25.119  27.625  1.00  0.00    -0.014 A 
BRANCH  46  47
ATOM     47  C   UNL A   1      42.276  25.792  28.003  1.00  0.00     0.031 A 
ATOM     48  C   UNL A   1      42.199  27.234  28.416  1.00  0.00     0.074 A 
ATOM     49  C   UNL A   1      43.373  25.111  28.395  1.00  0.00     0.049 A 
ATOM     50  N   UNL A   1      42.045  27.646  29.646  1.00  0.00    -0.248 NA
ATOM     51  C   UNL A   1      42.049  28.288  27.413  1.00  0.00     0.031 C 
ATOM     52  C   UNL A   1      43.343  24.003  29.356  1.00  0.00     0.029 A 
ATOM     53  N   UNL A   1      44.706  25.424  28.272  1.00  0.00    -0.354 N 
ATOM     54  C   UNL A   1      41.747  29.001  29.582  1.00  0.00     0.074 A 
ATOM     55  C   UNL A   1      41.760  29.350  28.177  1.00  0.00     0.031 C 
ATOM     56  C   UNL A   1      44.585  23.842  29.862  1.00  0.00     0.029 A 
ATOM     57  C   UNL A   1      45.516  24.716  29.152  1.00  0.00     0.049 A 
ATOM     58  H   UNL A   1      45.051  26.083  27.627  1.00  0.00     0.167 HD
ATOM     59  C   UNL A   1      41.498  29.794  30.662  1.00  0.00     0.031 A 
ATOM     60  C   UNL A   1      46.719  25.153  29.616  1.00  0.00     0.031 A 
ATOM     61  C   UNL A   1      41.616  29.186  31.950  1.00  0.00     0.049 A 
ATOM     62  C   UNL A   1      46.267  26.173  30.633  1.00  0.00     0.074 A 
ATOM     63  C   UNL A   1      40.792  28.671  32.928  1.00  0.00     0.029 A 
ATOM     64  N   UNL A   1      42.873  29.058  32.485  1.00  0.00    -0.354 N 
ATOM     65  N   UNL A   1      45.838  25.948  31.844  1.00  0.00    -0.248 NA
ATOM     66  C   UNL A   1      45.973  27.513  30.118  1.00  0.00     0.031 C 
ATOM     67  C   UNL A   1      41.635  27.850  33.747  1.00  0.00     0.029 A 
ATOM     68  C   UNL A   1      42.905  27.872  33.172  1.00  0.00     0.049 A 
ATOM     69  H   UNL A   1      43.615  29.699  32.393  1.00  0.00     0.167 HD
ATOM     70  C   UNL A   1      44.970  27.006  32.132  1.00  0.00     0.074 A 
ATOM     71  C   UNL A   1      45.112  27.935  31.030  1.00  0.00     0.031 C 
ATOM     72  C   UNL A   1      44.057  26.990  33.149  1.00  0.00     0.031 A 
BRANCH  59  73
ATOM     73  C   UNL A   1      41.286  31.255  30.553  1.00  0.00    -0.014 A 
ATOM     74  C   UNL A   1      42.321  32.133  30.213  1.00  0.00     0.009 A 
ATOM     75  C   UNL A   1      39.978  31.751  30.663  1.00  0.00     0.009 A 
ATOM     76  C   UNL A   1      42.043  33.484  29.972  1.00  0.00     0.001 A 
ATOM     77  C   UNL A   1      39.701  33.095  30.413  1.00  0.00     0.001 A 
ATOM     78  C   UNL A   1      40.734  33.960  30.062  1.00  0.00     0.000 A 
ENDBRANCH  59  73
BRANCH  60  79
ATOM     79  C   UNL A   1      47.749  25.493  28.573  1.00  0.00    -0.014 A 
ATOM     80  C   UNL A   1      47.641  25.158  27.215  1.00  0.00     0.009 A 
ATOM     81  C   UNL A   1      48.902  26.200  28.970  1.00  0.00     0.009 A 
ATOM     82  C   UNL A   1      48.707  25.372  26.329  1.00  0.00     0.001 A 
ATOM     83  C   UNL A   1      49.953  26.444  28.081  1.00  0.00     0.001 A 
ATOM     84  C   UNL A   1      49.869  25.999  26.767  1.00  0.00     0.000 A 
ENDBRANCH  60  79
BRANCH  72  85
ATOM     85  C   UNL A   1      44.160  25.858  34.129  1.00  0.00    -0.014 A 
ATOM     86  C   UNL A   1      43.477  24.651  33.918  1.00  0.00     0.009 A 
ATOM     87  C   UNL A   1      44.891  26.006  35.318  1.00  0.00     0.009 A 
ATOM     88  C   UNL A   1      43.469  23.660  34.900  1.00  0.00     0.001 A 
ATOM     89  C   UNL A   1      44.920  24.990  36.277  1.00  0.00     0.001 A 
ATOM     90  C   UNL A   1      44.193  23.823  36.075  1.00  0.00     0.000 A 
ENDBRANCH  72  85
ENDBRANCH  46  47
ENDBRANCH  39  41
ENDBRANCH  38  39
ENDBRANCH  37  38
ENDBRANCH  36  37
ENDBRANCH  35  36
ENDBRANCH   1  35
TORSDOF 17
ENDMDL
MODEL 3
REMARK VINA RESULT:     -10.4      5.935      9.768
REMARK SMILES Cc1c(CCC(=O)N2CCC(C(=O)OCCOCCOC(=O)c3ccc(-c4c5nc(c(-c6ccccc6)c6ccc([nH]6)c(-c6ccccc6)c6nc(c(-c7ccccc7)c7ccc4[nH]7)C=C6)C=C5)cc3)CC2)c(=O)oc2cc3oc4c(c3cc12)CCCC4
REMARK SMILES IDX 16 1 15 2 14 3 12 4 13 5 11 6 6 7 7 8 8 9 9 10 72 11 10 12
REMARK SMILES IDX 71 13 5 14 4 15 3 16 1 17 2 18 84 19 73 20 76 21 83 22 74 23
REMARK SMILES IDX 75 24 77 25 82 26 78 27 81 28 79 29 80 30 85 31 88 32 86 33
REMARK SMILES IDX 87 34 17 35 18 36 19 37 20 38 21 39 22 40 23 41 24 42 70 43
REMARK SMILES IDX 25 44 69 45 26 46 27 47 28 48 63 49 29 50 68 51 62 52 64 53
REMARK SMILES IDX 30 54 67 55 61 56 60 57 31 59 53 60 38 61 52 62 39 63 42 64
REMARK SMILES IDX 51 65 65 66 40 67 41 68 50 70 66 71 43 72 32 73 33 74 37 75
REMARK SMILES IDX 34 76 36 77 35 78 54 79 55 80 59 81 56 82 58 83 57 84 44 85
REMARK SMILES IDX 45 86 49 87 46 88 48 89 47 90
REMARK H PARENT 64 58 42 69
REMARK Flexibility Score: inf
ROOT
ATOM      1  C   UNL A   1      45.052  19.231  23.924  1.00  0.00     0.202 C 
ENDROOT
BRANCH   1   2
ATOM      2  C   UNL A   1      44.080  18.766  25.013  1.00  0.00     0.261 C 
BRANCH   2   3
ATOM      3  O   UNL A   1      42.772  19.371  25.063  1.00  0.00    -0.463 OA
BRANCH   3   4
ATOM      4  C   UNL A   1      42.322  19.645  26.312  1.00  0.00     0.309 C 
ATOM      5  O   UNL A   1      42.276  18.821  27.221  1.00  0.00    -0.252 OA
BRANCH   4   6
ATOM      6  C   UNL A   1      41.678  21.001  26.478  1.00  0.00     0.103 C 
ATOM      7  C   UNL A   1      40.542  24.792  28.093  1.00  0.00     0.222 C 
ATOM      8  O   UNL A   1      39.392  25.017  28.478  1.00  0.00    -0.275 OA
ATOM      9  N   UNL A   1      40.872  23.569  27.510  1.00  0.00    -0.343 N 
ATOM     10  C   UNL A   1      39.900  22.790  26.709  1.00  0.00     0.120 C 
ATOM     11  C   UNL A   1      42.221  23.099  27.558  1.00  0.00     0.120 C 
ATOM     12  C   UNL A   1      40.179  21.255  26.589  1.00  0.00     0.037 C 
ATOM     13  C   UNL A   1      42.297  21.607  27.713  1.00  0.00     0.037 C 
BRANCH   7  14
ATOM     14  C   UNL A   1      41.596  25.946  28.081  1.00  0.00     0.105 C 
BRANCH  14  15
ATOM     15  C   UNL A   1      41.614  27.087  27.028  1.00  0.00     0.053 C 
BRANCH  15  16
ATOM     16  C   UNL A   1      42.982  27.482  26.479  1.00  0.00     0.042 A 
ATOM     17  C   UNL A   1      43.102  29.662  27.787  1.00  0.00     0.046 C 
ATOM     18  C   UNL A   1      43.662  28.554  26.926  1.00  0.00    -0.030 A 
ATOM     19  C   UNL A   1      45.111  28.487  26.768  1.00  0.00     0.022 A 
ATOM     20  C   UNL A   1      43.595  26.627  25.408  1.00  0.00     0.339 A 
ATOM     21  C   UNL A   1      45.689  27.814  25.699  1.00  0.00     0.142 A 
ATOM     22  C   UNL A   1      45.931  28.955  27.781  1.00  0.00     0.024 A 
ATOM     23  O   UNL A   1      42.982  25.677  24.933  1.00  0.00    -0.246 OA
ATOM     24  O   UNL A   1      44.851  27.004  24.909  1.00  0.00    -0.422 OA
ATOM     25  C   UNL A   1      47.071  27.876  25.418  1.00  0.00     0.095 A 
ATOM     26  C   UNL A   1      47.306  28.826  27.646  1.00  0.00     0.025 A 
ATOM     27  C   UNL A   1      47.836  28.498  26.407  1.00  0.00     0.138 A 
ATOM     28  C   UNL A   1      48.384  29.108  28.485  1.00  0.00     0.001 A 
ATOM     29  O   UNL A   1      49.123  29.004  26.354  1.00  0.00    -0.461 OA
ATOM     30  C   UNL A   1      49.342  29.529  27.601  1.00  0.00     0.108 A 
ATOM     31  C   UNL A   1      48.390  29.557  29.884  1.00  0.00     0.040 C 
ATOM     32  C   UNL A   1      50.070  30.807  27.855  1.00  0.00     0.076 C 
ATOM     33  C   UNL A   1      48.428  31.079  29.929  1.00  0.00     0.005 C 
ATOM     34  C   UNL A   1      49.081  31.715  28.672  1.00  0.00     0.008 C 
ENDBRANCH  15  16
ENDBRANCH  14  15
ENDBRANCH   7  14
ENDBRANCH   4   6
ENDBRANCH   3   4
ENDBRANCH   2   3
ENDBRANCH   1   2
BRANCH   1  35
ATOM     35  O   UNL A   1      46.006  20.218  24.271  1.00  0.00    -0.374 OA
BRANCH  35  36
ATOM     36  C   UNL A   1      45.717  21.101  25.352  1.00  0.00     0.202 C 
BRANCH  36  37
ATOM     37  C   UNL A   1      44.916  22.384  25.070  1.00  0.00     0.261 C 
BRANCH  37  38
ATOM     38  O   UNL A   1      45.182  23.442  26.016  1.00  0.00    -0.460 OA
BRANCH  38  39
ATOM     39  C   UNL A   1      46.392  24.062  25.906  1.00  0.00     0.338 C 
ATOM     40  O   UNL A   1      46.974  24.349  24.889  1.00  0.00    -0.246 OA
BRANCH  39  41
ATOM     41  C   UNL A   1      46.779  24.595  27.239  1.00  0.00     0.060 A 
ATOM     42  C   UNL A   1      45.845  24.829  28.245  1.00  0.00     0.016 A 
ATOM     43  C   UNL A   1      48.129  24.907  27.450  1.00  0.00     0.016 A 
ATOM     44  C   UNL A   1      46.270  25.365  29.468  1.00  0.00     0.010 A 
ATOM     45  C   UNL A   1      48.540  25.483  28.654  1.00  0.00     0.010 A 
ATOM     46  C   UNL A   1      47.621  25.702  29.687  1.00  0.00    -0.014 A 
BRANCH  46  47
ATOM     47  C   UNL A   1      48.066  26.088  31.048  1.00  0.00     0.031 A 
ATOM     48  C   UNL A   1      47.071  25.957  32.166  1.00  0.00     0.074 A 
ATOM     49  C   UNL A   1      49.367  26.135  31.403  1.00  0.00     0.049 A 
ATOM     50  N   UNL A   1      46.930  24.896  32.914  1.00  0.00    -0.248 NA
ATOM     51  C   UNL A   1      46.008  26.948  32.335  1.00  0.00     0.031 C 
ATOM     52  C   UNL A   1      50.339  25.087  31.073  1.00  0.00     0.029 A 
ATOM     53  N   UNL A   1      50.008  26.919  32.332  1.00  0.00    -0.354 N 
ATOM     54  C   UNL A   1      45.751  25.059  33.628  1.00  0.00     0.074 A 
ATOM     55  C   UNL A   1      45.217  26.345  33.233  1.00  0.00     0.031 C 
ATOM     56  C   UNL A   1      51.389  25.198  31.915  1.00  0.00     0.029 A 
ATOM     57  C   UNL A   1      51.239  26.406  32.724  1.00  0.00     0.049 A 
ATOM     58  H   UNL A   1      49.633  27.759  32.684  1.00  0.00     0.167 HD
ATOM     59  C   UNL A   1      45.244  24.153  34.511  1.00  0.00     0.031 A 
ATOM     60  C   UNL A   1      51.827  26.645  33.927  1.00  0.00     0.031 A 
ATOM     61  C   UNL A   1      46.026  22.982  34.753  1.00  0.00     0.049 A 
ATOM     62  C   UNL A   1      51.010  25.739  34.817  1.00  0.00     0.074 A 
ATOM     63  C   UNL A   1      46.049  21.657  34.372  1.00  0.00     0.029 A 
ATOM     64  N   UNL A   1      47.069  23.080  35.640  1.00  0.00    -0.354 N 
ATOM     65  N   UNL A   1      51.137  24.451  34.966  1.00  0.00    -0.248 NA
ATOM     66  C   UNL A   1      49.749  26.293  35.318  1.00  0.00     0.031 C 
ATOM     67  C   UNL A   1      47.369  21.191  34.679  1.00  0.00     0.029 A 
ATOM     68  C   UNL A   1      48.081  22.285  35.169  1.00  0.00     0.049 A 
ATOM     69  H   UNL A   1      47.088  23.623  36.461  1.00  0.00     0.167 HD
ATOM     70  C   UNL A   1      49.862  23.989  35.309  1.00  0.00     0.074 A 
ATOM     71  C   UNL A   1      49.063  25.179  35.518  1.00  0.00     0.031 C 
ATOM     72  C   UNL A   1      49.476  22.680  35.230  1.00  0.00     0.031 A 
BRANCH  59  73
ATOM     73  C   UNL A   1      44.037  24.414  35.325  1.00  0.00    -0.014 A 
ATOM     74  C   UNL A   1      44.050  25.294  36.414  1.00  0.00     0.009 A 
ATOM     75  C   UNL A   1      42.814  23.866  34.906  1.00  0.00     0.009 A 
ATOM     76  C   UNL A   1      42.854  25.628  37.060  1.00  0.00     0.001 A 
ATOM     77  C   UNL A   1      41.623  24.207  35.544  1.00  0.00     0.001 A 
ATOM     78  C   UNL A   1      41.643  25.093  36.618  1.00  0.00     0.000 A 
ENDBRANCH  59  73
BRANCH  60  79
ATOM     79  C   UNL A   1      52.054  28.089  34.281  1.00  0.00    -0.014 A 
ATOM     80  C   UNL A   1      52.248  28.564  35.587  1.00  0.00     0.009 A 
ATOM     81  C   UNL A   1      52.082  29.042  33.242  1.00  0.00     0.009 A 
ATOM     82  C   UNL A   1      52.303  29.938  35.858  1.00  0.00     0.001 A 
ATOM     83  C   UNL A   1      52.170  30.411  33.507  1.00  0.00     0.001 A 
ATOM     84  C   UNL A   1      52.246  30.862  34.819  1.00  0.00     0.000 A 
ENDBRANCH  60  79
BRANCH  72  85
ATOM     85  C   UNL A   1      50.558  21.674  34.970  1.00  0.00    -0.014 A 
ATOM     86  C   UNL A   1      51.344  21.165  36.015  1.00  0.00     0.009 A 
ATOM     87  C   UNL A   1      50.857  21.269  33.659  1.00  0.00     0.009 A 
ATOM     88  C   UNL A   1      52.434  20.338  35.745  1.00  0.00     0.001 A 
ATOM     89  C   UNL A   1      51.921  20.401  33.399  1.00  0.00     0.001 A 
ATOM     90  C   UNL A   1      52.722  19.950  34.441  1.00  0.00     0.000 A 
ENDBRANCH  72  85
ENDBRANCH  46  47
ENDBRANCH  39  41
ENDBRANCH  38  39
ENDBRANCH  37  38
ENDBRANCH  36  37
ENDBRANCH  35  36
ENDBRANCH   1  35
TORSDOF 17
ENDMDL
