MODEL 1
REMARK VINA RESULT:      -9.8      0.000      0.000
REMARK SMILES Cc1cc(S(=O)(=O)Nc2ccc(F)c(F)c2)sc1C(=O)OCCOCCOC(=O)c1ccc(-c2c3nc(c(-c4ccccc4)c4ccc([nH]4)c(-c4ccccc4)c4nc(c(-c5ccccc5)c5ccc2[nH]5)C=C4)C=C3)cc1
REMARK SMILES IDX 23 1 22 2 21 3 19 4 20 5 18 6 1 7 2 8 3 9 4 10 17 11 5 12
REMARK SMILES IDX 6 13 7 14 8 15 9 17 10 18 16 19 11 20 14 21 12 22 15 23
REMARK SMILES IDX 13 24 24 25 25 26 26 27 27 28 28 29 29 30 30 31 31 32 77 33
REMARK SMILES IDX 32 34 76 35 33 36 34 37 35 38 70 39 36 40 75 41 69 42 71 43
REMARK SMILES IDX 37 44 74 45 68 46 67 47 38 49 60 50 45 51 59 52 46 53 49 54
REMARK SMILES IDX 58 55 72 56 47 57 48 58 57 60 73 61 50 62 39 63 40 64 44 65
REMARK SMILES IDX 41 66 43 67 42 68 61 69 62 70 66 71 63 72 65 73 64 74 51 75
REMARK SMILES IDX 52 76 56 77 53 78 55 79 54 80
REMARK H PARENT 8 16 71 48 49 59
REMARK Flexibility Score: inf
ROOT
ATOM      1  C   UNL A   1      31.187  28.854  23.425  1.00  0.00     0.202 C 
ENDROOT
BRANCH   1   2
ATOM      2  C   UNL A   1      30.680  27.725  22.522  1.00  0.00     0.261 C 
BRANCH   2   3
ATOM      3  O   UNL A   1      31.082  26.440  23.027  1.00  0.00    -0.459 OA
BRANCH   3   4
ATOM      4  C   UNL A   1      30.187  25.798  23.832  1.00  0.00     0.348 C 
ATOM      5  O   UNL A   1      28.970  25.883  23.704  1.00  0.00    -0.245 OA
BRANCH   4   6
ATOM      6  C   UNL A   1      30.882  24.910  24.759  1.00  0.00     0.116 A 
ATOM      7  C   UNL A   1      31.496  26.378  26.812  1.00  0.00     0.046 C 
ATOM      8  C   UNL A   1      31.509  25.131  25.983  1.00  0.00    -0.024 A 
ATOM      9  C   UNL A   1      32.227  23.958  26.400  1.00  0.00     0.038 A 
ATOM     10  C   UNL A   1      32.127  22.899  25.520  1.00  0.00     0.141 A 
ATOM     11  S   UNL A   1      31.007  23.250  24.295  1.00  0.00    -0.115 S 
BRANCH  10  12
ATOM     12  S   UNL A   1      32.912  21.303  25.565  1.00  0.00     0.271 S 
ATOM     13  O   UNL A   1      33.360  21.190  26.938  1.00  0.00    -0.200 OA
ATOM     14  O   UNL A   1      31.913  20.398  25.035  1.00  0.00    -0.200 OA
BRANCH  12  15
ATOM     15  N   UNL A   1      34.256  21.111  24.582  1.00  0.00    -0.279 N 
ATOM     16  H   UNL A   1      34.132  20.675  23.708  1.00  0.00     0.180 HD
BRANCH  15  17
ATOM     17  C   UNL A   1      35.561  21.538  24.933  1.00  0.00     0.052 A 
ATOM     18  C   UNL A   1      36.672  20.690  24.915  1.00  0.00     0.030 A 
ATOM     19  C   UNL A   1      35.713  22.880  25.294  1.00  0.00     0.069 A 
ATOM     20  C   UNL A   1      37.916  21.169  25.343  1.00  0.00     0.044 A 
ATOM     21  C   UNL A   1      36.952  23.348  25.711  1.00  0.00     0.160 A 
ATOM     22  C   UNL A   1      38.045  22.494  25.750  1.00  0.00     0.158 A 
ATOM     23  F   UNL A   1      37.076  24.629  26.082  1.00  0.00    -0.204 F 
ATOM     24  F   UNL A   1      39.235  22.943  26.172  1.00  0.00    -0.204 F 
ENDBRANCH  15  17
ENDBRANCH  12  15
ENDBRANCH  10  12
ENDBRANCH   4   6
ENDBRANCH   3   4
ENDBRANCH   2   3
ENDBRANCH   1   2
BRANCH   1  25
ATOM     25  O   UNL A   1      32.487  28.682  23.985  1.00  0.00    -0.374 OA
BRANCH  25  26
ATOM     26  C   UNL A   1      32.721  29.215  25.287  1.00  0.00     0.202 C 
BRANCH  26  27
ATOM     27  C   UNL A   1      34.040  28.833  25.971  1.00  0.00     0.261 C 
BRANCH  27  28
ATOM     28  O   UNL A   1      34.011  29.047  27.393  1.00  0.00    -0.460 OA
BRANCH  28  29
ATOM     29  C   UNL A   1      34.555  30.221  27.799  1.00  0.00     0.338 C 
ATOM     30  O   UNL A   1      33.994  31.297  27.920  1.00  0.00    -0.246 OA
BRANCH  29  31
ATOM     31  C   UNL A   1      35.935  29.994  28.264  1.00  0.00     0.060 A 
ATOM     32  C   UNL A   1      36.976  30.239  27.358  1.00  0.00     0.016 A 
ATOM     33  C   UNL A   1      36.204  29.483  29.534  1.00  0.00     0.016 A 
ATOM     34  C   UNL A   1      38.290  29.934  27.706  1.00  0.00     0.010 A 
ATOM     35  C   UNL A   1      37.523  29.171  29.879  1.00  0.00     0.010 A 
ATOM     36  C   UNL A   1      38.568  29.365  28.956  1.00  0.00    -0.014 A 
BRANCH  36  37
ATOM     37  C   UNL A   1      39.933  28.863  29.254  1.00  0.00     0.031 A 
ATOM     38  C   UNL A   1      40.896  29.744  29.999  1.00  0.00     0.074 A 
ATOM     39  C   UNL A   1      40.305  27.626  28.877  1.00  0.00     0.049 A 
ATOM     40  N   UNL A   1      42.144  29.522  30.321  1.00  0.00    -0.248 NA
ATOM     41  C   UNL A   1      40.384  31.053  30.437  1.00  0.00     0.031 C 
ATOM     42  C   UNL A   1      39.454  26.658  28.187  1.00  0.00     0.029 A 
ATOM     43  N   UNL A   1      41.507  26.978  29.019  1.00  0.00    -0.354 N 
ATOM     44  C   UNL A   1      42.570  30.664  30.988  1.00  0.00     0.074 A 
ATOM     45  C   UNL A   1      41.459  31.590  30.995  1.00  0.00     0.031 C 
ATOM     46  C   UNL A   1      40.162  25.539  27.962  1.00  0.00     0.029 A 
ATOM     47  C   UNL A   1      41.524  25.727  28.454  1.00  0.00     0.049 A 
ATOM     48  H   UNL A   1      42.280  27.372  29.482  1.00  0.00     0.167 HD
ATOM     49  C   UNL A   1      43.778  30.919  31.549  1.00  0.00     0.031 A 
ATOM     50  C   UNL A   1      42.532  24.841  28.326  1.00  0.00     0.031 A 
ATOM     51  C   UNL A   1      44.889  30.004  31.529  1.00  0.00     0.049 A 
ATOM     52  C   UNL A   1      43.889  25.182  28.885  1.00  0.00     0.074 A 
ATOM     53  C   UNL A   1      46.146  30.163  32.086  1.00  0.00     0.029 A 
ATOM     54  N   UNL A   1      44.878  28.763  30.913  1.00  0.00    -0.354 N 
ATOM     55  N   UNL A   1      44.272  26.253  29.536  1.00  0.00    -0.248 NA
ATOM     56  C   UNL A   1      44.951  24.182  28.696  1.00  0.00     0.031 C 
ATOM     57  C   UNL A   1      46.918  29.046  31.748  1.00  0.00     0.029 A 
ATOM     58  C   UNL A   1      46.118  28.158  31.046  1.00  0.00     0.049 A 
ATOM     59  H   UNL A   1      44.105  28.368  30.449  1.00  0.00     0.167 HD
ATOM     60  C   UNL A   1      45.607  26.043  29.863  1.00  0.00     0.074 A 
ATOM     61  C   UNL A   1      45.962  24.735  29.351  1.00  0.00     0.031 C 
ATOM     62  C   UNL A   1      46.460  26.858  30.530  1.00  0.00     0.031 A 
BRANCH  49  63
ATOM     63  C   UNL A   1      43.970  32.261  32.202  1.00  0.00    -0.014 A 
ATOM     64  C   UNL A   1      43.664  32.469  33.557  1.00  0.00     0.009 A 
ATOM     65  C   UNL A   1      44.501  33.325  31.457  1.00  0.00     0.009 A 
ATOM     66  C   UNL A   1      43.851  33.725  34.139  1.00  0.00     0.001 A 
ATOM     67  C   UNL A   1      44.717  34.571  32.049  1.00  0.00     0.001 A 
ATOM     68  C   UNL A   1      44.381  34.772  33.388  1.00  0.00     0.000 A 
ENDBRANCH  49  63
BRANCH  50  69
ATOM     69  C   UNL A   1      42.307  23.552  27.620  1.00  0.00    -0.014 A 
ATOM     70  C   UNL A   1      41.852  22.423  28.317  1.00  0.00     0.009 A 
ATOM     71  C   UNL A   1      42.567  23.440  26.245  1.00  0.00     0.009 A 
ATOM     72  C   UNL A   1      41.689  21.203  27.657  1.00  0.00     0.001 A 
ATOM     73  C   UNL A   1      42.373  22.228  25.581  1.00  0.00     0.001 A 
ATOM     74  C   UNL A   1      41.945  21.108  26.289  1.00  0.00     0.000 A 
ENDBRANCH  50  69
BRANCH  62  75
ATOM     75  C   UNL A   1      47.851  26.343  30.785  1.00  0.00    -0.014 A 
ATOM     76  C   UNL A   1      48.194  25.718  31.995  1.00  0.00     0.009 A 
ATOM     77  C   UNL A   1      48.824  26.451  29.779  1.00  0.00     0.009 A 
ATOM     78  C   UNL A   1      49.493  25.245  32.202  1.00  0.00     0.001 A 
ATOM     79  C   UNL A   1      50.111  25.947  29.977  1.00  0.00     0.001 A 
ATOM     80  C   UNL A   1      50.446  25.354  31.192  1.00  0.00     0.000 A 
ENDBRANCH  62  75
ENDBRANCH  36  37
ENDBRANCH  29  31
ENDBRANCH  28  29
ENDBRANCH  27  28
ENDBRANCH  26  27
ENDBRANCH  25  26
ENDBRANCH   1  25
TORSDOF 17
ENDMDL
MODEL 2
REMARK VINA RESULT:      -9.8      3.091      7.239
REMARK SMILES Cc1cc(S(=O)(=O)Nc2ccc(F)c(F)c2)sc1C(=O)OCCOCCOC(=O)c1ccc(-c2c3nc(c(-c4ccccc4)c4ccc([nH]4)c(-c4ccccc4)c4nc(c(-c5ccccc5)c5ccc2[nH]5)C=C4)C=C3)cc1
REMARK SMILES IDX 23 1 22 2 21 3 19 4 20 5 18 6 1 7 2 8 3 9 4 10 17 11 5 12
REMARK SMILES IDX 6 13 7 14 8 15 9 17 10 18 16 19 11 20 14 21 12 22 15 23
REMARK SMILES IDX 13 24 24 25 25 26 26 27 27 28 28 29 29 30 30 31 31 32 77 33
REMARK SMILES IDX 32 34 76 35 33 36 34 37 35 38 70 39 36 40 75 41 69 42 71 43
REMARK SMILES IDX 37 44 74 45 68 46 67 47 38 49 60 50 45 51 59 52 46 53 49 54
REMARK SMILES IDX 58 55 72 56 47 57 48 58 57 60 73 61 50 62 39 63 40 64 44 65
REMARK SMILES IDX 41 66 43 67 42 68 61 69 62 70 66 71 63 72 65 73 64 74 51 75
REMARK SMILES IDX 52 76 56 77 53 78 55 79 54 80
REMARK H PARENT 8 16 71 48 49 59
REMARK Flexibility Score: inf
ROOT
ATOM      1  C   UNL A   1      34.389  29.526  27.346  1.00  0.00     0.202 C 
ENDROOT
BRANCH   1   2
ATOM      2  C   UNL A   1      33.904  28.964  26.006  1.00  0.00     0.261 C 
BRANCH   2   3
ATOM      3  O   UNL A   1      33.397  27.627  26.160  1.00  0.00    -0.459 OA
BRANCH   3   4
ATOM      4  C   UNL A   1      33.426  26.836  25.049  1.00  0.00     0.348 C 
ATOM      5  O   UNL A   1      33.825  27.213  23.952  1.00  0.00    -0.245 OA
BRANCH   4   6
ATOM      6  C   UNL A   1      33.048  25.468  25.389  1.00  0.00     0.116 A 
ATOM      7  C   UNL A   1      30.489  25.536  25.835  1.00  0.00     0.046 C 
ATOM      8  C   UNL A   1      31.843  24.897  25.796  1.00  0.00    -0.024 A 
ATOM      9  C   UNL A   1      32.045  23.535  26.208  1.00  0.00     0.038 A 
ATOM     10  C   UNL A   1      33.353  23.107  26.099  1.00  0.00     0.141 A 
ATOM     11  S   UNL A   1      34.298  24.277  25.316  1.00  0.00    -0.115 S 
BRANCH  10  12
ATOM     12  S   UNL A   1      34.086  21.557  26.576  1.00  0.00     0.271 S 
ATOM     13  O   UNL A   1      35.214  21.431  25.676  1.00  0.00    -0.200 OA
ATOM     14  O   UNL A   1      34.288  21.680  28.004  1.00  0.00    -0.200 OA
BRANCH  12  15
ATOM     15  N   UNL A   1      33.131  20.194  26.375  1.00  0.00    -0.279 N 
ATOM     16  H   UNL A   1      32.729  19.788  27.177  1.00  0.00     0.180 HD
BRANCH  15  17
ATOM     17  C   UNL A   1      32.868  19.589  25.121  1.00  0.00     0.052 A 
ATOM     18  C   UNL A   1      33.026  18.220  24.885  1.00  0.00     0.030 A 
ATOM     19  C   UNL A   1      32.415  20.426  24.097  1.00  0.00     0.069 A 
ATOM     20  C   UNL A   1      32.812  17.710  23.598  1.00  0.00     0.044 A 
ATOM     21  C   UNL A   1      32.199  19.909  22.826  1.00  0.00     0.160 A 
ATOM     22  C   UNL A   1      32.411  18.562  22.573  1.00  0.00     0.158 A 
ATOM     23  F   UNL A   1      31.793  20.729  21.848  1.00  0.00    -0.204 F 
ATOM     24  F   UNL A   1      32.222  18.070  21.341  1.00  0.00    -0.204 F 
ENDBRANCH  15  17
ENDBRANCH  12  15
ENDBRANCH  10  12
ENDBRANCH   4   6
ENDBRANCH   3   4
ENDBRANCH   2   3
ENDBRANCH   1   2
BRANCH   1  25
ATOM     25  O   UNL A   1      33.830  30.776  27.748  1.00  0.00    -0.374 OA
BRANCH  25  26
ATOM     26  C   UNL A   1      32.555  31.131  27.214  1.00  0.00     0.202 C 
BRANCH  26  27
ATOM     27  C   UNL A   1      32.169  32.615  27.260  1.00  0.00     0.261 C 
BRANCH  27  28
ATOM     28  O   UNL A   1      33.313  33.484  27.342  1.00  0.00    -0.460 OA
BRANCH  28  29
ATOM     29  C   UNL A   1      33.400  34.197  28.492  1.00  0.00     0.338 C 
ATOM     30  O   UNL A   1      32.557  34.933  28.975  1.00  0.00    -0.246 OA
BRANCH  29  31
ATOM     31  C   UNL A   1      34.630  33.825  29.214  1.00  0.00     0.060 A 
ATOM     32  C   UNL A   1      35.853  34.245  28.675  1.00  0.00     0.016 A 
ATOM     33  C   UNL A   1      34.595  33.021  30.353  1.00  0.00     0.016 A 
ATOM     34  C   UNL A   1      37.051  33.827  29.253  1.00  0.00     0.010 A 
ATOM     35  C   UNL A   1      35.797  32.598  30.928  1.00  0.00     0.010 A 
ATOM     36  C   UNL A   1      37.030  32.972  30.362  1.00  0.00    -0.014 A 
BRANCH  36  37
ATOM     37  C   UNL A   1      38.294  32.373  30.858  1.00  0.00     0.031 A 
ATOM     38  C   UNL A   1      38.805  31.106  30.229  1.00  0.00     0.074 A 
ATOM     39  C   UNL A   1      38.989  32.961  31.848  1.00  0.00     0.049 A 
ATOM     40  N   UNL A   1      39.857  30.393  30.538  1.00  0.00    -0.248 NA
ATOM     41  C   UNL A   1      38.022  30.569  29.104  1.00  0.00     0.031 C 
ATOM     42  C   UNL A   1      38.626  34.212  32.512  1.00  0.00     0.029 A 
ATOM     43  N   UNL A   1      40.148  32.572  32.474  1.00  0.00    -0.354 N 
ATOM     44  C   UNL A   1      39.857  29.319  29.656  1.00  0.00     0.074 A 
ATOM     45  C   UNL A   1      38.683  29.456  28.823  1.00  0.00     0.031 C 
ATOM     46  C   UNL A   1      39.543  34.486  33.455  1.00  0.00     0.029 A 
ATOM     47  C   UNL A   1      40.532  33.412  33.489  1.00  0.00     0.049 A 
ATOM     48  H   UNL A   1      40.655  31.768  32.217  1.00  0.00     0.167 HD
ATOM     49  C   UNL A   1      40.757  28.311  29.545  1.00  0.00     0.031 A 
ATOM     50  C   UNL A   1      41.552  33.314  34.363  1.00  0.00     0.031 A 
ATOM     51  C   UNL A   1      41.917  28.167  30.385  1.00  0.00     0.049 A 
ATOM     52  C   UNL A   1      42.491  32.140  34.274  1.00  0.00     0.074 A 
ATOM     53  C   UNL A   1      42.897  27.190  30.338  1.00  0.00     0.029 A 
ATOM     54  N   UNL A   1      42.249  29.018  31.427  1.00  0.00    -0.354 N 
ATOM     55  N   UNL A   1      42.496  31.146  33.419  1.00  0.00    -0.248 NA
ATOM     56  C   UNL A   1      43.572  32.081  35.270  1.00  0.00     0.031 C 
ATOM     57  C   UNL A   1      43.785  27.412  31.397  1.00  0.00     0.029 A 
ATOM     58  C   UNL A   1      43.401  28.570  32.055  1.00  0.00     0.049 A 
ATOM     59  H   UNL A   1      41.742  29.821  31.684  1.00  0.00     0.167 HD
ATOM     60  C   UNL A   1      43.596  30.364  33.752  1.00  0.00     0.074 A 
ATOM     61  C   UNL A   1      44.242  31.007  34.877  1.00  0.00     0.031 C 
ATOM     62  C   UNL A   1      44.033  29.217  33.174  1.00  0.00     0.031 A 
BRANCH  49  63
ATOM     63  C   UNL A   1      40.498  27.262  28.498  1.00  0.00    -0.014 A 
ATOM     64  C   UNL A   1      41.033  27.369  27.204  1.00  0.00     0.009 A 
ATOM     65  C   UNL A   1      39.735  26.130  28.824  1.00  0.00     0.009 A 
ATOM     66  C   UNL A   1      40.777  26.382  26.250  1.00  0.00     0.001 A 
ATOM     67  C   UNL A   1      39.508  25.129  27.878  1.00  0.00     0.001 A 
ATOM     68  C   UNL A   1      40.021  25.262  26.588  1.00  0.00     0.000 A 
ENDBRANCH  49  63
BRANCH  50  69
ATOM     69  C   UNL A   1      41.731  34.347  35.419  1.00  0.00    -0.014 A 
ATOM     70  C   UNL A   1      42.537  35.472  35.191  1.00  0.00     0.009 A 
ATOM     71  C   UNL A   1      41.110  34.199  36.669  1.00  0.00     0.009 A 
ATOM     72  C   UNL A   1      42.739  36.413  36.204  1.00  0.00     0.001 A 
ATOM     73  C   UNL A   1      41.288  35.158  37.669  1.00  0.00     0.001 A 
ATOM     74  C   UNL A   1      42.111  36.258  37.439  1.00  0.00     0.000 A 
ENDBRANCH  50  69
BRANCH  62  75
ATOM     75  C   UNL A   1      45.295  28.606  33.720  1.00  0.00    -0.014 A 
ATOM     76  C   UNL A   1      45.263  27.632  34.731  1.00  0.00     0.009 A 
ATOM     77  C   UNL A   1      46.536  28.982  33.181  1.00  0.00     0.009 A 
ATOM     78  C   UNL A   1      46.451  27.078  35.216  1.00  0.00     0.001 A 
ATOM     79  C   UNL A   1      47.718  28.401  33.644  1.00  0.00     0.001 A 
ATOM     80  C   UNL A   1      47.675  27.457  34.668  1.00  0.00     0.000 A 
ENDBRANCH  62  75
ENDBRANCH  36  37
ENDBRANCH  29  31
ENDBRANCH  28  29
ENDBRANCH  27  28
ENDBRANCH  26  27
ENDBRANCH  25  26
ENDBRANCH   1  25
TORSDOF 17
ENDMDL
MODEL 3
REMARK VINA RESULT:      -9.7      3.108      4.457
REMARK SMILES Cc1cc(S(=O)(=O)Nc2ccc(F)c(F)c2)sc1C(=O)OCCOCCOC(=O)c1ccc(-c2c3nc(c(-c4ccccc4)c4ccc([nH]4)c(-c4ccccc4)c4nc(c(-c5ccccc5)c5ccc2[nH]5)C=C4)C=C3)cc1
REMARK SMILES IDX 23 1 22 2 21 3 19 4 20 5 18 6 1 7 2 8 3 9 4 10 17 11 5 12
REMARK SMILES IDX 6 13 7 14 8 15 9 17 10 18 16 19 11 20 14 21 12 22 15 23
REMARK SMILES IDX 13 24 24 25 25 26 26 27 27 28 28 29 29 30 30 31 31 32 77 33
REMARK SMILES IDX 32 34 76 35 33 36 34 37 35 38 70 39 36 40 75 41 69 42 71 43
REMARK SMILES IDX 37 44 74 45 68 46 67 47 38 49 60 50 45 51 59 52 46 53 49 54
REMARK SMILES IDX 58 55 72 56 47 57 48 58 57 60 73 61 50 62 39 63 40 64 44 65
REMARK SMILES IDX 41 66 43 67 42 68 61 69 62 70 66 71 63 72 65 73 64 74 51 75
REMARK SMILES IDX 52 76 56 77 53 78 55 79 54 80
REMARK H PARENT 8 16 71 48 49 59
REMARK Flexibility Score: inf
ROOT
ATOM      1  C   UNL A   1      33.324  29.660  26.610  1.00  0.00     0.202 C 
ENDROOT
BRANCH   1   2
ATOM      2  C   UNL A   1      33.072  29.629  25.100  1.00  0.00     0.261 C 
BRANCH   2   3
ATOM      3  O   UNL A   1      32.803  28.290  24.648  1.00  0.00    -0.459 OA
BRANCH   3   4
ATOM      4  C   UNL A   1      31.804  28.150  23.730  1.00  0.00     0.348 C 
ATOM      5  O   UNL A   1      31.288  29.089  23.133  1.00  0.00    -0.245 OA
BRANCH   4   6
ATOM      6  C   UNL A   1      31.544  26.737  23.473  1.00  0.00     0.116 A 
ATOM      7  C   UNL A   1      29.015  26.388  23.954  1.00  0.00     0.046 C 
ATOM      8  C   UNL A   1      30.407  25.945  23.626  1.00  0.00    -0.024 A 
ATOM      9  C   UNL A   1      30.728  24.559  23.427  1.00  0.00     0.038 A 
ATOM     10  C   UNL A   1      32.056  24.330  23.125  1.00  0.00     0.141 A 
ATOM     11  S   UNL A   1      32.872  25.799  22.886  1.00  0.00    -0.115 S 
BRANCH  10  12
ATOM     12  S   UNL A   1      32.924  22.793  22.897  1.00  0.00     0.271 S 
ATOM     13  O   UNL A   1      31.900  21.905  22.387  1.00  0.00    -0.200 OA
ATOM     14  O   UNL A   1      34.070  23.147  22.085  1.00  0.00    -0.200 OA
BRANCH  12  15
ATOM     15  N   UNL A   1      33.556  22.088  24.279  1.00  0.00    -0.279 N 
ATOM     16  H   UNL A   1      32.967  21.508  24.815  1.00  0.00     0.180 HD
BRANCH  15  17
ATOM     17  C   UNL A   1      34.889  22.274  24.725  1.00  0.00     0.052 A 
ATOM     18  C   UNL A   1      35.361  23.487  25.235  1.00  0.00     0.030 A 
ATOM     19  C   UNL A   1      35.742  21.169  24.650  1.00  0.00     0.069 A 
ATOM     20  C   UNL A   1      36.710  23.612  25.589  1.00  0.00     0.044 A 
ATOM     21  C   UNL A   1      37.077  21.301  25.010  1.00  0.00     0.160 A 
ATOM     22  C   UNL A   1      37.563  22.519  25.463  1.00  0.00     0.158 A 
ATOM     23  F   UNL A   1      37.889  20.240  24.907  1.00  0.00    -0.204 F 
ATOM     24  F   UNL A   1      38.856  22.648  25.790  1.00  0.00    -0.204 F 
ENDBRANCH  15  17
ENDBRANCH  12  15
ENDBRANCH  10  12
ENDBRANCH   4   6
ENDBRANCH   3   4
ENDBRANCH   2   3
ENDBRANCH   1   2
BRANCH   1  25
ATOM     25  O   UNL A   1      32.848  30.809  27.309  1.00  0.00    -0.374 OA
BRANCH  25  26
ATOM     26  C   UNL A   1      31.832  31.589  26.681  1.00  0.00     0.202 C 
BRANCH  26  27
ATOM     27  C   UNL A   1      31.777  33.079  27.039  1.00  0.00     0.261 C 
BRANCH  27  28
ATOM     28  O   UNL A   1      33.084  33.664  27.183  1.00  0.00    -0.460 OA
BRANCH  28  29
ATOM     29  C   UNL A   1      33.260  34.381  28.321  1.00  0.00     0.338 C 
ATOM     30  O   UNL A   1      32.562  35.287  28.743  1.00  0.00    -0.246 OA
BRANCH  29  31
ATOM     31  C   UNL A   1      34.353  33.792  29.114  1.00  0.00     0.060 A 
ATOM     32  C   UNL A   1      35.662  34.199  28.822  1.00  0.00     0.016 A 
ATOM     33  C   UNL A   1      34.113  32.809  30.074  1.00  0.00     0.016 A 
ATOM     34  C   UNL A   1      36.741  33.591  29.461  1.00  0.00     0.010 A 
ATOM     35  C   UNL A   1      35.197  32.196  30.711  1.00  0.00     0.010 A 
ATOM     36  C   UNL A   1      36.517  32.562  30.384  1.00  0.00    -0.014 A 
BRANCH  36  37
ATOM     37  C   UNL A   1      37.663  31.786  30.920  1.00  0.00     0.031 A 
ATOM     38  C   UNL A   1      38.182  32.094  32.297  1.00  0.00     0.074 A 
ATOM     39  C   UNL A   1      38.226  30.804  30.193  1.00  0.00     0.049 A 
ATOM     40  N   UNL A   1      39.196  31.572  32.937  1.00  0.00    -0.248 NA
ATOM     41  C   UNL A   1      37.462  33.133  33.052  1.00  0.00     0.031 C 
ATOM     42  C   UNL A   1      37.790  30.378  28.864  1.00  0.00     0.029 A 
ATOM     43  N   UNL A   1      39.297  29.992  30.473  1.00  0.00    -0.354 N 
ATOM     44  C   UNL A   1      39.245  32.225  34.163  1.00  0.00     0.074 A 
ATOM     45  C   UNL A   1      38.180  33.203  34.164  1.00  0.00     0.031 C 
ATOM     46  C   UNL A   1      38.590  29.384  28.442  1.00  0.00     0.029 A 
ATOM     47  C   UNL A   1      39.615  29.133  29.452  1.00  0.00     0.049 A 
ATOM     48  H   UNL A   1      39.787  30.023  31.326  1.00  0.00     0.167 HD
ATOM     49  C   UNL A   1      40.097  32.024  35.198  1.00  0.00     0.031 A 
ATOM     50  C   UNL A   1      40.634  28.259  29.332  1.00  0.00     0.031 A 
ATOM     51  C   UNL A   1      41.167  31.061  35.191  1.00  0.00     0.049 A 
ATOM     52  C   UNL A   1      41.618  28.114  30.463  1.00  0.00     0.074 A 
ATOM     53  C   UNL A   1      42.072  30.772  36.198  1.00  0.00     0.029 A 
ATOM     54  N   UNL A   1      41.481  30.238  34.122  1.00  0.00    -0.354 N 
ATOM     55  N   UNL A   1      41.637  28.717  31.627  1.00  0.00    -0.248 NA
ATOM     56  C   UNL A   1      42.718  27.158  30.264  1.00  0.00     0.031 C 
ATOM     57  C   UNL A   1      42.975  29.820  35.712  1.00  0.00     0.029 A 
ATOM     58  C   UNL A   1      42.587  29.463  34.430  1.00  0.00     0.049 A 
ATOM     59  H   UNL A   1      40.991  30.208  33.268  1.00  0.00     0.167 HD
ATOM     60  C   UNL A   1      42.729  28.190  32.310  1.00  0.00     0.074 A 
ATOM     61  C   UNL A   1      43.336  27.209  31.435  1.00  0.00     0.031 C 
ATOM     62  C   UNL A   1      43.184  28.491  33.551  1.00  0.00     0.031 A 
BRANCH  49  63
ATOM     63  C   UNL A   1      39.928  32.894  36.414  1.00  0.00    -0.014 A 
ATOM     64  C   UNL A   1      40.636  34.098  36.559  1.00  0.00     0.009 A 
ATOM     65  C   UNL A   1      39.016  32.521  37.414  1.00  0.00     0.009 A 
ATOM     66  C   UNL A   1      40.462  34.889  37.697  1.00  0.00     0.001 A 
ATOM     67  C   UNL A   1      38.820  33.328  38.536  1.00  0.00     0.001 A 
ATOM     68  C   UNL A   1      39.551  34.507  38.681  1.00  0.00     0.000 A 
ENDBRANCH  49  63
BRANCH  50  69
ATOM     69  C   UNL A   1      40.792  27.464  28.086  1.00  0.00    -0.014 A 
ATOM     70  C   UNL A   1      40.230  26.183  27.975  1.00  0.00     0.009 A 
ATOM     71  C   UNL A   1      41.527  27.977  27.005  1.00  0.00     0.009 A 
ATOM     72  C   UNL A   1      40.425  25.423  26.819  1.00  0.00     0.001 A 
ATOM     73  C   UNL A   1      41.692  27.229  25.838  1.00  0.00     0.001 A 
ATOM     74  C   UNL A   1      41.151  25.949  25.750  1.00  0.00     0.000 A 
ENDBRANCH  50  69
BRANCH  62  75
ATOM     75  C   UNL A   1      44.372  27.719  34.058  1.00  0.00    -0.014 A 
ATOM     76  C   UNL A   1      45.684  28.181  33.868  1.00  0.00     0.009 A 
ATOM     77  C   UNL A   1      44.170  26.528  34.775  1.00  0.00     0.009 A 
ATOM     78  C   UNL A   1      46.769  27.445  34.354  1.00  0.00     0.001 A 
ATOM     79  C   UNL A   1      45.254  25.814  35.288  1.00  0.00     0.001 A 
ATOM     80  C   UNL A   1      46.552  26.268  35.068  1.00  0.00     0.000 A 
ENDBRANCH  62  75
ENDBRANCH  36  37
ENDBRANCH  29  31
ENDBRANCH  28  29
ENDBRANCH  27  28
ENDBRANCH  26  27
ENDBRANCH  25  26
ENDBRANCH   1  25
TORSDOF 17
ENDMDL
