MODEL 1
REMARK VINA RESULT:     -11.2      0.000      0.000
REMARK SMILES Cc1ccc(NC(=O)Cn2c(CCC(=O)OCCOCCOC(=O)c3ccc(-c4c5nc(c(-c6ccccc6)c6ccc([nH]6)c(-c6ccccc6)c6nc(c(-c7ccccc7)c7ccc4[nH]7)C=C6)C=C5)cc3)ccc2-c2ccccc2)cc1
REMARK SMILES IDX 17 1 16 2 14 3 15 4 13 5 12 6 11 7 10 8 75 9 73 10 74 11
REMARK SMILES IDX 9 12 7 13 6 14 8 16 5 17 1 18 2 19 3 20 83 21 4 22 82 23
REMARK SMILES IDX 76 24 77 25 81 26 78 27 80 28 79 29 18 30 19 31 20 32 21 33
REMARK SMILES IDX 22 34 23 35 24 36 25 37 26 38 72 39 27 40 71 41 28 42 29 43
REMARK SMILES IDX 30 44 65 45 31 46 70 47 64 48 66 49 32 50 69 51 63 52 62 53
REMARK SMILES IDX 33 55 55 56 40 57 54 58 41 59 44 60 53 61 67 62 42 63 43 64
REMARK SMILES IDX 52 66 68 67 45 68 34 69 35 70 39 71 36 72 38 73 37 74 56 75
REMARK SMILES IDX 57 76 61 77 58 78 60 79 59 80 46 81 47 82 51 83 48 84 50 85
REMARK SMILES IDX 49 86
REMARK H PARENT 6 15 66 54 44 65
REMARK Flexibility Score: inf
ROOT
ATOM      1  C   UNL A   1      33.300  33.600  28.226  1.00  0.00     0.261 C 
ENDROOT
BRANCH   1   2
ATOM      2  O   UNL A   1      34.443  32.715  28.419  1.00  0.00    -0.463 OA
BRANCH   2   3
ATOM      3  C   UNL A   1      34.394  31.505  27.796  1.00  0.00     0.306 C 
ATOM      4  O   UNL A   1      35.381  30.817  27.544  1.00  0.00    -0.252 OA
BRANCH   3   5
ATOM      5  C   UNL A   1      33.018  31.108  27.269  1.00  0.00     0.129 C 
BRANCH   5   6
ATOM      6  C   UNL A   1      32.809  30.292  25.989  1.00  0.00     0.066 C 
BRANCH   6   7
ATOM      7  C   UNL A   1      32.410  28.856  26.166  1.00  0.00     0.019 A 
ATOM      8  N   UNL A   1      32.790  27.799  25.367  1.00  0.00    -0.335 N 
ATOM      9  C   UNL A   1      32.599  26.616  26.079  1.00  0.00     0.049 A 
ATOM     10  C   UNL A   1      31.536  28.315  27.096  1.00  0.00     0.024 A 
ATOM     11  C   UNL A   1      31.642  26.907  27.031  1.00  0.00     0.029 A 
BRANCH   8  12
ATOM     12  C   UNL A   1      33.370  27.809  24.029  1.00  0.00     0.222 C 
BRANCH  12  13
ATOM     13  C   UNL A   1      32.438  27.831  22.842  1.00  0.00     0.244 C 
ATOM     14  N   UNL A   1      31.996  26.770  22.144  1.00  0.00    -0.325 N 
ATOM     15  H   UNL A   1      31.483  27.028  21.344  1.00  0.00     0.169 HD
ATOM     16  O   UNL A   1      31.941  28.883  22.425  1.00  0.00    -0.273 OA
BRANCH  14  17
ATOM     17  C   UNL A   1      32.101  25.399  22.298  1.00  0.00     0.041 A 
ATOM     18  C   UNL A   1      32.310  21.244  23.310  1.00  0.00     0.044 C 
ATOM     19  C   UNL A   1      32.192  22.682  22.921  1.00  0.00    -0.051 A 
ATOM     20  C   UNL A   1      33.178  23.262  22.116  1.00  0.00     0.005 A 
ATOM     21  C   UNL A   1      31.127  23.463  23.372  1.00  0.00     0.005 A 
ATOM     22  C   UNL A   1      33.135  24.617  21.808  1.00  0.00     0.026 A 
ATOM     23  C   UNL A   1      31.075  24.811  23.045  1.00  0.00     0.026 A 
ENDBRANCH  14  17
ENDBRANCH  12  13
ENDBRANCH   8  12
BRANCH   9  24
ATOM     24  C   UNL A   1      33.340  25.366  25.875  1.00  0.00    -0.002 A 
ATOM     25  C   UNL A   1      32.918  24.160  26.443  1.00  0.00     0.010 A 
ATOM     26  C   UNL A   1      34.564  25.395  25.186  1.00  0.00     0.010 A 
ATOM     27  C   UNL A   1      33.700  23.007  26.316  1.00  0.00     0.001 A 
ATOM     28  C   UNL A   1      35.346  24.244  25.061  1.00  0.00     0.001 A 
ATOM     29  C   UNL A   1      34.914  23.048  25.628  1.00  0.00     0.000 A 
ENDBRANCH   9  24
ENDBRANCH   6   7
ENDBRANCH   5   6
ENDBRANCH   3   5
ENDBRANCH   2   3
ENDBRANCH   1   2
BRANCH   1  30
ATOM     30  C   UNL A   1      33.451  34.995  28.882  1.00  0.00     0.202 C 
BRANCH  30  31
ATOM     31  O   UNL A   1      32.743  35.166  30.112  1.00  0.00    -0.374 OA
BRANCH  31  32
ATOM     32  C   UNL A   1      33.363  35.957  31.144  1.00  0.00     0.202 C 
BRANCH  32  33
ATOM     33  C   UNL A   1      34.070  35.242  32.320  1.00  0.00     0.261 C 
BRANCH  33  34
ATOM     34  O   UNL A   1      35.235  34.546  31.839  1.00  0.00    -0.460 OA
BRANCH  34  35
ATOM     35  C   UNL A   1      35.142  33.193  31.685  1.00  0.00     0.338 C 
ATOM     36  O   UNL A   1      34.118  32.542  31.738  1.00  0.00    -0.246 OA
BRANCH  35  37
ATOM     37  C   UNL A   1      36.527  32.611  31.684  1.00  0.00     0.060 A 
ATOM     38  C   UNL A   1      37.355  32.489  30.550  1.00  0.00     0.016 A 
ATOM     39  C   UNL A   1      36.894  31.905  32.807  1.00  0.00     0.016 A 
ATOM     40  C   UNL A   1      38.522  31.635  30.542  1.00  0.00     0.010 A 
ATOM     41  C   UNL A   1      37.939  31.003  32.735  1.00  0.00     0.010 A 
ATOM     42  C   UNL A   1      38.836  30.830  31.642  1.00  0.00    -0.014 A 
BRANCH  42  43
ATOM     43  C   UNL A   1      39.933  29.782  31.870  1.00  0.00     0.031 A 
ATOM     44  C   UNL A   1      39.692  28.598  31.046  1.00  0.00     0.074 A 
ATOM     45  C   UNL A   1      41.202  29.562  32.337  1.00  0.00     0.049 A 
ATOM     46  N   UNL A   1      40.185  28.549  29.856  1.00  0.00    -0.248 NA
ATOM     47  C   UNL A   1      38.746  27.559  31.405  1.00  0.00     0.031 C 
ATOM     48  C   UNL A   1      42.113  30.523  32.927  1.00  0.00     0.029 A 
ATOM     49  N   UNL A   1      42.021  28.381  32.183  1.00  0.00    -0.354 N 
ATOM     50  C   UNL A   1      39.758  27.375  29.316  1.00  0.00     0.074 A 
ATOM     51  C   UNL A   1      38.746  26.893  30.247  1.00  0.00     0.031 C 
ATOM     52  C   UNL A   1      43.360  29.997  32.934  1.00  0.00     0.029 A 
ATOM     53  C   UNL A   1      43.377  28.629  32.365  1.00  0.00     0.049 A 
ATOM     54  H   UNL A   1      41.656  27.492  31.972  1.00  0.00     0.167 HD
ATOM     55  C   UNL A   1      40.394  26.876  28.224  1.00  0.00     0.031 A 
ATOM     56  C   UNL A   1      44.489  28.065  31.784  1.00  0.00     0.031 A 
ATOM     57  C   UNL A   1      41.275  27.831  27.503  1.00  0.00     0.049 A 
ATOM     58  C   UNL A   1      44.799  29.084  30.748  1.00  0.00     0.074 A 
ATOM     59  C   UNL A   1      41.516  28.126  26.172  1.00  0.00     0.029 A 
ATOM     60  N   UNL A   1      42.042  28.765  28.197  1.00  0.00    -0.354 N 
ATOM     61  N   UNL A   1      44.045  29.151  29.698  1.00  0.00    -0.248 NA
ATOM     62  C   UNL A   1      45.917  30.003  30.770  1.00  0.00     0.031 C 
ATOM     63  C   UNL A   1      42.424  29.236  26.098  1.00  0.00     0.029 A 
ATOM     64  C   UNL A   1      42.743  29.647  27.383  1.00  0.00     0.049 A 
ATOM     65  H   UNL A   1      42.085  28.799  29.180  1.00  0.00     0.167 HD
ATOM     66  C   UNL A   1      44.452  30.225  28.973  1.00  0.00     0.074 A 
ATOM     67  C   UNL A   1      45.659  30.689  29.647  1.00  0.00     0.031 C 
ATOM     68  C   UNL A   1      43.653  30.670  27.967  1.00  0.00     0.031 A 
BRANCH  55  69
ATOM     69  C   UNL A   1      40.348  25.382  27.964  1.00  0.00    -0.014 A 
ATOM     70  C   UNL A   1      39.300  24.857  27.195  1.00  0.00     0.009 A 
ATOM     71  C   UNL A   1      41.373  24.469  28.290  1.00  0.00     0.009 A 
ATOM     72  C   UNL A   1      39.317  23.531  26.732  1.00  0.00     0.001 A 
ATOM     73  C   UNL A   1      41.429  23.164  27.791  1.00  0.00     0.001 A 
ATOM     74  C   UNL A   1      40.396  22.695  27.004  1.00  0.00     0.000 A 
ENDBRANCH  55  69
BRANCH  56  75
ATOM     75  C   UNL A   1      44.916  26.689  31.275  1.00  0.00    -0.014 A 
ATOM     76  C   UNL A   1      46.053  26.580  30.463  1.00  0.00     0.009 A 
ATOM     77  C   UNL A   1      44.027  25.579  31.238  1.00  0.00     0.009 A 
ATOM     78  C   UNL A   1      46.242  25.469  29.609  1.00  0.00     0.001 A 
ATOM     79  C   UNL A   1      44.195  24.491  30.367  1.00  0.00     0.001 A 
ATOM     80  C   UNL A   1      45.300  24.444  29.535  1.00  0.00     0.000 A 
ENDBRANCH  56  75
BRANCH  68  81
ATOM     81  C   UNL A   1      43.676  32.128  27.542  1.00  0.00    -0.014 A 
ATOM     82  C   UNL A   1      44.064  32.576  26.261  1.00  0.00     0.009 A 
ATOM     83  C   UNL A   1      43.467  33.140  28.493  1.00  0.00     0.009 A 
ATOM     84  C   UNL A   1      44.133  33.932  25.915  1.00  0.00     0.001 A 
ATOM     85  C   UNL A   1      43.566  34.502  28.167  1.00  0.00     0.001 A 
ATOM     86  C   UNL A   1      43.877  34.898  26.872  1.00  0.00     0.000 A 
ENDBRANCH  68  81
ENDBRANCH  42  43
ENDBRANCH  35  37
ENDBRANCH  34  35
ENDBRANCH  33  34
ENDBRANCH  32  33
ENDBRANCH  31  32
ENDBRANCH  30  31
ENDBRANCH   1  30
TORSDOF 20
ENDMDL
MODEL 2
REMARK VINA RESULT:     -11.2      1.371      2.852
REMARK SMILES Cc1ccc(NC(=O)Cn2c(CCC(=O)OCCOCCOC(=O)c3ccc(-c4c5nc(c(-c6ccccc6)c6ccc([nH]6)c(-c6ccccc6)c6nc(c(-c7ccccc7)c7ccc4[nH]7)C=C6)C=C5)cc3)ccc2-c2ccccc2)cc1
REMARK SMILES IDX 17 1 16 2 14 3 15 4 13 5 12 6 11 7 10 8 75 9 73 10 74 11
REMARK SMILES IDX 9 12 7 13 6 14 8 16 5 17 1 18 2 19 3 20 83 21 4 22 82 23
REMARK SMILES IDX 76 24 77 25 81 26 78 27 80 28 79 29 18 30 19 31 20 32 21 33
REMARK SMILES IDX 22 34 23 35 24 36 25 37 26 38 72 39 27 40 71 41 28 42 29 43
REMARK SMILES IDX 30 44 65 45 31 46 70 47 64 48 66 49 32 50 69 51 63 52 62 53
REMARK SMILES IDX 33 55 55 56 40 57 54 58 41 59 44 60 53 61 67 62 42 63 43 64
REMARK SMILES IDX 52 66 68 67 45 68 34 69 35 70 39 71 36 72 38 73 37 74 56 75
REMARK SMILES IDX 57 76 61 77 58 78 60 79 59 80 46 81 47 82 51 83 48 84 50 85
REMARK SMILES IDX 49 86
REMARK H PARENT 6 15 66 54 44 65
REMARK Flexibility Score: inf
ROOT
ATOM      1  C   UNL A   1      31.982  29.628  25.195  1.00  0.00     0.261 C 
ENDROOT
BRANCH   1   2
ATOM      2  O   UNL A   1      30.686  29.837  24.559  1.00  0.00    -0.463 OA
BRANCH   2   3
ATOM      3  C   UNL A   1      30.486  29.228  23.358  1.00  0.00     0.306 C 
ATOM      4  O   UNL A   1      30.932  29.640  22.290  1.00  0.00    -0.252 OA
BRANCH   3   5
ATOM      5  C   UNL A   1      29.512  28.052  23.389  1.00  0.00     0.129 C 
BRANCH   5   6
ATOM      6  C   UNL A   1      29.950  26.602  23.619  1.00  0.00     0.066 C 
BRANCH   6   7
ATOM      7  C   UNL A   1      31.344  26.245  23.191  1.00  0.00     0.019 A 
ATOM      8  N   UNL A   1      32.425  26.035  24.020  1.00  0.00    -0.335 N 
ATOM      9  C   UNL A   1      33.388  25.313  23.317  1.00  0.00     0.049 A 
ATOM     10  C   UNL A   1      31.845  26.135  21.903  1.00  0.00     0.024 A 
ATOM     11  C   UNL A   1      33.136  25.564  21.982  1.00  0.00     0.029 A 
BRANCH   8  12
ATOM     12  C   UNL A   1      32.601  26.395  25.423  1.00  0.00     0.222 C 
BRANCH  12  13
ATOM     13  C   UNL A   1      31.567  25.930  26.419  1.00  0.00     0.244 C 
ATOM     14  N   UNL A   1      31.219  24.658  26.686  1.00  0.00    -0.325 N 
ATOM     15  H   UNL A   1      30.447  24.594  27.293  1.00  0.00     0.169 HD
ATOM     16  O   UNL A   1      30.958  26.724  27.142  1.00  0.00    -0.273 OA
BRANCH  14  17
ATOM     17  C   UNL A   1      31.705  23.421  26.300  1.00  0.00     0.041 A 
ATOM     18  C   UNL A   1      33.710  19.802  25.200  1.00  0.00     0.044 C 
ATOM     19  C   UNL A   1      32.984  21.036  25.628  1.00  0.00    -0.051 A 
ATOM     20  C   UNL A   1      31.948  21.537  24.833  1.00  0.00     0.005 A 
ATOM     21  C   UNL A   1      33.343  21.712  26.794  1.00  0.00     0.005 A 
ATOM     22  C   UNL A   1      31.312  22.728  25.166  1.00  0.00     0.026 A 
ATOM     23  C   UNL A   1      32.693  22.890  27.136  1.00  0.00     0.026 A 
ENDBRANCH  14  17
ENDBRANCH  12  13
ENDBRANCH   8  12
BRANCH   9  24
ATOM     24  C   UNL A   1      34.393  24.424  23.910  1.00  0.00    -0.002 A 
ATOM     25  C   UNL A   1      35.035  24.741  25.112  1.00  0.00     0.010 A 
ATOM     26  C   UNL A   1      34.806  23.282  23.205  1.00  0.00     0.010 A 
ATOM     27  C   UNL A   1      36.063  23.924  25.599  1.00  0.00     0.001 A 
ATOM     28  C   UNL A   1      35.832  22.469  23.690  1.00  0.00     0.001 A 
ATOM     29  C   UNL A   1      36.462  22.791  24.890  1.00  0.00     0.000 A 
ENDBRANCH   9  24
ENDBRANCH   6   7
ENDBRANCH   5   6
ENDBRANCH   3   5
ENDBRANCH   2   3
ENDBRANCH   1   2
BRANCH   1  30
ATOM     30  C   UNL A   1      32.062  30.115  26.664  1.00  0.00     0.202 C 
BRANCH  30  31
ATOM     31  O   UNL A   1      32.390  31.496  26.827  1.00  0.00    -0.374 OA
BRANCH  31  32
ATOM     32  C   UNL A   1      33.551  31.828  27.611  1.00  0.00     0.202 C 
BRANCH  32  33
ATOM     33  C   UNL A   1      33.651  33.230  28.256  1.00  0.00     0.261 C 
BRANCH  33  34
ATOM     34  O   UNL A   1      34.930  33.385  28.898  1.00  0.00    -0.460 OA
BRANCH  34  35
ATOM     35  C   UNL A   1      34.976  33.233  30.254  1.00  0.00     0.338 C 
ATOM     36  O   UNL A   1      34.146  33.642  31.042  1.00  0.00    -0.246 OA
BRANCH  35  37
ATOM     37  C   UNL A   1      36.328  32.699  30.634  1.00  0.00     0.060 A 
ATOM     38  C   UNL A   1      37.487  32.785  29.838  1.00  0.00     0.016 A 
ATOM     39  C   UNL A   1      36.364  31.834  31.703  1.00  0.00     0.016 A 
ATOM     40  C   UNL A   1      38.658  31.978  30.100  1.00  0.00     0.010 A 
ATOM     41  C   UNL A   1      37.445  30.986  31.858  1.00  0.00     0.010 A 
ATOM     42  C   UNL A   1      38.660  31.016  31.117  1.00  0.00    -0.014 A 
BRANCH  42  43
ATOM     43  C   UNL A   1      39.704  29.977  31.547  1.00  0.00     0.031 A 
ATOM     44  C   UNL A   1      39.539  28.738  30.789  1.00  0.00     0.074 A 
ATOM     45  C   UNL A   1      40.905  29.781  32.175  1.00  0.00     0.049 A 
ATOM     46  N   UNL A   1      40.167  28.596  29.673  1.00  0.00    -0.248 NA
ATOM     47  C   UNL A   1      38.539  27.737  31.109  1.00  0.00     0.031 C 
ATOM     48  C   UNL A   1      41.759  30.775  32.797  1.00  0.00     0.029 A 
ATOM     49  N   UNL A   1      41.716  28.585  32.205  1.00  0.00    -0.354 N 
ATOM     50  C   UNL A   1      39.785  27.389  29.173  1.00  0.00     0.074 A 
ATOM     51  C   UNL A   1      38.662  26.988  30.011  1.00  0.00     0.031 C 
ATOM     52  C   UNL A   1      42.987  30.240  32.989  1.00  0.00     0.029 A 
ATOM     53  C   UNL A   1      43.046  28.833  32.527  1.00  0.00     0.049 A 
ATOM     54  H   UNL A   1      41.362  27.686  32.018  1.00  0.00     0.167 HD
ATOM     55  C   UNL A   1      40.535  26.804  28.202  1.00  0.00     0.031 A 
ATOM     56  C   UNL A   1      44.207  28.217  32.124  1.00  0.00     0.031 A 
ATOM     57  C   UNL A   1      41.511  27.695  27.522  1.00  0.00     0.049 A 
ATOM     58  C   UNL A   1      44.654  29.153  31.060  1.00  0.00     0.074 A 
ATOM     59  C   UNL A   1      41.911  27.888  26.211  1.00  0.00     0.029 A 
ATOM     60  N   UNL A   1      42.209  28.671  28.232  1.00  0.00    -0.354 N 
ATOM     61  N   UNL A   1      44.029  29.149  29.926  1.00  0.00    -0.248 NA
ATOM     62  C   UNL A   1      45.779  30.060  31.147  1.00  0.00     0.031 C 
ATOM     63  C   UNL A   1      42.841  28.981  26.164  1.00  0.00     0.029 A 
ATOM     64  C   UNL A   1      43.016  29.484  27.444  1.00  0.00     0.049 A 
ATOM     65  H   UNL A   1      42.137  28.778  29.208  1.00  0.00     0.167 HD
ATOM     66  C   UNL A   1      44.538  30.162  29.178  1.00  0.00     0.074 A 
ATOM     67  C   UNL A   1      45.666  30.663  29.953  1.00  0.00     0.031 C 
ATOM     68  C   UNL A   1      43.869  30.539  28.055  1.00  0.00     0.031 A 
BRANCH  55  69
ATOM     69  C   UNL A   1      40.493  25.295  28.048  1.00  0.00    -0.014 A 
ATOM     70  C   UNL A   1      39.455  24.716  27.305  1.00  0.00     0.009 A 
ATOM     71  C   UNL A   1      41.514  24.410  28.451  1.00  0.00     0.009 A 
ATOM     72  C   UNL A   1      39.479  23.361  26.936  1.00  0.00     0.001 A 
ATOM     73  C   UNL A   1      41.576  23.073  28.046  1.00  0.00     0.001 A 
ATOM     74  C   UNL A   1      40.554  22.547  27.281  1.00  0.00     0.000 A 
ENDBRANCH  55  69
BRANCH  56  75
ATOM     75  C   UNL A   1      44.666  26.803  31.770  1.00  0.00    -0.014 A 
ATOM     76  C   UNL A   1      44.771  26.432  30.422  1.00  0.00     0.009 A 
ATOM     77  C   UNL A   1      44.610  25.727  32.699  1.00  0.00     0.009 A 
ATOM     78  C   UNL A   1      44.738  25.075  30.028  1.00  0.00     0.001 A 
ATOM     79  C   UNL A   1      44.544  24.380  32.309  1.00  0.00     0.001 A 
ATOM     80  C   UNL A   1      44.591  24.053  30.966  1.00  0.00     0.000 A 
ENDBRANCH  56  75
BRANCH  68  81
ATOM     81  C   UNL A   1      43.968  31.960  27.531  1.00  0.00    -0.014 A 
ATOM     82  C   UNL A   1      44.428  32.301  26.240  1.00  0.00     0.009 A 
ATOM     83  C   UNL A   1      43.759  33.044  28.398  1.00  0.00     0.009 A 
ATOM     84  C   UNL A   1      44.565  33.625  25.805  1.00  0.00     0.001 A 
ATOM     85  C   UNL A   1      43.924  34.375  27.983  1.00  0.00     0.001 A 
ATOM     86  C   UNL A   1      44.307  34.667  26.679  1.00  0.00     0.000 A 
ENDBRANCH  68  81
ENDBRANCH  42  43
ENDBRANCH  35  37
ENDBRANCH  34  35
ENDBRANCH  33  34
ENDBRANCH  32  33
ENDBRANCH  31  32
ENDBRANCH  30  31
ENDBRANCH   1  30
TORSDOF 20
ENDMDL
MODEL 3
REMARK VINA RESULT:     -11.2      3.433      8.463
REMARK SMILES Cc1ccc(NC(=O)Cn2c(CCC(=O)OCCOCCOC(=O)c3ccc(-c4c5nc(c(-c6ccccc6)c6ccc([nH]6)c(-c6ccccc6)c6nc(c(-c7ccccc7)c7ccc4[nH]7)C=C6)C=C5)cc3)ccc2-c2ccccc2)cc1
REMARK SMILES IDX 17 1 16 2 14 3 15 4 13 5 12 6 11 7 10 8 75 9 73 10 74 11
REMARK SMILES IDX 9 12 7 13 6 14 8 16 5 17 1 18 2 19 3 20 83 21 4 22 82 23
REMARK SMILES IDX 76 24 77 25 81 26 78 27 80 28 79 29 18 30 19 31 20 32 21 33
REMARK SMILES IDX 22 34 23 35 24 36 25 37 26 38 72 39 27 40 71 41 28 42 29 43
REMARK SMILES IDX 30 44 65 45 31 46 70 47 64 48 66 49 32 50 69 51 63 52 62 53
REMARK SMILES IDX 33 55 55 56 40 57 54 58 41 59 44 60 53 61 67 62 42 63 43 64
REMARK SMILES IDX 52 66 68 67 45 68 34 69 35 70 39 71 36 72 38 73 37 74 56 75
REMARK SMILES IDX 57 76 61 77 58 78 60 79 59 80 46 81 47 82 51 83 48 84 50 85
REMARK SMILES IDX 49 86
REMARK H PARENT 6 15 66 54 44 65
REMARK Flexibility Score: inf
ROOT
ATOM      1  C   UNL A   1      38.161  21.447  25.488  1.00  0.00     0.261 C 
ENDROOT
BRANCH   1   2
ATOM      2  O   UNL A   1      36.897  21.495  24.763  1.00  0.00    -0.463 OA
BRANCH   2   3
ATOM      3  C   UNL A   1      36.024  20.473  24.980  1.00  0.00     0.306 C 
ATOM      4  O   UNL A   1      36.282  19.289  24.777  1.00  0.00    -0.252 OA
BRANCH   3   5
ATOM      5  C   UNL A   1      34.608  20.904  25.353  1.00  0.00     0.129 C 
BRANCH   5   6
ATOM      6  C   UNL A   1      33.558  21.328  24.322  1.00  0.00     0.066 C 
BRANCH   6   7
ATOM      7  C   UNL A   1      32.568  22.368  24.760  1.00  0.00     0.019 A 
ATOM      8  N   UNL A   1      32.671  23.728  24.563  1.00  0.00    -0.335 N 
ATOM      9  C   UNL A   1      31.403  24.291  24.699  1.00  0.00     0.049 A 
ATOM     10  C   UNL A   1      31.411  22.192  25.504  1.00  0.00     0.024 A 
ATOM     11  C   UNL A   1      30.686  23.406  25.480  1.00  0.00     0.029 A 
BRANCH   8  12
ATOM     12  C   UNL A   1      33.836  24.526  24.200  1.00  0.00     0.222 C 
BRANCH  12  13
ATOM     13  C   UNL A   1      34.699  25.083  25.306  1.00  0.00     0.244 C 
ATOM     14  N   UNL A   1      34.567  26.279  25.907  1.00  0.00    -0.325 N 
ATOM     15  H   UNL A   1      35.306  26.477  26.527  1.00  0.00     0.169 HD
ATOM     16  O   UNL A   1      35.616  24.426  25.808  1.00  0.00    -0.273 OA
BRANCH  14  17
ATOM     17  C   UNL A   1      33.627  27.293  25.849  1.00  0.00     0.041 A 
ATOM     18  C   UNL A   1      31.144  30.772  25.602  1.00  0.00     0.044 C 
ATOM     19  C   UNL A   1      31.985  29.537  25.640  1.00  0.00    -0.051 A 
ATOM     20  C   UNL A   1      31.764  28.584  26.639  1.00  0.00     0.005 A 
ATOM     21  C   UNL A   1      33.005  29.334  24.710  1.00  0.00     0.005 A 
ATOM     22  C   UNL A   1      32.584  27.466  26.746  1.00  0.00     0.026 A 
ATOM     23  C   UNL A   1      33.809  28.207  24.805  1.00  0.00     0.026 A 
ENDBRANCH  14  17
ENDBRANCH  12  13
ENDBRANCH   8  12
BRANCH   9  24
ATOM     24  C   UNL A   1      30.946  25.532  24.063  1.00  0.00    -0.002 A 
ATOM     25  C   UNL A   1      29.799  26.201  24.499  1.00  0.00     0.010 A 
ATOM     26  C   UNL A   1      31.609  26.004  22.918  1.00  0.00     0.010 A 
ATOM     27  C   UNL A   1      29.330  27.325  23.807  1.00  0.00     0.001 A 
ATOM     28  C   UNL A   1      31.141  27.124  22.226  1.00  0.00     0.001 A 
ATOM     29  C   UNL A   1      29.999  27.785  22.672  1.00  0.00     0.000 A 
ENDBRANCH   9  24
ENDBRANCH   6   7
ENDBRANCH   5   6
ENDBRANCH   3   5
ENDBRANCH   2   3
ENDBRANCH   1   2
BRANCH   1  30
ATOM     30  C   UNL A   1      38.589  22.793  26.125  1.00  0.00     0.202 C 
BRANCH  30  31
ATOM     31  O   UNL A   1      39.917  22.818  26.653  1.00  0.00    -0.374 OA
BRANCH  31  32
ATOM     32  C   UNL A   1      40.533  21.563  26.997  1.00  0.00     0.202 C 
BRANCH  32  33
ATOM     33  C   UNL A   1      41.719  21.047  26.148  1.00  0.00     0.261 C 
BRANCH  33  34
ATOM     34  O   UNL A   1      42.879  21.868  26.380  1.00  0.00    -0.460 OA
BRANCH  34  35
ATOM     35  C   UNL A   1      43.135  22.864  25.483  1.00  0.00     0.338 C 
ATOM     36  O   UNL A   1      43.362  22.712  24.299  1.00  0.00    -0.246 OA
BRANCH  35  37
ATOM     37  C   UNL A   1      43.333  24.151  26.234  1.00  0.00     0.060 A 
ATOM     38  C   UNL A   1      43.155  24.315  27.622  1.00  0.00     0.016 A 
ATOM     39  C   UNL A   1      43.424  25.294  25.474  1.00  0.00     0.016 A 
ATOM     40  C   UNL A   1      43.036  25.621  28.230  1.00  0.00     0.010 A 
ATOM     41  C   UNL A   1      43.183  26.523  26.059  1.00  0.00     0.010 A 
ATOM     42  C   UNL A   1      43.015  26.782  27.449  1.00  0.00    -0.014 A 
BRANCH  42  43
ATOM     43  C   UNL A   1      42.810  28.259  27.808  1.00  0.00     0.031 A 
ATOM     44  C   UNL A   1      41.395  28.617  27.726  1.00  0.00     0.074 A 
ATOM     45  C   UNL A   1      43.355  29.356  28.423  1.00  0.00     0.049 A 
ATOM     46  N   UNL A   1      40.649  28.478  28.768  1.00  0.00    -0.248 NA
ATOM     47  C   UNL A   1      40.722  28.918  26.476  1.00  0.00     0.031 C 
ATOM     48  C   UNL A   1      44.646  29.463  29.073  1.00  0.00     0.029 A 
ATOM     49  N   UNL A   1      42.715  30.609  28.751  1.00  0.00    -0.354 N 
ATOM     50  C   UNL A   1      39.391  28.829  28.385  1.00  0.00     0.074 A 
ATOM     51  C   UNL A   1      39.467  28.926  26.933  1.00  0.00     0.031 C 
ATOM     52  C   UNL A   1      44.660  30.578  29.839  1.00  0.00     0.029 A 
ATOM     53  C   UNL A   1      43.381  31.319  29.745  1.00  0.00     0.049 A 
ATOM     54  H   UNL A   1      41.892  30.928  28.316  1.00  0.00     0.167 HD
ATOM     55  C   UNL A   1      38.467  29.128  29.335  1.00  0.00     0.031 A 
ATOM     56  C   UNL A   1      42.912  32.149  30.737  1.00  0.00     0.031 A 
ATOM     57  C   UNL A   1      38.809  28.704  30.718  1.00  0.00     0.049 A 
ATOM     58  C   UNL A   1      42.911  31.215  31.892  1.00  0.00     0.074 A 
ATOM     59  C   UNL A   1      38.112  28.117  31.762  1.00  0.00     0.029 A 
ATOM     60  N   UNL A   1      40.117  28.784  31.192  1.00  0.00    -0.354 N 
ATOM     61  N   UNL A   1      41.994  30.304  31.953  1.00  0.00    -0.248 NA
ATOM     62  C   UNL A   1      43.827  31.252  33.013  1.00  0.00     0.031 C 
ATOM     63  C   UNL A   1      39.024  27.857  32.840  1.00  0.00     0.029 A 
ATOM     64  C   UNL A   1      40.296  28.267  32.469  1.00  0.00     0.049 A 
ATOM     65  H   UNL A   1      40.853  29.172  30.667  1.00  0.00     0.167 HD
ATOM     66  C   UNL A   1      42.278  29.512  33.020  1.00  0.00     0.074 A 
ATOM     67  C   UNL A   1      43.392  30.176  33.686  1.00  0.00     0.031 C 
ATOM     68  C   UNL A   1      41.621  28.327  33.142  1.00  0.00     0.031 A 
BRANCH  55  69
ATOM     69  C   UNL A   1      37.309  30.040  28.975  1.00  0.00    -0.014 A 
ATOM     70  C   UNL A   1      37.500  31.429  29.012  1.00  0.00     0.009 A 
ATOM     71  C   UNL A   1      36.078  29.615  28.434  1.00  0.00     0.009 A 
ATOM     72  C   UNL A   1      36.552  32.318  28.480  1.00  0.00     0.001 A 
ATOM     73  C   UNL A   1      35.152  30.486  27.853  1.00  0.00     0.001 A 
ATOM     74  C   UNL A   1      35.393  31.845  27.874  1.00  0.00     0.000 A 
ENDBRANCH  55  69
BRANCH  56  75
ATOM     75  C   UNL A   1      41.784  33.164  30.913  1.00  0.00    -0.014 A 
ATOM     76  C   UNL A   1      41.739  33.945  32.076  1.00  0.00     0.009 A 
ATOM     77  C   UNL A   1      40.570  33.093  30.175  1.00  0.00     0.009 A 
ATOM     78  C   UNL A   1      40.535  34.545  32.513  1.00  0.00     0.001 A 
ATOM     79  C   UNL A   1      39.366  33.659  30.623  1.00  0.00     0.001 A 
ATOM     80  C   UNL A   1      39.345  34.374  31.807  1.00  0.00     0.000 A 
ENDBRANCH  56  75
BRANCH  68  81
ATOM     81  C   UNL A   1      42.259  27.156  33.868  1.00  0.00    -0.014 A 
ATOM     82  C   UNL A   1      43.431  26.496  33.435  1.00  0.00     0.009 A 
ATOM     83  C   UNL A   1      41.594  26.550  34.945  1.00  0.00     0.009 A 
ATOM     84  C   UNL A   1      43.964  25.380  34.092  1.00  0.00     0.001 A 
ATOM     85  C   UNL A   1      42.101  25.412  35.591  1.00  0.00     0.001 A 
ATOM     86  C   UNL A   1      43.298  24.839  35.179  1.00  0.00     0.000 A 
ENDBRANCH  68  81
ENDBRANCH  42  43
ENDBRANCH  35  37
ENDBRANCH  34  35
ENDBRANCH  33  34
ENDBRANCH  32  33
ENDBRANCH  31  32
ENDBRANCH  30  31
ENDBRANCH   1  30
TORSDOF 20
ENDMDL
