MODEL 1
REMARK VINA RESULT:     -10.6      0.000      0.000
REMARK SMILES CC(C)CSc1cc2c(cc1Cl)C=C(C(=O)OCCOCCOC(=O)c1ccc(-c3c4nc(c(-c5ccccc5)c5ccc([nH]5)c(-c5ccccc5)c5nc(c(-c6ccccc6)c6ccc3[nH]6)C=C5)C=C4)cc1)[C@H](C(F)(F)F)O2
REMARK SMILES IDX 19 1 18 2 17 3 15 4 16 5 14 6 6 7 7 8 11 9 8 10 10 11 12 12
REMARK SMILES IDX 9 13 79 14 13 15 74 16 5 17 4 18 2 19 1 20 3 21 75 22 76 23
REMARK SMILES IDX 77 24 78 25 20 26 21 27 22 28 23 29 24 30 25 31 26 32 27 33
REMARK SMILES IDX 73 34 28 35 72 36 29 37 30 38 31 39 66 40 32 41 71 42 65 43
REMARK SMILES IDX 67 44 33 45 70 46 64 47 63 48 34 50 56 51 41 52 55 53 42 54
REMARK SMILES IDX 45 55 54 56 68 57 43 58 44 59 53 61 69 62 46 63 35 64 36 65
REMARK SMILES IDX 40 66 37 67 39 68 38 69 57 70 58 71 62 72 59 73 61 74 60 75
REMARK SMILES IDX 47 76 48 77 52 78 49 79 51 80 50 81
REMARK H PARENT 67 49 45 60
REMARK Flexibility Score: inf
ROOT
ATOM      1  C   UNL A   1      36.622  20.795  25.155  1.00  0.00     0.202 C 
ENDROOT
BRANCH   1   2
ATOM      2  C   UNL A   1      35.185  21.209  25.479  1.00  0.00     0.261 C 
BRANCH   2   3
ATOM      3  O   UNL A   1      35.154  22.466  26.173  1.00  0.00    -0.460 OA
BRANCH   3   4
ATOM      4  C   UNL A   1      34.077  22.654  26.962  1.00  0.00     0.338 C 
ATOM      5  O   UNL A   1      33.876  22.127  28.045  1.00  0.00    -0.246 OA
BRANCH   4   6
ATOM      6  C   UNL A   1      33.200  23.694  26.391  1.00  0.00     0.087 C 
ATOM      7  C   UNL A   1      31.786  28.137  24.565  1.00  0.00     0.030 A 
ATOM      8  C   UNL A   1      31.141  27.132  25.299  1.00  0.00     0.063 A 
ATOM      9  C   UNL A   1      33.049  27.872  24.013  1.00  0.00     0.055 A 
ATOM     10  C   UNL A   1      31.803  25.947  25.611  1.00  0.00     0.129 A 
ATOM     11  C   UNL A   1      33.688  26.656  24.279  1.00  0.00     0.033 A 
ATOM     12  Cl  UNL A   1      33.899  29.014  23.032  1.00  0.00    -0.083 Cl
ATOM     13  C   UNL A   1      33.082  25.714  25.113  1.00  0.00     0.019 A 
ATOM     14  O   UNL A   1      31.180  25.131  26.512  1.00  0.00    -0.475 OA
ATOM     15  C   UNL A   1      33.824  24.559  25.577  1.00  0.00     0.027 C 
ATOM     16  C   UNL A   1      31.744  23.812  26.768  1.00  0.00     0.316 C 
BRANCH   7  17
ATOM     17  S   UNL A   1      30.955  29.718  24.492  1.00  0.00    -0.124 SA
BRANCH  17  18
ATOM     18  C   UNL A   1      30.083  29.573  22.879  1.00  0.00     0.078 C 
BRANCH  18  19
ATOM     19  C   UNL A   1      28.781  30.392  22.753  1.00  0.00    -0.007 C 
ATOM     20  C   UNL A   1      27.510  29.564  22.966  1.00  0.00     0.008 C 
ATOM     21  C   UNL A   1      28.788  31.522  23.790  1.00  0.00     0.008 C 
ENDBRANCH  18  19
ENDBRANCH  17  18
ENDBRANCH   7  17
BRANCH  16  22
ATOM     22  C   UNL A   1      30.810  22.768  26.124  1.00  0.00     0.430 C 
ATOM     23  F   UNL A   1      30.243  23.226  24.984  1.00  0.00    -0.167 F 
ATOM     24  F   UNL A   1      31.445  21.611  25.832  1.00  0.00    -0.167 F 
ATOM     25  F   UNL A   1      29.796  22.435  26.965  1.00  0.00    -0.167 F 
ENDBRANCH  16  22
ENDBRANCH   4   6
ENDBRANCH   3   4
ENDBRANCH   2   3
ENDBRANCH   1   2
BRANCH   1  26
ATOM     26  O   UNL A   1      37.597  21.835  25.126  1.00  0.00    -0.374 OA
BRANCH  26  27
ATOM     27  C   UNL A   1      38.877  21.565  25.703  1.00  0.00     0.202 C 
BRANCH  27  28
ATOM     28  C   UNL A   1      39.511  20.199  25.408  1.00  0.00     0.261 C 
BRANCH  28  29
ATOM     29  O   UNL A   1      40.452  19.815  26.428  1.00  0.00    -0.460 OA
BRANCH  29  30
ATOM     30  C   UNL A   1      41.757  19.940  26.088  1.00  0.00     0.338 C 
ATOM     31  O   UNL A   1      42.396  19.225  25.333  1.00  0.00    -0.246 OA
BRANCH  30  32
ATOM     32  C   UNL A   1      42.271  21.229  26.596  1.00  0.00     0.060 A 
ATOM     33  C   UNL A   1      42.819  22.189  25.744  1.00  0.00     0.016 A 
ATOM     34  C   UNL A   1      42.172  21.473  27.972  1.00  0.00     0.016 A 
ATOM     35  C   UNL A   1      43.238  23.413  26.275  1.00  0.00     0.010 A 
ATOM     36  C   UNL A   1      42.591  22.695  28.499  1.00  0.00     0.010 A 
ATOM     37  C   UNL A   1      43.108  23.683  27.652  1.00  0.00    -0.014 A 
BRANCH  37  38
ATOM     38  C   UNL A   1      43.385  25.043  28.179  1.00  0.00     0.031 A 
ATOM     39  C   UNL A   1      44.777  25.493  28.511  1.00  0.00     0.074 A 
ATOM     40  C   UNL A   1      42.344  25.874  28.385  1.00  0.00     0.049 A 
ATOM     41  N   UNL A   1      45.180  26.673  28.913  1.00  0.00    -0.248 NA
ATOM     42  C   UNL A   1      45.853  24.500  28.384  1.00  0.00     0.031 C 
ATOM     43  C   UNL A   1      40.943  25.535  28.135  1.00  0.00     0.029 A 
ATOM     44  N   UNL A   1      42.300  27.170  28.838  1.00  0.00    -0.354 N 
ATOM     45  C   UNL A   1      46.556  26.571  29.068  1.00  0.00     0.074 A 
ATOM     46  C   UNL A   1      46.913  25.201  28.768  1.00  0.00     0.031 C 
ATOM     47  C   UNL A   1      40.181  26.607  28.397  1.00  0.00     0.029 A 
ATOM     48  C   UNL A   1      41.031  27.696  28.871  1.00  0.00     0.049 A 
ATOM     49  H   UNL A   1      43.100  27.673  29.112  1.00  0.00     0.167 HD
ATOM     50  C   UNL A   1      47.438  27.541  29.411  1.00  0.00     0.031 A 
ATOM     51  C   UNL A   1      40.593  28.918  29.237  1.00  0.00     0.031 A 
ATOM     52  C   UNL A   1      47.070  28.899  29.729  1.00  0.00     0.049 A 
ATOM     53  C   UNL A   1      41.589  29.961  29.657  1.00  0.00     0.074 A 
ATOM     54  C   UNL A   1      47.905  29.959  30.041  1.00  0.00     0.029 A 
ATOM     55  N   UNL A   1      45.772  29.383  29.789  1.00  0.00    -0.354 N 
ATOM     56  N   UNL A   1      42.897  29.877  29.709  1.00  0.00    -0.248 NA
ATOM     57  C   UNL A   1      41.057  31.274  30.052  1.00  0.00     0.031 C 
ATOM     58  C   UNL A   1      47.111  31.057  30.372  1.00  0.00     0.029 A 
ATOM     59  C   UNL A   1      45.784  30.714  30.175  1.00  0.00     0.049 A 
ATOM     60  H   UNL A   1      44.963  28.858  29.588  1.00  0.00     0.167 HD
ATOM     61  C   UNL A   1      43.344  31.129  30.117  1.00  0.00     0.074 A 
ATOM     62  C   UNL A   1      42.169  31.960  30.279  1.00  0.00     0.031 C 
ATOM     63  C   UNL A   1      44.615  31.544  30.335  1.00  0.00     0.031 A 
BRANCH  50  64
ATOM     64  C   UNL A   1      48.902  27.195  29.453  1.00  0.00    -0.014 A 
ATOM     65  C   UNL A   1      49.666  27.225  28.274  1.00  0.00     0.009 A 
ATOM     66  C   UNL A   1      49.493  26.705  30.628  1.00  0.00     0.009 A 
ATOM     67  C   UNL A   1      50.978  26.748  28.263  1.00  0.00     0.001 A 
ATOM     68  C   UNL A   1      50.818  26.258  30.623  1.00  0.00     0.001 A 
ATOM     69  C   UNL A   1      51.553  26.267  29.438  1.00  0.00     0.000 A 
ENDBRANCH  50  64
BRANCH  51  70
ATOM     70  C   UNL A   1      39.137  29.218  29.169  1.00  0.00    -0.014 A 
ATOM     71  C   UNL A   1      38.304  28.971  30.272  1.00  0.00     0.009 A 
ATOM     72  C   UNL A   1      38.562  29.697  27.982  1.00  0.00     0.009 A 
ATOM     73  C   UNL A   1      36.924  29.164  30.180  1.00  0.00     0.001 A 
ATOM     74  C   UNL A   1      37.186  29.925  27.904  1.00  0.00     0.001 A 
ATOM     75  C   UNL A   1      36.367  29.647  28.997  1.00  0.00     0.000 A 
ENDBRANCH  51  70
BRANCH  63  76
ATOM     76  C   UNL A   1      44.837  32.970  30.765  1.00  0.00    -0.014 A 
ATOM     77  C   UNL A   1      45.135  33.949  29.801  1.00  0.00     0.009 A 
ATOM     78  C   UNL A   1      44.878  33.325  32.122  1.00  0.00     0.009 A 
ATOM     79  C   UNL A   1      45.498  35.241  30.186  1.00  0.00     0.001 A 
ATOM     80  C   UNL A   1      45.205  34.629  32.503  1.00  0.00     0.001 A 
ATOM     81  C   UNL A   1      45.529  35.581  31.537  1.00  0.00     0.000 A 
ENDBRANCH  63  76
ENDBRANCH  37  38
ENDBRANCH  30  32
ENDBRANCH  29  30
ENDBRANCH  28  29
ENDBRANCH  27  28
ENDBRANCH  26  27
ENDBRANCH   1  26
TORSDOF 18
ENDMDL
MODEL 2
REMARK VINA RESULT:     -10.4      3.641      7.217
REMARK SMILES CC(C)CSc1cc2c(cc1Cl)C=C(C(=O)OCCOCCOC(=O)c1ccc(-c3c4nc(c(-c5ccccc5)c5ccc([nH]5)c(-c5ccccc5)c5nc(c(-c6ccccc6)c6ccc3[nH]6)C=C5)C=C4)cc1)[C@H](C(F)(F)F)O2
REMARK SMILES IDX 19 1 18 2 17 3 15 4 16 5 14 6 6 7 7 8 11 9 8 10 10 11 12 12
REMARK SMILES IDX 9 13 79 14 13 15 74 16 5 17 4 18 2 19 1 20 3 21 75 22 76 23
REMARK SMILES IDX 77 24 78 25 20 26 21 27 22 28 23 29 24 30 25 31 26 32 27 33
REMARK SMILES IDX 73 34 28 35 72 36 29 37 30 38 31 39 66 40 32 41 71 42 65 43
REMARK SMILES IDX 67 44 33 45 70 46 64 47 63 48 34 50 56 51 41 52 55 53 42 54
REMARK SMILES IDX 45 55 54 56 68 57 43 58 44 59 53 61 69 62 46 63 35 64 36 65
REMARK SMILES IDX 40 66 37 67 39 68 38 69 57 70 58 71 62 72 59 73 61 74 60 75
REMARK SMILES IDX 47 76 48 77 52 78 49 79 51 80 50 81
REMARK H PARENT 67 49 45 60
REMARK Flexibility Score: inf
ROOT
ATOM      1  C   UNL A   1      37.454  20.897  24.959  1.00  0.00     0.202 C 
ENDROOT
BRANCH   1   2
ATOM      2  C   UNL A   1      35.930  21.030  24.934  1.00  0.00     0.261 C 
BRANCH   2   3
ATOM      3  O   UNL A   1      35.489  22.074  25.817  1.00  0.00    -0.460 OA
BRANCH   3   4
ATOM      4  C   UNL A   1      34.152  22.194  25.934  1.00  0.00     0.338 C 
ATOM      5  O   UNL A   1      33.409  21.437  26.540  1.00  0.00    -0.246 OA
BRANCH   4   6
ATOM      6  C   UNL A   1      33.695  23.454  25.317  1.00  0.00     0.087 C 
ATOM      7  C   UNL A   1      32.325  28.256  24.947  1.00  0.00     0.030 A 
ATOM      8  C   UNL A   1      31.961  27.082  24.275  1.00  0.00     0.063 A 
ATOM      9  C   UNL A   1      33.435  28.231  25.808  1.00  0.00     0.055 A 
ATOM     10  C   UNL A   1      32.586  25.872  24.572  1.00  0.00     0.129 A 
ATOM     11  C   UNL A   1      34.099  27.026  26.059  1.00  0.00     0.033 A 
ATOM     12  Cl  UNL A   1      34.013  29.638  26.629  1.00  0.00    -0.083 Cl
ATOM     13  C   UNL A   1      33.646  25.841  25.474  1.00  0.00     0.019 A 
ATOM     14  O   UNL A   1      32.014  24.755  24.034  1.00  0.00    -0.475 OA
ATOM     15  C   UNL A   1      34.178  24.562  25.898  1.00  0.00     0.027 C 
ATOM     16  C   UNL A   1      32.702  23.478  24.181  1.00  0.00     0.316 C 
BRANCH   7  17
ATOM     17  S   UNL A   1      31.255  29.667  24.708  1.00  0.00    -0.124 SA
BRANCH  17  18
ATOM     18  C   UNL A   1      30.052  28.983  23.497  1.00  0.00     0.078 C 
BRANCH  18  19
ATOM     19  C   UNL A   1      28.967  29.968  23.010  1.00  0.00    -0.007 C 
ATOM     20  C   UNL A   1      28.926  31.279  23.801  1.00  0.00     0.008 C 
ATOM     21  C   UNL A   1      29.218  30.313  21.537  1.00  0.00     0.008 C 
ENDBRANCH  18  19
ENDBRANCH  17  18
ENDBRANCH   7  17
BRANCH  16  22
ATOM     22  C   UNL A   1      33.270  23.088  22.801  1.00  0.00     0.430 C 
ATOM     23  F   UNL A   1      32.851  23.925  21.823  1.00  0.00    -0.167 F 
ATOM     24  F   UNL A   1      34.621  23.071  22.779  1.00  0.00    -0.167 F 
ATOM     25  F   UNL A   1      32.876  21.836  22.447  1.00  0.00    -0.167 F 
ENDBRANCH  16  22
ENDBRANCH   4   6
ENDBRANCH   3   4
ENDBRANCH   2   3
ENDBRANCH   1   2
BRANCH   1  26
ATOM     26  O   UNL A   1      38.193  22.059  25.327  1.00  0.00    -0.374 OA
BRANCH  26  27
ATOM     27  C   UNL A   1      39.150  21.934  26.381  1.00  0.00     0.202 C 
BRANCH  27  28
ATOM     28  C   UNL A   1      40.627  21.814  25.984  1.00  0.00     0.261 C 
BRANCH  28  29
ATOM     29  O   UNL A   1      41.479  22.590  26.847  1.00  0.00    -0.460 OA
BRANCH  29  30
ATOM     30  C   UNL A   1      42.001  23.709  26.292  1.00  0.00     0.338 C 
ATOM     31  O   UNL A   1      42.533  23.813  25.198  1.00  0.00    -0.246 OA
BRANCH  30  32
ATOM     32  C   UNL A   1      41.634  24.878  27.118  1.00  0.00     0.060 A 
ATOM     33  C   UNL A   1      40.511  24.870  27.947  1.00  0.00     0.016 A 
ATOM     34  C   UNL A   1      42.467  26.004  27.061  1.00  0.00     0.016 A 
ATOM     35  C   UNL A   1      40.246  25.985  28.747  1.00  0.00     0.010 A 
ATOM     36  C   UNL A   1      42.200  27.115  27.860  1.00  0.00     0.010 A 
ATOM     37  C   UNL A   1      41.099  27.107  28.726  1.00  0.00    -0.014 A 
BRANCH  37  38
ATOM     38  C   UNL A   1      40.915  28.208  29.705  1.00  0.00     0.031 A 
ATOM     39  C   UNL A   1      39.830  29.231  29.549  1.00  0.00     0.074 A 
ATOM     40  C   UNL A   1      41.772  28.292  30.742  1.00  0.00     0.049 A 
ATOM     41  N   UNL A   1      39.504  30.207  30.359  1.00  0.00    -0.248 NA
ATOM     42  C   UNL A   1      39.008  29.158  28.332  1.00  0.00     0.031 C 
ATOM     43  C   UNL A   1      42.890  27.377  30.978  1.00  0.00     0.029 A 
ATOM     44  N   UNL A   1      41.834  29.175  31.792  1.00  0.00    -0.354 N 
ATOM     45  C   UNL A   1      38.430  30.853  29.763  1.00  0.00     0.074 A 
ATOM     46  C   UNL A   1      38.191  30.192  28.497  1.00  0.00     0.031 C 
ATOM     47  C   UNL A   1      43.501  27.720  32.122  1.00  0.00     0.029 A 
ATOM     48  C   UNL A   1      42.846  28.900  32.680  1.00  0.00     0.049 A 
ATOM     49  H   UNL A   1      41.213  29.931  31.898  1.00  0.00     0.167 HD
ATOM     50  C   UNL A   1      37.701  31.890  30.241  1.00  0.00     0.031 A 
ATOM     51  C   UNL A   1      43.210  29.521  33.820  1.00  0.00     0.031 A 
ATOM     52  C   UNL A   1      37.960  32.556  31.494  1.00  0.00     0.049 A 
ATOM     53  C   UNL A   1      42.411  30.698  34.305  1.00  0.00     0.074 A 
ATOM     54  C   UNL A   1      37.242  33.587  32.077  1.00  0.00     0.029 A 
ATOM     55  N   UNL A   1      39.016  32.275  32.346  1.00  0.00    -0.354 N 
ATOM     56  N   UNL A   1      41.340  31.240  33.776  1.00  0.00    -0.248 NA
ATOM     57  C   UNL A   1      42.856  31.342  35.549  1.00  0.00     0.031 C 
ATOM     58  C   UNL A   1      37.910  33.984  33.236  1.00  0.00     0.029 A 
ATOM     59  C   UNL A   1      38.992  33.140  33.428  1.00  0.00     0.049 A 
ATOM     60  H   UNL A   1      39.685  31.565  32.203  1.00  0.00     0.167 HD
ATOM     61  C   UNL A   1      40.970  32.268  34.635  1.00  0.00     0.074 A 
ATOM     62  C   UNL A   1      41.918  32.262  35.729  1.00  0.00     0.031 C 
ATOM     63  C   UNL A   1      39.934  33.135  34.519  1.00  0.00     0.031 A 
BRANCH  50  64
ATOM     64  C   UNL A   1      36.533  32.380  29.428  1.00  0.00    -0.014 A 
ATOM     65  C   UNL A   1      36.682  33.491  28.581  1.00  0.00     0.009 A 
ATOM     66  C   UNL A   1      35.252  31.834  29.605  1.00  0.00     0.009 A 
ATOM     67  C   UNL A   1      35.574  34.060  27.951  1.00  0.00     0.001 A 
ATOM     68  C   UNL A   1      34.149  32.385  28.948  1.00  0.00     0.001 A 
ATOM     69  C   UNL A   1      34.308  33.505  28.133  1.00  0.00     0.000 A 
ENDBRANCH  50  64
BRANCH  51  70
ATOM     70  C   UNL A   1      44.365  28.995  34.597  1.00  0.00    -0.014 A 
ATOM     71  C   UNL A   1      45.671  29.433  34.322  1.00  0.00     0.009 A 
ATOM     72  C   UNL A   1      44.176  28.009  35.577  1.00  0.00     0.009 A 
ATOM     73  C   UNL A   1      46.765  28.873  34.985  1.00  0.00     0.001 A 
ATOM     74  C   UNL A   1      45.269  27.476  36.266  1.00  0.00     0.001 A 
ATOM     75  C   UNL A   1      46.562  27.899  35.962  1.00  0.00     0.000 A 
ENDBRANCH  51  70
BRANCH  63  76
ATOM     76  C   UNL A   1      39.737  34.161  35.604  1.00  0.00    -0.014 A 
ATOM     77  C   UNL A   1      40.352  35.420  35.491  1.00  0.00     0.009 A 
ATOM     78  C   UNL A   1      39.056  33.848  36.791  1.00  0.00     0.009 A 
ATOM     79  C   UNL A   1      40.315  36.329  36.550  1.00  0.00     0.001 A 
ATOM     80  C   UNL A   1      38.989  34.774  37.835  1.00  0.00     0.001 A 
ATOM     81  C   UNL A   1      39.630  36.007  37.720  1.00  0.00     0.000 A 
ENDBRANCH  63  76
ENDBRANCH  37  38
ENDBRANCH  30  32
ENDBRANCH  29  30
ENDBRANCH  28  29
ENDBRANCH  27  28
ENDBRANCH  26  27
ENDBRANCH   1  26
TORSDOF 18
ENDMDL
MODEL 3
REMARK VINA RESULT:     -10.3      1.334      5.961
REMARK SMILES CC(C)CSc1cc2c(cc1Cl)C=C(C(=O)OCCOCCOC(=O)c1ccc(-c3c4nc(c(-c5ccccc5)c5ccc([nH]5)c(-c5ccccc5)c5nc(c(-c6ccccc6)c6ccc3[nH]6)C=C5)C=C4)cc1)[C@H](C(F)(F)F)O2
REMARK SMILES IDX 19 1 18 2 17 3 15 4 16 5 14 6 6 7 7 8 11 9 8 10 10 11 12 12
REMARK SMILES IDX 9 13 79 14 13 15 74 16 5 17 4 18 2 19 1 20 3 21 75 22 76 23
REMARK SMILES IDX 77 24 78 25 20 26 21 27 22 28 23 29 24 30 25 31 26 32 27 33
REMARK SMILES IDX 73 34 28 35 72 36 29 37 30 38 31 39 66 40 32 41 71 42 65 43
REMARK SMILES IDX 67 44 33 45 70 46 64 47 63 48 34 50 56 51 41 52 55 53 42 54
REMARK SMILES IDX 45 55 54 56 68 57 43 58 44 59 53 61 69 62 46 63 35 64 36 65
REMARK SMILES IDX 40 66 37 67 39 68 38 69 57 70 58 71 62 72 59 73 61 74 60 75
REMARK SMILES IDX 47 76 48 77 52 78 49 79 51 80 50 81
REMARK H PARENT 67 49 45 60
REMARK Flexibility Score: inf
ROOT
ATOM      1  C   UNL A   1      36.472  20.731  24.994  1.00  0.00     0.202 C 
ENDROOT
BRANCH   1   2
ATOM      2  C   UNL A   1      35.460  21.556  25.792  1.00  0.00     0.261 C 
BRANCH   2   3
ATOM      3  O   UNL A   1      34.246  21.744  25.047  1.00  0.00    -0.460 OA
BRANCH   3   4
ATOM      4  C   UNL A   1      33.258  22.368  25.719  1.00  0.00     0.338 C 
ATOM      5  O   UNL A   1      32.756  22.001  26.770  1.00  0.00    -0.246 OA
BRANCH   4   6
ATOM      6  C   UNL A   1      32.928  23.650  25.068  1.00  0.00     0.087 C 
ATOM      7  C   UNL A   1      31.621  28.462  24.602  1.00  0.00     0.030 A 
ATOM      8  C   UNL A   1      31.415  27.314  23.825  1.00  0.00     0.063 A 
ATOM      9  C   UNL A   1      32.528  28.405  25.672  1.00  0.00     0.055 A 
ATOM     10  C   UNL A   1      31.975  26.095  24.200  1.00  0.00     0.129 A 
ATOM     11  C   UNL A   1      33.137  27.192  26.010  1.00  0.00     0.033 A 
ATOM     12  Cl  UNL A   1      32.911  29.780  26.648  1.00  0.00    -0.083 Cl
ATOM     13  C   UNL A   1      32.826  26.030  25.300  1.00  0.00     0.019 A 
ATOM     14  O   UNL A   1      31.538  24.998  23.514  1.00  0.00    -0.475 OA
ATOM     15  C   UNL A   1      33.269  24.736  25.778  1.00  0.00     0.027 C 
ATOM     16  C   UNL A   1      32.192  23.717  23.753  1.00  0.00     0.316 C 
BRANCH   7  17
ATOM     17  S   UNL A   1      30.611  29.880  24.199  1.00  0.00    -0.124 SA
BRANCH  17  18
ATOM     18  C   UNL A   1      29.862  29.327  22.613  1.00  0.00     0.078 C 
BRANCH  18  19
ATOM     19  C   UNL A   1      28.345  29.578  22.472  1.00  0.00    -0.007 C 
ATOM     20  C   UNL A   1      27.480  28.522  23.165  1.00  0.00     0.008 C 
ATOM     21  C   UNL A   1      27.998  30.945  23.074  1.00  0.00     0.008 C 
ENDBRANCH  18  19
ENDBRANCH  17  18
ENDBRANCH   7  17
BRANCH  16  22
ATOM     22  C   UNL A   1      33.037  23.381  22.507  1.00  0.00     0.430 C 
ATOM     23  F   UNL A   1      32.821  22.117  22.071  1.00  0.00    -0.167 F 
ATOM     24  F   UNL A   1      32.798  24.219  21.474  1.00  0.00    -0.167 F 
ATOM     25  F   UNL A   1      34.365  23.488  22.774  1.00  0.00    -0.167 F 
ENDBRANCH  16  22
ENDBRANCH   4   6
ENDBRANCH   3   4
ENDBRANCH   2   3
ENDBRANCH   1   2
BRANCH   1  26
ATOM     26  O   UNL A   1      37.741  21.334  24.751  1.00  0.00    -0.374 OA
BRANCH  26  27
ATOM     27  C   UNL A   1      38.779  21.110  25.708  1.00  0.00     0.202 C 
BRANCH  27  28
ATOM     28  C   UNL A   1      39.518  19.767  25.648  1.00  0.00     0.261 C 
BRANCH  28  29
ATOM     29  O   UNL A   1      40.609  19.713  26.586  1.00  0.00    -0.460 OA
BRANCH  29  30
ATOM     30  C   UNL A   1      41.831  19.981  26.069  1.00  0.00     0.338 C 
ATOM     31  O   UNL A   1      42.433  19.338  25.224  1.00  0.00    -0.246 OA
BRANCH  30  32
ATOM     32  C   UNL A   1      42.266  21.320  26.516  1.00  0.00     0.060 A 
ATOM     33  C   UNL A   1      42.658  22.307  25.610  1.00  0.00     0.016 A 
ATOM     34  C   UNL A   1      42.256  21.584  27.892  1.00  0.00     0.016 A 
ATOM     35  C   UNL A   1      43.006  23.574  26.088  1.00  0.00     0.010 A 
ATOM     36  C   UNL A   1      42.604  22.848  28.367  1.00  0.00     0.010 A 
ATOM     37  C   UNL A   1      42.962  23.860  27.466  1.00  0.00    -0.014 A 
BRANCH  37  38
ATOM     38  C   UNL A   1      43.157  25.251  27.951  1.00  0.00     0.031 A 
ATOM     39  C   UNL A   1      42.004  26.194  28.127  1.00  0.00     0.074 A 
ATOM     40  C   UNL A   1      44.412  25.669  28.209  1.00  0.00     0.049 A 
ATOM     41  N   UNL A   1      42.012  27.413  28.607  1.00  0.00    -0.248 NA
ATOM     42  C   UNL A   1      40.677  25.719  27.710  1.00  0.00     0.031 C 
ATOM     43  C   UNL A   1      45.615  24.853  28.039  1.00  0.00     0.029 A 
ATOM     44  N   UNL A   1      44.884  26.870  28.676  1.00  0.00    -0.354 N 
ATOM     45  C   UNL A   1      40.694  27.844  28.568  1.00  0.00     0.074 A 
ATOM     46  C   UNL A   1      39.919  26.778  27.969  1.00  0.00     0.031 C 
ATOM     47  C   UNL A   1      46.682  25.562  28.436  1.00  0.00     0.029 A 
ATOM     48  C   UNL A   1      46.247  26.893  28.850  1.00  0.00     0.049 A 
ATOM     49  H   UNL A   1      44.303  27.641  28.869  1.00  0.00     0.167 HD
ATOM     50  C   UNL A   1      40.179  29.017  29.011  1.00  0.00     0.031 A 
ATOM     51  C   UNL A   1      47.062  27.870  29.296  1.00  0.00     0.031 A 
ATOM     52  C   UNL A   1      40.961  30.082  29.588  1.00  0.00     0.049 A 
ATOM     53  C   UNL A   1      46.469  29.179  29.738  1.00  0.00     0.074 A 
ATOM     54  C   UNL A   1      40.515  31.286  30.106  1.00  0.00     0.029 A 
ATOM     55  N   UNL A   1      42.342  30.083  29.711  1.00  0.00    -0.354 N 
ATOM     56  N   UNL A   1      45.208  29.538  29.783  1.00  0.00    -0.248 NA
ATOM     57  C   UNL A   1      47.403  30.212  30.209  1.00  0.00     0.031 C 
ATOM     58  C   UNL A   1      41.627  32.048  30.463  1.00  0.00     0.029 A 
ATOM     59  C   UNL A   1      42.765  31.285  30.258  1.00  0.00     0.049 A 
ATOM     60  H   UNL A   1      42.934  29.341  29.448  1.00  0.00     0.167 HD
ATOM     61  C   UNL A   1      45.197  30.825  30.308  1.00  0.00     0.074 A 
ATOM     62  C   UNL A   1      46.574  31.175  30.586  1.00  0.00     0.031 C 
ATOM     63  C   UNL A   1      44.135  31.635  30.537  1.00  0.00     0.031 A 
BRANCH  50  64
ATOM     64  C   UNL A   1      38.691  29.229  28.914  1.00  0.00    -0.014 A 
ATOM     65  C   UNL A   1      38.132  29.763  27.741  1.00  0.00     0.009 A 
ATOM     66  C   UNL A   1      37.862  29.033  30.030  1.00  0.00     0.009 A 
ATOM     67  C   UNL A   1      36.784  30.122  27.695  1.00  0.00     0.001 A 
ATOM     68  C   UNL A   1      36.505  29.362  29.971  1.00  0.00     0.001 A 
ATOM     69  C   UNL A   1      35.971  29.919  28.809  1.00  0.00     0.000 A 
ENDBRANCH  50  64
BRANCH  51  70
ATOM     70  C   UNL A   1      48.525  27.612  29.385  1.00  0.00    -0.014 A 
ATOM     71  C   UNL A   1      49.367  27.885  28.294  1.00  0.00     0.009 A 
ATOM     72  C   UNL A   1      49.079  27.037  30.538  1.00  0.00     0.009 A 
ATOM     73  C   UNL A   1      50.723  27.557  28.342  1.00  0.00     0.001 A 
ATOM     74  C   UNL A   1      50.444  26.744  30.598  1.00  0.00     0.001 A 
ATOM     75  C   UNL A   1      51.262  26.993  29.497  1.00  0.00     0.000 A 
ENDBRANCH  51  70
BRANCH  63  76
ATOM     76  C   UNL A   1      44.391  32.995  31.132  1.00  0.00    -0.014 A 
ATOM     77  C   UNL A   1      44.484  33.138  32.528  1.00  0.00     0.009 A 
ATOM     78  C   UNL A   1      44.413  34.149  30.333  1.00  0.00     0.009 A 
ATOM     79  C   UNL A   1      44.564  34.404  33.111  1.00  0.00     0.001 A 
ATOM     80  C   UNL A   1      44.531  35.413  30.918  1.00  0.00     0.001 A 
ATOM     81  C   UNL A   1      44.591  35.540  32.306  1.00  0.00     0.000 A 
ENDBRANCH  63  76
ENDBRANCH  37  38
ENDBRANCH  30  32
ENDBRANCH  29  30
ENDBRANCH  28  29
ENDBRANCH  27  28
ENDBRANCH  26  27
ENDBRANCH   1  26
TORSDOF 18
ENDMDL
