MODEL 1
REMARK VINA RESULT:      -9.8      0.000      0.000
REMARK SMILES CSc1nc(C2CC2)nc(C)c1C(=O)OCCOCCOC(=O)c1ccc(-c2c3nc(c(-c4ccccc4)c4ccc([nH]4)c(-c4ccccc4)c4nc(c(-c5ccccc5)c5ccc2[nH]5)C=C4)C=C3)cc1
REMARK SMILES IDX 19 1 18 2 17 3 16 4 15 5 13 6 14 7 12 8 3 9 4 10 5 11 10 12
REMARK SMILES IDX 9 13 11 14 2 15 1 16 6 17 7 18 8 19 20 20 21 21 22 22 23 23
REMARK SMILES IDX 24 24 25 25 71 26 26 27 70 28 27 29 28 30 29 31 64 32 30 33
REMARK SMILES IDX 69 34 63 35 65 36 31 37 68 38 62 39 61 40 32 42 54 43 39 44
REMARK SMILES IDX 53 45 40 46 43 47 52 48 66 49 41 50 42 51 51 53 67 54 44 55
REMARK SMILES IDX 33 56 34 57 38 58 35 59 37 60 36 61 55 62 56 63 60 64 57 65
REMARK SMILES IDX 59 66 58 67 45 68 46 69 50 70 47 71 49 72 48 73
REMARK H PARENT 65 41 43 52
REMARK Flexibility Score: inf
ROOT
ATOM      1  C   UNL A   1      35.239  21.248  25.342  1.00  0.00     0.202 C 
ENDROOT
BRANCH   1   2
ATOM      2  O   UNL A   1      35.165  22.182  26.421  1.00  0.00    -0.374 OA
BRANCH   2   3
ATOM      3  C   UNL A   1      34.817  23.536  26.128  1.00  0.00     0.202 C 
BRANCH   3   4
ATOM      4  C   UNL A   1      34.892  23.955  24.658  1.00  0.00     0.261 C 
BRANCH   4   5
ATOM      5  O   UNL A   1      34.357  25.276  24.511  1.00  0.00    -0.460 OA
BRANCH   5   6
ATOM      6  C   UNL A   1      33.745  25.539  23.339  1.00  0.00     0.342 C 
ATOM      7  O   UNL A   1      33.928  24.968  22.272  1.00  0.00    -0.246 OA
BRANCH   6   8
ATOM      8  C   UNL A   1      32.740  26.575  23.543  1.00  0.00     0.113 A 
ATOM      9  C   UNL A   1      31.460  26.311  24.001  1.00  0.00     0.114 A 
ATOM     10  N   UNL A   1      30.511  27.280  23.981  1.00  0.00    -0.225 NA
ATOM     11  C   UNL A   1      30.807  28.505  23.523  1.00  0.00     0.133 A 
ATOM     12  C   UNL A   1      33.017  27.897  23.204  1.00  0.00     0.057 A 
ATOM     13  N   UNL A   1      32.057  28.850  23.183  1.00  0.00    -0.237 NA
ATOM     14  C   UNL A   1      34.365  28.389  22.758  1.00  0.00     0.068 C 
BRANCH   9  15
ATOM     15  S   UNL A   1      30.730  24.853  24.735  1.00  0.00    -0.109 SA
ATOM     16  C   UNL A   1      31.357  24.670  26.418  1.00  0.00     0.092 C 
ENDBRANCH   9  15
BRANCH  11  17
ATOM     17  C   UNL A   1      29.703  29.515  23.313  1.00  0.00     0.058 C 
ATOM     18  C   UNL A   1      29.344  29.996  21.924  1.00  0.00     0.012 C 
ATOM     19  C   UNL A   1      28.392  29.117  22.681  1.00  0.00     0.012 C 
ENDBRANCH  11  17
ENDBRANCH   6   8
ENDBRANCH   5   6
ENDBRANCH   4   5
ENDBRANCH   3   4
ENDBRANCH   2   3
ENDBRANCH   1   2
BRANCH   1  20
ATOM     20  C   UNL A   1      36.604  20.639  25.010  1.00  0.00     0.261 C 
BRANCH  20  21
ATOM     21  O   UNL A   1      37.672  21.598  25.048  1.00  0.00    -0.460 OA
BRANCH  21  22
ATOM     22  C   UNL A   1      38.743  21.223  25.786  1.00  0.00     0.338 C 
ATOM     23  O   UNL A   1      39.264  20.120  25.840  1.00  0.00    -0.246 OA
BRANCH  22  24
ATOM     24  C   UNL A   1      39.331  22.412  26.421  1.00  0.00     0.060 A 
ATOM     25  C   UNL A   1      38.784  23.666  26.119  1.00  0.00     0.016 A 
ATOM     26  C   UNL A   1      40.449  22.297  27.246  1.00  0.00     0.016 A 
ATOM     27  C   UNL A   1      39.377  24.822  26.620  1.00  0.00     0.010 A 
ATOM     28  C   UNL A   1      41.049  23.455  27.736  1.00  0.00     0.010 A 
ATOM     29  C   UNL A   1      40.535  24.721  27.401  1.00  0.00    -0.014 A 
BRANCH  29  30
ATOM     30  C   UNL A   1      41.314  25.928  27.753  1.00  0.00     0.031 A 
ATOM     31  C   UNL A   1      40.666  26.972  28.614  1.00  0.00     0.074 A 
ATOM     32  C   UNL A   1      42.557  26.106  27.275  1.00  0.00     0.049 A 
ATOM     33  N   UNL A   1      41.084  28.173  28.917  1.00  0.00    -0.248 NA
ATOM     34  C   UNL A   1      39.364  26.618  29.205  1.00  0.00     0.031 C 
ATOM     35  C   UNL A   1      43.306  25.138  26.475  1.00  0.00     0.029 A 
ATOM     36  N   UNL A   1      43.398  27.185  27.376  1.00  0.00    -0.354 N 
ATOM     37  C   UNL A   1      40.088  28.727  29.711  1.00  0.00     0.074 A 
ATOM     38  C   UNL A   1      39.038  27.739  29.830  1.00  0.00     0.031 C 
ATOM     39  C   UNL A   1      44.489  25.677  26.137  1.00  0.00     0.029 A 
ATOM     40  C   UNL A   1      44.558  27.041  26.656  1.00  0.00     0.049 A 
ATOM     41  H   UNL A   1      43.189  27.984  27.912  1.00  0.00     0.167 HD
ATOM     42  C   UNL A   1      40.054  29.950  30.288  1.00  0.00     0.031 A 
ATOM     43  C   UNL A   1      45.543  27.928  26.413  1.00  0.00     0.031 A 
ATOM     44  C   UNL A   1      41.096  30.930  30.152  1.00  0.00     0.049 A 
ATOM     45  C   UNL A   1      45.440  29.314  26.993  1.00  0.00     0.074 A 
ATOM     46  C   UNL A   1      41.169  32.195  30.707  1.00  0.00     0.029 A 
ATOM     47  N   UNL A   1      42.248  30.753  29.401  1.00  0.00    -0.354 N 
ATOM     48  N   UNL A   1      44.504  29.826  27.755  1.00  0.00    -0.248 NA
ATOM     49  C   UNL A   1      46.532  30.246  26.677  1.00  0.00     0.031 C 
ATOM     50  C   UNL A   1      42.337  32.806  30.242  1.00  0.00     0.029 A 
ATOM     51  C   UNL A   1      43.024  31.897  29.453  1.00  0.00     0.049 A 
ATOM     52  H   UNL A   1      42.479  29.936  28.903  1.00  0.00     0.167 HD
ATOM     53  C   UNL A   1      44.911  31.123  28.039  1.00  0.00     0.074 A 
ATOM     54  C   UNL A   1      46.181  31.320  27.372  1.00  0.00     0.031 C 
ATOM     55  C   UNL A   1      44.292  32.067  28.791  1.00  0.00     0.031 A 
BRANCH  42  56
ATOM     56  C   UNL A   1      38.829  30.310  31.082  1.00  0.00    -0.014 A 
ATOM     57  C   UNL A   1      38.729  30.012  32.451  1.00  0.00     0.009 A 
ATOM     58  C   UNL A   1      37.768  30.982  30.454  1.00  0.00     0.009 A 
ATOM     59  C   UNL A   1      37.578  30.351  33.165  1.00  0.00     0.001 A 
ATOM     60  C   UNL A   1      36.631  31.346  31.178  1.00  0.00     0.001 A 
ATOM     61  C   UNL A   1      36.533  31.022  32.530  1.00  0.00     0.000 A 
ENDBRANCH  42  56
BRANCH  43  62
ATOM     62  C   UNL A   1      46.696  27.545  25.559  1.00  0.00    -0.014 A 
ATOM     63  C   UNL A   1      46.712  27.869  24.194  1.00  0.00     0.009 A 
ATOM     64  C   UNL A   1      47.784  26.841  26.101  1.00  0.00     0.009 A 
ATOM     65  C   UNL A   1      47.781  27.473  23.385  1.00  0.00     0.001 A 
ATOM     66  C   UNL A   1      48.865  26.475  25.296  1.00  0.00     0.001 A 
ATOM     67  C   UNL A   1      48.858  26.782  23.937  1.00  0.00     0.000 A 
ENDBRANCH  43  62
BRANCH  55  68
ATOM     68  C   UNL A   1      45.000  33.378  28.983  1.00  0.00    -0.014 A 
ATOM     69  C   UNL A   1      45.967  33.548  29.984  1.00  0.00     0.009 A 
ATOM     70  C   UNL A   1      44.746  34.435  28.094  1.00  0.00     0.009 A 
ATOM     71  C   UNL A   1      46.651  34.760  30.104  1.00  0.00     0.001 A 
ATOM     72  C   UNL A   1      45.452  35.633  28.197  1.00  0.00     0.001 A 
ATOM     73  C   UNL A   1      46.399  35.798  29.206  1.00  0.00     0.000 A 
ENDBRANCH  55  68
ENDBRANCH  29  30
ENDBRANCH  22  24
ENDBRANCH  21  22
ENDBRANCH  20  21
ENDBRANCH   1  20
TORSDOF 16
ENDMDL
MODEL 2
REMARK VINA RESULT:      -9.8      3.233      7.048
REMARK SMILES CSc1nc(C2CC2)nc(C)c1C(=O)OCCOCCOC(=O)c1ccc(-c2c3nc(c(-c4ccccc4)c4ccc([nH]4)c(-c4ccccc4)c4nc(c(-c5ccccc5)c5ccc2[nH]5)C=C4)C=C3)cc1
REMARK SMILES IDX 19 1 18 2 17 3 16 4 15 5 13 6 14 7 12 8 3 9 4 10 5 11 10 12
REMARK SMILES IDX 9 13 11 14 2 15 1 16 6 17 7 18 8 19 20 20 21 21 22 22 23 23
REMARK SMILES IDX 24 24 25 25 71 26 26 27 70 28 27 29 28 30 29 31 64 32 30 33
REMARK SMILES IDX 69 34 63 35 65 36 31 37 68 38 62 39 61 40 32 42 54 43 39 44
REMARK SMILES IDX 53 45 40 46 43 47 52 48 66 49 41 50 42 51 51 53 67 54 44 55
REMARK SMILES IDX 33 56 34 57 38 58 35 59 37 60 36 61 55 62 56 63 60 64 57 65
REMARK SMILES IDX 59 66 58 67 45 68 46 69 50 70 47 71 49 72 48 73
REMARK H PARENT 65 41 43 52
REMARK Flexibility Score: inf
ROOT
ATOM      1  C   UNL A   1      33.377  28.700  24.983  1.00  0.00     0.202 C 
ENDROOT
BRANCH   1   2
ATOM      2  O   UNL A   1      32.930  27.424  24.519  1.00  0.00    -0.374 OA
BRANCH   2   3
ATOM      3  C   UNL A   1      33.850  26.332  24.532  1.00  0.00     0.202 C 
BRANCH   3   4
ATOM      4  C   UNL A   1      33.755  25.378  25.725  1.00  0.00     0.261 C 
BRANCH   4   5
ATOM      5  O   UNL A   1      34.532  24.204  25.459  1.00  0.00    -0.460 OA
BRANCH   5   6
ATOM      6  C   UNL A   1      34.306  23.149  26.266  1.00  0.00     0.342 C 
ATOM      7  O   UNL A   1      34.381  23.132  27.488  1.00  0.00    -0.246 OA
BRANCH   6   8
ATOM      8  C   UNL A   1      33.862  22.016  25.465  1.00  0.00     0.113 A 
ATOM      9  C   UNL A   1      32.547  21.838  25.066  1.00  0.00     0.114 A 
ATOM     10  N   UNL A   1      32.157  20.670  24.496  1.00  0.00    -0.225 NA
ATOM     11  C   UNL A   1      33.042  19.680  24.308  1.00  0.00     0.133 A 
ATOM     12  C   UNL A   1      34.756  21.004  25.125  1.00  0.00     0.057 A 
ATOM     13  N   UNL A   1      34.348  19.843  24.563  1.00  0.00    -0.237 NA
ATOM     14  C   UNL A   1      36.231  21.052  25.407  1.00  0.00     0.068 C 
BRANCH   9  15
ATOM     15  S   UNL A   1      31.133  22.930  25.086  1.00  0.00    -0.109 SA
ATOM     16  C   UNL A   1      30.582  23.142  26.792  1.00  0.00     0.092 C 
ENDBRANCH   9  15
BRANCH  11  17
ATOM     17  C   UNL A   1      32.562  18.318  23.864  1.00  0.00     0.058 C 
ATOM     18  C   UNL A   1      32.411  17.989  22.395  1.00  0.00     0.012 C 
ATOM     19  C   UNL A   1      33.500  17.341  23.199  1.00  0.00     0.012 C 
ENDBRANCH  11  17
ENDBRANCH   6   8
ENDBRANCH   5   6
ENDBRANCH   4   5
ENDBRANCH   3   4
ENDBRANCH   2   3
ENDBRANCH   1   2
BRANCH   1  20
ATOM     20  C   UNL A   1      33.054  29.094  26.427  1.00  0.00     0.261 C 
BRANCH  20  21
ATOM     21  O   UNL A   1      34.174  28.949  27.314  1.00  0.00    -0.460 OA
BRANCH  21  22
ATOM     22  C   UNL A   1      34.686  30.116  27.773  1.00  0.00     0.338 C 
ATOM     23  O   UNL A   1      34.100  31.174  27.942  1.00  0.00    -0.246 OA
BRANCH  22  24
ATOM     24  C   UNL A   1      36.068  29.892  28.222  1.00  0.00     0.060 A 
ATOM     25  C   UNL A   1      37.105  30.070  27.296  1.00  0.00     0.016 A 
ATOM     26  C   UNL A   1      36.330  29.445  29.517  1.00  0.00     0.016 A 
ATOM     27  C   UNL A   1      38.416  29.769  27.657  1.00  0.00     0.010 A 
ATOM     28  C   UNL A   1      37.641  29.133  29.871  1.00  0.00     0.010 A 
ATOM     29  C   UNL A   1      38.683  29.265  28.934  1.00  0.00    -0.014 A 
BRANCH  29  30
ATOM     30  C   UNL A   1      40.019  28.723  29.267  1.00  0.00     0.031 A 
ATOM     31  C   UNL A   1      41.005  29.623  29.954  1.00  0.00     0.074 A 
ATOM     32  C   UNL A   1      40.357  27.470  28.922  1.00  0.00     0.049 A 
ATOM     33  N   UNL A   1      42.274  29.429  30.196  1.00  0.00    -0.248 NA
ATOM     34  C   UNL A   1      40.492  30.922  30.420  1.00  0.00     0.031 C 
ATOM     35  C   UNL A   1      39.466  26.491  28.301  1.00  0.00     0.029 A 
ATOM     36  N   UNL A   1      41.559  26.818  29.024  1.00  0.00    -0.354 N 
ATOM     37  C   UNL A   1      42.718  30.588  30.820  1.00  0.00     0.074 A 
ATOM     38  C   UNL A   1      41.587  31.488  30.903  1.00  0.00     0.031 C 
ATOM     39  C   UNL A   1      40.160  25.367  28.056  1.00  0.00     0.029 A 
ATOM     40  C   UNL A   1      41.550  25.567  28.458  1.00  0.00     0.049 A 
ATOM     41  H   UNL A   1      42.351  27.208  29.461  1.00  0.00     0.167 HD
ATOM     42  C   UNL A   1      43.958  30.876  31.280  1.00  0.00     0.031 A 
ATOM     43  C   UNL A   1      42.562  24.701  28.254  1.00  0.00     0.031 A 
ATOM     44  C   UNL A   1      45.077  29.981  31.180  1.00  0.00     0.049 A 
ATOM     45  C   UNL A   1      43.952  25.080  28.694  1.00  0.00     0.074 A 
ATOM     46  C   UNL A   1      46.373  30.167  31.627  1.00  0.00     0.029 A 
ATOM     47  N   UNL A   1      45.032  28.729  30.584  1.00  0.00    -0.354 N 
ATOM     48  N   UNL A   1      44.361  26.171  29.296  1.00  0.00    -0.248 NA
ATOM     49  C   UNL A   1      45.020  24.106  28.426  1.00  0.00     0.031 C 
ATOM     50  C   UNL A   1      47.127  29.052  31.248  1.00  0.00     0.029 A 
ATOM     51  C   UNL A   1      46.286  28.144  30.625  1.00  0.00     0.049 A 
ATOM     52  H   UNL A   1      44.229  28.319  30.190  1.00  0.00     0.167 HD
ATOM     53  C   UNL A   1      45.723  25.999  29.511  1.00  0.00     0.074 A 
ATOM     54  C   UNL A   1      46.070  24.698  28.980  1.00  0.00     0.031 C 
ATOM     55  C   UNL A   1      46.606  26.841  30.101  1.00  0.00     0.031 A 
BRANCH  42  56
ATOM     56  C   UNL A   1      44.173  32.231  31.893  1.00  0.00    -0.014 A 
ATOM     57  C   UNL A   1      44.608  33.323  31.125  1.00  0.00     0.009 A 
ATOM     58  C   UNL A   1      43.911  32.424  33.259  1.00  0.00     0.009 A 
ATOM     59  C   UNL A   1      44.806  34.571  31.718  1.00  0.00     0.001 A 
ATOM     60  C   UNL A   1      44.082  33.681  33.844  1.00  0.00     0.001 A 
ATOM     61  C   UNL A   1      44.539  34.750  33.076  1.00  0.00     0.000 A 
ENDBRANCH  42  56
BRANCH  43  62
ATOM     62  C   UNL A   1      42.308  23.404  27.575  1.00  0.00    -0.014 A 
ATOM     63  C   UNL A   1      41.818  22.305  28.297  1.00  0.00     0.009 A 
ATOM     64  C   UNL A   1      42.564  23.253  26.203  1.00  0.00     0.009 A 
ATOM     65  C   UNL A   1      41.615  21.076  27.664  1.00  0.00     0.001 A 
ATOM     66  C   UNL A   1      42.332  22.032  25.567  1.00  0.00     0.001 A 
ATOM     67  C   UNL A   1      41.867  20.941  26.300  1.00  0.00     0.000 A 
ENDBRANCH  43  62
BRANCH  55  68
ATOM     68  C   UNL A   1      48.023  26.365  30.259  1.00  0.00    -0.014 A 
ATOM     69  C   UNL A   1      48.988  26.601  29.269  1.00  0.00     0.009 A 
ATOM     70  C   UNL A   1      48.410  25.739  31.454  1.00  0.00     0.009 A 
ATOM     71  C   UNL A   1      50.311  26.198  29.466  1.00  0.00     0.001 A 
ATOM     72  C   UNL A   1      49.738  25.365  31.661  1.00  0.00     0.001 A 
ATOM     73  C   UNL A   1      50.686  25.588  30.665  1.00  0.00     0.000 A 
ENDBRANCH  55  68
ENDBRANCH  29  30
ENDBRANCH  22  24
ENDBRANCH  21  22
ENDBRANCH  20  21
ENDBRANCH   1  20
TORSDOF 16
ENDMDL
MODEL 3
REMARK VINA RESULT:      -9.7      4.104      9.002
REMARK SMILES CSc1nc(C2CC2)nc(C)c1C(=O)OCCOCCOC(=O)c1ccc(-c2c3nc(c(-c4ccccc4)c4ccc([nH]4)c(-c4ccccc4)c4nc(c(-c5ccccc5)c5ccc2[nH]5)C=C4)C=C3)cc1
REMARK SMILES IDX 19 1 18 2 17 3 16 4 15 5 13 6 14 7 12 8 3 9 4 10 5 11 10 12
REMARK SMILES IDX 9 13 11 14 2 15 1 16 6 17 7 18 8 19 20 20 21 21 22 22 23 23
REMARK SMILES IDX 24 24 25 25 71 26 26 27 70 28 27 29 28 30 29 31 64 32 30 33
REMARK SMILES IDX 69 34 63 35 65 36 31 37 68 38 62 39 61 40 32 42 54 43 39 44
REMARK SMILES IDX 53 45 40 46 43 47 52 48 66 49 41 50 42 51 51 53 67 54 44 55
REMARK SMILES IDX 33 56 34 57 38 58 35 59 37 60 36 61 55 62 56 63 60 64 57 65
REMARK SMILES IDX 59 66 58 67 45 68 46 69 50 70 47 71 49 72 48 73
REMARK H PARENT 65 41 43 52
REMARK Flexibility Score: inf
ROOT
ATOM      1  C   UNL A   1      31.449  28.893  25.143  1.00  0.00     0.202 C 
ENDROOT
BRANCH   1   2
ATOM      2  O   UNL A   1      30.898  28.779  23.829  1.00  0.00    -0.374 OA
BRANCH   2   3
ATOM      3  C   UNL A   1      30.564  27.479  23.340  1.00  0.00     0.202 C 
BRANCH   3   4
ATOM      4  C   UNL A   1      29.752  26.587  24.282  1.00  0.00     0.261 C 
BRANCH   4   5
ATOM      5  O   UNL A   1      30.320  25.271  24.300  1.00  0.00    -0.460 OA
BRANCH   5   6
ATOM      6  C   UNL A   1      31.123  24.988  25.343  1.00  0.00     0.342 C 
ATOM      7  O   UNL A   1      31.301  25.677  26.340  1.00  0.00    -0.246 OA
BRANCH   6   8
ATOM      8  C   UNL A   1      31.705  23.665  25.157  1.00  0.00     0.113 A 
ATOM      9  C   UNL A   1      32.824  23.430  24.374  1.00  0.00     0.114 A 
ATOM     10  N   UNL A   1      33.199  22.161  24.077  1.00  0.00    -0.225 NA
ATOM     11  C   UNL A   1      32.493  21.121  24.544  1.00  0.00     0.133 A 
ATOM     12  C   UNL A   1      31.094  22.546  25.716  1.00  0.00     0.057 A 
ATOM     13  N   UNL A   1      31.477  21.286  25.404  1.00  0.00    -0.237 NA
ATOM     14  C   UNL A   1      29.917  22.604  26.649  1.00  0.00     0.068 C 
BRANCH   9  15
ATOM     15  S   UNL A   1      34.028  24.535  23.649  1.00  0.00    -0.109 SA
ATOM     16  C   UNL A   1      33.271  25.385  22.247  1.00  0.00     0.092 C 
ENDBRANCH   9  15
BRANCH  11  17
ATOM     17  C   UNL A   1      32.792  19.726  24.047  1.00  0.00     0.058 C 
ATOM     18  C   UNL A   1      33.943  18.928  24.619  1.00  0.00     0.012 C 
ATOM     19  C   UNL A   1      32.529  18.518  24.912  1.00  0.00     0.012 C 
ENDBRANCH  11  17
ENDBRANCH   6   8
ENDBRANCH   5   6
ENDBRANCH   4   5
ENDBRANCH   3   4
ENDBRANCH   2   3
ENDBRANCH   1   2
BRANCH   1  20
ATOM     20  C   UNL A   1      31.720  30.298  25.689  1.00  0.00     0.261 C 
BRANCH  20  21
ATOM     21  O   UNL A   1      32.457  30.289  26.922  1.00  0.00    -0.460 OA
BRANCH  21  22
ATOM     22  C   UNL A   1      33.100  31.448  27.204  1.00  0.00     0.338 C 
ATOM     23  O   UNL A   1      32.637  32.578  27.207  1.00  0.00    -0.246 OA
BRANCH  22  24
ATOM     24  C   UNL A   1      34.452  31.142  27.693  1.00  0.00     0.060 A 
ATOM     25  C   UNL A   1      34.783  29.802  27.940  1.00  0.00     0.016 A 
ATOM     26  C   UNL A   1      35.356  32.167  27.971  1.00  0.00     0.016 A 
ATOM     27  C   UNL A   1      36.018  29.484  28.499  1.00  0.00     0.010 A 
ATOM     28  C   UNL A   1      36.586  31.847  28.542  1.00  0.00     0.010 A 
ATOM     29  C   UNL A   1      36.909  30.509  28.835  1.00  0.00    -0.014 A 
BRANCH  29  30
ATOM     30  C   UNL A   1      38.120  30.223  29.635  1.00  0.00     0.031 A 
ATOM     31  C   UNL A   1      39.170  29.326  29.048  1.00  0.00     0.074 A 
ATOM     32  C   UNL A   1      38.256  30.718  30.877  1.00  0.00     0.049 A 
ATOM     33  N   UNL A   1      40.226  28.805  29.614  1.00  0.00    -0.248 NA
ATOM     34  C   UNL A   1      38.998  28.956  27.632  1.00  0.00     0.031 C 
ATOM     35  C   UNL A   1      37.328  31.641  31.528  1.00  0.00     0.029 A 
ATOM     36  N   UNL A   1      39.224  30.487  31.820  1.00  0.00    -0.354 N 
ATOM     37  C   UNL A   1      40.832  28.028  28.634  1.00  0.00     0.074 A 
ATOM     38  C   UNL A   1      40.016  28.130  27.444  1.00  0.00     0.031 C 
ATOM     39  C   UNL A   1      37.761  31.880  32.778  1.00  0.00     0.029 A 
ATOM     40  C   UNL A   1      38.965  31.091  33.026  1.00  0.00     0.049 A 
ATOM     41  H   UNL A   1      40.025  29.941  31.650  1.00  0.00     0.167 HD
ATOM     42  C   UNL A   1      41.966  27.295  28.722  1.00  0.00     0.031 A 
ATOM     43  C   UNL A   1      39.608  30.984  34.205  1.00  0.00     0.031 A 
ATOM     44  C   UNL A   1      42.761  27.188  29.914  1.00  0.00     0.049 A 
ATOM     45  C   UNL A   1      40.817  30.091  34.302  1.00  0.00     0.074 A 
ATOM     46  C   UNL A   1      43.936  26.484  30.107  1.00  0.00     0.029 A 
ATOM     47  N   UNL A   1      42.457  27.802  31.119  1.00  0.00    -0.354 N 
ATOM     48  N   UNL A   1      41.392  29.371  33.369  1.00  0.00    -0.248 NA
ATOM     49  C   UNL A   1      41.466  29.996  35.618  1.00  0.00     0.031 C 
ATOM     50  C   UNL A   1      44.310  26.623  31.447  1.00  0.00     0.029 A 
ATOM     51  C   UNL A   1      43.405  27.468  32.070  1.00  0.00     0.049 A 
ATOM     52  H   UNL A   1      41.680  28.386  31.277  1.00  0.00     0.167 HD
ATOM     53  C   UNL A   1      42.488  28.769  33.973  1.00  0.00     0.074 A 
ATOM     54  C   UNL A   1      42.501  29.210  35.352  1.00  0.00     0.031 C 
ATOM     55  C   UNL A   1      43.406  27.930  33.434  1.00  0.00     0.031 A 
BRANCH  42  56
ATOM     56  C   UNL A   1      42.385  26.517  27.506  1.00  0.00    -0.014 A 
ATOM     57  C   UNL A   1      43.239  27.071  26.539  1.00  0.00     0.009 A 
ATOM     58  C   UNL A   1      41.938  25.196  27.340  1.00  0.00     0.009 A 
ATOM     59  C   UNL A   1      43.609  26.330  25.415  1.00  0.00     0.001 A 
ATOM     60  C   UNL A   1      42.335  24.447  26.230  1.00  0.00     0.001 A 
ATOM     61  C   UNL A   1      43.161  25.018  25.264  1.00  0.00     0.000 A 
ENDBRANCH  42  56
BRANCH  43  62
ATOM     62  C   UNL A   1      39.108  31.717  35.396  1.00  0.00    -0.014 A 
ATOM     63  C   UNL A   1      38.219  31.102  36.292  1.00  0.00     0.009 A 
ATOM     64  C   UNL A   1      39.504  33.042  35.639  1.00  0.00     0.009 A 
ATOM     65  C   UNL A   1      37.720  31.806  37.390  1.00  0.00     0.001 A 
ATOM     66  C   UNL A   1      39.028  33.733  36.755  1.00  0.00     0.001 A 
ATOM     67  C   UNL A   1      38.128  33.119  37.624  1.00  0.00     0.000 A 
ENDBRANCH  43  62
BRANCH  55  68
ATOM     68  C   UNL A   1      44.535  27.475  34.315  1.00  0.00    -0.014 A 
ATOM     69  C   UNL A   1      44.459  26.280  35.045  1.00  0.00     0.009 A 
ATOM     70  C   UNL A   1      45.725  28.221  34.349  1.00  0.00     0.009 A 
ATOM     71  C   UNL A   1      45.547  25.852  35.810  1.00  0.00     0.001 A 
ATOM     72  C   UNL A   1      46.819  27.775  35.090  1.00  0.00     0.001 A 
ATOM     73  C   UNL A   1      46.728  26.596  35.825  1.00  0.00     0.000 A 
ENDBRANCH  55  68
ENDBRANCH  29  30
ENDBRANCH  22  24
ENDBRANCH  21  22
ENDBRANCH  20  21
ENDBRANCH   1  20
TORSDOF 16
ENDMDL
