MODEL 1
REMARK VINA RESULT:     -10.4      0.000      0.000
REMARK SMILES CC[C@](C)(NC(=O)N(C)Cc1cccc(C)c1)C(=O)OCCOCCOC(=O)c1ccc(-c2c3nc(c(-c4ccccc4)c4ccc([nH]4)c(-c4ccccc4)c4nc(c(-c5ccccc5)c5ccc2[nH]5)C=C4)C=C3)cc1
REMARK SMILES IDX 22 1 21 2 20 3 18 4 19 5 3 6 4 7 2 8 1 9 5 10 6 11 7 13 8 14
REMARK SMILES IDX 9 15 10 16 11 17 12 18 17 19 13 20 15 21 14 22 16 23 23 24
REMARK SMILES IDX 24 25 25 26 26 27 27 28 28 29 29 30 30 31 76 32 31 33 75 34
REMARK SMILES IDX 32 35 33 36 34 37 69 38 35 39 74 40 68 41 70 42 36 43 73 44
REMARK SMILES IDX 67 45 66 46 37 48 59 49 44 50 58 51 45 52 48 53 57 54 71 55
REMARK SMILES IDX 46 56 47 57 56 59 72 60 49 61 38 62 39 63 43 64 40 65 42 66
REMARK SMILES IDX 41 67 60 68 61 69 65 70 62 71 64 72 63 73 50 74 51 75 55 76
REMARK SMILES IDX 52 77 54 78 53 79
REMARK H PARENT 5 12 70 47 48 58
REMARK Flexibility Score: inf
ROOT
ATOM      1  C   UNL A   1      31.415  27.529  26.929  1.00  0.00     0.202 C 
ENDROOT
BRANCH   1   2
ATOM      2  C   UNL A   1      31.285  27.574  25.430  1.00  0.00     0.261 C 
BRANCH   2   3
ATOM      3  O   UNL A   1      31.262  26.257  24.923  1.00  0.00    -0.462 OA
BRANCH   3   4
ATOM      4  C   UNL A   1      32.493  25.748  24.731  1.00  0.00     0.331 C 
ATOM      5  O   UNL A   1      33.488  26.417  24.479  1.00  0.00    -0.249 OA
BRANCH   4   6
ATOM      6  C   UNL A   1      32.445  24.211  24.788  1.00  0.00     0.136 C 
ATOM      7  C   UNL A   1      31.356  23.784  23.808  1.00  0.00     0.047 C 
BRANCH   6   8
ATOM      8  C   UNL A   1      32.130  23.863  26.273  1.00  0.00     0.037 C 
ATOM      9  C   UNL A   1      30.799  23.192  26.586  1.00  0.00     0.007 C 
ENDBRANCH   6   8
BRANCH   6  10
ATOM     10  N   UNL A   1      33.745  23.480  24.529  1.00  0.00    -0.322 N 
ATOM     11  C   UNL A   1      34.692  23.033  25.417  1.00  0.00     0.318 C 
ATOM     12  H   UNL A   1      33.941  23.298  23.583  1.00  0.00     0.166 HD
ATOM     13  O   UNL A   1      35.424  23.804  26.027  1.00  0.00    -0.249 OA
BRANCH  11  14
ATOM     14  N   UNL A   1      34.838  21.642  25.437  1.00  0.00    -0.324 N 
ATOM     15  C   UNL A   1      36.051  21.010  24.937  1.00  0.00     0.149 C 
BRANCH  14  16
ATOM     16  C   UNL A   1      33.706  20.768  25.859  1.00  0.00     0.156 C 
BRANCH  16  17
ATOM     17  C   UNL A   1      33.175  19.808  24.791  1.00  0.00    -0.028 A 
ATOM     18  C   UNL A   1      32.419  20.270  23.702  1.00  0.00     0.005 A 
ATOM     19  C   UNL A   1      33.531  18.446  24.814  1.00  0.00     0.009 A 
ATOM     20  C   UNL A   1      32.122  19.418  22.630  1.00  0.00     0.001 A 
ATOM     21  C   UNL A   1      33.365  17.633  23.683  1.00  0.00    -0.051 A 
ATOM     22  C   UNL A   1      32.625  18.117  22.603  1.00  0.00     0.003 A 
ATOM     23  C   UNL A   1      34.079  16.312  23.585  1.00  0.00     0.044 C 
ENDBRANCH  16  17
ENDBRANCH  14  16
ENDBRANCH  11  14
ENDBRANCH   6  10
ENDBRANCH   4   6
ENDBRANCH   3   4
ENDBRANCH   2   3
ENDBRANCH   1   2
BRANCH   1  24
ATOM     24  O   UNL A   1      31.612  28.839  27.431  1.00  0.00    -0.374 OA
BRANCH  24  25
ATOM     25  C   UNL A   1      32.380  29.646  26.540  1.00  0.00     0.202 C 
BRANCH  25  26
ATOM     26  C   UNL A   1      32.295  31.153  26.858  1.00  0.00     0.261 C 
BRANCH  26  27
ATOM     27  O   UNL A   1      33.513  31.586  27.506  1.00  0.00    -0.460 OA
BRANCH  27  28
ATOM     28  C   UNL A   1      33.483  32.814  28.111  1.00  0.00     0.338 C 
ATOM     29  O   UNL A   1      32.704  33.709  27.853  1.00  0.00    -0.246 OA
BRANCH  28  30
ATOM     30  C   UNL A   1      34.761  33.021  28.874  1.00  0.00     0.060 A 
ATOM     31  C   UNL A   1      35.907  33.507  28.212  1.00  0.00     0.016 A 
ATOM     32  C   UNL A   1      34.908  32.356  30.084  1.00  0.00     0.016 A 
ATOM     33  C   UNL A   1      37.200  33.171  28.670  1.00  0.00     0.010 A 
ATOM     34  C   UNL A   1      36.169  31.928  30.449  1.00  0.00     0.010 A 
ATOM     35  C   UNL A   1      37.335  32.300  29.749  1.00  0.00    -0.014 A 
BRANCH  35  36
ATOM     36  C   UNL A   1      38.551  31.556  30.149  1.00  0.00     0.031 A 
ATOM     37  C   UNL A   1      38.824  30.218  29.525  1.00  0.00     0.074 A 
ATOM     38  C   UNL A   1      39.597  32.158  30.783  1.00  0.00     0.049 A 
ATOM     39  N   UNL A   1      39.786  29.435  29.891  1.00  0.00    -0.248 NA
ATOM     40  C   UNL A   1      38.023  29.620  28.451  1.00  0.00     0.031 C 
ATOM     41  C   UNL A   1      41.016  31.822  30.585  1.00  0.00     0.029 A 
ATOM     42  N   UNL A   1      39.696  33.225  31.663  1.00  0.00    -0.354 N 
ATOM     43  C   UNL A   1      39.999  28.557  28.854  1.00  0.00     0.074 A 
ATOM     44  C   UNL A   1      38.780  28.582  28.089  1.00  0.00     0.031 C 
ATOM     45  C   UNL A   1      41.772  32.461  31.491  1.00  0.00     0.029 A 
ATOM     46  C   UNL A   1      40.870  33.111  32.412  1.00  0.00     0.049 A 
ATOM     47  H   UNL A   1      39.038  33.954  31.747  1.00  0.00     0.167 HD
ATOM     48  C   UNL A   1      41.247  28.053  28.650  1.00  0.00     0.031 A 
ATOM     49  C   UNL A   1      40.933  33.056  33.778  1.00  0.00     0.031 A 
ATOM     50  C   UNL A   1      42.170  28.384  29.743  1.00  0.00     0.049 A 
ATOM     51  C   UNL A   1      41.566  31.777  34.255  1.00  0.00     0.074 A 
ATOM     52  C   UNL A   1      43.342  29.116  29.818  1.00  0.00     0.029 A 
ATOM     53  N   UNL A   1      41.791  28.124  31.058  1.00  0.00    -0.354 N 
ATOM     54  N   UNL A   1      41.842  30.819  33.422  1.00  0.00    -0.248 NA
ATOM     55  C   UNL A   1      41.893  31.411  35.630  1.00  0.00     0.031 C 
ATOM     56  C   UNL A   1      43.635  29.335  31.193  1.00  0.00     0.029 A 
ATOM     57  C   UNL A   1      42.667  28.699  31.956  1.00  0.00     0.049 A 
ATOM     58  H   UNL A   1      40.999  27.598  31.315  1.00  0.00     0.167 HD
ATOM     59  C   UNL A   1      42.268  29.719  34.084  1.00  0.00     0.074 A 
ATOM     60  C   UNL A   1      42.310  30.137  35.472  1.00  0.00     0.031 C 
ATOM     61  C   UNL A   1      42.456  28.560  33.398  1.00  0.00     0.031 A 
BRANCH  48  62
ATOM     62  C   UNL A   1      41.710  27.407  27.355  1.00  0.00    -0.014 A 
ATOM     63  C   UNL A   1      41.490  26.031  27.153  1.00  0.00     0.009 A 
ATOM     64  C   UNL A   1      42.428  28.059  26.333  1.00  0.00     0.009 A 
ATOM     65  C   UNL A   1      41.943  25.360  26.005  1.00  0.00     0.001 A 
ATOM     66  C   UNL A   1      42.850  27.405  25.166  1.00  0.00     0.001 A 
ATOM     67  C   UNL A   1      42.610  26.051  25.003  1.00  0.00     0.000 A 
ENDBRANCH  48  62
BRANCH  49  68
ATOM     68  C   UNL A   1      39.839  33.816  34.432  1.00  0.00    -0.014 A 
ATOM     69  C   UNL A   1      38.967  33.006  35.176  1.00  0.00     0.009 A 
ATOM     70  C   UNL A   1      40.064  35.140  34.848  1.00  0.00     0.009 A 
ATOM     71  C   UNL A   1      38.597  33.409  36.452  1.00  0.00     0.001 A 
ATOM     72  C   UNL A   1      39.641  35.546  36.120  1.00  0.00     0.001 A 
ATOM     73  C   UNL A   1      38.974  34.651  36.949  1.00  0.00     0.000 A 
ENDBRANCH  49  68
BRANCH  61  74
ATOM     74  C   UNL A   1      42.453  27.202  34.032  1.00  0.00    -0.014 A 
ATOM     75  C   UNL A   1      43.492  26.275  33.875  1.00  0.00     0.009 A 
ATOM     76  C   UNL A   1      41.447  26.887  34.968  1.00  0.00     0.009 A 
ATOM     77  C   UNL A   1      43.500  25.067  34.578  1.00  0.00     0.001 A 
ATOM     78  C   UNL A   1      41.480  25.708  35.712  1.00  0.00     0.001 A 
ATOM     79  C   UNL A   1      42.500  24.789  35.504  1.00  0.00     0.000 A 
ENDBRANCH  61  74
ENDBRANCH  35  36
ENDBRANCH  28  30
ENDBRANCH  27  28
ENDBRANCH  26  27
ENDBRANCH  25  26
ENDBRANCH  24  25
ENDBRANCH   1  24
TORSDOF 19
ENDMDL
MODEL 2
REMARK VINA RESULT:     -10.3      1.467      2.490
REMARK SMILES CC[C@](C)(NC(=O)N(C)Cc1cccc(C)c1)C(=O)OCCOCCOC(=O)c1ccc(-c2c3nc(c(-c4ccccc4)c4ccc([nH]4)c(-c4ccccc4)c4nc(c(-c5ccccc5)c5ccc2[nH]5)C=C4)C=C3)cc1
REMARK SMILES IDX 22 1 21 2 20 3 18 4 19 5 3 6 4 7 2 8 1 9 5 10 6 11 7 13 8 14
REMARK SMILES IDX 9 15 10 16 11 17 12 18 17 19 13 20 15 21 14 22 16 23 23 24
REMARK SMILES IDX 24 25 25 26 26 27 27 28 28 29 29 30 30 31 76 32 31 33 75 34
REMARK SMILES IDX 32 35 33 36 34 37 69 38 35 39 74 40 68 41 70 42 36 43 73 44
REMARK SMILES IDX 67 45 66 46 37 48 59 49 44 50 58 51 45 52 48 53 57 54 71 55
REMARK SMILES IDX 46 56 47 57 56 59 72 60 49 61 38 62 39 63 43 64 40 65 42 66
REMARK SMILES IDX 41 67 60 68 61 69 65 70 62 71 64 72 63 73 50 74 51 75 55 76
REMARK SMILES IDX 52 77 54 78 53 79
REMARK H PARENT 5 12 70 47 48 58
REMARK Flexibility Score: inf
ROOT
ATOM      1  C   UNL A   1      31.941  28.367  27.623  1.00  0.00     0.202 C 
ENDROOT
BRANCH   1   2
ATOM      2  C   UNL A   1      32.075  27.138  26.763  1.00  0.00     0.261 C 
BRANCH   2   3
ATOM      3  O   UNL A   1      31.558  27.407  25.478  1.00  0.00    -0.462 OA
BRANCH   3   4
ATOM      4  C   UNL A   1      32.519  27.611  24.559  1.00  0.00     0.331 C 
ATOM      5  O   UNL A   1      33.712  27.723  24.816  1.00  0.00    -0.249 OA
BRANCH   4   6
ATOM      6  C   UNL A   1      31.892  27.766  23.162  1.00  0.00     0.136 C 
ATOM      7  C   UNL A   1      32.738  28.805  22.431  1.00  0.00     0.047 C 
BRANCH   6   8
ATOM      8  C   UNL A   1      30.423  28.216  23.417  1.00  0.00     0.037 C 
ATOM      9  C   UNL A   1      29.788  29.185  22.430  1.00  0.00     0.007 C 
ENDBRANCH   6   8
BRANCH   6  10
ATOM     10  N   UNL A   1      31.731  26.503  22.344  1.00  0.00    -0.322 N 
ATOM     11  C   UNL A   1      32.605  25.461  22.158  1.00  0.00     0.318 C 
ATOM     12  H   UNL A   1      30.870  26.415  21.876  1.00  0.00     0.166 HD
ATOM     13  O   UNL A   1      33.625  25.582  21.489  1.00  0.00    -0.249 OA
BRANCH  11  14
ATOM     14  N   UNL A   1      32.148  24.240  22.665  1.00  0.00    -0.324 N 
ATOM     15  C   UNL A   1      31.101  24.195  23.676  1.00  0.00     0.149 C 
BRANCH  14  16
ATOM     16  C   UNL A   1      32.807  22.962  22.271  1.00  0.00     0.156 C 
BRANCH  16  17
ATOM     17  C   UNL A   1      33.589  22.250  23.378  1.00  0.00    -0.028 A 
ATOM     18  C   UNL A   1      33.132  21.048  23.940  1.00  0.00     0.005 A 
ATOM     19  C   UNL A   1      34.851  22.727  23.782  1.00  0.00     0.009 A 
ATOM     20  C   UNL A   1      33.956  20.303  24.795  1.00  0.00     0.001 A 
ATOM     21  C   UNL A   1      35.732  21.919  24.516  1.00  0.00    -0.051 A 
ATOM     22  C   UNL A   1      35.264  20.718  25.051  1.00  0.00     0.003 A 
ATOM     23  C   UNL A   1      37.190  22.279  24.615  1.00  0.00     0.044 C 
ENDBRANCH  16  17
ENDBRANCH  14  16
ENDBRANCH  11  14
ENDBRANCH   6  10
ENDBRANCH   4   6
ENDBRANCH   3   4
ENDBRANCH   2   3
ENDBRANCH   1   2
BRANCH   1  24
ATOM     24  O   UNL A   1      33.184  29.043  27.687  1.00  0.00    -0.374 OA
BRANCH  24  25
ATOM     25  C   UNL A   1      33.066  30.420  27.336  1.00  0.00     0.202 C 
BRANCH  25  26
ATOM     26  C   UNL A   1      34.262  31.273  27.809  1.00  0.00     0.261 C 
BRANCH  26  27
ATOM     27  O   UNL A   1      33.966  32.676  27.624  1.00  0.00    -0.460 OA
BRANCH  27  28
ATOM     28  C   UNL A   1      33.700  33.402  28.754  1.00  0.00     0.338 C 
ATOM     29  O   UNL A   1      32.739  34.126  28.918  1.00  0.00    -0.246 OA
BRANCH  28  30
ATOM     30  C   UNL A   1      34.935  33.456  29.608  1.00  0.00     0.060 A 
ATOM     31  C   UNL A   1      36.121  34.024  29.098  1.00  0.00     0.016 A 
ATOM     32  C   UNL A   1      35.008  32.599  30.697  1.00  0.00     0.016 A 
ATOM     33  C   UNL A   1      37.383  33.594  29.563  1.00  0.00     0.010 A 
ATOM     34  C   UNL A   1      36.243  32.094  31.053  1.00  0.00     0.010 A 
ATOM     35  C   UNL A   1      37.450  32.554  30.488  1.00  0.00    -0.014 A 
BRANCH  35  36
ATOM     36  C   UNL A   1      38.634  31.733  30.824  1.00  0.00     0.031 A 
ATOM     37  C   UNL A   1      38.862  30.446  30.085  1.00  0.00     0.074 A 
ATOM     38  C   UNL A   1      39.698  32.236  31.513  1.00  0.00     0.049 A 
ATOM     39  N   UNL A   1      39.791  29.598  30.382  1.00  0.00    -0.248 NA
ATOM     40  C   UNL A   1      38.046  29.977  28.959  1.00  0.00     0.031 C 
ATOM     41  C   UNL A   1      41.106  31.866  31.289  1.00  0.00     0.029 A 
ATOM     42  N   UNL A   1      39.831  33.217  32.484  1.00  0.00    -0.354 N 
ATOM     43  C   UNL A   1      39.978  28.808  29.271  1.00  0.00     0.074 A 
ATOM     44  C   UNL A   1      38.766  28.948  28.508  1.00  0.00     0.031 C 
ATOM     45  C   UNL A   1      41.878  32.393  32.251  1.00  0.00     0.029 A 
ATOM     46  C   UNL A   1      40.996  32.993  33.224  1.00  0.00     0.049 A 
ATOM     47  H   UNL A   1      39.201  33.959  32.631  1.00  0.00     0.167 HD
ATOM     48  C   UNL A   1      41.209  28.278  29.027  1.00  0.00     0.031 A 
ATOM     49  C   UNL A   1      41.047  32.813  34.580  1.00  0.00     0.031 A 
ATOM     50  C   UNL A   1      42.136  28.475  30.148  1.00  0.00     0.049 A 
ATOM     51  C   UNL A   1      41.630  31.475  34.943  1.00  0.00     0.074 A 
ATOM     52  C   UNL A   1      43.334  29.153  30.291  1.00  0.00     0.029 A 
ATOM     53  N   UNL A   1      41.739  28.115  31.434  1.00  0.00    -0.354 N 
ATOM     54  N   UNL A   1      41.875  30.585  34.028  1.00  0.00    -0.248 NA
ATOM     55  C   UNL A   1      41.934  30.975  36.281  1.00  0.00     0.031 C 
ATOM     56  C   UNL A   1      43.625  29.238  31.682  1.00  0.00     0.029 A 
ATOM     57  C   UNL A   1      42.630  28.573  32.382  1.00  0.00     0.049 A 
ATOM     58  H   UNL A   1      40.926  27.598  31.641  1.00  0.00     0.167 HD
ATOM     59  C   UNL A   1      42.256  29.415  34.592  1.00  0.00     0.074 A 
ATOM     60  C   UNL A   1      42.304  29.706  36.011  1.00  0.00     0.031 C 
ATOM     61  C   UNL A   1      42.405  28.315  33.806  1.00  0.00     0.031 A 
BRANCH  48  62
ATOM     62  C   UNL A   1      41.655  27.733  27.681  1.00  0.00    -0.014 A 
ATOM     63  C   UNL A   1      41.885  28.626  26.617  1.00  0.00     0.009 A 
ATOM     64  C   UNL A   1      41.795  26.368  27.363  1.00  0.00     0.009 A 
ATOM     65  C   UNL A   1      42.242  28.185  25.332  1.00  0.00     0.001 A 
ATOM     66  C   UNL A   1      42.190  25.920  26.094  1.00  0.00     0.001 A 
ATOM     67  C   UNL A   1      42.411  26.831  25.074  1.00  0.00     0.000 A 
ENDBRANCH  48  62
BRANCH  49  68
ATOM     68  C   UNL A   1      39.978  33.553  35.296  1.00  0.00    -0.014 A 
ATOM     69  C   UNL A   1      38.952  32.723  35.770  1.00  0.00     0.009 A 
ATOM     70  C   UNL A   1      40.300  34.721  36.010  1.00  0.00     0.009 A 
ATOM     71  C   UNL A   1      38.494  32.894  37.071  1.00  0.00     0.001 A 
ATOM     72  C   UNL A   1      39.790  34.903  37.302  1.00  0.00     0.001 A 
ATOM     73  C   UNL A   1      38.948  33.946  37.858  1.00  0.00     0.000 A 
ENDBRANCH  49  68
BRANCH  61  74
ATOM     74  C   UNL A   1      42.347  26.907  34.315  1.00  0.00    -0.014 A 
ATOM     75  C   UNL A   1      43.389  25.984  34.153  1.00  0.00     0.009 A 
ATOM     76  C   UNL A   1      41.274  26.524  35.146  1.00  0.00     0.009 A 
ATOM     77  C   UNL A   1      43.339  24.720  34.747  1.00  0.00     0.001 A 
ATOM     78  C   UNL A   1      41.246  25.285  35.784  1.00  0.00     0.001 A 
ATOM     79  C   UNL A   1      42.272  24.375  35.569  1.00  0.00     0.000 A 
ENDBRANCH  61  74
ENDBRANCH  35  36
ENDBRANCH  28  30
ENDBRANCH  27  28
ENDBRANCH  26  27
ENDBRANCH  25  26
ENDBRANCH  24  25
ENDBRANCH   1  24
TORSDOF 19
ENDMDL
MODEL 3
REMARK VINA RESULT:     -10.0      2.057      2.695
REMARK SMILES CC[C@](C)(NC(=O)N(C)Cc1cccc(C)c1)C(=O)OCCOCCOC(=O)c1ccc(-c2c3nc(c(-c4ccccc4)c4ccc([nH]4)c(-c4ccccc4)c4nc(c(-c5ccccc5)c5ccc2[nH]5)C=C4)C=C3)cc1
REMARK SMILES IDX 22 1 21 2 20 3 18 4 19 5 3 6 4 7 2 8 1 9 5 10 6 11 7 13 8 14
REMARK SMILES IDX 9 15 10 16 11 17 12 18 17 19 13 20 15 21 14 22 16 23 23 24
REMARK SMILES IDX 24 25 25 26 26 27 27 28 28 29 29 30 30 31 76 32 31 33 75 34
REMARK SMILES IDX 32 35 33 36 34 37 69 38 35 39 74 40 68 41 70 42 36 43 73 44
REMARK SMILES IDX 67 45 66 46 37 48 59 49 44 50 58 51 45 52 48 53 57 54 71 55
REMARK SMILES IDX 46 56 47 57 56 59 72 60 49 61 38 62 39 63 43 64 40 65 42 66
REMARK SMILES IDX 41 67 60 68 61 69 65 70 62 71 64 72 63 73 50 74 51 75 55 76
REMARK SMILES IDX 52 77 54 78 53 79
REMARK H PARENT 5 12 70 47 48 58
REMARK Flexibility Score: inf
ROOT
ATOM      1  C   UNL A   1      33.920  28.949  25.409  1.00  0.00     0.202 C 
ENDROOT
BRANCH   1   2
ATOM      2  C   UNL A   1      32.620  29.194  24.690  1.00  0.00     0.261 C 
BRANCH   2   3
ATOM      3  O   UNL A   1      31.743  28.114  24.927  1.00  0.00    -0.462 OA
BRANCH   3   4
ATOM      4  C   UNL A   1      30.867  27.921  23.925  1.00  0.00     0.331 C 
ATOM      5  O   UNL A   1      30.459  28.805  23.181  1.00  0.00    -0.249 OA
BRANCH   4   6
ATOM      6  C   UNL A   1      30.395  26.456  23.908  1.00  0.00     0.136 C 
ATOM      7  C   UNL A   1      28.869  26.503  23.882  1.00  0.00     0.047 C 
BRANCH   6   8
ATOM      8  C   UNL A   1      30.984  25.818  25.201  1.00  0.00     0.037 C 
ATOM      9  C   UNL A   1      30.018  25.183  26.192  1.00  0.00     0.007 C 
ENDBRANCH   6   8
BRANCH   6  10
ATOM     10  N   UNL A   1      30.945  25.577  22.806  1.00  0.00    -0.322 N 
ATOM     11  C   UNL A   1      32.243  25.226  22.528  1.00  0.00     0.318 C 
ATOM     12  H   UNL A   1      30.271  25.200  22.197  1.00  0.00     0.166 HD
ATOM     13  O   UNL A   1      33.050  26.032  22.080  1.00  0.00    -0.249 OA
BRANCH  11  14
ATOM     14  N   UNL A   1      32.500  23.858  22.659  1.00  0.00    -0.324 N 
ATOM     15  C   UNL A   1      31.474  22.947  23.145  1.00  0.00     0.149 C 
BRANCH  14  16
ATOM     16  C   UNL A   1      33.870  23.319  22.419  1.00  0.00     0.156 C 
BRANCH  16  17
ATOM     17  C   UNL A   1      34.856  23.473  23.580  1.00  0.00    -0.028 A 
ATOM     18  C   UNL A   1      34.576  24.307  24.673  1.00  0.00     0.005 A 
ATOM     19  C   UNL A   1      36.024  22.689  23.634  1.00  0.00     0.009 A 
ATOM     20  C   UNL A   1      35.383  24.275  25.818  1.00  0.00     0.001 A 
ATOM     21  C   UNL A   1      36.748  22.544  24.827  1.00  0.00    -0.051 A 
ATOM     22  C   UNL A   1      36.442  23.370  25.909  1.00  0.00     0.003 A 
ATOM     23  C   UNL A   1      37.750  21.432  24.978  1.00  0.00     0.044 C 
ENDBRANCH  16  17
ENDBRANCH  14  16
ENDBRANCH  11  14
ENDBRANCH   6  10
ENDBRANCH   4   6
ENDBRANCH   3   4
ENDBRANCH   2   3
ENDBRANCH   1   2
BRANCH   1  24
ATOM     24  O   UNL A   1      33.705  28.982  26.809  1.00  0.00    -0.374 OA
BRANCH  24  25
ATOM     25  C   UNL A   1      34.238  30.161  27.407  1.00  0.00     0.202 C 
BRANCH  25  26
ATOM     26  C   UNL A   1      33.195  31.285  27.572  1.00  0.00     0.261 C 
BRANCH  26  27
ATOM     27  O   UNL A   1      33.849  32.573  27.512  1.00  0.00    -0.460 OA
BRANCH  27  28
ATOM     28  C   UNL A   1      33.581  33.447  28.531  1.00  0.00     0.338 C 
ATOM     29  O   UNL A   1      32.672  34.251  28.550  1.00  0.00    -0.246 OA
BRANCH  28  30
ATOM     30  C   UNL A   1      34.769  33.516  29.449  1.00  0.00     0.060 A 
ATOM     31  C   UNL A   1      35.985  34.062  28.988  1.00  0.00     0.016 A 
ATOM     32  C   UNL A   1      34.776  32.688  30.563  1.00  0.00     0.016 A 
ATOM     33  C   UNL A   1      37.217  33.636  29.531  1.00  0.00     0.010 A 
ATOM     34  C   UNL A   1      35.986  32.185  30.998  1.00  0.00     0.010 A 
ATOM     35  C   UNL A   1      37.225  32.621  30.487  1.00  0.00    -0.014 A 
BRANCH  35  36
ATOM     36  C   UNL A   1      38.383  31.801  30.908  1.00  0.00     0.031 A 
ATOM     37  C   UNL A   1      38.476  30.378  30.441  1.00  0.00     0.074 A 
ATOM     38  C   UNL A   1      39.526  32.355  31.404  1.00  0.00     0.049 A 
ATOM     39  N   UNL A   1      39.375  29.542  30.847  1.00  0.00    -0.248 NA
ATOM     40  C   UNL A   1      37.546  29.749  29.495  1.00  0.00     0.031 C 
ATOM     41  C   UNL A   1      40.887  31.845  31.170  1.00  0.00     0.029 A 
ATOM     42  N   UNL A   1      39.793  33.501  32.138  1.00  0.00    -0.354 N 
ATOM     43  C   UNL A   1      39.426  28.530  29.916  1.00  0.00     0.074 A 
ATOM     44  C   UNL A   1      38.168  28.599  29.222  1.00  0.00     0.031 C 
ATOM     45  C   UNL A   1      41.763  32.499  31.947  1.00  0.00     0.029 A 
ATOM     46  C   UNL A   1      40.998  33.348  32.829  1.00  0.00     0.049 A 
ATOM     47  H   UNL A   1      39.220  34.302  32.167  1.00  0.00     0.167 HD
ATOM     48  C   UNL A   1      40.600  27.872  29.706  1.00  0.00     0.031 A 
ATOM     49  C   UNL A   1      41.147  33.446  34.186  1.00  0.00     0.031 A 
ATOM     50  C   UNL A   1      41.624  28.226  30.697  1.00  0.00     0.049 A 
ATOM     51  C   UNL A   1      41.678  32.171  34.782  1.00  0.00     0.074 A 
ATOM     52  C   UNL A   1      42.867  28.830  30.616  1.00  0.00     0.029 A 
ATOM     53  N   UNL A   1      41.311  28.166  32.054  1.00  0.00    -0.354 N 
ATOM     54  N   UNL A   1      41.797  31.097  34.059  1.00  0.00    -0.248 NA
ATOM     55  C   UNL A   1      42.059  31.934  36.172  1.00  0.00     0.031 C 
ATOM     56  C   UNL A   1      43.274  29.175  31.936  1.00  0.00     0.029 A 
ATOM     57  C   UNL A   1      42.301  28.742  32.824  1.00  0.00     0.049 A 
ATOM     58  H   UNL A   1      40.489  27.763  32.418  1.00  0.00     0.167 HD
ATOM     59  C   UNL A   1      42.154  30.043  34.828  1.00  0.00     0.074 A 
ATOM     60  C   UNL A   1      42.333  30.613  36.149  1.00  0.00     0.031 C 
ATOM     61  C   UNL A   1      42.176  28.797  34.282  1.00  0.00     0.031 A 
BRANCH  48  62
ATOM     62  C   UNL A   1      40.905  27.033  28.478  1.00  0.00    -0.014 A 
ATOM     63  C   UNL A   1      41.077  27.668  27.233  1.00  0.00     0.009 A 
ATOM     64  C   UNL A   1      40.963  25.626  28.449  1.00  0.00     0.009 A 
ATOM     65  C   UNL A   1      41.303  26.948  26.049  1.00  0.00     0.001 A 
ATOM     66  C   UNL A   1      41.227  24.900  27.279  1.00  0.00     0.001 A 
ATOM     67  C   UNL A   1      41.394  25.563  26.074  1.00  0.00     0.000 A 
ENDBRANCH  48  62
BRANCH  49  68
ATOM     68  C   UNL A   1      40.184  34.392  34.801  1.00  0.00    -0.014 A 
ATOM     69  C   UNL A   1      39.145  33.755  35.494  1.00  0.00     0.009 A 
ATOM     70  C   UNL A   1      40.631  35.651  35.243  1.00  0.00     0.009 A 
ATOM     71  C   UNL A   1      38.797  34.213  36.759  1.00  0.00     0.001 A 
ATOM     72  C   UNL A   1      40.232  36.122  36.500  1.00  0.00     0.001 A 
ATOM     73  C   UNL A   1      39.374  35.362  37.288  1.00  0.00     0.000 A 
ENDBRANCH  49  68
BRANCH  61  74
ATOM     74  C   UNL A   1      42.077  27.531  35.077  1.00  0.00    -0.014 A 
ATOM     75  C   UNL A   1      41.326  27.417  36.255  1.00  0.00     0.009 A 
ATOM     76  C   UNL A   1      42.619  26.344  34.544  1.00  0.00     0.009 A 
ATOM     77  C   UNL A   1      41.168  26.186  36.899  1.00  0.00     0.001 A 
ATOM     78  C   UNL A   1      42.418  25.106  35.153  1.00  0.00     0.001 A 
ATOM     79  C   UNL A   1      41.705  25.031  36.343  1.00  0.00     0.000 A 
ENDBRANCH  61  74
ENDBRANCH  35  36
ENDBRANCH  28  30
ENDBRANCH  27  28
ENDBRANCH  26  27
ENDBRANCH  25  26
ENDBRANCH  24  25
ENDBRANCH   1  24
TORSDOF 19
ENDMDL
