MODEL 1
REMARK VINA RESULT:     -10.7      0.000      0.000
REMARK SMILES Cc1ccc(C)n1-c1ccccc1S[C@H](C)C(=O)OCCOCCOC(=O)c1ccc(-c2c3nc(c(-c4ccccc4)c4ccc([nH]4)c(-c4ccccc4)c4nc(c(-c5ccccc5)c5ccc2[nH]5)C=C4)C=C3)cc1
REMARK SMILES IDX 21 1 20 2 19 3 17 4 18 5 15 6 16 7 14 8 13 9 8 10 9 11 10 12
REMARK SMILES IDX 12 13 11 14 7 15 1 16 2 17 3 18 4 19 5 20 6 21 22 22 23 23
REMARK SMILES IDX 24 24 25 25 26 26 27 27 28 28 29 29 75 30 30 31 74 32 31 33
REMARK SMILES IDX 32 34 33 35 68 36 34 37 73 38 67 39 69 40 35 41 72 42 66 43
REMARK SMILES IDX 65 44 36 46 58 47 43 48 57 49 44 50 47 51 56 52 70 53 45 54
REMARK SMILES IDX 46 55 55 57 71 58 48 59 37 60 38 61 42 62 39 63 41 64 40 65
REMARK SMILES IDX 59 66 60 67 64 68 61 69 63 70 62 71 49 72 50 73 54 74 51 75
REMARK SMILES IDX 53 76 52 77
REMARK H PARENT 69 45 47 56
REMARK Flexibility Score: inf
ROOT
ATOM      1  C   UNL A   1      34.378  33.712  28.915  1.00  0.00     0.202 C 
ENDROOT
BRANCH   1   2
ATOM      2  C   UNL A   1      34.201  32.184  28.935  1.00  0.00     0.261 C 
BRANCH   2   3
ATOM      3  O   UNL A   1      34.202  31.641  27.605  1.00  0.00    -0.462 OA
BRANCH   3   4
ATOM      4  C   UNL A   1      34.123  30.287  27.487  1.00  0.00     0.319 C 
ATOM      5  O   UNL A   1      35.081  29.528  27.541  1.00  0.00    -0.251 OA
BRANCH   4   6
ATOM      6  C   UNL A   1      32.701  29.805  27.216  1.00  0.00     0.158 C 
ATOM      7  C   UNL A   1      31.776  30.676  26.374  1.00  0.00     0.032 C 
BRANCH   6   8
ATOM      8  S   UNL A   1      32.721  28.042  26.752  1.00  0.00    -0.109 SA
BRANCH   8   9
ATOM      9  C   UNL A   1      32.985  27.880  24.980  1.00  0.00     0.032 A 
ATOM     10  C   UNL A   1      32.650  26.657  24.351  1.00  0.00     0.059 A 
ATOM     11  C   UNL A   1      32.961  26.410  23.002  1.00  0.00     0.028 A 
ATOM     12  C   UNL A   1      33.595  27.389  22.244  1.00  0.00     0.002 A 
ATOM     13  C   UNL A   1      33.597  28.849  24.175  1.00  0.00     0.017 A 
ATOM     14  C   UNL A   1      33.905  28.609  22.829  1.00  0.00     0.001 A 
BRANCH  10  15
ATOM     15  N   UNL A   1      32.061  25.595  25.087  1.00  0.00    -0.317 N 
ATOM     16  C   UNL A   1      29.609  26.203  24.697  1.00  0.00     0.065 C 
ATOM     17  C   UNL A   1      30.703  25.397  25.316  1.00  0.00     0.020 A 
ATOM     18  C   UNL A   1      30.573  24.354  26.212  1.00  0.00     0.023 A 
ATOM     19  C   UNL A   1      31.862  23.864  26.494  1.00  0.00     0.023 A 
ATOM     20  C   UNL A   1      32.772  24.621  25.779  1.00  0.00     0.020 A 
ATOM     21  C   UNL A   1      34.258  24.517  25.806  1.00  0.00     0.065 C 
ENDBRANCH  10  15
ENDBRANCH   8   9
ENDBRANCH   6   8
ENDBRANCH   4   6
ENDBRANCH   3   4
ENDBRANCH   2   3
ENDBRANCH   1   2
BRANCH   1  22
ATOM     22  O   UNL A   1      33.226  34.462  29.311  1.00  0.00    -0.374 OA
BRANCH  22  23
ATOM     23  C   UNL A   1      33.260  35.866  29.006  1.00  0.00     0.202 C 
BRANCH  23  24
ATOM     24  C   UNL A   1      32.956  36.829  30.185  1.00  0.00     0.261 C 
BRANCH  24  25
ATOM     25  O   UNL A   1      32.400  36.244  31.431  1.00  0.00    -0.460 OA
BRANCH  25  26
ATOM     26  C   UNL A   1      33.216  36.308  32.537  1.00  0.00     0.338 C 
ATOM     27  O   UNL A   1      33.164  37.240  33.330  1.00  0.00    -0.246 OA
BRANCH  26  28
ATOM     28  C   UNL A   1      34.186  35.146  32.827  1.00  0.00     0.060 A 
ATOM     29  C   UNL A   1      35.532  35.385  32.572  1.00  0.00     0.016 A 
ATOM     30  C   UNL A   1      33.872  33.788  33.049  1.00  0.00     0.016 A 
ATOM     31  C   UNL A   1      36.503  34.331  32.538  1.00  0.00     0.010 A 
ATOM     32  C   UNL A   1      34.865  32.693  32.930  1.00  0.00     0.010 A 
ATOM     33  C   UNL A   1      36.225  32.922  32.633  1.00  0.00    -0.014 A 
BRANCH  33  34
ATOM     34  C   UNL A   1      37.337  31.925  31.977  1.00  0.00     0.031 A 
ATOM     35  C   UNL A   1      38.204  31.571  33.135  1.00  0.00     0.074 A 
ATOM     36  C   UNL A   1      37.866  31.393  30.796  1.00  0.00     0.049 A 
ATOM     37  N   UNL A   1      38.774  32.518  33.819  1.00  0.00    -0.248 NA
ATOM     38  C   UNL A   1      38.203  30.256  33.775  1.00  0.00     0.031 C 
ATOM     39  C   UNL A   1      37.463  31.645  29.403  1.00  0.00     0.029 A 
ATOM     40  N   UNL A   1      38.938  30.459  30.564  1.00  0.00    -0.354 N 
ATOM     41  C   UNL A   1      39.452  31.894  34.830  1.00  0.00     0.074 A 
ATOM     42  C   UNL A   1      38.900  30.549  34.878  1.00  0.00     0.031 C 
ATOM     43  C   UNL A   1      38.136  30.839  28.526  1.00  0.00     0.029 A 
ATOM     44  C   UNL A   1      39.113  29.997  29.215  1.00  0.00     0.049 A 
ATOM     45  H   UNL A   1      39.524  30.152  31.295  1.00  0.00     0.167 HD
ATOM     46  C   UNL A   1      40.727  32.314  35.060  1.00  0.00     0.031 A 
ATOM     47  C   UNL A   1      40.000  29.079  28.660  1.00  0.00     0.031 A 
ATOM     48  C   UNL A   1      41.698  31.334  34.661  1.00  0.00     0.049 A 
ATOM     49  C   UNL A   1      41.180  28.994  29.537  1.00  0.00     0.074 A 
ATOM     50  C   UNL A   1      41.812  29.971  34.835  1.00  0.00     0.029 A 
ATOM     51  N   UNL A   1      42.495  31.665  33.584  1.00  0.00    -0.354 N 
ATOM     52  N   UNL A   1      42.107  29.899  29.473  1.00  0.00    -0.248 NA
ATOM     53  C   UNL A   1      41.511  27.825  30.346  1.00  0.00     0.031 C 
ATOM     54  C   UNL A   1      42.283  29.475  33.596  1.00  0.00     0.029 A 
ATOM     55  C   UNL A   1      42.694  30.543  32.807  1.00  0.00     0.049 A 
ATOM     56  H   UNL A   1      42.863  32.559  33.400  1.00  0.00     0.167 HD
ATOM     57  C   UNL A   1      42.848  29.675  30.590  1.00  0.00     0.074 A 
ATOM     58  C   UNL A   1      42.638  28.276  30.905  1.00  0.00     0.031 C 
ATOM     59  C   UNL A   1      43.025  30.738  31.413  1.00  0.00     0.031 A 
BRANCH  46  60
ATOM     60  C   UNL A   1      40.930  33.801  34.928  1.00  0.00    -0.014 A 
ATOM     61  C   UNL A   1      41.613  34.303  33.816  1.00  0.00     0.009 A 
ATOM     62  C   UNL A   1      40.587  34.699  35.963  1.00  0.00     0.009 A 
ATOM     63  C   UNL A   1      42.004  35.646  33.776  1.00  0.00     0.001 A 
ATOM     64  C   UNL A   1      41.010  36.026  35.941  1.00  0.00     0.001 A 
ATOM     65  C   UNL A   1      41.728  36.498  34.849  1.00  0.00     0.000 A 
ENDBRANCH  46  60
BRANCH  47  66
ATOM     66  C   UNL A   1      40.333  28.298  27.364  1.00  0.00    -0.014 A 
ATOM     67  C   UNL A   1      41.201  28.891  26.386  1.00  0.00     0.009 A 
ATOM     68  C   UNL A   1      40.200  26.909  27.254  1.00  0.00     0.009 A 
ATOM     69  C   UNL A   1      41.974  28.158  25.466  1.00  0.00     0.001 A 
ATOM     70  C   UNL A   1      40.946  26.169  26.294  1.00  0.00     0.001 A 
ATOM     71  C   UNL A   1      41.858  26.782  25.431  1.00  0.00     0.000 A 
ENDBRANCH  47  66
BRANCH  59  72
ATOM     72  C   UNL A   1      43.237  32.101  30.757  1.00  0.00    -0.014 A 
ATOM     73  C   UNL A   1      42.210  33.005  30.394  1.00  0.00     0.009 A 
ATOM     74  C   UNL A   1      44.548  32.486  30.446  1.00  0.00     0.009 A 
ATOM     75  C   UNL A   1      42.469  34.184  29.685  1.00  0.00     0.001 A 
ATOM     76  C   UNL A   1      44.816  33.693  29.786  1.00  0.00     0.001 A 
ATOM     77  C   UNL A   1      43.778  34.530  29.386  1.00  0.00     0.000 A 
ENDBRANCH  59  72
ENDBRANCH  33  34
ENDBRANCH  26  28
ENDBRANCH  25  26
ENDBRANCH  24  25
ENDBRANCH  23  24
ENDBRANCH  22  23
ENDBRANCH   1  22
TORSDOF 17
ENDMDL
MODEL 2
REMARK VINA RESULT:     -10.7      5.677     11.045
REMARK SMILES Cc1ccc(C)n1-c1ccccc1S[C@H](C)C(=O)OCCOCCOC(=O)c1ccc(-c2c3nc(c(-c4ccccc4)c4ccc([nH]4)c(-c4ccccc4)c4nc(c(-c5ccccc5)c5ccc2[nH]5)C=C4)C=C3)cc1
REMARK SMILES IDX 21 1 20 2 19 3 17 4 18 5 15 6 16 7 14 8 13 9 8 10 9 11 10 12
REMARK SMILES IDX 12 13 11 14 7 15 1 16 2 17 3 18 4 19 5 20 6 21 22 22 23 23
REMARK SMILES IDX 24 24 25 25 26 26 27 27 28 28 29 29 75 30 30 31 74 32 31 33
REMARK SMILES IDX 32 34 33 35 68 36 34 37 73 38 67 39 69 40 35 41 72 42 66 43
REMARK SMILES IDX 65 44 36 46 58 47 43 48 57 49 44 50 47 51 56 52 70 53 45 54
REMARK SMILES IDX 46 55 55 57 71 58 48 59 37 60 38 61 42 62 39 63 41 64 40 65
REMARK SMILES IDX 59 66 60 67 64 68 61 69 63 70 62 71 49 72 50 73 54 74 51 75
REMARK SMILES IDX 53 76 52 77
REMARK H PARENT 69 45 47 56
REMARK Flexibility Score: inf
ROOT
ATOM      1  C   UNL A   1      40.589  20.245  26.825  1.00  0.00     0.202 C 
ENDROOT
BRANCH   1   2
ATOM      2  C   UNL A   1      39.809  21.569  26.732  1.00  0.00     0.261 C 
BRANCH   2   3
ATOM      3  O   UNL A   1      39.318  21.793  25.400  1.00  0.00    -0.462 OA
BRANCH   3   4
ATOM      4  C   UNL A   1      38.105  21.262  25.088  1.00  0.00     0.319 C 
ATOM      5  O   UNL A   1      37.885  20.068  24.945  1.00  0.00    -0.251 OA
BRANCH   4   6
ATOM      6  C   UNL A   1      37.037  22.331  24.873  1.00  0.00     0.158 C 
ATOM      7  C   UNL A   1      36.698  22.758  23.450  1.00  0.00     0.032 C 
BRANCH   6   8
ATOM      8  S   UNL A   1      35.593  21.987  25.931  1.00  0.00    -0.109 SA
BRANCH   8   9
ATOM      9  C   UNL A   1      34.420  20.949  25.045  1.00  0.00     0.032 A 
ATOM     10  C   UNL A   1      33.206  21.522  24.600  1.00  0.00     0.059 A 
ATOM     11  C   UNL A   1      32.185  20.742  24.028  1.00  0.00     0.028 A 
ATOM     12  C   UNL A   1      32.363  19.371  23.872  1.00  0.00     0.002 A 
ATOM     13  C   UNL A   1      34.572  19.572  24.844  1.00  0.00     0.017 A 
ATOM     14  C   UNL A   1      33.559  18.790  24.273  1.00  0.00     0.001 A 
BRANCH  10  15
ATOM     15  N   UNL A   1      32.937  22.904  24.791  1.00  0.00    -0.317 N 
ATOM     16  C   UNL A   1      32.276  22.803  27.259  1.00  0.00     0.065 C 
ATOM     17  C   UNL A   1      32.457  23.503  25.953  1.00  0.00     0.020 A 
ATOM     18  C   UNL A   1      32.175  24.823  25.661  1.00  0.00     0.023 A 
ATOM     19  C   UNL A   1      32.540  25.057  24.321  1.00  0.00     0.023 A 
ATOM     20  C   UNL A   1      33.029  23.874  23.800  1.00  0.00     0.020 A 
ATOM     21  C   UNL A   1      33.476  23.615  22.402  1.00  0.00     0.065 C 
ENDBRANCH  10  15
ENDBRANCH   8   9
ENDBRANCH   6   8
ENDBRANCH   4   6
ENDBRANCH   3   4
ENDBRANCH   2   3
ENDBRANCH   1   2
BRANCH   1  22
ATOM     22  O   UNL A   1      41.878  20.255  26.209  1.00  0.00    -0.374 OA
BRANCH  22  23
ATOM     23  C   UNL A   1      42.743  19.158  26.551  1.00  0.00     0.202 C 
BRANCH  23  24
ATOM     24  C   UNL A   1      43.427  18.432  25.362  1.00  0.00     0.261 C 
BRANCH  24  25
ATOM     25  O   UNL A   1      44.911  18.415  25.321  1.00  0.00    -0.460 OA
BRANCH  25  26
ATOM     26  C   UNL A   1      45.492  19.242  24.387  1.00  0.00     0.338 C 
ATOM     27  O   UNL A   1      46.046  18.803  23.387  1.00  0.00    -0.246 OA
BRANCH  26  28
ATOM     28  C   UNL A   1      45.395  20.770  24.568  1.00  0.00     0.060 A 
ATOM     29  C   UNL A   1      45.661  21.260  25.842  1.00  0.00     0.016 A 
ATOM     30  C   UNL A   1      44.804  21.710  23.697  1.00  0.00     0.016 A 
ATOM     31  C   UNL A   1      45.353  22.607  26.222  1.00  0.00     0.010 A 
ATOM     32  C   UNL A   1      44.413  23.077  24.121  1.00  0.00     0.010 A 
ATOM     33  C   UNL A   1      44.642  23.571  25.422  1.00  0.00    -0.014 A 
BRANCH  33  34
ATOM     34  C   UNL A   1      43.890  24.766  26.238  1.00  0.00     0.031 A 
ATOM     35  C   UNL A   1      44.821  25.919  26.089  1.00  0.00     0.074 A 
ATOM     36  C   UNL A   1      42.837  25.103  27.095  1.00  0.00     0.049 A 
ATOM     37  N   UNL A   1      46.056  25.797  26.477  1.00  0.00    -0.248 NA
ATOM     38  C   UNL A   1      44.549  27.075  25.234  1.00  0.00     0.031 C 
ATOM     39  C   UNL A   1      41.803  24.233  27.679  1.00  0.00     0.029 A 
ATOM     40  N   UNL A   1      42.433  26.362  27.664  1.00  0.00    -0.354 N 
ATOM     41  C   UNL A   1      46.664  26.984  26.171  1.00  0.00     0.074 A 
ATOM     42  C   UNL A   1      45.763  27.636  25.235  1.00  0.00     0.031 C 
ATOM     43  C   UNL A   1      40.865  24.951  28.368  1.00  0.00     0.029 A 
ATOM     44  C   UNL A   1      41.188  26.378  28.382  1.00  0.00     0.049 A 
ATOM     45  H   UNL A   1      42.983  27.173  27.568  1.00  0.00     0.167 HD
ATOM     46  C   UNL A   1      47.453  27.532  27.136  1.00  0.00     0.031 A 
ATOM     47  C   UNL A   1      40.493  27.411  29.005  1.00  0.00     0.031 A 
ATOM     48  C   UNL A   1      46.866  28.709  27.709  1.00  0.00     0.049 A 
ATOM     49  C   UNL A   1      41.456  28.471  29.346  1.00  0.00     0.074 A 
ATOM     50  C   UNL A   1      46.244  29.823  27.185  1.00  0.00     0.029 A 
ATOM     51  N   UNL A   1      46.468  28.617  29.027  1.00  0.00    -0.354 N 
ATOM     52  N   UNL A   1      42.201  28.362  30.403  1.00  0.00    -0.248 NA
ATOM     53  C   UNL A   1      41.494  29.777  28.696  1.00  0.00     0.031 C 
ATOM     54  C   UNL A   1      45.150  30.079  28.046  1.00  0.00     0.029 A 
ATOM     55  C   UNL A   1      45.285  29.306  29.193  1.00  0.00     0.049 A 
ATOM     56  H   UNL A   1      46.952  28.135  29.736  1.00  0.00     0.167 HD
ATOM     57  C   UNL A   1      43.139  29.330  30.233  1.00  0.00     0.074 A 
ATOM     58  C   UNL A   1      42.509  30.315  29.377  1.00  0.00     0.031 C 
ATOM     59  C   UNL A   1      44.432  28.927  30.297  1.00  0.00     0.031 A 
BRANCH  46  60
ATOM     60  C   UNL A   1      48.271  26.535  27.916  1.00  0.00    -0.014 A 
ATOM     61  C   UNL A   1      48.101  26.444  29.301  1.00  0.00     0.009 A 
ATOM     62  C   UNL A   1      49.314  25.792  27.321  1.00  0.00     0.009 A 
ATOM     63  C   UNL A   1      48.992  25.690  30.073  1.00  0.00     0.001 A 
ATOM     64  C   UNL A   1      50.224  25.074  28.093  1.00  0.00     0.001 A 
ATOM     65  C   UNL A   1      50.068  25.031  29.473  1.00  0.00     0.000 A 
ENDBRANCH  46  60
BRANCH  47  66
ATOM     66  C   UNL A   1      39.150  27.771  29.689  1.00  0.00    -0.014 A 
ATOM     67  C   UNL A   1      39.009  27.586  31.107  1.00  0.00     0.009 A 
ATOM     68  C   UNL A   1      38.215  28.645  29.123  1.00  0.00     0.009 A 
ATOM     69  C   UNL A   1      38.107  28.306  31.912  1.00  0.00     0.001 A 
ATOM     70  C   UNL A   1      37.270  29.340  29.930  1.00  0.00     0.001 A 
ATOM     71  C   UNL A   1      37.241  29.204  31.320  1.00  0.00     0.000 A 
ENDBRANCH  47  66
BRANCH  59  72
ATOM     72  C   UNL A   1      44.781  27.860  31.333  1.00  0.00    -0.014 A 
ATOM     73  C   UNL A   1      44.822  26.466  31.093  1.00  0.00     0.009 A 
ATOM     74  C   UNL A   1      45.046  28.277  32.644  1.00  0.00     0.009 A 
ATOM     75  C   UNL A   1      45.031  25.538  32.119  1.00  0.00     0.001 A 
ATOM     76  C   UNL A   1      45.311  27.353  33.664  1.00  0.00     0.001 A 
ATOM     77  C   UNL A   1      45.281  25.984  33.407  1.00  0.00     0.000 A 
ENDBRANCH  59  72
ENDBRANCH  33  34
ENDBRANCH  26  28
ENDBRANCH  25  26
ENDBRANCH  24  25
ENDBRANCH  23  24
ENDBRANCH  22  23
ENDBRANCH   1  22
TORSDOF 17
ENDMDL
MODEL 3
REMARK VINA RESULT:     -10.5      3.780      8.267
REMARK SMILES Cc1ccc(C)n1-c1ccccc1S[C@H](C)C(=O)OCCOCCOC(=O)c1ccc(-c2c3nc(c(-c4ccccc4)c4ccc([nH]4)c(-c4ccccc4)c4nc(c(-c5ccccc5)c5ccc2[nH]5)C=C4)C=C3)cc1
REMARK SMILES IDX 21 1 20 2 19 3 17 4 18 5 15 6 16 7 14 8 13 9 8 10 9 11 10 12
REMARK SMILES IDX 12 13 11 14 7 15 1 16 2 17 3 18 4 19 5 20 6 21 22 22 23 23
REMARK SMILES IDX 24 24 25 25 26 26 27 27 28 28 29 29 75 30 30 31 74 32 31 33
REMARK SMILES IDX 32 34 33 35 68 36 34 37 73 38 67 39 69 40 35 41 72 42 66 43
REMARK SMILES IDX 65 44 36 46 58 47 43 48 57 49 44 50 47 51 56 52 70 53 45 54
REMARK SMILES IDX 46 55 55 57 71 58 48 59 37 60 38 61 42 62 39 63 41 64 40 65
REMARK SMILES IDX 59 66 60 67 64 68 61 69 63 70 62 71 49 72 50 73 54 74 51 75
REMARK SMILES IDX 53 76 52 77
REMARK H PARENT 69 45 47 56
REMARK Flexibility Score: inf
ROOT
ATOM      1  C   UNL A   1      34.704  21.743  25.958  1.00  0.00     0.202 C 
ENDROOT
BRANCH   1   2
ATOM      2  C   UNL A   1      34.086  23.104  25.590  1.00  0.00     0.261 C 
BRANCH   2   3
ATOM      3  O   UNL A   1      32.773  22.947  25.028  1.00  0.00    -0.462 OA
BRANCH   3   4
ATOM      4  C   UNL A   1      32.601  23.334  23.734  1.00  0.00     0.319 C 
ATOM      5  O   UNL A   1      32.565  22.570  22.780  1.00  0.00    -0.251 OA
BRANCH   4   6
ATOM      6  C   UNL A   1      32.516  24.850  23.584  1.00  0.00     0.158 C 
ATOM      7  C   UNL A   1      32.441  25.449  22.186  1.00  0.00     0.032 C 
BRANCH   6   8
ATOM      8  S   UNL A   1      31.304  25.523  24.768  1.00  0.00    -0.109 SA
BRANCH   8   9
ATOM      9  C   UNL A   1      30.630  27.069  24.141  1.00  0.00     0.032 A 
ATOM     10  C   UNL A   1      31.244  28.284  24.524  1.00  0.00     0.059 A 
ATOM     11  C   UNL A   1      30.689  29.532  24.189  1.00  0.00     0.028 A 
ATOM     12  C   UNL A   1      29.516  29.593  23.445  1.00  0.00     0.002 A 
ATOM     13  C   UNL A   1      29.466  27.173  23.369  1.00  0.00     0.017 A 
ATOM     14  C   UNL A   1      28.911  28.414  23.029  1.00  0.00     0.001 A 
BRANCH  10  15
ATOM     15  N   UNL A   1      32.407  28.289  25.340  1.00  0.00    -0.317 N 
ATOM     16  C   UNL A   1      31.253  28.067  27.611  1.00  0.00     0.065 C 
ATOM     17  C   UNL A   1      32.444  28.257  26.732  1.00  0.00     0.020 A 
ATOM     18  C   UNL A   1      33.756  28.449  27.123  1.00  0.00     0.023 A 
ATOM     19  C   UNL A   1      34.544  28.540  25.960  1.00  0.00     0.023 A 
ATOM     20  C   UNL A   1      33.708  28.418  24.867  1.00  0.00     0.020 A 
ATOM     21  C   UNL A   1      34.076  28.517  23.426  1.00  0.00     0.065 C 
ENDBRANCH  10  15
ENDBRANCH   8   9
ENDBRANCH   6   8
ENDBRANCH   4   6
ENDBRANCH   3   4
ENDBRANCH   2   3
ENDBRANCH   1   2
BRANCH   1  22
ATOM     22  O   UNL A   1      35.252  21.009  24.861  1.00  0.00    -0.374 OA
BRANCH  22  23
ATOM     23  C   UNL A   1      36.621  20.596  25.008  1.00  0.00     0.202 C 
BRANCH  23  24
ATOM     24  C   UNL A   1      37.687  21.721  24.922  1.00  0.00     0.261 C 
BRANCH  24  25
ATOM     25  O   UNL A   1      38.008  22.468  26.164  1.00  0.00    -0.460 OA
BRANCH  25  26
ATOM     26  C   UNL A   1      39.346  22.570  26.471  1.00  0.00     0.338 C 
ATOM     27  O   UNL A   1      40.119  21.630  26.328  1.00  0.00    -0.246 OA
BRANCH  26  28
ATOM     28  C   UNL A   1      39.908  23.921  26.953  1.00  0.00     0.060 A 
ATOM     29  C   UNL A   1      39.360  24.438  28.123  1.00  0.00     0.016 A 
ATOM     30  C   UNL A   1      40.699  24.840  26.229  1.00  0.00     0.016 A 
ATOM     31  C   UNL A   1      39.587  25.790  28.541  1.00  0.00     0.010 A 
ATOM     32  C   UNL A   1      40.861  26.260  26.624  1.00  0.00     0.010 A 
ATOM     33  C   UNL A   1      40.278  26.804  27.787  1.00  0.00    -0.014 A 
BRANCH  33  34
ATOM     34  C   UNL A   1      39.896  28.349  28.145  1.00  0.00     0.031 A 
ATOM     35  C   UNL A   1      41.225  29.000  28.305  1.00  0.00     0.074 A 
ATOM     36  C   UNL A   1      38.875  29.246  28.478  1.00  0.00     0.049 A 
ATOM     37  N   UNL A   1      42.073  28.519  29.167  1.00  0.00    -0.248 NA
ATOM     38  C   UNL A   1      41.790  29.940  27.337  1.00  0.00     0.031 C 
ATOM     39  C   UNL A   1      37.437  28.989  28.654  1.00  0.00     0.029 A 
ATOM     40  N   UNL A   1      38.895  30.660  28.748  1.00  0.00    -0.354 N 
ATOM     41  C   UNL A   1      43.200  29.285  29.051  1.00  0.00     0.074 A 
ATOM     42  C   UNL A   1      43.048  29.990  27.788  1.00  0.00     0.031 C 
ATOM     43  C   UNL A   1      36.734  30.145  28.854  1.00  0.00     0.029 A 
ATOM     44  C   UNL A   1      37.621  31.308  28.899  1.00  0.00     0.049 A 
ATOM     45  H   UNL A   1      39.740  31.160  28.826  1.00  0.00     0.167 HD
ATOM     46  C   UNL A   1      43.773  29.707  30.212  1.00  0.00     0.031 A 
ATOM     47  C   UNL A   1      37.282  32.640  29.116  1.00  0.00     0.031 A 
ATOM     48  C   UNL A   1      43.603  31.117  30.417  1.00  0.00     0.049 A 
ATOM     49  C   UNL A   1      38.433  33.311  29.742  1.00  0.00     0.074 A 
ATOM     50  C   UNL A   1      43.746  32.227  29.610  1.00  0.00     0.029 A 
ATOM     51  N   UNL A   1      42.787  31.491  31.465  1.00  0.00    -0.354 N 
ATOM     52  N   UNL A   1      38.651  33.181  31.014  1.00  0.00    -0.248 NA
ATOM     53  C   UNL A   1      39.253  34.317  29.074  1.00  0.00     0.031 C 
ATOM     54  C   UNL A   1      42.655  33.067  29.936  1.00  0.00     0.029 A 
ATOM     55  C   UNL A   1      42.045  32.592  31.091  1.00  0.00     0.049 A 
ATOM     56  H   UNL A   1      42.743  31.044  32.340  1.00  0.00     0.167 HD
ATOM     57  C   UNL A   1      39.913  33.659  31.172  1.00  0.00     0.074 A 
ATOM     58  C   UNL A   1      40.105  34.579  30.068  1.00  0.00     0.031 C 
ATOM     59  C   UNL A   1      40.796  32.828  31.779  1.00  0.00     0.031 A 
BRANCH  46  60
ATOM     60  C   UNL A   1      43.759  28.689  31.323  1.00  0.00    -0.014 A 
ATOM     61  C   UNL A   1      44.414  27.467  31.142  1.00  0.00     0.009 A 
ATOM     62  C   UNL A   1      42.981  28.863  32.489  1.00  0.00     0.009 A 
ATOM     63  C   UNL A   1      44.235  26.427  32.061  1.00  0.00     0.001 A 
ATOM     64  C   UNL A   1      42.771  27.815  33.383  1.00  0.00     0.001 A 
ATOM     65  C   UNL A   1      43.393  26.592  33.163  1.00  0.00     0.000 A 
ENDBRANCH  46  60
BRANCH  47  66
ATOM     66  C   UNL A   1      36.088  33.626  29.172  1.00  0.00    -0.014 A 
ATOM     67  C   UNL A   1      35.273  33.815  28.004  1.00  0.00     0.009 A 
ATOM     68  C   UNL A   1      35.486  34.029  30.370  1.00  0.00     0.009 A 
ATOM     69  C   UNL A   1      33.932  34.240  28.037  1.00  0.00     0.001 A 
ATOM     70  C   UNL A   1      34.144  34.503  30.400  1.00  0.00     0.001 A 
ATOM     71  C   UNL A   1      33.356  34.570  29.248  1.00  0.00     0.000 A 
ENDBRANCH  47  66
BRANCH  59  72
ATOM     72  C   UNL A   1      40.274  31.982  32.939  1.00  0.00    -0.014 A 
ATOM     73  C   UNL A   1      39.821  30.645  32.840  1.00  0.00     0.009 A 
ATOM     74  C   UNL A   1      40.192  32.579  34.205  1.00  0.00     0.009 A 
ATOM     75  C   UNL A   1      39.242  29.971  33.921  1.00  0.00     0.001 A 
ATOM     76  C   UNL A   1      39.664  31.887  35.304  1.00  0.00     0.001 A 
ATOM     77  C   UNL A   1      39.169  30.594  35.158  1.00  0.00     0.000 A 
ENDBRANCH  59  72
ENDBRANCH  33  34
ENDBRANCH  26  28
ENDBRANCH  25  26
ENDBRANCH  24  25
ENDBRANCH  23  24
ENDBRANCH  22  23
ENDBRANCH   1  22
TORSDOF 17
ENDMDL
