MODEL 1
REMARK VINA RESULT:     -12.3      0.000      0.000
REMARK SMILES Cc1ccc([C@H]2NC(=O)N(C)C3=C2C(=O)N(c2cccc(C(=O)OCCOCCOC(=O)c4ccc(-c5c6nc(c(-c7ccccc7)c7ccc([nH]7)c(-c7ccccc7)c7nc(c(-c8ccccc8)c8ccc5[nH]8)C=C7)C=C6)cc4)c2)C3)cc1
REMARK SMILES IDX 27 1 26 2 25 3 24 4 22 5 23 6 21 7 17 8 18 9 81 10 19 11
REMARK SMILES IDX 20 12 16 13 6 14 7 15 13 16 8 17 12 19 14 20 9 21 10 22
REMARK SMILES IDX 82 23 15 24 11 25 5 26 1 27 2 28 3 29 84 30 4 31 83 32 28 33
REMARK SMILES IDX 29 34 30 35 31 36 32 37 33 38 34 39 80 40 35 41 79 42 36 43
REMARK SMILES IDX 37 44 38 45 73 46 39 47 78 48 72 49 74 50 40 51 77 52 71 53
REMARK SMILES IDX 70 54 41 56 63 57 48 58 62 59 49 60 52 61 61 62 75 63 50 64
REMARK SMILES IDX 51 65 60 67 76 68 53 69 42 70 43 71 47 72 44 73 46 74 45 75
REMARK SMILES IDX 64 76 65 77 69 78 66 79 68 80 67 81 54 82 55 83 59 84 56 85
REMARK SMILES IDX 58 86 57 87
REMARK H PARENT 7 18 74 55 52 66
REMARK Flexibility Score: inf
ROOT
ATOM      1  O   UNL A   1      35.601  33.839  28.627  1.00  0.00    -0.374 OA
ENDROOT
BRANCH   1   2
ATOM      2  C   UNL A   1      35.956  32.636  27.958  1.00  0.00     0.202 C 
BRANCH   2   3
ATOM      3  C   UNL A   1      35.050  31.578  28.514  1.00  0.00     0.261 C 
BRANCH   3   4
ATOM      4  O   UNL A   1      34.261  30.985  27.476  1.00  0.00    -0.460 OA
BRANCH   4   5
ATOM      5  C   UNL A   1      34.563  29.708  27.105  1.00  0.00     0.338 C 
ATOM      6  O   UNL A   1      35.450  29.001  27.496  1.00  0.00    -0.246 OA
BRANCH   5   7
ATOM      7  C   UNL A   1      33.470  29.269  26.217  1.00  0.00     0.062 A 
ATOM      8  C   UNL A   1      32.345  27.403  25.210  1.00  0.00     0.045 A 
ATOM      9  C   UNL A   1      31.343  28.265  24.752  1.00  0.00     0.026 A 
ATOM     10  C   UNL A   1      33.415  27.908  25.939  1.00  0.00     0.042 A 
ATOM     11  C   UNL A   1      31.402  29.630  25.033  1.00  0.00     0.003 A 
ATOM     12  C   UNL A   1      32.477  30.139  25.755  1.00  0.00     0.016 A 
BRANCH   8  13
ATOM     13  N   UNL A   1      32.305  26.038  24.920  1.00  0.00    -0.303 N 
ATOM     14  C   UNL A   1      33.922  22.918  23.818  1.00  0.00     0.152 C 
ATOM     15  N   UNL A   1      33.226  21.652  24.017  1.00  0.00    -0.327 N 
ATOM     16  C   UNL A   1      33.028  23.989  24.270  1.00  0.00     0.066 C 
ATOM     17  C   UNL A   1      32.169  21.424  24.857  1.00  0.00     0.322 C 
ATOM     18  H   UNL A   1      33.550  20.882  23.494  1.00  0.00     0.166 HD
ATOM     19  C   UNL A   1      32.001  23.812  25.100  1.00  0.00     0.053 C 
ATOM     20  C   UNL A   1      33.191  25.421  24.047  1.00  0.00     0.258 C 
ATOM     21  O   UNL A   1      31.778  20.272  25.029  1.00  0.00    -0.248 OA
ATOM     22  N   UNL A   1      31.582  22.547  25.438  1.00  0.00    -0.299 N 
ATOM     23  C   UNL A   1      31.483  25.094  25.642  1.00  0.00     0.180 C 
ATOM     24  O   UNL A   1      34.009  25.911  23.292  1.00  0.00    -0.269 OA
ATOM     25  C   UNL A   1      30.463  22.369  26.351  1.00  0.00     0.155 C 
BRANCH  14  26
ATOM     26  C   UNL A   1      35.280  22.881  24.523  1.00  0.00    -0.021 A 
ATOM     27  C   UNL A   1      39.165  22.633  26.439  1.00  0.00     0.044 C 
ATOM     28  C   UNL A   1      37.820  22.724  25.782  1.00  0.00    -0.051 A 
ATOM     29  C   UNL A   1      37.378  21.703  24.936  1.00  0.00     0.004 A 
ATOM     30  C   UNL A   1      36.985  23.820  26.007  1.00  0.00     0.004 A 
ATOM     31  C   UNL A   1      36.128  21.781  24.312  1.00  0.00     0.006 A 
ATOM     32  C   UNL A   1      35.730  23.892  25.394  1.00  0.00     0.006 A 
ENDBRANCH  14  26
ENDBRANCH   8  13
ENDBRANCH   5   7
ENDBRANCH   4   5
ENDBRANCH   3   4
ENDBRANCH   2   3
ENDBRANCH   1   2
BRANCH   1  33
ATOM     33  C   UNL A   1      34.341  34.382  28.288  1.00  0.00     0.202 C 
BRANCH  33  34
ATOM     34  C   UNL A   1      33.549  34.885  29.503  1.00  0.00     0.261 C 
BRANCH  34  35
ATOM     35  O   UNL A   1      33.766  34.007  30.628  1.00  0.00    -0.460 OA
BRANCH  35  36
ATOM     36  C   UNL A   1      34.020  34.613  31.822  1.00  0.00     0.338 C 
ATOM     37  O   UNL A   1      33.389  35.545  32.292  1.00  0.00    -0.246 OA
BRANCH  36  38
ATOM     38  C   UNL A   1      35.353  34.173  32.329  1.00  0.00     0.060 A 
ATOM     39  C   UNL A   1      36.522  34.843  31.915  1.00  0.00     0.016 A 
ATOM     40  C   UNL A   1      35.447  32.917  32.922  1.00  0.00     0.016 A 
ATOM     41  C   UNL A   1      37.765  34.193  31.968  1.00  0.00     0.010 A 
ATOM     42  C   UNL A   1      36.647  32.242  32.860  1.00  0.00     0.010 A 
ATOM     43  C   UNL A   1      37.811  32.861  32.378  1.00  0.00    -0.014 A 
BRANCH  43  44
ATOM     44  C   UNL A   1      38.962  31.961  32.267  1.00  0.00     0.031 A 
ATOM     45  C   UNL A   1      38.884  30.817  31.337  1.00  0.00     0.074 A 
ATOM     46  C   UNL A   1      40.163  32.277  32.808  1.00  0.00     0.049 A 
ATOM     47  N   UNL A   1      39.642  29.778  31.426  1.00  0.00    -0.248 NA
ATOM     48  C   UNL A   1      37.914  30.721  30.249  1.00  0.00     0.031 C 
ATOM     49  C   UNL A   1      41.488  31.823  32.389  1.00  0.00     0.029 A 
ATOM     50  N   UNL A   1      40.433  33.093  33.898  1.00  0.00    -0.354 N 
ATOM     51  C   UNL A   1      39.507  29.081  30.251  1.00  0.00     0.074 A 
ATOM     52  C   UNL A   1      38.341  29.632  29.607  1.00  0.00     0.031 C 
ATOM     53  C   UNL A   1      42.402  32.199  33.301  1.00  0.00     0.029 A 
ATOM     54  C   UNL A   1      41.694  32.799  34.420  1.00  0.00     0.049 A 
ATOM     55  H   UNL A   1      39.824  33.780  34.251  1.00  0.00     0.167 HD
ATOM     56  C   UNL A   1      40.499  28.234  29.861  1.00  0.00     0.031 A 
ATOM     57  C   UNL A   1      41.829  32.514  35.743  1.00  0.00     0.031 A 
ATOM     58  C   UNL A   1      41.622  28.252  30.807  1.00  0.00     0.049 A 
ATOM     59  C   UNL A   1      42.178  31.058  35.880  1.00  0.00     0.074 A 
ATOM     60  C   UNL A   1      42.872  28.849  30.758  1.00  0.00     0.029 A 
ATOM     61  N   UNL A   1      41.414  27.900  32.141  1.00  0.00    -0.354 N 
ATOM     62  N   UNL A   1      42.012  30.213  34.900  1.00  0.00    -0.248 NA
ATOM     63  C   UNL A   1      42.769  30.432  37.057  1.00  0.00     0.031 C 
ATOM     64  C   UNL A   1      43.391  28.899  32.081  1.00  0.00     0.029 A 
ATOM     65  C   UNL A   1      42.476  28.301  32.932  1.00  0.00     0.049 A 
ATOM     66  H   UNL A   1      40.617  27.429  32.475  1.00  0.00     0.167 HD
ATOM     67  C   UNL A   1      42.509  29.000  35.242  1.00  0.00     0.074 A 
ATOM     68  C   UNL A   1      42.940  29.169  36.620  1.00  0.00     0.031 C 
ATOM     69  C   UNL A   1      42.518  27.968  34.355  1.00  0.00     0.031 A 
BRANCH  56  70
ATOM     70  C   UNL A   1      40.568  27.643  28.470  1.00  0.00    -0.014 A 
ATOM     71  C   UNL A   1      40.000  26.384  28.212  1.00  0.00     0.009 A 
ATOM     72  C   UNL A   1      41.191  28.269  27.373  1.00  0.00     0.009 A 
ATOM     73  C   UNL A   1      40.126  25.752  26.966  1.00  0.00     0.001 A 
ATOM     74  C   UNL A   1      41.365  27.625  26.140  1.00  0.00     0.001 A 
ATOM     75  C   UNL A   1      40.834  26.361  25.938  1.00  0.00     0.000 A 
ENDBRANCH  56  70
BRANCH  57  76
ATOM     76  C   UNL A   1      40.920  33.332  36.606  1.00  0.00    -0.014 A 
ATOM     77  C   UNL A   1      39.943  32.645  37.362  1.00  0.00     0.009 A 
ATOM     78  C   UNL A   1      41.280  34.625  37.022  1.00  0.00     0.009 A 
ATOM     79  C   UNL A   1      39.415  33.194  38.539  1.00  0.00     0.001 A 
ATOM     80  C   UNL A   1      40.764  35.162  38.213  1.00  0.00     0.001 A 
ATOM     81  C   UNL A   1      39.849  34.440  38.981  1.00  0.00     0.000 A 
ENDBRANCH  57  76
BRANCH  69  82
ATOM     82  C   UNL A   1      42.637  26.528  34.753  1.00  0.00    -0.014 A 
ATOM     83  C   UNL A   1      41.670  25.864  35.518  1.00  0.00     0.009 A 
ATOM     84  C   UNL A   1      43.661  25.745  34.181  1.00  0.00     0.009 A 
ATOM     85  C   UNL A   1      41.747  24.486  35.736  1.00  0.00     0.001 A 
ATOM     86  C   UNL A   1      43.706  24.363  34.347  1.00  0.00     0.001 A 
ATOM     87  C   UNL A   1      42.754  23.735  35.138  1.00  0.00     0.000 A 
ENDBRANCH  69  82
ENDBRANCH  43  44
ENDBRANCH  36  38
ENDBRANCH  35  36
ENDBRANCH  34  35
ENDBRANCH  33  34
ENDBRANCH   1  33
TORSDOF 16
ENDMDL
MODEL 2
REMARK VINA RESULT:     -11.8      3.652      5.600
REMARK SMILES Cc1ccc([C@H]2NC(=O)N(C)C3=C2C(=O)N(c2cccc(C(=O)OCCOCCOC(=O)c4ccc(-c5c6nc(c(-c7ccccc7)c7ccc([nH]7)c(-c7ccccc7)c7nc(c(-c8ccccc8)c8ccc5[nH]8)C=C7)C=C6)cc4)c2)C3)cc1
REMARK SMILES IDX 27 1 26 2 25 3 24 4 22 5 23 6 21 7 17 8 18 9 81 10 19 11
REMARK SMILES IDX 20 12 16 13 6 14 7 15 13 16 8 17 12 19 14 20 9 21 10 22
REMARK SMILES IDX 82 23 15 24 11 25 5 26 1 27 2 28 3 29 84 30 4 31 83 32 28 33
REMARK SMILES IDX 29 34 30 35 31 36 32 37 33 38 34 39 80 40 35 41 79 42 36 43
REMARK SMILES IDX 37 44 38 45 73 46 39 47 78 48 72 49 74 50 40 51 77 52 71 53
REMARK SMILES IDX 70 54 41 56 63 57 48 58 62 59 49 60 52 61 61 62 75 63 50 64
REMARK SMILES IDX 51 65 60 67 76 68 53 69 42 70 43 71 47 72 44 73 46 74 45 75
REMARK SMILES IDX 64 76 65 77 69 78 66 79 68 80 67 81 54 82 55 83 59 84 56 85
REMARK SMILES IDX 58 86 57 87
REMARK H PARENT 7 18 74 55 52 66
REMARK Flexibility Score: inf
ROOT
ATOM      1  O   UNL A   1      34.137  32.824  29.974  1.00  0.00    -0.374 OA
ENDROOT
BRANCH   1   2
ATOM      2  C   UNL A   1      34.111  33.206  28.605  1.00  0.00     0.202 C 
BRANCH   2   3
ATOM      3  C   UNL A   1      34.646  32.030  27.843  1.00  0.00     0.261 C 
BRANCH   3   4
ATOM      4  O   UNL A   1      33.625  31.044  27.645  1.00  0.00    -0.460 OA
BRANCH   4   5
ATOM      5  C   UNL A   1      34.019  29.795  27.265  1.00  0.00     0.338 C 
ATOM      6  O   UNL A   1      34.900  29.115  27.715  1.00  0.00    -0.246 OA
BRANCH   5   7
ATOM      7  C   UNL A   1      33.034  29.339  26.268  1.00  0.00     0.062 A 
ATOM      8  C   UNL A   1      32.048  27.455  25.154  1.00  0.00     0.045 A 
ATOM      9  C   UNL A   1      31.089  28.301  24.587  1.00  0.00     0.026 A 
ATOM     10  C   UNL A   1      33.027  27.977  25.991  1.00  0.00     0.042 A 
ATOM     11  C   UNL A   1      31.100  29.669  24.867  1.00  0.00     0.003 A 
ATOM     12  C   UNL A   1      32.085  30.193  25.697  1.00  0.00     0.016 A 
BRANCH   8  13
ATOM     13  N   UNL A   1      32.057  26.088  24.867  1.00  0.00    -0.303 N 
ATOM     14  C   UNL A   1      33.776  23.034  23.735  1.00  0.00     0.152 C 
ATOM     15  N   UNL A   1      33.136  21.741  23.952  1.00  0.00    -0.327 N 
ATOM     16  C   UNL A   1      32.848  24.069  24.205  1.00  0.00     0.066 C 
ATOM     17  C   UNL A   1      32.108  21.472  24.816  1.00  0.00     0.322 C 
ATOM     18  H   UNL A   1      33.479  20.984  23.424  1.00  0.00     0.166 HD
ATOM     19  C   UNL A   1      31.848  23.853  25.058  1.00  0.00     0.053 C 
ATOM     20  C   UNL A   1      32.948  25.505  23.976  1.00  0.00     0.258 C 
ATOM     21  O   UNL A   1      31.768  20.306  24.998  1.00  0.00    -0.248 OA
ATOM     22  N   UNL A   1      31.488  22.572  25.408  1.00  0.00    -0.299 N 
ATOM     23  C   UNL A   1      31.291  25.114  25.609  1.00  0.00     0.180 C 
ATOM     24  O   UNL A   1      33.729  26.027  23.202  1.00  0.00    -0.269 OA
ATOM     25  C   UNL A   1      30.399  22.351  26.345  1.00  0.00     0.155 C 
BRANCH  14  26
ATOM     26  C   UNL A   1      35.149  23.054  24.410  1.00  0.00    -0.021 A 
ATOM     27  C   UNL A   1      38.983  23.222  26.435  1.00  0.00     0.044 C 
ATOM     28  C   UNL A   1      37.661  23.160  25.729  1.00  0.00    -0.051 A 
ATOM     29  C   UNL A   1      36.613  24.001  26.118  1.00  0.00     0.004 A 
ATOM     30  C   UNL A   1      37.454  22.273  24.672  1.00  0.00     0.004 A 
ATOM     31  C   UNL A   1      35.374  23.946  25.471  1.00  0.00     0.006 A 
ATOM     32  C   UNL A   1      36.219  22.227  24.016  1.00  0.00     0.006 A 
ENDBRANCH  14  26
ENDBRANCH   8  13
ENDBRANCH   5   7
ENDBRANCH   4   5
ENDBRANCH   3   4
ENDBRANCH   2   3
ENDBRANCH   1   2
BRANCH   1  33
ATOM     33  C   UNL A   1      35.257  33.267  30.715  1.00  0.00     0.202 C 
BRANCH  33  34
ATOM     34  C   UNL A   1      36.049  32.123  31.363  1.00  0.00     0.261 C 
BRANCH  34  35
ATOM     35  O   UNL A   1      36.014  30.958  30.511  1.00  0.00    -0.460 OA
BRANCH  35  36
ATOM     36  C   UNL A   1      36.816  29.920  30.881  1.00  0.00     0.338 C 
ATOM     37  O   UNL A   1      36.654  29.215  31.864  1.00  0.00    -0.246 OA
BRANCH  36  38
ATOM     38  C   UNL A   1      38.077  29.959  30.085  1.00  0.00     0.060 A 
ATOM     39  C   UNL A   1      38.056  29.645  28.711  1.00  0.00     0.016 A 
ATOM     40  C   UNL A   1      39.287  29.973  30.774  1.00  0.00     0.016 A 
ATOM     41  C   UNL A   1      39.226  29.208  28.068  1.00  0.00     0.010 A 
ATOM     42  C   UNL A   1      40.401  29.432  30.171  1.00  0.00     0.010 A 
ATOM     43  C   UNL A   1      40.385  29.037  28.824  1.00  0.00    -0.014 A 
BRANCH  43  44
ATOM     44  C   UNL A   1      41.613  28.370  28.384  1.00  0.00     0.031 A 
ATOM     45  C   UNL A   1      41.681  26.896  28.435  1.00  0.00     0.074 A 
ATOM     46  C   UNL A   1      42.585  29.040  27.721  1.00  0.00     0.049 A 
ATOM     47  N   UNL A   1      42.788  26.237  28.442  1.00  0.00    -0.248 NA
ATOM     48  C   UNL A   1      40.505  26.033  28.530  1.00  0.00     0.031 C 
ATOM     49  C   UNL A   1      43.571  28.506  26.783  1.00  0.00     0.029 A 
ATOM     50  N   UNL A   1      42.897  30.392  27.778  1.00  0.00    -0.354 N 
ATOM     51  C   UNL A   1      42.475  24.924  28.190  1.00  0.00     0.074 A 
ATOM     52  C   UNL A   1      41.049  24.824  28.373  1.00  0.00     0.031 C 
ATOM     53  C   UNL A   1      44.483  29.453  26.499  1.00  0.00     0.029 A 
ATOM     54  C   UNL A   1      44.206  30.605  27.343  1.00  0.00     0.049 A 
ATOM     55  H   UNL A   1      42.282  31.099  28.081  1.00  0.00     0.167 HD
ATOM     56  C   UNL A   1      43.429  24.098  27.678  1.00  0.00     0.031 A 
ATOM     57  C   UNL A   1      45.077  31.292  28.128  1.00  0.00     0.031 A 
ATOM     58  C   UNL A   1      44.686  24.817  27.433  1.00  0.00     0.049 A 
ATOM     59  C   UNL A   1      46.118  30.333  28.633  1.00  0.00     0.074 A 
ATOM     60  C   UNL A   1      45.272  25.301  26.274  1.00  0.00     0.029 A 
ATOM     61  N   UNL A   1      45.346  25.442  28.491  1.00  0.00    -0.354 N 
ATOM     62  N   UNL A   1      45.949  29.040  28.580  1.00  0.00    -0.248 NA
ATOM     63  C   UNL A   1      47.419  30.699  29.180  1.00  0.00     0.031 C 
ATOM     64  C   UNL A   1      46.255  26.260  26.643  1.00  0.00     0.029 A 
ATOM     65  C   UNL A   1      46.295  26.336  28.026  1.00  0.00     0.049 A 
ATOM     66  H   UNL A   1      45.162  25.270  29.442  1.00  0.00     0.167 HD
ATOM     67  C   UNL A   1      47.075  28.407  28.989  1.00  0.00     0.074 A 
ATOM     68  C   UNL A   1      47.962  29.485  29.395  1.00  0.00     0.031 C 
ATOM     69  C   UNL A   1      47.171  27.050  28.954  1.00  0.00     0.031 A 
BRANCH  56  70
ATOM     70  C   UNL A   1      43.108  22.731  27.115  1.00  0.00    -0.014 A 
ATOM     71  C   UNL A   1      42.232  21.875  27.805  1.00  0.00     0.009 A 
ATOM     72  C   UNL A   1      43.645  22.220  25.918  1.00  0.00     0.009 A 
ATOM     73  C   UNL A   1      41.983  20.563  27.375  1.00  0.00     0.001 A 
ATOM     74  C   UNL A   1      43.441  20.895  25.508  1.00  0.00     0.001 A 
ATOM     75  C   UNL A   1      42.610  20.063  26.242  1.00  0.00     0.000 A 
ENDBRANCH  56  70
BRANCH  57  76
ATOM     76  C   UNL A   1      44.424  32.420  28.865  1.00  0.00    -0.014 A 
ATOM     77  C   UNL A   1      44.068  33.568  28.120  1.00  0.00     0.009 A 
ATOM     78  C   UNL A   1      43.773  32.208  30.092  1.00  0.00     0.009 A 
ATOM     79  C   UNL A   1      43.039  34.420  28.544  1.00  0.00     0.001 A 
ATOM     80  C   UNL A   1      42.727  33.053  30.501  1.00  0.00     0.001 A 
ATOM     81  C   UNL A   1      42.347  34.144  29.720  1.00  0.00     0.000 A 
ENDBRANCH  57  76
BRANCH  69  82
ATOM     82  C   UNL A   1      48.161  26.263  29.757  1.00  0.00    -0.014 A 
ATOM     83  C   UNL A   1      49.372  25.794  29.234  1.00  0.00     0.009 A 
ATOM     84  C   UNL A   1      47.970  26.146  31.150  1.00  0.00     0.009 A 
ATOM     85  C   UNL A   1      50.331  25.199  30.057  1.00  0.00     0.001 A 
ATOM     86  C   UNL A   1      48.948  25.607  31.981  1.00  0.00     0.001 A 
ATOM     87  C   UNL A   1      50.125  25.120  31.431  1.00  0.00     0.000 A 
ENDBRANCH  69  82
ENDBRANCH  43  44
ENDBRANCH  36  38
ENDBRANCH  35  36
ENDBRANCH  34  35
ENDBRANCH  33  34
ENDBRANCH   1  33
TORSDOF 16
ENDMDL
MODEL 3
REMARK VINA RESULT:     -11.6      2.974      7.914
REMARK SMILES Cc1ccc([C@H]2NC(=O)N(C)C3=C2C(=O)N(c2cccc(C(=O)OCCOCCOC(=O)c4ccc(-c5c6nc(c(-c7ccccc7)c7ccc([nH]7)c(-c7ccccc7)c7nc(c(-c8ccccc8)c8ccc5[nH]8)C=C7)C=C6)cc4)c2)C3)cc1
REMARK SMILES IDX 27 1 26 2 25 3 24 4 22 5 23 6 21 7 17 8 18 9 81 10 19 11
REMARK SMILES IDX 20 12 16 13 6 14 7 15 13 16 8 17 12 19 14 20 9 21 10 22
REMARK SMILES IDX 82 23 15 24 11 25 5 26 1 27 2 28 3 29 84 30 4 31 83 32 28 33
REMARK SMILES IDX 29 34 30 35 31 36 32 37 33 38 34 39 80 40 35 41 79 42 36 43
REMARK SMILES IDX 37 44 38 45 73 46 39 47 78 48 72 49 74 50 40 51 77 52 71 53
REMARK SMILES IDX 70 54 41 56 63 57 48 58 62 59 49 60 52 61 61 62 75 63 50 64
REMARK SMILES IDX 51 65 60 67 76 68 53 69 42 70 43 71 47 72 44 73 46 74 45 75
REMARK SMILES IDX 64 76 65 77 69 78 66 79 68 80 67 81 54 82 55 83 59 84 56 85
REMARK SMILES IDX 58 86 57 87
REMARK H PARENT 7 18 74 55 52 66
REMARK Flexibility Score: inf
ROOT
ATOM      1  O   UNL A   1      39.150  23.921  27.605  1.00  0.00    -0.374 OA
ENDROOT
BRANCH   1   2
ATOM      2  C   UNL A   1      37.963  24.027  26.831  1.00  0.00     0.202 C 
BRANCH   2   3
ATOM      3  C   UNL A   1      38.266  23.356  25.524  1.00  0.00     0.261 C 
BRANCH   3   4
ATOM      4  O   UNL A   1      37.080  22.792  24.953  1.00  0.00    -0.460 OA
BRANCH   4   5
ATOM      5  C   UNL A   1      36.910  21.444  25.056  1.00  0.00     0.338 C 
ATOM      6  O   UNL A   1      37.718  20.602  25.336  1.00  0.00    -0.246 OA
BRANCH   5   7
ATOM      7  C   UNL A   1      35.462  21.201  24.913  1.00  0.00     0.062 A 
ATOM      8  C   UNL A   1      33.333  22.130  24.310  1.00  0.00     0.045 A 
ATOM      9  C   UNL A   1      32.763  20.855  24.385  1.00  0.00     0.026 A 
ATOM     10  C   UNL A   1      34.684  22.305  24.581  1.00  0.00     0.042 A 
ATOM     11  C   UNL A   1      33.547  19.750  24.720  1.00  0.00     0.003 A 
ATOM     12  C   UNL A   1      34.898  19.924  24.999  1.00  0.00     0.016 A 
BRANCH   8  13
ATOM     13  N   UNL A   1      32.554  23.246  23.994  1.00  0.00    -0.303 N 
ATOM     14  C   UNL A   1      30.977  26.449  24.900  1.00  0.00     0.152 C 
ATOM     15  N   UNL A   1      30.434  27.294  23.842  1.00  0.00    -0.327 N 
ATOM     16  C   UNL A   1      31.466  25.216  24.273  1.00  0.00     0.066 C 
ATOM     17  C   UNL A   1      30.714  27.209  22.504  1.00  0.00     0.322 C 
ATOM     18  H   UNL A   1      29.804  27.998  24.119  1.00  0.00     0.166 HD
ATOM     19  C   UNL A   1      31.767  25.098  22.980  1.00  0.00     0.053 C 
ATOM     20  C   UNL A   1      31.870  23.989  24.948  1.00  0.00     0.258 C 
ATOM     21  O   UNL A   1      30.295  28.081  21.748  1.00  0.00    -0.248 OA
ATOM     22  N   UNL A   1      31.439  26.093  22.089  1.00  0.00    -0.299 N 
ATOM     23  C   UNL A   1      32.542  23.865  22.689  1.00  0.00     0.180 C 
ATOM     24  O   UNL A   1      31.682  23.758  26.127  1.00  0.00    -0.269 OA
ATOM     25  C   UNL A   1      31.779  25.953  20.682  1.00  0.00     0.155 C 
BRANCH  14  26
ATOM     26  C   UNL A   1      32.031  27.223  25.694  1.00  0.00    -0.021 A 
ATOM     27  C   UNL A   1      35.128  29.394  27.820  1.00  0.00     0.044 C 
ATOM     28  C   UNL A   1      34.053  28.643  27.092  1.00  0.00    -0.051 A 
ATOM     29  C   UNL A   1      34.328  28.031  25.865  1.00  0.00     0.004 A 
ATOM     30  C   UNL A   1      32.768  28.536  27.625  1.00  0.00     0.004 A 
ATOM     31  C   UNL A   1      33.331  27.334  25.174  1.00  0.00     0.006 A 
ATOM     32  C   UNL A   1      31.774  27.828  26.940  1.00  0.00     0.006 A 
ENDBRANCH  14  26
ENDBRANCH   8  13
ENDBRANCH   5   7
ENDBRANCH   4   5
ENDBRANCH   3   4
ENDBRANCH   2   3
ENDBRANCH   1   2
BRANCH   1  33
ATOM     33  C   UNL A   1      40.233  23.260  26.982  1.00  0.00     0.202 C 
BRANCH  33  34
ATOM     34  C   UNL A   1      41.489  24.134  26.859  1.00  0.00     0.261 C 
BRANCH  34  35
ATOM     35  O   UNL A   1      41.215  25.460  27.360  1.00  0.00    -0.460 OA
BRANCH  35  36
ATOM     36  C   UNL A   1      41.125  26.448  26.426  1.00  0.00     0.338 C 
ATOM     37  O   UNL A   1      41.710  26.467  25.356  1.00  0.00    -0.246 OA
BRANCH  36  38
ATOM     38  C   UNL A   1      40.450  27.637  27.025  1.00  0.00     0.060 A 
ATOM     39  C   UNL A   1      41.196  28.794  27.329  1.00  0.00     0.016 A 
ATOM     40  C   UNL A   1      39.185  27.463  27.579  1.00  0.00     0.016 A 
ATOM     41  C   UNL A   1      40.731  29.701  28.295  1.00  0.00     0.010 A 
ATOM     42  C   UNL A   1      38.791  28.290  28.608  1.00  0.00     0.010 A 
ATOM     43  C   UNL A   1      39.555  29.405  28.985  1.00  0.00    -0.014 A 
BRANCH  43  44
ATOM     44  C   UNL A   1      39.054  30.097  30.175  1.00  0.00     0.031 A 
ATOM     45  C   UNL A   1      38.276  31.340  30.001  1.00  0.00     0.074 A 
ATOM     46  C   UNL A   1      39.083  29.516  31.398  1.00  0.00     0.049 A 
ATOM     47  N   UNL A   1      38.116  32.213  30.936  1.00  0.00    -0.248 NA
ATOM     48  C   UNL A   1      37.644  31.731  28.743  1.00  0.00     0.031 C 
ATOM     49  C   UNL A   1      38.212  29.779  32.543  1.00  0.00     0.029 A 
ATOM     50  N   UNL A   1      39.951  28.542  31.873  1.00  0.00    -0.354 N 
ATOM     51  C   UNL A   1      37.113  33.057  30.529  1.00  0.00     0.074 A 
ATOM     52  C   UNL A   1      36.937  32.798  29.121  1.00  0.00     0.031 C 
ATOM     53  C   UNL A   1      38.690  29.144  33.628  1.00  0.00     0.029 A 
ATOM     54  C   UNL A   1      39.967  28.548  33.268  1.00  0.00     0.049 A 
ATOM     55  H   UNL A   1      40.479  27.934  31.306  1.00  0.00     0.167 HD
ATOM     56  C   UNL A   1      36.413  33.760  31.462  1.00  0.00     0.031 A 
ATOM     57  C   UNL A   1      41.150  28.647  33.931  1.00  0.00     0.031 A 
ATOM     58  C   UNL A   1      36.859  33.434  32.823  1.00  0.00     0.049 A 
ATOM     59  C   UNL A   1      41.209  29.993  34.598  1.00  0.00     0.074 A 
ATOM     60  C   UNL A   1      36.311  32.639  33.818  1.00  0.00     0.029 A 
ATOM     61  N   UNL A   1      38.186  33.656  33.192  1.00  0.00    -0.354 N 
ATOM     62  N   UNL A   1      40.404  30.964  34.264  1.00  0.00    -0.248 NA
ATOM     63  C   UNL A   1      42.099  30.362  35.692  1.00  0.00     0.031 C 
ATOM     64  C   UNL A   1      37.334  32.343  34.760  1.00  0.00     0.029 A 
ATOM     65  C   UNL A   1      38.495  32.986  34.362  1.00  0.00     0.049 A 
ATOM     66  H   UNL A   1      38.818  34.216  32.687  1.00  0.00     0.167 HD
ATOM     67  C   UNL A   1      40.585  32.023  35.089  1.00  0.00     0.074 A 
ATOM     68  C   UNL A   1      41.687  31.619  35.948  1.00  0.00     0.031 C 
ATOM     69  C   UNL A   1      39.808  33.136  34.987  1.00  0.00     0.031 A 
BRANCH  56  70
ATOM     70  C   UNL A   1      35.128  34.490  31.139  1.00  0.00    -0.014 A 
ATOM     71  C   UNL A   1      34.455  35.204  32.145  1.00  0.00     0.009 A 
ATOM     72  C   UNL A   1      34.520  34.502  29.870  1.00  0.00     0.009 A 
ATOM     73  C   UNL A   1      33.211  35.812  31.919  1.00  0.00     0.001 A 
ATOM     74  C   UNL A   1      33.255  35.063  29.647  1.00  0.00     0.001 A 
ATOM     75  C   UNL A   1      32.597  35.717  30.677  1.00  0.00     0.000 A 
ENDBRANCH  56  70
BRANCH  57  76
ATOM     76  C   UNL A   1      42.257  27.902  33.252  1.00  0.00    -0.014 A 
ATOM     77  C   UNL A   1      43.123  28.641  32.414  1.00  0.00     0.009 A 
ATOM     78  C   UNL A   1      42.718  26.671  33.747  1.00  0.00     0.009 A 
ATOM     79  C   UNL A   1      44.432  28.208  32.157  1.00  0.00     0.001 A 
ATOM     80  C   UNL A   1      44.036  26.251  33.504  1.00  0.00     0.001 A 
ATOM     81  C   UNL A   1      44.898  27.027  32.728  1.00  0.00     0.000 A 
ENDBRANCH  57  76
BRANCH  69  82
ATOM     82  C   UNL A   1      40.194  34.475  35.536  1.00  0.00    -0.014 A 
ATOM     83  C   UNL A   1      39.679  34.991  36.731  1.00  0.00     0.009 A 
ATOM     84  C   UNL A   1      41.263  35.175  34.937  1.00  0.00     0.009 A 
ATOM     85  C   UNL A   1      40.180  36.174  37.281  1.00  0.00     0.001 A 
ATOM     86  C   UNL A   1      41.804  36.320  35.514  1.00  0.00     0.001 A 
ATOM     87  C   UNL A   1      41.252  36.828  36.681  1.00  0.00     0.000 A 
ENDBRANCH  69  82
ENDBRANCH  43  44
ENDBRANCH  36  38
ENDBRANCH  35  36
ENDBRANCH  34  35
ENDBRANCH  33  34
ENDBRANCH   1  33
TORSDOF 16
ENDMDL
