MODEL 1
REMARK VINA RESULT:     -12.0      0.000      0.000
REMARK SMILES O=C(OCCOCCOC(=O)c1nnn(-c2cccc(Br)c2)c1[C@@H]1COc2ccccc2O1)c1ccc(-c2c3nc(c(-c4ccccc4)c4ccc([nH]4)c(-c4ccccc4)c4nc(c(-c5ccccc5)c5ccc2[nH]5)C=C4)C=C3)cc1
REMARK SMILES IDX 5 1 4 2 3 3 2 4 1 5 34 6 35 7 81 8 36 9 80 10 37 11 38 12
REMARK SMILES IDX 39 13 74 14 40 15 79 16 73 17 75 18 41 19 78 20 72 21 71 22
REMARK SMILES IDX 42 24 64 25 49 26 63 27 50 28 53 29 62 30 76 31 51 32 52 33
REMARK SMILES IDX 61 35 77 36 54 37 43 38 44 39 48 40 45 41 47 42 46 43 65 44
REMARK SMILES IDX 66 45 70 46 67 47 69 48 68 49 55 50 56 51 60 52 57 53 59 54
REMARK SMILES IDX 58 55 6 56 7 57 8 58 9 59 10 60 11 61 12 62 13 63 23 64
REMARK SMILES IDX 14 65 15 66 24 67 25 68 33 69 26 70 32 71 27 72 31 73 28 74
REMARK SMILES IDX 30 75 29 76 16 77 17 78 22 79 18 80 20 81 19 82 21 83
REMARK H PARENT 75 23 53 34
REMARK Flexibility Score: inf
ROOT
ATOM      1  C   UNL A   1      36.908  21.099  24.978  1.00  0.00     0.202 C 
ENDROOT
BRANCH   1   2
ATOM      2  C   UNL A   1      38.378  21.105  25.412  1.00  0.00     0.261 C 
BRANCH   2   3
ATOM      3  O   UNL A   1      38.632  21.945  26.545  1.00  0.00    -0.460 OA
BRANCH   3   4
ATOM      4  C   UNL A   1      39.844  22.225  27.071  1.00  0.00     0.338 C 
ATOM      5  O   UNL A   1      40.544  21.309  27.500  1.00  0.00    -0.246 OA
BRANCH   4   6
ATOM      6  C   UNL A   1      40.320  23.622  27.319  1.00  0.00     0.060 A 
ATOM      7  C   UNL A   1      41.386  23.994  28.139  1.00  0.00     0.016 A 
ATOM      8  C   UNL A   1      39.545  24.642  26.730  1.00  0.00     0.016 A 
ATOM      9  C   UNL A   1      41.582  25.323  28.482  1.00  0.00     0.010 A 
ATOM     10  C   UNL A   1      39.751  25.980  27.052  1.00  0.00     0.010 A 
ATOM     11  C   UNL A   1      40.724  26.305  27.993  1.00  0.00    -0.014 A 
BRANCH  11  12
ATOM     12  C   UNL A   1      40.840  27.628  28.591  1.00  0.00     0.031 A 
ATOM     13  C   UNL A   1      41.852  28.558  28.027  1.00  0.00     0.074 A 
ATOM     14  C   UNL A   1      40.065  28.008  29.624  1.00  0.00     0.049 A 
ATOM     15  N   UNL A   1      42.865  29.098  28.626  1.00  0.00    -0.248 NA
ATOM     16  C   UNL A   1      41.730  28.907  26.605  1.00  0.00     0.031 C 
ATOM     17  C   UNL A   1      38.865  27.345  30.142  1.00  0.00     0.029 A 
ATOM     18  N   UNL A   1      40.145  29.146  30.371  1.00  0.00    -0.354 N 
ATOM     19  C   UNL A   1      43.432  29.976  27.705  1.00  0.00     0.074 A 
ATOM     20  C   UNL A   1      42.749  29.754  26.454  1.00  0.00     0.031 C 
ATOM     21  C   UNL A   1      38.203  28.202  30.947  1.00  0.00     0.029 A 
ATOM     22  C   UNL A   1      39.002  29.406  31.106  1.00  0.00     0.049 A 
ATOM     23  H   UNL A   1      40.939  29.727  30.386  1.00  0.00     0.167 HD
ATOM     24  C   UNL A   1      44.301  30.960  28.067  1.00  0.00     0.031 A 
ATOM     25  C   UNL A   1      38.689  30.560  31.736  1.00  0.00     0.031 A 
ATOM     26  C   UNL A   1      44.902  30.733  29.351  1.00  0.00     0.049 A 
ATOM     27  C   UNL A   1      39.934  31.328  31.953  1.00  0.00     0.074 A 
ATOM     28  C   UNL A   1      45.706  29.754  29.900  1.00  0.00     0.029 A 
ATOM     29  N   UNL A   1      44.459  31.485  30.411  1.00  0.00    -0.354 N 
ATOM     30  N   UNL A   1      40.866  30.973  32.789  1.00  0.00    -0.248 NA
ATOM     31  C   UNL A   1      40.330  32.317  30.964  1.00  0.00     0.031 C 
ATOM     32  C   UNL A   1      45.323  29.683  31.272  1.00  0.00     0.029 A 
ATOM     33  C   UNL A   1      44.317  30.630  31.471  1.00  0.00     0.049 A 
ATOM     34  H   UNL A   1      44.280  32.453  30.409  1.00  0.00     0.167 HD
ATOM     35  C   UNL A   1      42.054  31.363  32.187  1.00  0.00     0.074 A 
ATOM     36  C   UNL A   1      41.654  32.297  31.139  1.00  0.00     0.031 C 
ATOM     37  C   UNL A   1      43.216  30.680  32.408  1.00  0.00     0.031 A 
BRANCH  24  38
ATOM     38  C   UNL A   1      44.344  32.311  27.396  1.00  0.00    -0.014 A 
ATOM     39  C   UNL A   1      43.755  33.416  28.035  1.00  0.00     0.009 A 
ATOM     40  C   UNL A   1      44.693  32.473  26.043  1.00  0.00     0.009 A 
ATOM     41  C   UNL A   1      43.478  34.599  27.338  1.00  0.00     0.001 A 
ATOM     42  C   UNL A   1      44.459  33.668  25.355  1.00  0.00     0.001 A 
ATOM     43  C   UNL A   1      43.826  34.722  25.997  1.00  0.00     0.000 A 
ENDBRANCH  24  38
BRANCH  25  44
ATOM     44  C   UNL A   1      37.339  31.134  31.900  1.00  0.00    -0.014 A 
ATOM     45  C   UNL A   1      36.926  31.689  33.118  1.00  0.00     0.009 A 
ATOM     46  C   UNL A   1      36.523  31.343  30.772  1.00  0.00     0.009 A 
ATOM     47  C   UNL A   1      35.744  32.436  33.197  1.00  0.00     0.001 A 
ATOM     48  C   UNL A   1      35.340  32.081  30.851  1.00  0.00     0.001 A 
ATOM     49  C   UNL A   1      34.956  32.638  32.064  1.00  0.00     0.000 A 
ENDBRANCH  25  44
BRANCH  37  50
ATOM     50  C   UNL A   1      43.228  29.653  33.513  1.00  0.00    -0.014 A 
ATOM     51  C   UNL A   1      43.453  30.004  34.856  1.00  0.00     0.009 A 
ATOM     52  C   UNL A   1      42.854  28.333  33.222  1.00  0.00     0.009 A 
ATOM     53  C   UNL A   1      43.346  29.053  35.874  1.00  0.00     0.001 A 
ATOM     54  C   UNL A   1      42.727  27.386  34.244  1.00  0.00     0.001 A 
ATOM     55  C   UNL A   1      42.979  27.745  35.567  1.00  0.00     0.000 A 
ENDBRANCH  37  50
ENDBRANCH  11  12
ENDBRANCH   4   6
ENDBRANCH   3   4
ENDBRANCH   2   3
ENDBRANCH   1   2
BRANCH   1  56
ATOM     56  O   UNL A   1      36.574  21.869  23.824  1.00  0.00    -0.374 OA
BRANCH  56  57
ATOM     57  C   UNL A   1      36.727  23.295  23.894  1.00  0.00     0.202 C 
BRANCH  57  58
ATOM     58  C   UNL A   1      36.148  23.971  25.134  1.00  0.00     0.261 C 
BRANCH  58  59
ATOM     59  O   UNL A   1      35.001  24.739  24.735  1.00  0.00    -0.458 OA
BRANCH  59  60
ATOM     60  C   UNL A   1      33.874  24.531  25.455  1.00  0.00     0.361 C 
ATOM     61  O   UNL A   1      33.187  25.418  25.964  1.00  0.00    -0.244 OA
BRANCH  60  62
ATOM     62  C   UNL A   1      33.518  23.135  25.539  1.00  0.00     0.198 A 
ATOM     63  N   UNL A   1      33.694  22.399  26.688  1.00  0.00    -0.122 NA
ATOM     64  C   UNL A   1      32.997  22.316  24.554  1.00  0.00     0.123 A 
ATOM     65  N   UNL A   1      33.350  21.143  26.431  1.00  0.00    -0.061 NA
ATOM     66  N   UNL A   1      33.125  21.052  25.104  1.00  0.00    -0.213 N 
BRANCH  64  67
ATOM     67  C   UNL A   1      32.337  22.550  23.235  1.00  0.00     0.262 C 
ATOM     68  C   UNL A   1      33.208  23.086  22.103  1.00  0.00     0.281 C 
ATOM     69  O   UNL A   1      31.163  23.319  23.499  1.00  0.00    -0.477 OA
ATOM     70  O   UNL A   1      33.469  24.486  22.171  1.00  0.00    -0.485 OA
ATOM     71  C   UNL A   1      31.265  24.641  23.182  1.00  0.00     0.162 A 
ATOM     72  C   UNL A   1      32.354  25.199  22.518  1.00  0.00     0.161 A 
ATOM     73  C   UNL A   1      30.204  25.453  23.578  1.00  0.00     0.050 A 
ATOM     74  C   UNL A   1      32.379  26.566  22.240  1.00  0.00     0.050 A 
ATOM     75  C   UNL A   1      30.233  26.821  23.312  1.00  0.00     0.004 A 
ATOM     76  C   UNL A   1      31.317  27.379  22.638  1.00  0.00     0.004 A 
ENDBRANCH  64  67
BRANCH  66  77
ATOM     77  C   UNL A   1      33.200  19.821  24.421  1.00  0.00     0.068 A 
ATOM     78  C   UNL A   1      32.378  19.615  23.300  1.00  0.00     0.028 A 
ATOM     79  C   UNL A   1      34.054  18.814  24.874  1.00  0.00     0.044 A 
ATOM     80  C   UNL A   1      32.348  18.372  22.676  1.00  0.00     0.003 A 
ATOM     81  C   UNL A   1      33.992  17.564  24.256  1.00  0.00     0.020 A 
ATOM     82  C   UNL A   1      33.141  17.338  23.171  1.00  0.00     0.016 A 
ATOM     83  Br  UNL A   1      35.035  16.136  24.924  1.00  0.00    -0.051 Br
ENDBRANCH  66  77
ENDBRANCH  60  62
ENDBRANCH  59  60
ENDBRANCH  58  59
ENDBRANCH  57  58
ENDBRANCH  56  57
ENDBRANCH   1  56
TORSDOF 16
ENDMDL
MODEL 2
REMARK VINA RESULT:     -11.8      2.643      4.421
REMARK SMILES O=C(OCCOCCOC(=O)c1nnn(-c2cccc(Br)c2)c1[C@@H]1COc2ccccc2O1)c1ccc(-c2c3nc(c(-c4ccccc4)c4ccc([nH]4)c(-c4ccccc4)c4nc(c(-c5ccccc5)c5ccc2[nH]5)C=C4)C=C3)cc1
REMARK SMILES IDX 5 1 4 2 3 3 2 4 1 5 34 6 35 7 81 8 36 9 80 10 37 11 38 12
REMARK SMILES IDX 39 13 74 14 40 15 79 16 73 17 75 18 41 19 78 20 72 21 71 22
REMARK SMILES IDX 42 24 64 25 49 26 63 27 50 28 53 29 62 30 76 31 51 32 52 33
REMARK SMILES IDX 61 35 77 36 54 37 43 38 44 39 48 40 45 41 47 42 46 43 65 44
REMARK SMILES IDX 66 45 70 46 67 47 69 48 68 49 55 50 56 51 60 52 57 53 59 54
REMARK SMILES IDX 58 55 6 56 7 57 8 58 9 59 10 60 11 61 12 62 13 63 23 64
REMARK SMILES IDX 14 65 15 66 24 67 25 68 33 69 26 70 32 71 27 72 31 73 28 74
REMARK SMILES IDX 30 75 29 76 16 77 17 78 22 79 18 80 20 81 19 82 21 83
REMARK H PARENT 75 23 53 34
REMARK Flexibility Score: inf
ROOT
ATOM      1  C   UNL A   1      37.785  23.543  25.984  1.00  0.00     0.202 C 
ENDROOT
BRANCH   1   2
ATOM      2  C   UNL A   1      38.632  22.284  26.205  1.00  0.00     0.261 C 
BRANCH   2   3
ATOM      3  O   UNL A   1      39.797  22.517  27.006  1.00  0.00    -0.460 OA
BRANCH   3   4
ATOM      4  C   UNL A   1      40.936  23.117  26.596  1.00  0.00     0.338 C 
ATOM      5  O   UNL A   1      41.784  22.460  25.994  1.00  0.00    -0.246 OA
BRANCH   4   6
ATOM      6  C   UNL A   1      41.304  24.514  26.985  1.00  0.00     0.060 A 
ATOM      7  C   UNL A   1      41.922  24.900  28.175  1.00  0.00     0.016 A 
ATOM      8  C   UNL A   1      40.894  25.523  26.089  1.00  0.00     0.016 A 
ATOM      9  C   UNL A   1      41.995  26.239  28.530  1.00  0.00     0.010 A 
ATOM     10  C   UNL A   1      40.985  26.869  26.429  1.00  0.00     0.010 A 
ATOM     11  C   UNL A   1      41.465  27.215  27.689  1.00  0.00    -0.014 A 
BRANCH  11  12
ATOM     12  C   UNL A   1      41.355  28.559  28.240  1.00  0.00     0.031 A 
ATOM     13  C   UNL A   1      42.500  29.485  28.046  1.00  0.00     0.074 A 
ATOM     14  C   UNL A   1      40.259  28.962  28.910  1.00  0.00     0.049 A 
ATOM     15  N   UNL A   1      43.228  30.059  28.949  1.00  0.00    -0.248 NA
ATOM     16  C   UNL A   1      42.900  29.784  26.664  1.00  0.00     0.031 C 
ATOM     17  C   UNL A   1      38.954  28.298  28.983  1.00  0.00     0.029 A 
ATOM     18  N   UNL A   1      40.062  30.125  29.592  1.00  0.00    -0.354 N 
ATOM     19  C   UNL A   1      44.088  30.914  28.264  1.00  0.00     0.074 A 
ATOM     20  C   UNL A   1      43.904  30.640  26.859  1.00  0.00     0.031 C 
ATOM     21  C   UNL A   1      38.044  29.172  29.463  1.00  0.00     0.029 A 
ATOM     22  C   UNL A   1      38.730  30.392  29.855  1.00  0.00     0.049 A 
ATOM     23  H   UNL A   1      40.796  30.718  29.871  1.00  0.00     0.167 HD
ATOM     24  C   UNL A   1      44.766  31.923  28.878  1.00  0.00     0.031 A 
ATOM     25  C   UNL A   1      38.208  31.562  30.287  1.00  0.00     0.031 A 
ATOM     26  C   UNL A   1      44.863  31.748  30.301  1.00  0.00     0.049 A 
ATOM     27  C   UNL A   1      39.289  32.356  30.911  1.00  0.00     0.074 A 
ATOM     28  C   UNL A   1      45.416  30.800  31.138  1.00  0.00     0.029 A 
ATOM     29  N   UNL A   1      44.066  32.529  31.100  1.00  0.00    -0.354 N 
ATOM     30  N   UNL A   1      39.858  32.043  32.039  1.00  0.00    -0.248 NA
ATOM     31  C   UNL A   1      40.014  33.317  30.095  1.00  0.00     0.031 C 
ATOM     32  C   UNL A   1      44.564  30.770  32.281  1.00  0.00     0.029 A 
ATOM     33  C   UNL A   1      43.552  31.708  32.069  1.00  0.00     0.049 A 
ATOM     34  H   UNL A   1      43.898  33.493  30.999  1.00  0.00     0.167 HD
ATOM     35  C   UNL A   1      41.182  32.431  31.892  1.00  0.00     0.074 A 
ATOM     36  C   UNL A   1      41.185  33.322  30.737  1.00  0.00     0.031 C 
ATOM     37  C   UNL A   1      42.187  31.773  32.543  1.00  0.00     0.031 A 
BRANCH  24  38
ATOM     38  C   UNL A   1      45.046  33.251  28.220  1.00  0.00    -0.014 A 
ATOM     39  C   UNL A   1      43.969  34.053  27.801  1.00  0.00     0.009 A 
ATOM     40  C   UNL A   1      46.322  33.607  27.746  1.00  0.00     0.009 A 
ATOM     41  C   UNL A   1      44.156  35.118  26.911  1.00  0.00     0.001 A 
ATOM     42  C   UNL A   1      46.519  34.697  26.893  1.00  0.00     0.001 A 
ATOM     43  C   UNL A   1      45.430  35.436  26.454  1.00  0.00     0.000 A 
ENDBRANCH  24  38
BRANCH  25  44
ATOM     44  C   UNL A   1      36.889  32.122  29.932  1.00  0.00    -0.014 A 
ATOM     45  C   UNL A   1      35.822  32.105  30.839  1.00  0.00     0.009 A 
ATOM     46  C   UNL A   1      36.744  32.888  28.759  1.00  0.00     0.009 A 
ATOM     47  C   UNL A   1      34.658  32.841  30.584  1.00  0.00     0.001 A 
ATOM     48  C   UNL A   1      35.581  33.615  28.500  1.00  0.00     0.001 A 
ATOM     49  C   UNL A   1      34.540  33.600  29.420  1.00  0.00     0.000 A 
ENDBRANCH  25  44
BRANCH  37  50
ATOM     50  C   UNL A   1      41.801  30.784  33.614  1.00  0.00    -0.014 A 
ATOM     51  C   UNL A   1      41.585  29.423  33.333  1.00  0.00     0.009 A 
ATOM     52  C   UNL A   1      41.805  31.194  34.956  1.00  0.00     0.009 A 
ATOM     53  C   UNL A   1      41.341  28.507  34.358  1.00  0.00     0.001 A 
ATOM     54  C   UNL A   1      41.581  30.273  35.984  1.00  0.00     0.001 A 
ATOM     55  C   UNL A   1      41.343  28.933  35.684  1.00  0.00     0.000 A 
ENDBRANCH  37  50
ENDBRANCH  11  12
ENDBRANCH   4   6
ENDBRANCH   3   4
ENDBRANCH   2   3
ENDBRANCH   1   2
BRANCH   1  56
ATOM     56  O   UNL A   1      37.200  23.705  24.693  1.00  0.00    -0.374 OA
BRANCH  56  57
ATOM     57  C   UNL A   1      36.902  22.526  23.931  1.00  0.00     0.202 C 
BRANCH  57  58
ATOM     58  C   UNL A   1      35.700  22.616  22.996  1.00  0.00     0.261 C 
BRANCH  58  59
ATOM     59  O   UNL A   1      35.092  23.907  23.164  1.00  0.00    -0.458 OA
BRANCH  59  60
ATOM     60  C   UNL A   1      33.999  24.147  22.403  1.00  0.00     0.361 C 
ATOM     61  O   UNL A   1      33.490  23.339  21.625  1.00  0.00    -0.244 OA
BRANCH  60  62
ATOM     62  C   UNL A   1      33.445  25.461  22.624  1.00  0.00     0.198 A 
ATOM     63  N   UNL A   1      33.609  26.489  21.724  1.00  0.00    -0.122 NA
ATOM     64  C   UNL A   1      32.723  25.923  23.710  1.00  0.00     0.123 A 
ATOM     65  N   UNL A   1      33.058  27.582  22.240  1.00  0.00    -0.061 NA
ATOM     66  N   UNL A   1      32.706  27.292  23.510  1.00  0.00    -0.213 N 
BRANCH  64  67
ATOM     67  C   UNL A   1      31.992  25.271  24.838  1.00  0.00     0.262 C 
ATOM     68  C   UNL A   1      32.684  25.248  26.197  1.00  0.00     0.281 C 
ATOM     69  O   UNL A   1      31.569  23.992  24.363  1.00  0.00    -0.477 OA
ATOM     70  O   UNL A   1      33.692  24.248  26.331  1.00  0.00    -0.485 OA
ATOM     71  C   UNL A   1      32.307  22.942  24.820  1.00  0.00     0.162 A 
ATOM     72  C   UNL A   1      33.305  23.055  25.785  1.00  0.00     0.161 A 
ATOM     73  C   UNL A   1      32.032  21.701  24.250  1.00  0.00     0.050 A 
ATOM     74  C   UNL A   1      34.018  21.926  26.189  1.00  0.00     0.050 A 
ATOM     75  C   UNL A   1      32.752  20.573  24.644  1.00  0.00     0.004 A 
ATOM     76  C   UNL A   1      33.742  20.683  25.618  1.00  0.00     0.004 A 
ENDBRANCH  64  67
BRANCH  66  77
ATOM     77  C   UNL A   1      32.534  28.300  24.481  1.00  0.00     0.068 A 
ATOM     78  C   UNL A   1      31.377  29.096  24.435  1.00  0.00     0.028 A 
ATOM     79  C   UNL A   1      33.516  28.522  25.449  1.00  0.00     0.044 A 
ATOM     80  C   UNL A   1      31.235  30.169  25.308  1.00  0.00     0.003 A 
ATOM     81  C   UNL A   1      33.373  29.619  26.298  1.00  0.00     0.020 A 
ATOM     82  C   UNL A   1      32.247  30.445  26.227  1.00  0.00     0.016 A 
ATOM     83  Br  UNL A   1      34.743  30.033  27.534  1.00  0.00    -0.051 Br
ENDBRANCH  66  77
ENDBRANCH  60  62
ENDBRANCH  59  60
ENDBRANCH  58  59
ENDBRANCH  57  58
ENDBRANCH  56  57
ENDBRANCH   1  56
TORSDOF 16
ENDMDL
MODEL 3
REMARK VINA RESULT:     -11.8      2.123      6.840
REMARK SMILES O=C(OCCOCCOC(=O)c1nnn(-c2cccc(Br)c2)c1[C@@H]1COc2ccccc2O1)c1ccc(-c2c3nc(c(-c4ccccc4)c4ccc([nH]4)c(-c4ccccc4)c4nc(c(-c5ccccc5)c5ccc2[nH]5)C=C4)C=C3)cc1
REMARK SMILES IDX 5 1 4 2 3 3 2 4 1 5 34 6 35 7 81 8 36 9 80 10 37 11 38 12
REMARK SMILES IDX 39 13 74 14 40 15 79 16 73 17 75 18 41 19 78 20 72 21 71 22
REMARK SMILES IDX 42 24 64 25 49 26 63 27 50 28 53 29 62 30 76 31 51 32 52 33
REMARK SMILES IDX 61 35 77 36 54 37 43 38 44 39 48 40 45 41 47 42 46 43 65 44
REMARK SMILES IDX 66 45 70 46 67 47 69 48 68 49 55 50 56 51 60 52 57 53 59 54
REMARK SMILES IDX 58 55 6 56 7 57 8 58 9 59 10 60 11 61 12 62 13 63 23 64
REMARK SMILES IDX 14 65 15 66 24 67 25 68 33 69 26 70 32 71 27 72 31 73 28 74
REMARK SMILES IDX 30 75 29 76 16 77 17 78 22 79 18 80 20 81 19 82 21 83
REMARK H PARENT 75 23 53 34
REMARK Flexibility Score: inf
ROOT
ATOM      1  C   UNL A   1      33.118  29.718  25.979  1.00  0.00     0.202 C 
ENDROOT
BRANCH   1   2
ATOM      2  C   UNL A   1      33.290  30.668  27.170  1.00  0.00     0.261 C 
BRANCH   2   3
ATOM      3  O   UNL A   1      34.618  31.192  27.291  1.00  0.00    -0.460 OA
BRANCH   3   4
ATOM      4  C   UNL A   1      35.191  31.655  28.423  1.00  0.00     0.338 C 
ATOM      5  O   UNL A   1      34.796  32.712  28.913  1.00  0.00    -0.246 OA
BRANCH   4   6
ATOM      6  C   UNL A   1      36.407  31.032  29.034  1.00  0.00     0.060 A 
ATOM      7  C   UNL A   1      37.707  31.534  28.970  1.00  0.00     0.016 A 
ATOM      8  C   UNL A   1      36.206  29.775  29.642  1.00  0.00     0.016 A 
ATOM      9  C   UNL A   1      38.785  30.754  29.361  1.00  0.00     0.010 A 
ATOM     10  C   UNL A   1      37.282  28.997  30.058  1.00  0.00     0.010 A 
ATOM     11  C   UNL A   1      38.575  29.462  29.840  1.00  0.00    -0.014 A 
BRANCH  11  12
ATOM     12  C   UNL A   1      39.757  28.624  29.991  1.00  0.00     0.031 A 
ATOM     13  C   UNL A   1      40.387  28.548  31.334  1.00  0.00     0.074 A 
ATOM     14  C   UNL A   1      40.276  27.940  28.954  1.00  0.00     0.049 A 
ATOM     15  N   UNL A   1      41.589  28.885  31.675  1.00  0.00    -0.248 NA
ATOM     16  C   UNL A   1      39.556  28.057  32.442  1.00  0.00     0.031 C 
ATOM     17  C   UNL A   1      39.667  27.689  27.645  1.00  0.00     0.029 A 
ATOM     18  N   UNL A   1      41.440  27.230  28.904  1.00  0.00    -0.354 N 
ATOM     19  C   UNL A   1      41.728  28.514  33.011  1.00  0.00     0.074 A 
ATOM     20  C   UNL A   1      40.422  28.091  33.456  1.00  0.00     0.031 C 
ATOM     21  C   UNL A   1      40.348  26.701  27.027  1.00  0.00     0.029 A 
ATOM     22  C   UNL A   1      41.508  26.358  27.832  1.00  0.00     0.049 A 
ATOM     23  H   UNL A   1      42.161  27.329  29.565  1.00  0.00     0.167 HD
ATOM     24  C   UNL A   1      42.940  28.401  33.621  1.00  0.00     0.031 A 
ATOM     25  C   UNL A   1      42.406  25.363  27.654  1.00  0.00     0.031 A 
ATOM     26  C   UNL A   1      43.983  29.106  32.929  1.00  0.00     0.049 A 
ATOM     27  C   UNL A   1      43.591  25.645  28.493  1.00  0.00     0.074 A 
ATOM     28  C   UNL A   1      44.221  30.423  32.590  1.00  0.00     0.029 A 
ATOM     29  N   UNL A   1      44.887  28.368  32.205  1.00  0.00    -0.354 N 
ATOM     30  N   UNL A   1      44.426  26.616  28.263  1.00  0.00    -0.248 NA
ATOM     31  C   UNL A   1      43.658  25.070  29.827  1.00  0.00     0.031 C 
ATOM     32  C   UNL A   1      44.918  30.368  31.347  1.00  0.00     0.029 A 
ATOM     33  C   UNL A   1      45.067  29.020  31.014  1.00  0.00     0.049 A 
ATOM     34  H   UNL A   1      45.324  27.533  32.489  1.00  0.00     0.167 HD
ATOM     35  C   UNL A   1      44.823  27.051  29.519  1.00  0.00     0.074 A 
ATOM     36  C   UNL A   1      44.425  25.983  30.429  1.00  0.00     0.031 C 
ATOM     37  C   UNL A   1      45.179  28.352  29.736  1.00  0.00     0.031 A 
BRANCH  24  38
ATOM     38  C   UNL A   1      43.244  27.359  34.667  1.00  0.00    -0.014 A 
ATOM     39  C   UNL A   1      43.427  26.021  34.275  1.00  0.00     0.009 A 
ATOM     40  C   UNL A   1      43.078  27.598  36.045  1.00  0.00     0.009 A 
ATOM     41  C   UNL A   1      43.388  24.975  35.207  1.00  0.00     0.001 A 
ATOM     42  C   UNL A   1      43.084  26.561  36.982  1.00  0.00     0.001 A 
ATOM     43  C   UNL A   1      43.211  25.246  36.559  1.00  0.00     0.000 A 
ENDBRANCH  24  38
BRANCH  25  44
ATOM     44  C   UNL A   1      42.157  24.059  27.008  1.00  0.00    -0.014 A 
ATOM     45  C   UNL A   1      43.081  23.500  26.116  1.00  0.00     0.009 A 
ATOM     46  C   UNL A   1      41.096  23.247  27.452  1.00  0.00     0.009 A 
ATOM     47  C   UNL A   1      42.950  22.170  25.695  1.00  0.00     0.001 A 
ATOM     48  C   UNL A   1      40.960  21.924  27.026  1.00  0.00     0.001 A 
ATOM     49  C   UNL A   1      41.896  21.381  26.155  1.00  0.00     0.000 A 
ENDBRANCH  25  44
BRANCH  37  50
ATOM     50  C   UNL A   1      45.372  29.238  28.531  1.00  0.00    -0.014 A 
ATOM     51  C   UNL A   1      44.300  29.916  27.923  1.00  0.00     0.009 A 
ATOM     52  C   UNL A   1      46.674  29.521  28.092  1.00  0.00     0.009 A 
ATOM     53  C   UNL A   1      44.520  30.819  26.880  1.00  0.00     0.001 A 
ATOM     54  C   UNL A   1      46.896  30.440  27.062  1.00  0.00     0.001 A 
ATOM     55  C   UNL A   1      45.820  31.083  26.453  1.00  0.00     0.000 A 
ENDBRANCH  37  50
ENDBRANCH  11  12
ENDBRANCH   4   6
ENDBRANCH   3   4
ENDBRANCH   2   3
ENDBRANCH   1   2
BRANCH   1  56
ATOM     56  O   UNL A   1      32.045  28.780  26.054  1.00  0.00    -0.374 OA
BRANCH  56  57
ATOM     57  C   UNL A   1      32.314  27.488  26.618  1.00  0.00     0.202 C 
BRANCH  57  58
ATOM     58  C   UNL A   1      33.462  26.705  25.986  1.00  0.00     0.261 C 
BRANCH  58  59
ATOM     59  O   UNL A   1      33.108  25.313  25.974  1.00  0.00    -0.458 OA
BRANCH  59  60
ATOM     60  C   UNL A   1      34.030  24.475  25.445  1.00  0.00     0.361 C 
ATOM     61  O   UNL A   1      35.109  24.826  24.965  1.00  0.00    -0.244 OA
BRANCH  60  62
ATOM     62  C   UNL A   1      33.638  23.089  25.534  1.00  0.00     0.198 A 
ATOM     63  N   UNL A   1      33.804  22.351  26.683  1.00  0.00    -0.122 NA
ATOM     64  C   UNL A   1      33.089  22.282  24.554  1.00  0.00     0.123 A 
ATOM     65  N   UNL A   1      33.425  21.104  26.432  1.00  0.00    -0.061 NA
ATOM     66  N   UNL A   1      33.187  21.016  25.106  1.00  0.00    -0.213 N 
BRANCH  64  67
ATOM     67  C   UNL A   1      32.424  22.531  23.240  1.00  0.00     0.262 C 
ATOM     68  C   UNL A   1      33.301  23.042  22.100  1.00  0.00     0.281 C 
ATOM     69  O   UNL A   1      31.273  23.331  23.511  1.00  0.00    -0.477 OA
ATOM     70  O   UNL A   1      33.599  24.434  22.163  1.00  0.00    -0.485 OA
ATOM     71  C   UNL A   1      31.407  24.649  23.191  1.00  0.00     0.162 A 
ATOM     72  C   UNL A   1      32.506  25.177  22.517  1.00  0.00     0.161 A 
ATOM     73  C   UNL A   1      30.371  25.489  23.593  1.00  0.00     0.050 A 
ATOM     74  C   UNL A   1      32.564  26.542  22.237  1.00  0.00     0.050 A 
ATOM     75  C   UNL A   1      30.433  26.856  23.324  1.00  0.00     0.004 A 
ATOM     76  C   UNL A   1      31.526  27.383  22.641  1.00  0.00     0.004 A 
ENDBRANCH  64  67
BRANCH  66  77
ATOM     77  C   UNL A   1      33.225  19.782  24.425  1.00  0.00     0.068 A 
ATOM     78  C   UNL A   1      32.382  19.593  23.317  1.00  0.00     0.028 A 
ATOM     79  C   UNL A   1      34.064  18.758  24.868  1.00  0.00     0.044 A 
ATOM     80  C   UNL A   1      32.316  18.349  22.697  1.00  0.00     0.003 A 
ATOM     81  C   UNL A   1      33.965  17.508  24.255  1.00  0.00     0.020 A 
ATOM     82  C   UNL A   1      33.092  17.299  23.182  1.00  0.00     0.016 A 
ATOM     83  Br  UNL A   1      34.985  16.058  24.911  1.00  0.00    -0.051 Br
ENDBRANCH  66  77
ENDBRANCH  60  62
ENDBRANCH  59  60
ENDBRANCH  58  59
ENDBRANCH  57  58
ENDBRANCH  56  57
ENDBRANCH   1  56
TORSDOF 16
ENDMDL
