MODEL 1
REMARK VINA RESULT:      -9.7      0.000      0.000
REMARK SMILES C[C@@H](CC(=O)OCCOCCOC(=O)c1ccc(-c2c3nc(c(-c4ccccc4)c4ccc([nH]4)c(-c4ccccc4)c4nc(c(-c5ccccc5)c5ccc2[nH]5)C=C4)C=C3)cc1)NC(=O)/C=C/c1cccnc1
REMARK SMILES IDX 8 1 7 2 6 3 4 4 5 5 3 6 2 7 1 8 63 9 64 10 65 12 66 13 67 14
REMARK SMILES IDX 68 15 69 16 73 17 70 18 72 19 71 20 9 21 10 22 11 23 12 24
REMARK SMILES IDX 13 25 14 26 15 27 16 28 62 29 17 30 61 31 18 32 19 33 20 34
REMARK SMILES IDX 55 35 21 36 60 37 54 38 56 39 22 40 59 41 53 42 52 43 23 45
REMARK SMILES IDX 45 46 30 47 44 48 31 49 34 50 43 51 57 52 32 53 33 54 42 56
REMARK SMILES IDX 58 57 35 58 24 59 25 60 29 61 26 62 28 63 27 64 46 65 47 66
REMARK SMILES IDX 51 67 48 68 50 69 49 70 36 71 37 72 41 73 38 74 40 75 39 76
REMARK H PARENT 63 11 56 44 34 55
REMARK Flexibility Score: inf
ROOT
ATOM      1  C   UNL A   1      32.944  30.360  26.914  1.00  0.00     0.202 C 
ENDROOT
BRANCH   1   2
ATOM      2  C   UNL A   1      33.710  29.404  25.998  1.00  0.00     0.261 C 
BRANCH   2   3
ATOM      3  O   UNL A   1      33.105  29.323  24.693  1.00  0.00    -0.463 OA
BRANCH   3   4
ATOM      4  C   UNL A   1      33.320  28.173  24.012  1.00  0.00     0.307 C 
ATOM      5  O   UNL A   1      34.037  28.077  23.021  1.00  0.00    -0.252 OA
BRANCH   4   6
ATOM      6  C   UNL A   1      32.577  26.971  24.547  1.00  0.00     0.147 C 
BRANCH   6   7
ATOM      7  C   UNL A   1      31.311  27.109  25.405  1.00  0.00     0.090 C 
ATOM      8  C   UNL A   1      31.474  26.724  26.874  1.00  0.00     0.031 C 
BRANCH   7   9
ATOM      9  N   UNL A   1      30.170  26.416  24.813  1.00  0.00    -0.350 N 
ATOM     10  C   UNL A   1      29.284  26.777  23.847  1.00  0.00     0.244 C 
ATOM     11  H   UNL A   1      30.013  25.516  25.182  1.00  0.00     0.164 HD
ATOM     12  O   UNL A   1      28.401  25.984  23.522  1.00  0.00    -0.270 OA
BRANCH  10  13
ATOM     13  C   UNL A   1      29.267  28.144  23.272  1.00  0.00     0.072 C 
ATOM     14  C   UNL A   1      28.188  28.924  23.100  1.00  0.00     0.015 C 
BRANCH  14  15
ATOM     15  C   UNL A   1      28.179  30.258  22.469  1.00  0.00    -0.007 A 
ATOM     16  C   UNL A   1      28.047  30.478  21.094  1.00  0.00     0.011 A 
ATOM     17  C   UNL A   1      28.238  31.399  23.272  1.00  0.00     0.119 A 
ATOM     18  C   UNL A   1      27.979  31.779  20.593  1.00  0.00     0.021 A 
ATOM     19  N   UNL A   1      28.171  32.674  22.817  1.00  0.00    -0.264 NA
ATOM     20  C   UNL A   1      28.042  32.834  21.485  1.00  0.00     0.111 A 
ENDBRANCH  14  15
ENDBRANCH  10  13
ENDBRANCH   7   9
ENDBRANCH   6   7
ENDBRANCH   4   6
ENDBRANCH   3   4
ENDBRANCH   2   3
ENDBRANCH   1   2
BRANCH   1  21
ATOM     21  O   UNL A   1      31.813  30.992  26.319  1.00  0.00    -0.374 OA
BRANCH  21  22
ATOM     22  C   UNL A   1      31.363  32.219  26.902  1.00  0.00     0.202 C 
BRANCH  22  23
ATOM     23  C   UNL A   1      32.432  33.314  27.002  1.00  0.00     0.261 C 
BRANCH  23  24
ATOM     24  O   UNL A   1      32.155  34.216  28.097  1.00  0.00    -0.460 OA
BRANCH  24  25
ATOM     25  C   UNL A   1      33.227  34.942  28.504  1.00  0.00     0.338 C 
ATOM     26  O   UNL A   1      33.279  36.146  28.704  1.00  0.00    -0.246 OA
BRANCH  25  27
ATOM     27  C   UNL A   1      34.340  34.046  28.865  1.00  0.00     0.060 A 
ATOM     28  C   UNL A   1      34.036  32.868  29.558  1.00  0.00     0.016 A 
ATOM     29  C   UNL A   1      35.667  34.409  28.633  1.00  0.00     0.016 A 
ATOM     30  C   UNL A   1      35.063  32.054  30.040  1.00  0.00     0.010 A 
ATOM     31  C   UNL A   1      36.697  33.595  29.126  1.00  0.00     0.010 A 
ATOM     32  C   UNL A   1      36.401  32.426  29.851  1.00  0.00    -0.014 A 
BRANCH  32  33
ATOM     33  C   UNL A   1      37.487  31.630  30.478  1.00  0.00     0.031 A 
ATOM     34  C   UNL A   1      37.849  31.861  31.919  1.00  0.00     0.074 A 
ATOM     35  C   UNL A   1      38.138  30.689  29.772  1.00  0.00     0.049 A 
ATOM     36  N   UNL A   1      38.788  31.294  32.636  1.00  0.00    -0.248 NA
ATOM     37  C   UNL A   1      37.048  32.855  32.651  1.00  0.00     0.031 C 
ATOM     38  C   UNL A   1      37.856  30.327  28.384  1.00  0.00     0.029 A 
ATOM     39  N   UNL A   1      39.181  29.870  30.129  1.00  0.00    -0.354 N 
ATOM     40  C   UNL A   1      38.691  31.861  33.901  1.00  0.00     0.074 A 
ATOM     41  C   UNL A   1      37.618  32.831  33.848  1.00  0.00     0.031 C 
ATOM     42  C   UNL A   1      38.713  29.364  28.003  1.00  0.00     0.029 A 
ATOM     43  C   UNL A   1      39.626  29.069  29.107  1.00  0.00     0.049 A 
ATOM     44  H   UNL A   1      39.572  29.858  31.033  1.00  0.00     0.167 HD
ATOM     45  C   UNL A   1      39.428  31.597  35.008  1.00  0.00     0.031 A 
ATOM     46  C   UNL A   1      40.667  28.217  29.053  1.00  0.00     0.031 A 
ATOM     47  C   UNL A   1      40.506  30.647  35.067  1.00  0.00     0.049 A 
ATOM     48  C   UNL A   1      41.540  28.025  30.263  1.00  0.00     0.074 A 
ATOM     49  C   UNL A   1      41.285  30.294  36.157  1.00  0.00     0.029 A 
ATOM     50  N   UNL A   1      40.969  29.911  33.989  1.00  0.00    -0.354 N 
ATOM     51  N   UNL A   1      41.418  28.545  31.460  1.00  0.00    -0.248 NA
ATOM     52  C   UNL A   1      42.699  27.131  30.110  1.00  0.00     0.031 C 
ATOM     53  C   UNL A   1      42.259  29.387  35.724  1.00  0.00     0.029 A 
ATOM     54  C   UNL A   1      42.053  29.139  34.377  1.00  0.00     0.049 A 
ATOM     55  H   UNL A   1      40.586  29.932  33.083  1.00  0.00     0.167 HD
ATOM     56  C   UNL A   1      42.473  28.033  32.204  1.00  0.00     0.074 A 
ATOM     57  C   UNL A   1      43.216  27.149  31.331  1.00  0.00     0.031 C 
ATOM     58  C   UNL A   1      42.797  28.275  33.498  1.00  0.00     0.031 A 
BRANCH  45  59
ATOM     59  C   UNL A   1      39.112  32.378  36.251  1.00  0.00    -0.014 A 
ATOM     60  C   UNL A   1      38.154  31.926  37.171  1.00  0.00     0.009 A 
ATOM     61  C   UNL A   1      39.823  33.555  36.531  1.00  0.00     0.009 A 
ATOM     62  C   UNL A   1      37.897  32.652  38.336  1.00  0.00     0.001 A 
ATOM     63  C   UNL A   1      39.580  34.267  37.706  1.00  0.00     0.001 A 
ATOM     64  C   UNL A   1      38.612  33.819  38.604  1.00  0.00     0.000 A 
ENDBRANCH  45  59
BRANCH  46  65
ATOM     65  C   UNL A   1      40.980  27.508  27.785  1.00  0.00    -0.014 A 
ATOM     66  C   UNL A   1      41.800  28.100  26.816  1.00  0.00     0.009 A 
ATOM     67  C   UNL A   1      40.434  26.238  27.534  1.00  0.00     0.009 A 
ATOM     68  C   UNL A   1      42.056  27.442  25.610  1.00  0.00     0.001 A 
ATOM     69  C   UNL A   1      40.712  25.573  26.339  1.00  0.00     0.001 A 
ATOM     70  C   UNL A   1      41.515  26.178  25.375  1.00  0.00     0.000 A 
ENDBRANCH  46  65
BRANCH  58  71
ATOM     71  C   UNL A   1      44.002  27.572  34.052  1.00  0.00    -0.014 A 
ATOM     72  C   UNL A   1      45.265  28.184  34.039  1.00  0.00     0.009 A 
ATOM     73  C   UNL A   1      43.866  26.302  34.635  1.00  0.00     0.009 A 
ATOM     74  C   UNL A   1      46.373  27.528  34.578  1.00  0.00     0.001 A 
ATOM     75  C   UNL A   1      44.972  25.659  35.194  1.00  0.00     0.001 A 
ATOM     76  C   UNL A   1      46.225  26.269  35.159  1.00  0.00     0.000 A 
ENDBRANCH  58  71
ENDBRANCH  32  33
ENDBRANCH  25  27
ENDBRANCH  24  25
ENDBRANCH  23  24
ENDBRANCH  22  23
ENDBRANCH  21  22
ENDBRANCH   1  21
TORSDOF 18
ENDMDL
MODEL 2
REMARK VINA RESULT:      -9.6      3.940      8.228
REMARK SMILES C[C@@H](CC(=O)OCCOCCOC(=O)c1ccc(-c2c3nc(c(-c4ccccc4)c4ccc([nH]4)c(-c4ccccc4)c4nc(c(-c5ccccc5)c5ccc2[nH]5)C=C4)C=C3)cc1)NC(=O)/C=C/c1cccnc1
REMARK SMILES IDX 8 1 7 2 6 3 4 4 5 5 3 6 2 7 1 8 63 9 64 10 65 12 66 13 67 14
REMARK SMILES IDX 68 15 69 16 73 17 70 18 72 19 71 20 9 21 10 22 11 23 12 24
REMARK SMILES IDX 13 25 14 26 15 27 16 28 62 29 17 30 61 31 18 32 19 33 20 34
REMARK SMILES IDX 55 35 21 36 60 37 54 38 56 39 22 40 59 41 53 42 52 43 23 45
REMARK SMILES IDX 45 46 30 47 44 48 31 49 34 50 43 51 57 52 32 53 33 54 42 56
REMARK SMILES IDX 58 57 35 58 24 59 25 60 29 61 26 62 28 63 27 64 46 65 47 66
REMARK SMILES IDX 51 67 48 68 50 69 49 70 36 71 37 72 41 73 38 74 40 75 39 76
REMARK H PARENT 63 11 56 44 34 55
REMARK Flexibility Score: inf
ROOT
ATOM      1  C   UNL A   1      33.934  21.579  26.671  1.00  0.00     0.202 C 
ENDROOT
BRANCH   1   2
ATOM      2  C   UNL A   1      32.607  22.256  26.328  1.00  0.00     0.261 C 
BRANCH   2   3
ATOM      3  O   UNL A   1      31.831  21.463  25.409  1.00  0.00    -0.463 OA
BRANCH   3   4
ATOM      4  C   UNL A   1      32.365  21.294  24.177  1.00  0.00     0.307 C 
ATOM      5  O   UNL A   1      33.122  20.378  23.869  1.00  0.00    -0.252 OA
BRANCH   4   6
ATOM      6  C   UNL A   1      31.983  22.352  23.168  1.00  0.00     0.147 C 
BRANCH   6   7
ATOM      7  C   UNL A   1      32.023  23.850  23.502  1.00  0.00     0.090 C 
ATOM      8  C   UNL A   1      30.694  24.453  23.951  1.00  0.00     0.031 C 
BRANCH   7   9
ATOM      9  N   UNL A   1      32.608  24.636  22.419  1.00  0.00    -0.350 N 
ATOM     10  C   UNL A   1      33.320  25.795  22.413  1.00  0.00     0.244 C 
ATOM     11  H   UNL A   1      32.458  24.256  21.523  1.00  0.00     0.164 HD
ATOM     12  O   UNL A   1      33.709  26.249  21.338  1.00  0.00    -0.270 OA
BRANCH  10  13
ATOM     13  C   UNL A   1      33.525  26.593  23.646  1.00  0.00     0.072 C 
ATOM     14  C   UNL A   1      32.846  27.693  24.006  1.00  0.00     0.015 C 
BRANCH  14  15
ATOM     15  C   UNL A   1      33.104  28.513  25.206  1.00  0.00    -0.007 A 
ATOM     16  C   UNL A   1      34.030  28.183  26.200  1.00  0.00     0.011 A 
ATOM     17  C   UNL A   1      32.447  29.736  25.358  1.00  0.00     0.119 A 
ATOM     18  C   UNL A   1      34.258  29.055  27.267  1.00  0.00     0.021 A 
ATOM     19  N   UNL A   1      32.648  30.605  26.379  1.00  0.00    -0.264 NA
ATOM     20  C   UNL A   1      33.552  30.243  27.311  1.00  0.00     0.111 A 
ENDBRANCH  14  15
ENDBRANCH  10  13
ENDBRANCH   7   9
ENDBRANCH   6   7
ENDBRANCH   4   6
ENDBRANCH   3   4
ENDBRANCH   2   3
ENDBRANCH   1   2
BRANCH   1  21
ATOM     21  O   UNL A   1      35.098  22.245  26.186  1.00  0.00    -0.374 OA
BRANCH  21  22
ATOM     22  C   UNL A   1      36.033  21.468  25.431  1.00  0.00     0.202 C 
BRANCH  22  23
ATOM     23  C   UNL A   1      37.103  22.286  24.696  1.00  0.00     0.261 C 
BRANCH  23  24
ATOM     24  O   UNL A   1      37.649  23.318  25.548  1.00  0.00    -0.460 OA
BRANCH  24  25
ATOM     25  C   UNL A   1      38.819  22.984  26.147  1.00  0.00     0.338 C 
ATOM     26  O   UNL A   1      39.420  21.924  26.070  1.00  0.00    -0.246 OA
BRANCH  25  27
ATOM     27  C   UNL A   1      39.408  24.164  26.805  1.00  0.00     0.060 A 
ATOM     28  C   UNL A   1      39.080  24.398  28.146  1.00  0.00     0.016 A 
ATOM     29  C   UNL A   1      40.170  25.089  26.091  1.00  0.00     0.016 A 
ATOM     30  C   UNL A   1      39.501  25.571  28.776  1.00  0.00     0.010 A 
ATOM     31  C   UNL A   1      40.583  26.271  26.722  1.00  0.00     0.010 A 
ATOM     32  C   UNL A   1      40.233  26.529  28.060  1.00  0.00    -0.014 A 
BRANCH  32  33
ATOM     33  C   UNL A   1      40.564  27.832  28.691  1.00  0.00     0.031 A 
ATOM     34  C   UNL A   1      41.934  28.060  29.266  1.00  0.00     0.074 A 
ATOM     35  C   UNL A   1      39.652  28.819  28.735  1.00  0.00     0.049 A 
ATOM     36  N   UNL A   1      42.405  29.113  29.888  1.00  0.00    -0.248 NA
ATOM     37  C   UNL A   1      42.904  26.964  29.119  1.00  0.00     0.031 C 
ATOM     38  C   UNL A   1      38.305  28.751  28.172  1.00  0.00     0.029 A 
ATOM     39  N   UNL A   1      39.724  30.073  29.290  1.00  0.00    -0.354 N 
ATOM     40  C   UNL A   1      43.722  28.808  30.206  1.00  0.00     0.074 A 
ATOM     41  C   UNL A   1      43.971  27.464  29.728  1.00  0.00     0.031 C 
ATOM     42  C   UNL A   1      37.671  29.911  28.419  1.00  0.00     0.029 A 
ATOM     43  C   UNL A   1      38.554  30.786  29.189  1.00  0.00     0.049 A 
ATOM     44  H   UNL A   1      40.536  30.428  29.718  1.00  0.00     0.167 HD
ATOM     45  C   UNL A   1      44.644  29.577  30.836  1.00  0.00     0.031 A 
ATOM     46  C   UNL A   1      38.221  31.993  29.683  1.00  0.00     0.031 A 
ATOM     47  C   UNL A   1      44.402  30.906  31.328  1.00  0.00     0.049 A 
ATOM     48  C   UNL A   1      39.227  32.780  30.478  1.00  0.00     0.074 A 
ATOM     49  C   UNL A   1      45.289  31.769  31.951  1.00  0.00     0.029 A 
ATOM     50  N   UNL A   1      43.183  31.561  31.268  1.00  0.00    -0.354 N 
ATOM     51  N   UNL A   1      40.477  32.491  30.744  1.00  0.00    -0.248 NA
ATOM     52  C   UNL A   1      38.771  34.059  31.045  1.00  0.00     0.031 C 
ATOM     53  C   UNL A   1      44.591  32.923  32.322  1.00  0.00     0.029 A 
ATOM     54  C   UNL A   1      43.283  32.799  31.884  1.00  0.00     0.049 A 
ATOM     55  H   UNL A   1      42.368  31.201  30.850  1.00  0.00     0.167 HD
ATOM     56  C   UNL A   1      40.960  33.555  31.497  1.00  0.00     0.074 A 
ATOM     57  C   UNL A   1      39.874  34.504  31.631  1.00  0.00     0.031 C 
ATOM     58  C   UNL A   1      42.194  33.729  32.028  1.00  0.00     0.031 A 
BRANCH  45  59
ATOM     59  C   UNL A   1      46.003  28.980  31.063  1.00  0.00    -0.014 A 
ATOM     60  C   UNL A   1      46.280  28.216  32.206  1.00  0.00     0.009 A 
ATOM     61  C   UNL A   1      47.003  29.139  30.091  1.00  0.00     0.009 A 
ATOM     62  C   UNL A   1      47.542  27.644  32.383  1.00  0.00     0.001 A 
ATOM     63  C   UNL A   1      48.256  28.549  30.260  1.00  0.00     0.001 A 
ATOM     64  C   UNL A   1      48.526  27.808  31.409  1.00  0.00     0.000 A 
ENDBRANCH  45  59
BRANCH  46  65
ATOM     65  C   UNL A   1      36.846  32.521  29.486  1.00  0.00    -0.014 A 
ATOM     66  C   UNL A   1      35.838  32.267  30.426  1.00  0.00     0.009 A 
ATOM     67  C   UNL A   1      36.534  33.265  28.336  1.00  0.00     0.009 A 
ATOM     68  C   UNL A   1      34.539  32.734  30.211  1.00  0.00     0.001 A 
ATOM     69  C   UNL A   1      35.242  33.751  28.137  1.00  0.00     0.001 A 
ATOM     70  C   UNL A   1      34.243  33.478  29.070  1.00  0.00     0.000 A 
ENDBRANCH  46  65
BRANCH  58  71
ATOM     71  C   UNL A   1      42.442  34.993  32.801  1.00  0.00    -0.014 A 
ATOM     72  C   UNL A   1      41.991  35.132  34.122  1.00  0.00     0.009 A 
ATOM     73  C   UNL A   1      43.174  36.038  32.217  1.00  0.00     0.009 A 
ATOM     74  C   UNL A   1      42.248  36.304  34.836  1.00  0.00     0.001 A 
ATOM     75  C   UNL A   1      43.450  37.199  32.942  1.00  0.00     0.001 A 
ATOM     76  C   UNL A   1      42.981  37.334  34.247  1.00  0.00     0.000 A 
ENDBRANCH  58  71
ENDBRANCH  32  33
ENDBRANCH  25  27
ENDBRANCH  24  25
ENDBRANCH  23  24
ENDBRANCH  22  23
ENDBRANCH  21  22
ENDBRANCH   1  21
TORSDOF 18
ENDMDL
MODEL 3
REMARK VINA RESULT:      -9.6      1.319      2.069
REMARK SMILES C[C@@H](CC(=O)OCCOCCOC(=O)c1ccc(-c2c3nc(c(-c4ccccc4)c4ccc([nH]4)c(-c4ccccc4)c4nc(c(-c5ccccc5)c5ccc2[nH]5)C=C4)C=C3)cc1)NC(=O)/C=C/c1cccnc1
REMARK SMILES IDX 8 1 7 2 6 3 4 4 5 5 3 6 2 7 1 8 63 9 64 10 65 12 66 13 67 14
REMARK SMILES IDX 68 15 69 16 73 17 70 18 72 19 71 20 9 21 10 22 11 23 12 24
REMARK SMILES IDX 13 25 14 26 15 27 16 28 62 29 17 30 61 31 18 32 19 33 20 34
REMARK SMILES IDX 55 35 21 36 60 37 54 38 56 39 22 40 59 41 53 42 52 43 23 45
REMARK SMILES IDX 45 46 30 47 44 48 31 49 34 50 43 51 57 52 32 53 33 54 42 56
REMARK SMILES IDX 58 57 35 58 24 59 25 60 29 61 26 62 28 63 27 64 46 65 47 66
REMARK SMILES IDX 51 67 48 68 50 69 49 70 36 71 37 72 41 73 38 74 40 75 39 76
REMARK H PARENT 63 11 56 44 34 55
REMARK Flexibility Score: inf
ROOT
ATOM      1  C   UNL A   1      33.016  30.457  26.958  1.00  0.00     0.202 C 
ENDROOT
BRANCH   1   2
ATOM      2  C   UNL A   1      33.296  29.069  26.383  1.00  0.00     0.261 C 
BRANCH   2   3
ATOM      3  O   UNL A   1      32.084  28.419  25.952  1.00  0.00    -0.463 OA
BRANCH   3   4
ATOM      4  C   UNL A   1      32.034  27.080  26.138  1.00  0.00     0.307 C 
ATOM      5  O   UNL A   1      31.128  26.494  26.723  1.00  0.00    -0.252 OA
BRANCH   4   6
ATOM      6  C   UNL A   1      33.216  26.317  25.585  1.00  0.00     0.147 C 
BRANCH   6   7
ATOM      7  C   UNL A   1      33.045  25.038  24.754  1.00  0.00     0.090 C 
ATOM      8  C   UNL A   1      33.681  23.784  25.349  1.00  0.00     0.031 C 
BRANCH   7   9
ATOM      9  N   UNL A   1      33.469  25.225  23.369  1.00  0.00    -0.350 N 
ATOM     10  C   UNL A   1      32.914  25.902  22.328  1.00  0.00     0.244 C 
ATOM     11  H   UNL A   1      34.317  24.776  23.146  1.00  0.00     0.164 HD
ATOM     12  O   UNL A   1      33.494  25.905  21.243  1.00  0.00    -0.270 OA
BRANCH  10  13
ATOM     13  C   UNL A   1      31.570  26.521  22.424  1.00  0.00     0.072 C 
ATOM     14  C   UNL A   1      31.292  27.834  22.402  1.00  0.00     0.015 C 
BRANCH  14  15
ATOM     15  C   UNL A   1      29.954  28.436  22.562  1.00  0.00    -0.007 A 
ATOM     16  C   UNL A   1      28.854  27.774  23.116  1.00  0.00     0.011 A 
ATOM     17  C   UNL A   1      29.755  29.772  22.209  1.00  0.00     0.119 A 
ATOM     18  C   UNL A   1      27.644  28.447  23.292  1.00  0.00     0.021 A 
ATOM     19  N   UNL A   1      28.595  30.454  22.369  1.00  0.00    -0.264 NA
ATOM     20  C   UNL A   1      27.564  29.773  22.910  1.00  0.00     0.111 A 
ENDBRANCH  14  15
ENDBRANCH  10  13
ENDBRANCH   7   9
ENDBRANCH   6   7
ENDBRANCH   4   6
ENDBRANCH   3   4
ENDBRANCH   2   3
ENDBRANCH   1   2
BRANCH   1  21
ATOM     21  O   UNL A   1      31.856  31.105  26.438  1.00  0.00    -0.374 OA
BRANCH  21  22
ATOM     22  C   UNL A   1      31.533  32.395  26.965  1.00  0.00     0.202 C 
BRANCH  22  23
ATOM     23  C   UNL A   1      32.742  33.247  27.371  1.00  0.00     0.261 C 
BRANCH  23  24
ATOM     24  O   UNL A   1      32.437  34.075  28.515  1.00  0.00    -0.460 OA
BRANCH  24  25
ATOM     25  C   UNL A   1      33.391  34.995  28.806  1.00  0.00     0.338 C 
ATOM     26  O   UNL A   1      33.332  36.205  28.649  1.00  0.00    -0.246 OA
BRANCH  25  27
ATOM     27  C   UNL A   1      34.506  34.359  29.530  1.00  0.00     0.060 A 
ATOM     28  C   UNL A   1      35.796  34.505  29.005  1.00  0.00     0.016 A 
ATOM     29  C   UNL A   1      34.280  33.538  30.635  1.00  0.00     0.016 A 
ATOM     30  C   UNL A   1      36.866  33.813  29.575  1.00  0.00     0.010 A 
ATOM     31  C   UNL A   1      35.354  32.835  31.199  1.00  0.00     0.010 A 
ATOM     32  C   UNL A   1      36.648  32.952  30.660  1.00  0.00    -0.014 A 
BRANCH  32  33
ATOM     33  C   UNL A   1      37.761  32.116  31.178  1.00  0.00     0.031 A 
ATOM     34  C   UNL A   1      38.335  32.392  32.540  1.00  0.00     0.074 A 
ATOM     35  C   UNL A   1      38.250  31.101  30.444  1.00  0.00     0.049 A 
ATOM     36  N   UNL A   1      39.329  31.799  33.154  1.00  0.00    -0.248 NA
ATOM     37  C   UNL A   1      37.705  33.472  33.316  1.00  0.00     0.031 C 
ATOM     38  C   UNL A   1      37.755  30.691  29.131  1.00  0.00     0.029 A 
ATOM     39  N   UNL A   1      39.282  30.232  30.702  1.00  0.00    -0.354 N 
ATOM     40  C   UNL A   1      39.445  32.432  34.385  1.00  0.00     0.074 A 
ATOM     41  C   UNL A   1      38.434  33.468  34.424  1.00  0.00     0.031 C 
ATOM     42  C   UNL A   1      38.492  29.656  28.692  1.00  0.00     0.029 A 
ATOM     43  C   UNL A   1      39.531  29.355  29.676  1.00  0.00     0.049 A 
ATOM     44  H   UNL A   1      39.794  30.237  31.543  1.00  0.00     0.167 HD
ATOM     45  C   UNL A   1      40.312  32.172  35.395  1.00  0.00     0.031 A 
ATOM     46  C   UNL A   1      40.501  28.433  29.529  1.00  0.00     0.031 A 
ATOM     47  C   UNL A   1      41.329  31.156  35.360  1.00  0.00     0.049 A 
ATOM     48  C   UNL A   1      41.522  28.242  30.618  1.00  0.00     0.074 A 
ATOM     49  C   UNL A   1      42.231  30.805  36.351  1.00  0.00     0.029 A 
ATOM     50  N   UNL A   1      41.592  30.340  34.273  1.00  0.00    -0.354 N 
ATOM     51  N   UNL A   1      41.600  28.826  31.788  1.00  0.00    -0.248 NA
ATOM     52  C   UNL A   1      42.593  27.266  30.359  1.00  0.00     0.031 C 
ATOM     53  C   UNL A   1      43.078  29.815  35.842  1.00  0.00     0.029 A 
ATOM     54  C   UNL A   1      42.672  29.516  34.553  1.00  0.00     0.049 A 
ATOM     55  H   UNL A   1      41.088  30.343  33.428  1.00  0.00     0.167 HD
ATOM     56  C   UNL A   1      42.717  28.281  32.409  1.00  0.00     0.074 A 
ATOM     57  C   UNL A   1      43.276  27.308  31.495  1.00  0.00     0.031 C 
ATOM     58  C   UNL A   1      43.232  28.563  33.631  1.00  0.00     0.031 A 
BRANCH  45  59
ATOM     59  C   UNL A   1      40.220  33.032  36.622  1.00  0.00    -0.014 A 
ATOM     60  C   UNL A   1      40.958  34.220  36.735  1.00  0.00     0.009 A 
ATOM     61  C   UNL A   1      39.340  32.676  37.656  1.00  0.00     0.009 A 
ATOM     62  C   UNL A   1      40.835  35.021  37.872  1.00  0.00     0.001 A 
ATOM     63  C   UNL A   1      39.204  33.489  38.782  1.00  0.00     0.001 A 
ATOM     64  C   UNL A   1      39.956  34.657  38.892  1.00  0.00     0.000 A 
ENDBRANCH  45  59
BRANCH  46  65
ATOM     65  C   UNL A   1      40.591  27.644  28.273  1.00  0.00    -0.014 A 
ATOM     66  C   UNL A   1      39.982  26.387  28.170  1.00  0.00     0.009 A 
ATOM     67  C   UNL A   1      41.311  28.145  27.175  1.00  0.00     0.009 A 
ATOM     68  C   UNL A   1      40.105  25.636  26.999  1.00  0.00     0.001 A 
ATOM     69  C   UNL A   1      41.411  27.403  25.998  1.00  0.00     0.001 A 
ATOM     70  C   UNL A   1      40.816  26.147  25.913  1.00  0.00     0.000 A 
ENDBRANCH  46  65
BRANCH  58  71
ATOM     71  C   UNL A   1      44.459  27.809  34.055  1.00  0.00    -0.014 A 
ATOM     72  C   UNL A   1      45.742  28.327  33.822  1.00  0.00     0.009 A 
ATOM     73  C   UNL A   1      44.331  26.587  34.734  1.00  0.00     0.009 A 
ATOM     74  C   UNL A   1      46.875  27.625  34.241  1.00  0.00     0.001 A 
ATOM     75  C   UNL A   1      45.464  25.900  35.173  1.00  0.00     0.001 A 
ATOM     76  C   UNL A   1      46.734  26.415  34.919  1.00  0.00     0.000 A 
ENDBRANCH  58  71
ENDBRANCH  32  33
ENDBRANCH  25  27
ENDBRANCH  24  25
ENDBRANCH  23  24
ENDBRANCH  22  23
ENDBRANCH  21  22
ENDBRANCH   1  21
TORSDOF 18
ENDMDL
