MODEL 1
REMARK VINA RESULT:     -10.5      0.000      0.000
REMARK SMILES CCN(CC)c1ccc([C@@H]2c3[nH]c4ccccc4c3C[C@@H](C(=O)OCCOCCOC(=O)c3ccc(-c4c5nc(c(-c6ccccc6)c6ccc([nH]6)c(-c6ccccc6)c6nc(c(-c7ccccc7)c7ccc4[nH]7)C=C6)C=C5)cc3)N2C(C)=O)cc1
REMARK SMILES IDX 26 1 25 2 24 3 22 4 23 5 21 6 10 7 11 8 81 9 12 10 19 11
REMARK SMILES IDX 13 12 18 14 20 15 14 16 17 17 15 18 16 19 9 20 6 21 7 22
REMARK SMILES IDX 86 23 8 24 85 25 3 26 2 27 1 28 4 29 5 30 82 31 83 32 84 33
REMARK SMILES IDX 27 34 28 35 29 36 30 37 31 38 32 39 33 40 34 41 80 42 35 43
REMARK SMILES IDX 79 44 36 45 37 46 38 47 73 48 39 49 78 50 72 51 74 52 40 53
REMARK SMILES IDX 77 54 71 55 70 56 41 58 63 59 48 60 62 61 49 62 52 63 61 64
REMARK SMILES IDX 75 65 50 66 51 67 60 69 76 70 53 71 42 72 43 73 47 74 44 75
REMARK SMILES IDX 46 76 45 77 64 78 65 79 69 80 66 81 68 82 67 83 54 84 55 85
REMARK SMILES IDX 59 86 56 87 58 88 57 89
REMARK H PARENT 12 13 74 57 52 68
REMARK Flexibility Score: inf
ROOT
ATOM      1  C   UNL A   1      32.855  27.529  26.793  1.00  0.00     0.202 C 
ENDROOT
BRANCH   1   2
ATOM      2  C   UNL A   1      32.897  26.153  26.086  1.00  0.00     0.261 C 
BRANCH   2   3
ATOM      3  O   UNL A   1      32.145  25.120  26.784  1.00  0.00    -0.462 OA
BRANCH   3   4
ATOM      4  C   UNL A   1      32.131  23.779  26.483  1.00  0.00     0.329 C 
ATOM      5  O   UNL A   1      31.763  22.914  27.266  1.00  0.00    -0.250 OA
BRANCH   4   6
ATOM      6  C   UNL A   1      32.417  23.534  24.905  1.00  0.00     0.200 C 
ATOM      7  C   UNL A   1      34.567  22.608  25.554  1.00  0.00     0.163 C 
ATOM      8  C   UNL A   1      33.855  21.268  25.501  1.00  0.00     0.047 A 
ATOM      9  N   UNL A   1      33.889  23.371  24.523  1.00  0.00    -0.316 N 
ATOM     10  N   UNL A   1      34.397  20.034  25.697  1.00  0.00    -0.356 N 
ATOM     11  C   UNL A   1      32.588  21.069  24.934  1.00  0.00    -0.014 A 
ATOM     12  C   UNL A   1      33.829  19.203  24.751  1.00  0.00     0.046 A 
ATOM     13  H   UNL A   1      35.061  19.783  26.377  1.00  0.00     0.166 HD
ATOM     14  C   UNL A   1      32.618  19.777  24.368  1.00  0.00     0.003 A 
ATOM     15  C   UNL A   1      31.690  22.217  24.532  1.00  0.00     0.075 C 
ATOM     16  C   UNL A   1      34.352  18.079  24.119  1.00  0.00     0.026 A 
ATOM     17  C   UNL A   1      31.841  19.179  23.365  1.00  0.00     0.010 A 
ATOM     18  C   UNL A   1      33.634  17.583  23.026  1.00  0.00     0.002 A 
ATOM     19  C   UNL A   1      32.394  18.109  22.664  1.00  0.00     0.001 A 
BRANCH   7  20
ATOM     20  C   UNL A   1      36.073  22.761  25.584  1.00  0.00    -0.019 A 
ATOM     21  C   UNL A   1      38.844  23.018  26.175  1.00  0.00     0.037 A 
ATOM     22  C   UNL A   1      38.302  21.840  25.655  1.00  0.00     0.026 A 
ATOM     23  C   UNL A   1      37.996  24.129  26.201  1.00  0.00     0.026 A 
ATOM     24  C   UNL A   1      36.950  21.714  25.349  1.00  0.00     0.008 A 
ATOM     25  C   UNL A   1      36.632  24.011  25.905  1.00  0.00     0.008 A 
BRANCH  21  26
ATOM     26  N   UNL A   1      40.124  23.072  26.709  1.00  0.00    -0.372 N 
BRANCH  26  27
ATOM     27  C   UNL A   1      40.316  23.867  27.936  1.00  0.00     0.113 C 
ATOM     28  C   UNL A   1      40.371  25.365  27.667  1.00  0.00     0.027 C 
ENDBRANCH  26  27
BRANCH  26  29
ATOM     29  C   UNL A   1      41.144  22.063  26.394  1.00  0.00     0.113 C 
ATOM     30  C   UNL A   1      42.411  22.626  25.757  1.00  0.00     0.027 C 
ENDBRANCH  26  29
ENDBRANCH  21  26
ENDBRANCH   7  20
BRANCH   9  31
ATOM     31  C   UNL A   1      34.310  22.979  23.226  1.00  0.00     0.221 C 
ATOM     32  C   UNL A   1      33.337  22.910  22.099  1.00  0.00     0.114 C 
ATOM     33  O   UNL A   1      35.480  22.691  22.945  1.00  0.00    -0.275 OA
ENDBRANCH   9  31
ENDBRANCH   4   6
ENDBRANCH   3   4
ENDBRANCH   2   3
ENDBRANCH   1   2
BRANCH   1  34
ATOM     34  O   UNL A   1      31.728  28.333  26.414  1.00  0.00    -0.374 OA
BRANCH  34  35
ATOM     35  C   UNL A   1      32.074  29.611  25.886  1.00  0.00     0.202 C 
BRANCH  35  36
ATOM     36  C   UNL A   1      32.531  30.602  26.960  1.00  0.00     0.261 C 
BRANCH  36  37
ATOM     37  O   UNL A   1      33.963  30.757  26.973  1.00  0.00    -0.460 OA
BRANCH  37  38
ATOM     38  C   UNL A   1      34.397  31.772  27.751  1.00  0.00     0.338 C 
ATOM     39  O   UNL A   1      33.808  32.815  28.023  1.00  0.00    -0.246 OA
BRANCH  38  40
ATOM     40  C   UNL A   1      35.675  31.424  28.379  1.00  0.00     0.060 A 
ATOM     41  C   UNL A   1      35.759  30.195  29.036  1.00  0.00     0.016 A 
ATOM     42  C   UNL A   1      36.725  32.345  28.450  1.00  0.00     0.016 A 
ATOM     43  C   UNL A   1      36.879  29.900  29.810  1.00  0.00     0.010 A 
ATOM     44  C   UNL A   1      37.866  32.027  29.196  1.00  0.00     0.010 A 
ATOM     45  C   UNL A   1      37.933  30.821  29.917  1.00  0.00    -0.014 A 
BRANCH  45  46
ATOM     46  C   UNL A   1      39.041  30.561  30.874  1.00  0.00     0.031 A 
ATOM     47  C   UNL A   1      40.173  29.649  30.479  1.00  0.00     0.074 A 
ATOM     48  C   UNL A   1      39.070  31.180  32.070  1.00  0.00     0.049 A 
ATOM     49  N   UNL A   1      41.237  29.305  31.161  1.00  0.00    -0.248 NA
ATOM     50  C   UNL A   1      40.096  29.043  29.141  1.00  0.00     0.031 C 
ATOM     51  C   UNL A   1      38.058  32.114  32.562  1.00  0.00     0.029 A 
ATOM     52  N   UNL A   1      39.994  31.120  33.084  1.00  0.00    -0.354 N 
ATOM     53  C   UNL A   1      41.951  28.440  30.339  1.00  0.00     0.074 A 
ATOM     54  C   UNL A   1      41.183  28.282  29.124  1.00  0.00     0.031 C 
ATOM     55  C   UNL A   1      38.425  32.553  33.778  1.00  0.00     0.029 A 
ATOM     56  C   UNL A   1      39.669  31.895  34.170  1.00  0.00     0.049 A 
ATOM     57  H   UNL A   1      40.811  30.573  33.036  1.00  0.00     0.167 HD
ATOM     58  C   UNL A   1      43.143  27.837  30.570  1.00  0.00     0.031 A 
ATOM     59  C   UNL A   1      40.288  32.040  35.358  1.00  0.00     0.031 A 
ATOM     60  C   UNL A   1      43.907  27.984  31.781  1.00  0.00     0.049 A 
ATOM     61  C   UNL A   1      41.565  31.288  35.624  1.00  0.00     0.074 A 
ATOM     62  C   UNL A   1      45.137  27.431  32.095  1.00  0.00     0.029 A 
ATOM     63  N   UNL A   1      43.510  28.727  32.881  1.00  0.00    -0.354 N 
ATOM     64  N   UNL A   1      42.245  30.502  34.824  1.00  0.00    -0.248 NA
ATOM     65  C   UNL A   1      42.159  31.445  36.960  1.00  0.00     0.031 C 
ATOM     66  C   UNL A   1      45.451  27.783  33.412  1.00  0.00     0.029 A 
ATOM     67  C   UNL A   1      44.450  28.613  33.892  1.00  0.00     0.049 A 
ATOM     68  H   UNL A   1      42.683  29.259  32.936  1.00  0.00     0.167 HD
ATOM     69  C   UNL A   1      43.353  30.087  35.552  1.00  0.00     0.074 A 
ATOM     70  C   UNL A   1      43.269  30.728  36.848  1.00  0.00     0.031 C 
ATOM     71  C   UNL A   1      44.351  29.246  35.182  1.00  0.00     0.031 A 
BRANCH  58  72
ATOM     72  C   UNL A   1      43.680  26.925  29.499  1.00  0.00    -0.014 A 
ATOM     73  C   UNL A   1      44.424  27.423  28.418  1.00  0.00     0.009 A 
ATOM     74  C   UNL A   1      43.476  25.540  29.600  1.00  0.00     0.009 A 
ATOM     75  C   UNL A   1      44.923  26.555  27.443  1.00  0.00     0.001 A 
ATOM     76  C   UNL A   1      44.001  24.672  28.642  1.00  0.00     0.001 A 
ATOM     77  C   UNL A   1      44.716  25.181  27.559  1.00  0.00     0.000 A 
ENDBRANCH  58  72
BRANCH  59  78
ATOM     78  C   UNL A   1      39.692  32.910  36.406  1.00  0.00    -0.014 A 
ATOM     79  C   UNL A   1      40.065  34.258  36.523  1.00  0.00     0.009 A 
ATOM     80  C   UNL A   1      38.758  32.386  37.314  1.00  0.00     0.009 A 
ATOM     81  C   UNL A   1      39.534  35.054  37.541  1.00  0.00     0.001 A 
ATOM     82  C   UNL A   1      38.203  33.192  38.310  1.00  0.00     0.001 A 
ATOM     83  C   UNL A   1      38.600  34.522  38.429  1.00  0.00     0.000 A 
ENDBRANCH  59  78
BRANCH  71  84
ATOM     84  C   UNL A   1      45.443  28.987  36.184  1.00  0.00    -0.014 A 
ATOM     85  C   UNL A   1      45.370  27.908  37.078  1.00  0.00     0.009 A 
ATOM     86  C   UNL A   1      46.579  29.812  36.207  1.00  0.00     0.009 A 
ATOM     87  C   UNL A   1      46.397  27.682  37.998  1.00  0.00     0.001 A 
ATOM     88  C   UNL A   1      47.618  29.564  37.105  1.00  0.00     0.001 A 
ATOM     89  C   UNL A   1      47.522  28.505  38.007  1.00  0.00     0.000 A 
ENDBRANCH  71  84
ENDBRANCH  45  46
ENDBRANCH  38  40
ENDBRANCH  37  38
ENDBRANCH  36  37
ENDBRANCH  35  36
ENDBRANCH  34  35
ENDBRANCH   1  34
TORSDOF 19
ENDMDL
MODEL 2
REMARK VINA RESULT:     -10.5      0.353      5.564
REMARK SMILES CCN(CC)c1ccc([C@@H]2c3[nH]c4ccccc4c3C[C@@H](C(=O)OCCOCCOC(=O)c3ccc(-c4c5nc(c(-c6ccccc6)c6ccc([nH]6)c(-c6ccccc6)c6nc(c(-c7ccccc7)c7ccc4[nH]7)C=C6)C=C5)cc3)N2C(C)=O)cc1
REMARK SMILES IDX 26 1 25 2 24 3 22 4 23 5 21 6 10 7 11 8 81 9 12 10 19 11
REMARK SMILES IDX 13 12 18 14 20 15 14 16 17 17 15 18 16 19 9 20 6 21 7 22
REMARK SMILES IDX 86 23 8 24 85 25 3 26 2 27 1 28 4 29 5 30 82 31 83 32 84 33
REMARK SMILES IDX 27 34 28 35 29 36 30 37 31 38 32 39 33 40 34 41 80 42 35 43
REMARK SMILES IDX 79 44 36 45 37 46 38 47 73 48 39 49 78 50 72 51 74 52 40 53
REMARK SMILES IDX 77 54 71 55 70 56 41 58 63 59 48 60 62 61 49 62 52 63 61 64
REMARK SMILES IDX 75 65 50 66 51 67 60 69 76 70 53 71 42 72 43 73 47 74 44 75
REMARK SMILES IDX 46 76 45 77 64 78 65 79 69 80 66 81 68 82 67 83 54 84 55 85
REMARK SMILES IDX 59 86 56 87 58 88 57 89
REMARK H PARENT 12 13 74 57 52 68
REMARK Flexibility Score: inf
ROOT
ATOM      1  C   UNL A   1      32.923  27.590  26.766  1.00  0.00     0.202 C 
ENDROOT
BRANCH   1   2
ATOM      2  C   UNL A   1      32.934  26.213  26.062  1.00  0.00     0.261 C 
BRANCH   2   3
ATOM      3  O   UNL A   1      32.227  25.178  26.802  1.00  0.00    -0.462 OA
BRANCH   3   4
ATOM      4  C   UNL A   1      32.214  23.834  26.514  1.00  0.00     0.329 C 
ATOM      5  O   UNL A   1      31.859  22.975  27.309  1.00  0.00    -0.250 OA
BRANCH   4   6
ATOM      6  C   UNL A   1      32.485  23.575  24.935  1.00  0.00     0.200 C 
ATOM      7  C   UNL A   1      34.626  22.619  25.574  1.00  0.00     0.163 C 
ATOM      8  C   UNL A   1      33.892  21.291  25.535  1.00  0.00     0.047 A 
ATOM      9  N   UNL A   1      33.951  23.387  24.543  1.00  0.00    -0.316 N 
ATOM     10  N   UNL A   1      34.415  20.050  25.733  1.00  0.00    -0.356 N 
ATOM     11  C   UNL A   1      32.617  21.108  24.978  1.00  0.00    -0.014 A 
ATOM     12  C   UNL A   1      33.828  19.222  24.797  1.00  0.00     0.046 A 
ATOM     13  H   UNL A   1      35.081  19.792  26.411  1.00  0.00     0.166 HD
ATOM     14  C   UNL A   1      32.623  19.813  24.420  1.00  0.00     0.003 A 
ATOM     15  C   UNL A   1      31.735  22.268  24.575  1.00  0.00     0.075 C 
ATOM     16  C   UNL A   1      34.329  18.086  24.168  1.00  0.00     0.026 A 
ATOM     17  C   UNL A   1      31.830  19.221  23.426  1.00  0.00     0.010 A 
ATOM     18  C   UNL A   1      33.595  17.595  23.084  1.00  0.00     0.002 A 
ATOM     19  C   UNL A   1      32.361  18.139  22.727  1.00  0.00     0.001 A 
BRANCH   7  20
ATOM     20  C   UNL A   1      36.133  22.749  25.592  1.00  0.00    -0.019 A 
ATOM     21  C   UNL A   1      38.915  22.943  26.159  1.00  0.00     0.037 A 
ATOM     22  C   UNL A   1      38.349  21.793  25.603  1.00  0.00     0.026 A 
ATOM     23  C   UNL A   1      38.084  24.064  26.236  1.00  0.00     0.026 A 
ATOM     24  C   UNL A   1      36.992  21.699  25.309  1.00  0.00     0.008 A 
ATOM     25  C   UNL A   1      36.715  23.978  25.952  1.00  0.00     0.008 A 
BRANCH  21  26
ATOM     26  N   UNL A   1      40.201  22.959  26.680  1.00  0.00    -0.372 N 
BRANCH  26  27
ATOM     27  C   UNL A   1      40.445  23.803  27.864  1.00  0.00     0.113 C 
ATOM     28  C   UNL A   1      40.859  25.223  27.502  1.00  0.00     0.027 C 
ENDBRANCH  26  27
BRANCH  26  29
ATOM     29  C   UNL A   1      41.165  21.884  26.408  1.00  0.00     0.113 C 
ATOM     30  C   UNL A   1      42.464  22.353  25.761  1.00  0.00     0.027 C 
ENDBRANCH  26  29
ENDBRANCH  21  26
ENDBRANCH   7  20
BRANCH   9  31
ATOM     31  C   UNL A   1      34.357  22.981  23.246  1.00  0.00     0.221 C 
ATOM     32  C   UNL A   1      33.397  23.009  22.105  1.00  0.00     0.114 C 
ATOM     33  O   UNL A   1      35.502  22.601  22.975  1.00  0.00    -0.275 OA
ENDBRANCH   9  31
ENDBRANCH   4   6
ENDBRANCH   3   4
ENDBRANCH   2   3
ENDBRANCH   1   2
BRANCH   1  34
ATOM     34  O   UNL A   1      31.838  28.435  26.356  1.00  0.00    -0.374 OA
BRANCH  34  35
ATOM     35  C   UNL A   1      32.242  29.716  25.879  1.00  0.00     0.202 C 
BRANCH  35  36
ATOM     36  C   UNL A   1      32.699  30.657  26.998  1.00  0.00     0.261 C 
BRANCH  36  37
ATOM     37  O   UNL A   1      34.133  30.787  27.039  1.00  0.00    -0.460 OA
BRANCH  37  38
ATOM     38  C   UNL A   1      34.574  31.703  27.928  1.00  0.00     0.338 C 
ATOM     39  O   UNL A   1      33.986  32.702  28.334  1.00  0.00    -0.246 OA
BRANCH  38  40
ATOM     40  C   UNL A   1      35.864  31.290  28.489  1.00  0.00     0.060 A 
ATOM     41  C   UNL A   1      35.921  30.056  29.140  1.00  0.00     0.016 A 
ATOM     42  C   UNL A   1      36.961  32.157  28.507  1.00  0.00     0.016 A 
ATOM     43  C   UNL A   1      37.063  29.703  29.855  1.00  0.00     0.010 A 
ATOM     44  C   UNL A   1      38.122  31.780  29.193  1.00  0.00     0.010 A 
ATOM     45  C   UNL A   1      38.165  30.570  29.909  1.00  0.00    -0.014 A 
BRANCH  45  46
ATOM     46  C   UNL A   1      39.306  30.253  30.808  1.00  0.00     0.031 A 
ATOM     47  C   UNL A   1      39.385  30.889  32.171  1.00  0.00     0.074 A 
ATOM     48  C   UNL A   1      40.240  29.358  30.436  1.00  0.00     0.049 A 
ATOM     49  N   UNL A   1      40.287  30.734  33.108  1.00  0.00    -0.248 NA
ATOM     50  C   UNL A   1      38.305  31.824  32.527  1.00  0.00     0.031 C 
ATOM     51  C   UNL A   1      40.264  28.642  29.160  1.00  0.00     0.029 A 
ATOM     52  N   UNL A   1      41.346  28.891  31.104  1.00  0.00    -0.354 N 
ATOM     53  C   UNL A   1      39.889  31.554  34.157  1.00  0.00     0.074 A 
ATOM     54  C   UNL A   1      38.685  32.232  33.730  1.00  0.00     0.031 C 
ATOM     55  C   UNL A   1      41.322  27.815  29.144  1.00  0.00     0.029 A 
ATOM     56  C   UNL A   1      42.077  27.978  30.385  1.00  0.00     0.049 A 
ATOM     57  H   UNL A   1      41.591  29.185  32.011  1.00  0.00     0.167 HD
ATOM     58  C   UNL A   1      40.467  31.723  35.372  1.00  0.00     0.031 A 
ATOM     59  C   UNL A   1      43.237  27.359  30.679  1.00  0.00     0.031 A 
ATOM     60  C   UNL A   1      41.670  31.057  35.799  1.00  0.00     0.049 A 
ATOM     61  C   UNL A   1      43.908  27.633  31.999  1.00  0.00     0.074 A 
ATOM     62  C   UNL A   1      42.317  31.147  37.020  1.00  0.00     0.029 A 
ATOM     63  N   UNL A   1      42.413  30.189  35.016  1.00  0.00    -0.354 N 
ATOM     64  N   UNL A   1      43.501  28.384  32.994  1.00  0.00    -0.248 NA
ATOM     65  C   UNL A   1      45.200  26.972  32.235  1.00  0.00     0.031 C 
ATOM     66  C   UNL A   1      43.490  30.388  36.950  1.00  0.00     0.029 A 
ATOM     67  C   UNL A   1      43.536  29.769  35.711  1.00  0.00     0.049 A 
ATOM     68  H   UNL A   1      42.179  29.911  34.101  1.00  0.00     0.167 HD
ATOM     69  C   UNL A   1      44.475  28.271  33.979  1.00  0.00     0.074 A 
ATOM     70  C   UNL A   1      45.480  27.359  33.472  1.00  0.00     0.031 C 
ATOM     71  C   UNL A   1      44.535  28.871  35.193  1.00  0.00     0.031 A 
BRANCH  58  72
ATOM     72  C   UNL A   1      39.825  32.700  36.319  1.00  0.00    -0.014 A 
ATOM     73  C   UNL A   1      38.810  32.304  37.205  1.00  0.00     0.009 A 
ATOM     74  C   UNL A   1      40.274  34.030  36.356  1.00  0.00     0.009 A 
ATOM     75  C   UNL A   1      38.237  33.227  38.083  1.00  0.00     0.001 A 
ATOM     76  C   UNL A   1      39.722  34.944  37.255  1.00  0.00     0.001 A 
ATOM     77  C   UNL A   1      38.697  34.544  38.112  1.00  0.00     0.000 A 
ENDBRANCH  58  72
BRANCH  59  78
ATOM     78  C   UNL A   1      43.864  26.442  29.691  1.00  0.00    -0.014 A 
ATOM     79  C   UNL A   1      43.614  25.062  29.727  1.00  0.00     0.009 A 
ATOM     80  C   UNL A   1      44.738  26.946  28.713  1.00  0.00     0.009 A 
ATOM     81  C   UNL A   1      44.244  24.204  28.822  1.00  0.00     0.001 A 
ATOM     82  C   UNL A   1      45.341  26.090  27.789  1.00  0.00     0.001 A 
ATOM     83  C   UNL A   1      45.102  24.719  27.851  1.00  0.00     0.000 A 
ENDBRANCH  59  78
BRANCH  71  84
ATOM     84  C   UNL A   1      45.716  28.545  36.067  1.00  0.00    -0.014 A 
ATOM     85  C   UNL A   1      46.881  29.328  36.038  1.00  0.00     0.009 A 
ATOM     86  C   UNL A   1      45.647  27.463  36.959  1.00  0.00     0.009 A 
ATOM     87  C   UNL A   1      47.965  29.012  36.861  1.00  0.00     0.001 A 
ATOM     88  C   UNL A   1      46.719  27.170  37.803  1.00  0.00     0.001 A 
ATOM     89  C   UNL A   1      47.881  27.938  37.746  1.00  0.00     0.000 A 
ENDBRANCH  71  84
ENDBRANCH  45  46
ENDBRANCH  38  40
ENDBRANCH  37  38
ENDBRANCH  36  37
ENDBRANCH  35  36
ENDBRANCH  34  35
ENDBRANCH   1  34
TORSDOF 19
ENDMDL
MODEL 3
REMARK VINA RESULT:     -10.4      2.312      7.410
REMARK SMILES CCN(CC)c1ccc([C@@H]2c3[nH]c4ccccc4c3C[C@@H](C(=O)OCCOCCOC(=O)c3ccc(-c4c5nc(c(-c6ccccc6)c6ccc([nH]6)c(-c6ccccc6)c6nc(c(-c7ccccc7)c7ccc4[nH]7)C=C6)C=C5)cc3)N2C(C)=O)cc1
REMARK SMILES IDX 26 1 25 2 24 3 22 4 23 5 21 6 10 7 11 8 81 9 12 10 19 11
REMARK SMILES IDX 13 12 18 14 20 15 14 16 17 17 15 18 16 19 9 20 6 21 7 22
REMARK SMILES IDX 86 23 8 24 85 25 3 26 2 27 1 28 4 29 5 30 82 31 83 32 84 33
REMARK SMILES IDX 27 34 28 35 29 36 30 37 31 38 32 39 33 40 34 41 80 42 35 43
REMARK SMILES IDX 79 44 36 45 37 46 38 47 73 48 39 49 78 50 72 51 74 52 40 53
REMARK SMILES IDX 77 54 71 55 70 56 41 58 63 59 48 60 62 61 49 62 52 63 61 64
REMARK SMILES IDX 75 65 50 66 51 67 60 69 76 70 53 71 42 72 43 73 47 74 44 75
REMARK SMILES IDX 46 76 45 77 64 78 65 79 69 80 66 81 68 82 67 83 54 84 55 85
REMARK SMILES IDX 59 86 56 87 58 88 57 89
REMARK H PARENT 12 13 74 57 52 68
REMARK Flexibility Score: inf
ROOT
ATOM      1  C   UNL A   1      39.169  20.396  25.384  1.00  0.00     0.202 C 
ENDROOT
BRANCH   1   2
ATOM      2  C   UNL A   1      38.616  21.681  26.046  1.00  0.00     0.261 C 
BRANCH   2   3
ATOM      3  O   UNL A   1      37.659  22.396  25.213  1.00  0.00    -0.462 OA
BRANCH   3   4
ATOM      4  C   UNL A   1      36.831  23.415  25.615  1.00  0.00     0.329 C 
ATOM      5  O   UNL A   1      37.045  24.113  26.597  1.00  0.00    -0.250 OA
BRANCH   4   6
ATOM      6  C   UNL A   1      35.697  23.721  24.495  1.00  0.00     0.200 C 
ATOM      7  C   UNL A   1      34.556  21.719  25.266  1.00  0.00     0.163 C 
ATOM      8  C   UNL A   1      33.763  22.672  26.143  1.00  0.00     0.047 A 
ATOM      9  N   UNL A   1      34.835  22.525  24.091  1.00  0.00    -0.316 N 
ATOM     10  N   UNL A   1      32.728  22.366  26.974  1.00  0.00    -0.356 N 
ATOM     11  C   UNL A   1      33.768  24.067  26.000  1.00  0.00    -0.014 A 
ATOM     12  C   UNL A   1      31.795  23.373  26.825  1.00  0.00     0.046 A 
ATOM     13  H   UNL A   1      32.659  21.582  27.564  1.00  0.00     0.166 HD
ATOM     14  C   UNL A   1      32.469  24.495  26.345  1.00  0.00     0.003 A 
ATOM     15  C   UNL A   1      34.757  24.787  25.111  1.00  0.00     0.075 C 
ATOM     16  C   UNL A   1      30.409  23.332  26.946  1.00  0.00     0.026 A 
ATOM     17  C   UNL A   1      31.759  25.664  26.037  1.00  0.00     0.010 A 
ATOM     18  C   UNL A   1      29.707  24.456  26.498  1.00  0.00     0.002 A 
ATOM     19  C   UNL A   1      30.367  25.608  26.068  1.00  0.00     0.001 A 
BRANCH   7  20
ATOM     20  C   UNL A   1      34.142  20.291  24.985  1.00  0.00    -0.019 A 
ATOM     21  C   UNL A   1      33.686  17.485  24.873  1.00  0.00     0.037 A 
ATOM     22  C   UNL A   1      32.728  18.373  25.366  1.00  0.00     0.026 A 
ATOM     23  C   UNL A   1      34.798  18.059  24.250  1.00  0.00     0.026 A 
ATOM     24  C   UNL A   1      32.940  19.749  25.409  1.00  0.00     0.008 A 
ATOM     25  C   UNL A   1      35.026  19.441  24.296  1.00  0.00     0.008 A 
BRANCH  21  26
ATOM     26  N   UNL A   1      33.587  16.112  25.052  1.00  0.00    -0.372 N 
BRANCH  26  27
ATOM     27  C   UNL A   1      34.829  15.324  24.963  1.00  0.00     0.113 C 
ATOM     28  C   UNL A   1      35.978  15.940  25.749  1.00  0.00     0.027 C 
ENDBRANCH  26  27
BRANCH  26  29
ATOM     29  C   UNL A   1      32.446  15.497  25.745  1.00  0.00     0.113 C 
ATOM     30  C   UNL A   1      32.513  13.976  25.837  1.00  0.00     0.027 C 
ENDBRANCH  26  29
ENDBRANCH  21  26
ENDBRANCH   7  20
BRANCH   9  31
ATOM     31  C   UNL A   1      33.690  22.645  23.262  1.00  0.00     0.221 C 
ATOM     32  C   UNL A   1      33.676  23.601  22.118  1.00  0.00     0.114 C 
ATOM     33  O   UNL A   1      32.662  21.975  23.414  1.00  0.00    -0.275 OA
ENDBRANCH   9  31
ENDBRANCH   4   6
ENDBRANCH   3   4
ENDBRANCH   2   3
ENDBRANCH   1   2
BRANCH   1  34
ATOM     34  O   UNL A   1      40.283  19.824  26.085  1.00  0.00    -0.374 OA
BRANCH  34  35
ATOM     35  C   UNL A   1      41.087  20.774  26.779  1.00  0.00     0.202 C 
BRANCH  35  36
ATOM     36  C   UNL A   1      42.415  21.066  26.073  1.00  0.00     0.261 C 
BRANCH  36  37
ATOM     37  O   UNL A   1      43.080  22.215  26.632  1.00  0.00    -0.460 OA
BRANCH  37  38
ATOM     38  C   UNL A   1      42.994  23.323  25.865  1.00  0.00     0.338 C 
ATOM     39  O   UNL A   1      43.235  23.429  24.666  1.00  0.00    -0.246 OA
BRANCH  38  40
ATOM     40  C   UNL A   1      42.426  24.434  26.636  1.00  0.00     0.060 A 
ATOM     41  C   UNL A   1      43.073  25.670  26.560  1.00  0.00     0.016 A 
ATOM     42  C   UNL A   1      41.371  24.235  27.530  1.00  0.00     0.016 A 
ATOM     43  C   UNL A   1      42.695  26.701  27.416  1.00  0.00     0.010 A 
ATOM     44  C   UNL A   1      40.968  25.288  28.361  1.00  0.00     0.010 A 
ATOM     45  C   UNL A   1      41.656  26.514  28.341  1.00  0.00    -0.014 A 
BRANCH  45  46
ATOM     46  C   UNL A   1      41.377  27.565  29.355  1.00  0.00     0.031 A 
ATOM     47  C   UNL A   1      42.272  27.700  30.559  1.00  0.00     0.074 A 
ATOM     48  C   UNL A   1      40.364  28.435  29.177  1.00  0.00     0.049 A 
ATOM     49  N   UNL A   1      42.209  28.557  31.548  1.00  0.00    -0.248 NA
ATOM     50  C   UNL A   1      43.385  26.743  30.665  1.00  0.00     0.031 C 
ATOM     51  C   UNL A   1      39.445  28.440  28.039  1.00  0.00     0.029 A 
ATOM     52  N   UNL A   1      39.947  29.490  29.951  1.00  0.00    -0.354 N 
ATOM     53  C   UNL A   1      43.265  28.239  32.394  1.00  0.00     0.074 A 
ATOM     54  C   UNL A   1      43.931  27.089  31.823  1.00  0.00     0.031 C 
ATOM     55  C   UNL A   1      38.582  29.459  28.180  1.00  0.00     0.029 A 
ATOM     56  C   UNL A   1      38.854  30.147  29.441  1.00  0.00     0.049 A 
ATOM     57  H   UNL A   1      40.389  29.749  30.791  1.00  0.00     0.167 HD
ATOM     58  C   UNL A   1      43.652  28.852  33.539  1.00  0.00     0.031 A 
ATOM     59  C   UNL A   1      38.138  31.172  29.941  1.00  0.00     0.031 A 
ATOM     60  C   UNL A   1      42.987  29.991  34.116  1.00  0.00     0.049 A 
ATOM     61  C   UNL A   1      38.534  31.778  31.261  1.00  0.00     0.074 A 
ATOM     62  C   UNL A   1      43.322  30.695  35.260  1.00  0.00     0.029 A 
ATOM     63  N   UNL A   1      41.847  30.585  33.600  1.00  0.00    -0.354 N 
ATOM     64  N   UNL A   1      39.556  31.489  32.031  1.00  0.00    -0.248 NA
ATOM     65  C   UNL A   1      37.676  32.854  31.780  1.00  0.00     0.031 C 
ATOM     66  C   UNL A   1      42.343  31.671  35.475  1.00  0.00     0.029 A 
ATOM     67  C   UNL A   1      41.439  31.620  34.426  1.00  0.00     0.049 A 
ATOM     68  H   UNL A   1      41.393  30.313  32.770  1.00  0.00     0.167 HD
ATOM     69  C   UNL A   1      39.474  32.357  33.113  1.00  0.00     0.074 A 
ATOM     70  C   UNL A   1      38.318  33.200  32.888  1.00  0.00     0.031 C 
ATOM     71  C   UNL A   1      40.281  32.446  34.199  1.00  0.00     0.031 A 
BRANCH  58  72
ATOM     72  C   UNL A   1      44.836  28.277  34.271  1.00  0.00    -0.014 A 
ATOM     73  C   UNL A   1      46.152  28.599  33.904  1.00  0.00     0.009 A 
ATOM     74  C   UNL A   1      44.627  27.435  35.374  1.00  0.00     0.009 A 
ATOM     75  C   UNL A   1      47.234  28.062  34.606  1.00  0.00     0.001 A 
ATOM     76  C   UNL A   1      45.708  26.923  36.093  1.00  0.00     0.001 A 
ATOM     77  C   UNL A   1      47.011  27.230  35.703  1.00  0.00     0.000 A 
ENDBRANCH  58  72
BRANCH  59  78
ATOM     78  C   UNL A   1      36.944  31.673  29.210  1.00  0.00    -0.014 A 
ATOM     79  C   UNL A   1      35.843  30.837  28.969  1.00  0.00     0.009 A 
ATOM     80  C   UNL A   1      36.911  32.991  28.727  1.00  0.00     0.009 A 
ATOM     81  C   UNL A   1      34.745  31.304  28.240  1.00  0.00     0.001 A 
ATOM     82  C   UNL A   1      35.799  33.466  28.027  1.00  0.00     0.001 A 
ATOM     83  C   UNL A   1      34.723  32.619  27.775  1.00  0.00     0.000 A 
ENDBRANCH  59  78
BRANCH  71  84
ATOM     84  C   UNL A   1      39.955  33.505  35.217  1.00  0.00    -0.014 A 
ATOM     85  C   UNL A   1      39.154  33.220  36.333  1.00  0.00     0.009 A 
ATOM     86  C   UNL A   1      40.490  34.796  35.077  1.00  0.00     0.009 A 
ATOM     87  C   UNL A   1      38.866  34.217  37.269  1.00  0.00     0.001 A 
ATOM     88  C   UNL A   1      40.229  35.780  36.031  1.00  0.00     0.001 A 
ATOM     89  C   UNL A   1      39.408  35.492  37.121  1.00  0.00     0.000 A 
ENDBRANCH  71  84
ENDBRANCH  45  46
ENDBRANCH  38  40
ENDBRANCH  37  38
ENDBRANCH  36  37
ENDBRANCH  35  36
ENDBRANCH  34  35
ENDBRANCH   1  34
TORSDOF 19
ENDMDL
