MODEL 1
REMARK VINA RESULT:     -10.2      0.000      0.000
REMARK SMILES CCCc1cc2c(cc1Cl)C=C(C(=O)OCCOCCOC(=O)c1ccc(-c3c4nc(c(-c5ccccc5)c5ccc([nH]5)c(-c5ccccc5)c5nc(c(-c6ccccc6)c6ccc3[nH]6)C=C5)C=C4)cc1)[C@@H](C(F)(F)F)O2
REMARK SMILES IDX 18 1 17 2 16 3 15 4 13 5 14 6 12 7 4 8 5 9 9 10 6 11 8 12
REMARK SMILES IDX 10 13 7 14 77 15 11 16 72 17 3 18 2 19 1 20 73 21 74 22
REMARK SMILES IDX 75 23 76 24 19 25 20 26 21 27 22 28 23 29 24 30 25 31 71 32
REMARK SMILES IDX 26 33 70 34 27 35 28 36 29 37 64 38 30 39 69 40 63 41 65 42
REMARK SMILES IDX 31 43 68 44 62 45 61 46 32 48 54 49 39 50 53 51 40 52 43 53
REMARK SMILES IDX 52 54 66 55 41 56 42 57 51 59 67 60 44 61 33 62 34 63 38 64
REMARK SMILES IDX 35 65 37 66 36 67 55 68 56 69 60 70 57 71 59 72 58 73 45 74
REMARK SMILES IDX 46 75 50 76 47 77 49 78 48 79
REMARK H PARENT 65 47 43 58
REMARK Flexibility Score: inf
ROOT
ATOM      1  O   UNL A   1      36.692  21.199  25.168  1.00  0.00    -0.374 OA
ENDROOT
BRANCH   1   2
ATOM      2  C   UNL A   1      37.011  22.178  24.184  1.00  0.00     0.202 C 
BRANCH   2   3
ATOM      3  C   UNL A   1      36.017  23.323  23.964  1.00  0.00     0.261 C 
BRANCH   3   4
ATOM      4  O   UNL A   1      35.884  24.150  25.127  1.00  0.00    -0.460 OA
BRANCH   4   5
ATOM      5  C   UNL A   1      34.632  24.185  25.642  1.00  0.00     0.338 C 
ATOM      6  O   UNL A   1      34.218  23.563  26.606  1.00  0.00    -0.246 OA
BRANCH   5   7
ATOM      7  C   UNL A   1      33.836  25.207  24.939  1.00  0.00     0.087 C 
ATOM      8  C   UNL A   1      30.900  29.160  24.081  1.00  0.00    -0.026 A 
ATOM      9  C   UNL A   1      31.202  27.988  23.365  1.00  0.00     0.052 A 
ATOM     10  C   UNL A   1      31.740  29.504  25.156  1.00  0.00     0.045 A 
ATOM     11  C   UNL A   1      32.188  27.107  23.808  1.00  0.00     0.128 A 
ATOM     12  C   UNL A   1      32.751  28.638  25.582  1.00  0.00     0.032 A 
ATOM     13  Cl  UNL A   1      31.558  30.988  26.026  1.00  0.00    -0.084 Cl
ATOM     14  C   UNL A   1      32.936  27.413  24.941  1.00  0.00     0.019 A 
ATOM     15  O   UNL A   1      32.346  25.959  23.085  1.00  0.00    -0.475 OA
ATOM     16  C   UNL A   1      33.835  26.424  25.498  1.00  0.00     0.027 C 
ATOM     17  C   UNL A   1      33.068  24.851  23.696  1.00  0.00     0.316 C 
BRANCH   8  18
ATOM     18  C   UNL A   1      29.705  30.024  23.727  1.00  0.00     0.037 C 
BRANCH  18  19
ATOM     19  C   UNL A   1      28.821  29.582  22.550  1.00  0.00     0.001 C 
ATOM     20  C   UNL A   1      27.454  29.052  22.971  1.00  0.00     0.004 C 
ENDBRANCH  18  19
ENDBRANCH   8  18
BRANCH  17  21
ATOM     21  C   UNL A   1      32.090  23.688  23.920  1.00  0.00     0.430 C 
ATOM     22  F   UNL A   1      32.731  22.495  23.889  1.00  0.00    -0.167 F 
ATOM     23  F   UNL A   1      31.486  23.770  25.129  1.00  0.00    -0.167 F 
ATOM     24  F   UNL A   1      31.118  23.653  22.981  1.00  0.00    -0.167 F 
ENDBRANCH  17  21
ENDBRANCH   5   7
ENDBRANCH   4   5
ENDBRANCH   3   4
ENDBRANCH   2   3
ENDBRANCH   1   2
BRANCH   1  25
ATOM     25  C   UNL A   1      37.183  19.870  24.998  1.00  0.00     0.202 C 
BRANCH  25  26
ATOM     26  C   UNL A   1      38.699  19.650  24.913  1.00  0.00     0.261 C 
BRANCH  26  27
ATOM     27  O   UNL A   1      39.368  19.858  26.169  1.00  0.00    -0.460 OA
BRANCH  27  28
ATOM     28  C   UNL A   1      40.721  19.780  26.113  1.00  0.00     0.338 C 
ATOM     29  O   UNL A   1      41.393  18.904  25.590  1.00  0.00    -0.246 OA
BRANCH  28  30
ATOM     30  C   UNL A   1      41.299  21.039  26.612  1.00  0.00     0.060 A 
ATOM     31  C   UNL A   1      41.830  21.986  25.737  1.00  0.00     0.016 A 
ATOM     32  C   UNL A   1      41.264  21.282  27.992  1.00  0.00     0.016 A 
ATOM     33  C   UNL A   1      42.311  23.194  26.248  1.00  0.00     0.010 A 
ATOM     34  C   UNL A   1      41.748  22.486  28.500  1.00  0.00     0.010 A 
ATOM     35  C   UNL A   1      42.259  23.459  27.630  1.00  0.00    -0.014 A 
BRANCH  35  36
ATOM     36  C   UNL A   1      42.627  24.797  28.151  1.00  0.00     0.031 A 
ATOM     37  C   UNL A   1      44.045  25.135  28.505  1.00  0.00     0.074 A 
ATOM     38  C   UNL A   1      41.651  25.709  28.326  1.00  0.00     0.049 A 
ATOM     39  N   UNL A   1      44.533  26.274  28.924  1.00  0.00    -0.248 NA
ATOM     40  C   UNL A   1      45.042  24.062  28.375  1.00  0.00     0.031 C 
ATOM     41  C   UNL A   1      40.235  25.482  28.038  1.00  0.00     0.029 A 
ATOM     42  N   UNL A   1      41.698  27.004  28.778  1.00  0.00    -0.354 N 
ATOM     43  C   UNL A   1      45.894  26.064  29.093  1.00  0.00     0.074 A 
ATOM     44  C   UNL A   1      46.149  24.674  28.777  1.00  0.00     0.031 C 
ATOM     45  C   UNL A   1      39.553  26.611  28.284  1.00  0.00     0.029 A 
ATOM     46  C   UNL A   1      40.474  27.627  28.788  1.00  0.00     0.049 A 
ATOM     47  H   UNL A   1      42.531  27.445  29.066  1.00  0.00     0.167 HD
ATOM     48  C   UNL A   1      46.844  26.958  29.459  1.00  0.00     0.031 A 
ATOM     49  C   UNL A   1      40.124  28.874  29.160  1.00  0.00     0.031 A 
ATOM     50  C   UNL A   1      46.574  28.334  29.790  1.00  0.00     0.049 A 
ATOM     51  C   UNL A   1      41.191  29.828  29.622  1.00  0.00     0.074 A 
ATOM     52  C   UNL A   1      47.481  29.322  30.135  1.00  0.00     0.029 A 
ATOM     53  N   UNL A   1      45.316  28.915  29.832  1.00  0.00    -0.354 N 
ATOM     54  N   UNL A   1      42.486  29.640  29.698  1.00  0.00    -0.248 NA
ATOM     55  C   UNL A   1      40.755  31.170  30.036  1.00  0.00     0.031 C 
ATOM     56  C   UNL A   1      46.767  30.473  30.466  1.00  0.00     0.029 A 
ATOM     57  C   UNL A   1      45.421  30.235  30.237  1.00  0.00     0.049 A 
ATOM     58  H   UNL A   1      44.475  28.457  29.607  1.00  0.00     0.167 HD
ATOM     59  C   UNL A   1      43.022  30.842  30.142  1.00  0.00     0.074 A 
ATOM     60  C   UNL A   1      41.913  31.760  30.302  1.00  0.00     0.031 C 
ATOM     61  C   UNL A   1      44.317  31.151  30.391  1.00  0.00     0.031 A 
BRANCH  48  62
ATOM     62  C   UNL A   1      48.276  26.499  29.518  1.00  0.00    -0.014 A 
ATOM     63  C   UNL A   1      48.798  25.983  30.715  1.00  0.00     0.009 A 
ATOM     64  C   UNL A   1      49.144  26.702  28.433  1.00  0.00     0.009 A 
ATOM     65  C   UNL A   1      50.162  25.708  30.835  1.00  0.00     0.001 A 
ATOM     66  C   UNL A   1      50.501  26.395  28.545  1.00  0.00     0.001 A 
ATOM     67  C   UNL A   1      51.012  25.912  29.750  1.00  0.00     0.000 A 
ENDBRANCH  48  62
BRANCH  49  68
ATOM     68  C   UNL A   1      38.698  29.289  29.068  1.00  0.00    -0.014 A 
ATOM     69  C   UNL A   1      37.855  29.209  30.190  1.00  0.00     0.009 A 
ATOM     70  C   UNL A   1      38.154  29.709  27.845  1.00  0.00     0.009 A 
ATOM     71  C   UNL A   1      36.495  29.508  30.082  1.00  0.00     0.001 A 
ATOM     72  C   UNL A   1      36.801  30.043  27.749  1.00  0.00     0.001 A 
ATOM     73  C   UNL A   1      35.970  29.930  28.862  1.00  0.00     0.000 A 
ENDBRANCH  49  68
BRANCH  61  74
ATOM     74  C   UNL A   1      44.645  32.544  30.855  1.00  0.00    -0.014 A 
ATOM     75  C   UNL A   1      44.592  32.851  32.226  1.00  0.00     0.009 A 
ATOM     76  C   UNL A   1      44.863  33.583  29.938  1.00  0.00     0.009 A 
ATOM     77  C   UNL A   1      44.715  34.170  32.666  1.00  0.00     0.001 A 
ATOM     78  C   UNL A   1      45.021  34.898  30.384  1.00  0.00     0.001 A 
ATOM     79  C   UNL A   1      44.931  35.192  31.744  1.00  0.00     0.000 A 
ENDBRANCH  61  74
ENDBRANCH  35  36
ENDBRANCH  28  30
ENDBRANCH  27  28
ENDBRANCH  26  27
ENDBRANCH  25  26
ENDBRANCH   1  25
TORSDOF 17
ENDMDL
MODEL 2
REMARK VINA RESULT:     -10.1      2.537      7.948
REMARK SMILES CCCc1cc2c(cc1Cl)C=C(C(=O)OCCOCCOC(=O)c1ccc(-c3c4nc(c(-c5ccccc5)c5ccc([nH]5)c(-c5ccccc5)c5nc(c(-c6ccccc6)c6ccc3[nH]6)C=C5)C=C4)cc1)[C@@H](C(F)(F)F)O2
REMARK SMILES IDX 18 1 17 2 16 3 15 4 13 5 14 6 12 7 4 8 5 9 9 10 6 11 8 12
REMARK SMILES IDX 10 13 7 14 77 15 11 16 72 17 3 18 2 19 1 20 73 21 74 22
REMARK SMILES IDX 75 23 76 24 19 25 20 26 21 27 22 28 23 29 24 30 25 31 71 32
REMARK SMILES IDX 26 33 70 34 27 35 28 36 29 37 64 38 30 39 69 40 63 41 65 42
REMARK SMILES IDX 31 43 68 44 62 45 61 46 32 48 54 49 39 50 53 51 40 52 43 53
REMARK SMILES IDX 52 54 66 55 41 56 42 57 51 59 67 60 44 61 33 62 34 63 38 64
REMARK SMILES IDX 35 65 37 66 36 67 55 68 56 69 60 70 57 71 59 72 58 73 45 74
REMARK SMILES IDX 46 75 50 76 47 77 49 78 48 79
REMARK H PARENT 65 47 43 58
REMARK Flexibility Score: inf
ROOT
ATOM      1  O   UNL A   1      31.314  29.507  25.401  1.00  0.00    -0.374 OA
ENDROOT
BRANCH   1   2
ATOM      2  C   UNL A   1      30.804  28.889  24.224  1.00  0.00     0.202 C 
BRANCH   2   3
ATOM      3  C   UNL A   1      31.125  27.409  23.995  1.00  0.00     0.261 C 
BRANCH   3   4
ATOM      4  O   UNL A   1      31.896  26.855  25.070  1.00  0.00    -0.460 OA
BRANCH   4   5
ATOM      5  C   UNL A   1      31.323  25.783  25.668  1.00  0.00     0.338 C 
ATOM      6  O   UNL A   1      30.207  25.727  26.158  1.00  0.00    -0.246 OA
BRANCH   5   7
ATOM      7  C   UNL A   1      32.206  24.611  25.534  1.00  0.00     0.087 C 
ATOM      8  C   UNL A   1      36.306  21.812  24.950  1.00  0.00    -0.026 A 
ATOM      9  C   UNL A   1      34.934  21.601  24.727  1.00  0.00     0.052 A 
ATOM     10  C   UNL A   1      36.678  22.917  25.738  1.00  0.00     0.045 A 
ATOM     11  C   UNL A   1      33.986  22.545  25.121  1.00  0.00     0.128 A 
ATOM     12  C   UNL A   1      35.726  23.848  26.162  1.00  0.00     0.032 A 
ATOM     13  Cl  UNL A   1      38.320  23.206  26.200  1.00  0.00    -0.084 Cl
ATOM     14  C   UNL A   1      34.387  23.690  25.803  1.00  0.00     0.019 A 
ATOM     15  O   UNL A   1      32.689  22.282  24.784  1.00  0.00    -0.475 OA
ATOM     16  C   UNL A   1      33.431  24.747  26.058  1.00  0.00     0.027 C 
ATOM     17  C   UNL A   1      31.729  23.376  24.821  1.00  0.00     0.316 C 
BRANCH   8  18
ATOM     18  C   UNL A   1      37.360  20.896  24.358  1.00  0.00     0.037 C 
BRANCH  18  19
ATOM     19  C   UNL A   1      37.533  19.502  24.981  1.00  0.00     0.001 C 
ATOM     20  C   UNL A   1      38.951  19.217  25.467  1.00  0.00     0.004 C 
ENDBRANCH  18  19
ENDBRANCH   8  18
BRANCH  17  21
ATOM     21  C   UNL A   1      31.256  23.667  23.388  1.00  0.00     0.430 C 
ATOM     22  F   UNL A   1      31.208  22.534  22.647  1.00  0.00    -0.167 F 
ATOM     23  F   UNL A   1      30.008  24.192  23.372  1.00  0.00    -0.167 F 
ATOM     24  F   UNL A   1      32.071  24.537  22.751  1.00  0.00    -0.167 F 
ENDBRANCH  17  21
ENDBRANCH   5   7
ENDBRANCH   4   5
ENDBRANCH   3   4
ENDBRANCH   2   3
ENDBRANCH   1   2
BRANCH   1  25
ATOM     25  C   UNL A   1      32.644  30.023  25.383  1.00  0.00     0.202 C 
BRANCH  25  26
ATOM     26  C   UNL A   1      33.677  29.429  26.350  1.00  0.00     0.261 C 
BRANCH  26  27
ATOM     27  O   UNL A   1      33.617  30.009  27.664  1.00  0.00    -0.460 OA
BRANCH  27  28
ATOM     28  C   UNL A   1      34.538  30.975  27.902  1.00  0.00     0.338 C 
ATOM     29  O   UNL A   1      34.344  32.177  28.010  1.00  0.00    -0.246 OA
BRANCH  28  30
ATOM     30  C   UNL A   1      35.829  30.344  28.225  1.00  0.00     0.060 A 
ATOM     31  C   UNL A   1      36.879  30.337  27.308  1.00  0.00     0.016 A 
ATOM     32  C   UNL A   1      35.991  29.784  29.500  1.00  0.00     0.016 A 
ATOM     33  C   UNL A   1      38.106  29.783  27.679  1.00  0.00     0.010 A 
ATOM     34  C   UNL A   1      37.215  29.228  29.867  1.00  0.00     0.010 A 
ATOM     35  C   UNL A   1      38.288  29.240  28.965  1.00  0.00    -0.014 A 
BRANCH  35  36
ATOM     36  C   UNL A   1      39.631  28.793  29.407  1.00  0.00     0.031 A 
ATOM     37  C   UNL A   1      40.471  29.632  30.323  1.00  0.00     0.074 A 
ATOM     38  C   UNL A   1      40.100  27.616  28.949  1.00  0.00     0.049 A 
ATOM     39  N   UNL A   1      41.642  29.358  30.839  1.00  0.00    -0.248 NA
ATOM     40  C   UNL A   1      39.933  30.945  30.710  1.00  0.00     0.031 C 
ATOM     41  C   UNL A   1      39.380  26.729  28.035  1.00  0.00     0.029 A 
ATOM     42  N   UNL A   1      41.282  26.961  29.190  1.00  0.00    -0.354 N 
ATOM     43  C   UNL A   1      41.976  30.452  31.624  1.00  0.00     0.074 A 
ATOM     44  C   UNL A   1      40.907  31.418  31.479  1.00  0.00     0.031 C 
ATOM     45  C   UNL A   1      40.118  25.629  27.823  1.00  0.00     0.029 A 
ATOM     46  C   UNL A   1      41.380  25.751  28.547  1.00  0.00     0.049 A 
ATOM     47  H   UNL A   1      41.991  27.324  29.769  1.00  0.00     0.167 HD
ATOM     48  C   UNL A   1      43.068  30.623  32.407  1.00  0.00     0.031 A 
ATOM     49  C   UNL A   1      42.371  24.838  28.538  1.00  0.00     0.031 A 
ATOM     50  C   UNL A   1      44.135  29.663  32.527  1.00  0.00     0.049 A 
ATOM     51  C   UNL A   1      43.600  25.081  29.369  1.00  0.00     0.074 A 
ATOM     52  C   UNL A   1      45.263  29.735  33.327  1.00  0.00     0.029 A 
ATOM     53  N   UNL A   1      44.220  28.470  31.825  1.00  0.00    -0.354 N 
ATOM     54  N   UNL A   1      43.866  26.084  30.170  1.00  0.00    -0.248 NA
ATOM     55  C   UNL A   1      44.662  24.064  29.308  1.00  0.00     0.031 C 
ATOM     56  C   UNL A   1      46.068  28.630  33.049  1.00  0.00     0.029 A 
ATOM     57  C   UNL A   1      45.400  27.819  32.145  1.00  0.00     0.049 A 
ATOM     58  H   UNL A   1      43.542  28.135  31.196  1.00  0.00     0.167 HD
ATOM     59  C   UNL A   1      45.108  25.808  30.728  1.00  0.00     0.074 A 
ATOM     60  C   UNL A   1      45.537  24.535  30.187  1.00  0.00     0.031 C 
ATOM     61  C   UNL A   1      45.824  26.548  31.610  1.00  0.00     0.031 A 
BRANCH  48  62
ATOM     62  C   UNL A   1      43.180  31.887  33.216  1.00  0.00    -0.014 A 
ATOM     63  C   UNL A   1      43.969  32.951  32.748  1.00  0.00     0.009 A 
ATOM     64  C   UNL A   1      42.618  31.975  34.499  1.00  0.00     0.009 A 
ATOM     65  C   UNL A   1      44.217  34.061  33.558  1.00  0.00     0.001 A 
ATOM     66  C   UNL A   1      42.840  33.101  35.294  1.00  0.00     0.001 A 
ATOM     67  C   UNL A   1      43.651  34.136  34.829  1.00  0.00     0.000 A 
ENDBRANCH  48  62
BRANCH  49  68
ATOM     68  C   UNL A   1      42.208  23.595  27.737  1.00  0.00    -0.014 A 
ATOM     69  C   UNL A   1      42.633  23.545  26.399  1.00  0.00     0.009 A 
ATOM     70  C   UNL A   1      41.573  22.470  28.285  1.00  0.00     0.009 A 
ATOM     71  C   UNL A   1      42.395  22.411  25.618  1.00  0.00     0.001 A 
ATOM     72  C   UNL A   1      41.370  21.324  27.513  1.00  0.00     0.001 A 
ATOM     73  C   UNL A   1      41.768  21.299  26.177  1.00  0.00     0.000 A 
ENDBRANCH  49  68
BRANCH  61  74
ATOM     74  C   UNL A   1      47.151  26.017  32.079  1.00  0.00    -0.014 A 
ATOM     75  C   UNL A   1      47.226  25.299  33.285  1.00  0.00     0.009 A 
ATOM     76  C   UNL A   1      48.342  26.347  31.415  1.00  0.00     0.009 A 
ATOM     77  C   UNL A   1      48.462  24.952  33.832  1.00  0.00     0.001 A 
ATOM     78  C   UNL A   1      49.577  25.968  31.947  1.00  0.00     0.001 A 
ATOM     79  C   UNL A   1      49.636  25.286  33.162  1.00  0.00     0.000 A 
ENDBRANCH  61  74
ENDBRANCH  35  36
ENDBRANCH  28  30
ENDBRANCH  27  28
ENDBRANCH  26  27
ENDBRANCH  25  26
ENDBRANCH   1  25
TORSDOF 17
ENDMDL
MODEL 3
REMARK VINA RESULT:     -10.1      3.925      9.011
REMARK SMILES CCCc1cc2c(cc1Cl)C=C(C(=O)OCCOCCOC(=O)c1ccc(-c3c4nc(c(-c5ccccc5)c5ccc([nH]5)c(-c5ccccc5)c5nc(c(-c6ccccc6)c6ccc3[nH]6)C=C5)C=C4)cc1)[C@@H](C(F)(F)F)O2
REMARK SMILES IDX 18 1 17 2 16 3 15 4 13 5 14 6 12 7 4 8 5 9 9 10 6 11 8 12
REMARK SMILES IDX 10 13 7 14 77 15 11 16 72 17 3 18 2 19 1 20 73 21 74 22
REMARK SMILES IDX 75 23 76 24 19 25 20 26 21 27 22 28 23 29 24 30 25 31 71 32
REMARK SMILES IDX 26 33 70 34 27 35 28 36 29 37 64 38 30 39 69 40 63 41 65 42
REMARK SMILES IDX 31 43 68 44 62 45 61 46 32 48 54 49 39 50 53 51 40 52 43 53
REMARK SMILES IDX 52 54 66 55 41 56 42 57 51 59 67 60 44 61 33 62 34 63 38 64
REMARK SMILES IDX 35 65 37 66 36 67 55 68 56 69 60 70 57 71 59 72 58 73 45 74
REMARK SMILES IDX 46 75 50 76 47 77 49 78 48 79
REMARK H PARENT 65 47 43 58
REMARK Flexibility Score: inf
ROOT
ATOM      1  O   UNL A   1      33.707  31.404  27.536  1.00  0.00    -0.374 OA
ENDROOT
BRANCH   1   2
ATOM      2  C   UNL A   1      33.911  29.995  27.506  1.00  0.00     0.202 C 
BRANCH   2   3
ATOM      3  C   UNL A   1      33.241  29.197  26.383  1.00  0.00     0.261 C 
BRANCH   3   4
ATOM      4  O   UNL A   1      33.573  27.803  26.443  1.00  0.00    -0.460 OA
BRANCH   4   5
ATOM      5  C   UNL A   1      33.649  27.200  25.233  1.00  0.00     0.338 C 
ATOM      6  O   UNL A   1      33.952  27.720  24.172  1.00  0.00    -0.246 OA
BRANCH   5   7
ATOM      7  C   UNL A   1      33.434  25.750  25.389  1.00  0.00     0.087 C 
ATOM      8  C   UNL A   1      34.054  20.804  25.020  1.00  0.00    -0.026 A 
ATOM      9  C   UNL A   1      32.949  21.639  25.267  1.00  0.00     0.052 A 
ATOM     10  C   UNL A   1      35.338  21.366  25.141  1.00  0.00     0.045 A 
ATOM     11  C   UNL A   1      33.111  23.012  25.450  1.00  0.00     0.128 A 
ATOM     12  C   UNL A   1      35.503  22.737  25.358  1.00  0.00     0.032 A 
ATOM     13  Cl  UNL A   1      36.775  20.413  25.000  1.00  0.00    -0.084 Cl
ATOM     14  C   UNL A   1      34.387  23.567  25.456  1.00  0.00     0.019 A 
ATOM     15  O   UNL A   1      31.968  23.743  25.601  1.00  0.00    -0.475 OA
ATOM     16  C   UNL A   1      34.545  25.006  25.472  1.00  0.00     0.027 C 
ATOM     17  C   UNL A   1      32.040  25.186  25.414  1.00  0.00     0.316 C 
BRANCH   8  18
ATOM     18  C   UNL A   1      33.881  19.350  24.625  1.00  0.00     0.037 C 
BRANCH  18  19
ATOM     19  C   UNL A   1      32.707  18.992  23.700  1.00  0.00     0.001 C 
ATOM     20  C   UNL A   1      32.896  17.680  22.945  1.00  0.00     0.004 C 
ENDBRANCH  18  19
ENDBRANCH   8  18
BRANCH  17  21
ATOM     21  C   UNL A   1      31.227  25.564  24.168  1.00  0.00     0.430 C 
ATOM     22  F   UNL A   1      30.697  26.806  24.285  1.00  0.00    -0.167 F 
ATOM     23  F   UNL A   1      31.998  25.579  23.055  1.00  0.00    -0.167 F 
ATOM     24  F   UNL A   1      30.208  24.705  23.944  1.00  0.00    -0.167 F 
ENDBRANCH  17  21
ENDBRANCH   5   7
ENDBRANCH   4   5
ENDBRANCH   3   4
ENDBRANCH   2   3
ENDBRANCH   1   2
BRANCH   1  25
ATOM     25  C   UNL A   1      32.406  31.915  27.251  1.00  0.00     0.202 C 
BRANCH  25  26
ATOM     26  C   UNL A   1      32.201  33.436  27.227  1.00  0.00     0.261 C 
BRANCH  26  27
ATOM     27  O   UNL A   1      32.178  34.021  28.540  1.00  0.00    -0.460 OA
BRANCH  27  28
ATOM     28  C   UNL A   1      33.189  34.888  28.795  1.00  0.00     0.338 C 
ATOM     29  O   UNL A   1      33.115  36.102  28.910  1.00  0.00    -0.246 OA
BRANCH  28  30
ATOM     30  C   UNL A   1      34.407  34.127  29.124  1.00  0.00     0.060 A 
ATOM     31  C   UNL A   1      35.554  34.227  28.337  1.00  0.00     0.016 A 
ATOM     32  C   UNL A   1      34.398  33.331  30.277  1.00  0.00     0.016 A 
ATOM     33  C   UNL A   1      36.707  33.537  28.721  1.00  0.00     0.010 A 
ATOM     34  C   UNL A   1      35.548  32.641  30.656  1.00  0.00     0.010 A 
ATOM     35  C   UNL A   1      36.717  32.753  29.890  1.00  0.00    -0.014 A 
BRANCH  35  36
ATOM     36  C   UNL A   1      37.980  32.148  30.377  1.00  0.00     0.031 A 
ATOM     37  C   UNL A   1      38.792  32.799  31.457  1.00  0.00     0.074 A 
ATOM     38  C   UNL A   1      38.404  31.002  29.811  1.00  0.00     0.049 A 
ATOM     39  N   UNL A   1      39.891  32.370  32.024  1.00  0.00    -0.248 NA
ATOM     40  C   UNL A   1      38.317  34.095  31.965  1.00  0.00     0.031 C 
ATOM     41  C   UNL A   1      37.706  30.294  28.737  1.00  0.00     0.029 A 
ATOM     42  N   UNL A   1      39.510  30.229  30.060  1.00  0.00    -0.354 N 
ATOM     43  C   UNL A   1      40.230  33.330  32.966  1.00  0.00     0.074 A 
ATOM     44  C   UNL A   1      39.249  34.389  32.862  1.00  0.00     0.031 C 
ATOM     45  C   UNL A   1      38.381  29.171  28.445  1.00  0.00     0.029 A 
ATOM     46  C   UNL A   1      39.579  29.102  29.277  1.00  0.00     0.049 A 
ATOM     47  H   UNL A   1      40.189  30.460  30.735  1.00  0.00     0.167 HD
ATOM     48  C   UNL A   1      41.258  33.315  33.849  1.00  0.00     0.031 A 
ATOM     49  C   UNL A   1      40.500  28.119  29.230  1.00  0.00     0.031 A 
ATOM     50  C   UNL A   1      42.240  32.264  33.929  1.00  0.00     0.049 A 
ATOM     51  C   UNL A   1      41.665  28.159  30.179  1.00  0.00     0.074 A 
ATOM     52  C   UNL A   1      43.294  32.147  34.819  1.00  0.00     0.029 A 
ATOM     53  N   UNL A   1      42.302  31.162  33.090  1.00  0.00    -0.354 N 
ATOM     54  N   UNL A   1      41.929  29.032  31.121  1.00  0.00    -0.248 NA
ATOM     55  C   UNL A   1      42.653  27.074  30.073  1.00  0.00     0.031 C 
ATOM     56  C   UNL A   1      44.041  31.023  34.467  1.00  0.00     0.029 A 
ATOM     57  C   UNL A   1      43.400  30.384  33.416  1.00  0.00     0.049 A 
ATOM     58  H   UNL A   1      41.660  30.962  32.371  1.00  0.00     0.167 HD
ATOM     59  C   UNL A   1      43.094  28.590  31.736  1.00  0.00     0.074 A 
ATOM     60  C   UNL A   1      43.478  27.362  31.072  1.00  0.00     0.031 C 
ATOM     61  C   UNL A   1      43.779  29.157  32.758  1.00  0.00     0.031 A 
BRANCH  48  62
ATOM     62  C   UNL A   1      41.387  34.458  34.819  1.00  0.00    -0.014 A 
ATOM     63  C   UNL A   1      42.252  35.527  34.533  1.00  0.00     0.009 A 
ATOM     64  C   UNL A   1      40.759  34.414  36.074  1.00  0.00     0.009 A 
ATOM     65  C   UNL A   1      42.509  36.510  35.491  1.00  0.00     0.001 A 
ATOM     66  C   UNL A   1      40.992  35.416  37.018  1.00  0.00     0.001 A 
ATOM     67  C   UNL A   1      41.878  36.455  36.731  1.00  0.00     0.000 A 
ENDBRANCH  48  62
BRANCH  49  68
ATOM     68  C   UNL A   1      40.321  26.999  28.265  1.00  0.00    -0.014 A 
ATOM     69  C   UNL A   1      39.608  25.846  28.632  1.00  0.00     0.009 A 
ATOM     70  C   UNL A   1      40.912  27.051  26.995  1.00  0.00     0.009 A 
ATOM     71  C   UNL A   1      39.519  24.756  27.763  1.00  0.00     0.001 A 
ATOM     72  C   UNL A   1      40.792  25.974  26.113  1.00  0.00     0.001 A 
ATOM     73  C   UNL A   1      40.107  24.823  26.501  1.00  0.00     0.000 A 
ENDBRANCH  49  68
BRANCH  61  74
ATOM     74  C   UNL A   1      45.019  28.467  33.260  1.00  0.00    -0.014 A 
ATOM     75  C   UNL A   1      44.924  27.556  34.325  1.00  0.00     0.009 A 
ATOM     76  C   UNL A   1      46.290  28.821  32.784  1.00  0.00     0.009 A 
ATOM     77  C   UNL A   1      46.074  27.040  34.926  1.00  0.00     0.001 A 
ATOM     78  C   UNL A   1      47.439  28.276  33.363  1.00  0.00     0.001 A 
ATOM     79  C   UNL A   1      47.330  27.400  34.443  1.00  0.00     0.000 A 
ENDBRANCH  61  74
ENDBRANCH  35  36
ENDBRANCH  28  30
ENDBRANCH  27  28
ENDBRANCH  26  27
ENDBRANCH  25  26
ENDBRANCH   1  25
TORSDOF 17
ENDMDL
