MODEL 1
REMARK VINA RESULT:      -9.7      0.000      0.000
REMARK SMILES O=C(OCCOCCOC(=O)[C@H]1CCC(=O)N1Cc1ccco1)c1ccc(-c2c3nc(c(-c4ccccc4)c4ccc([nH]4)c(-c4ccccc4)c4nc(c(-c5ccccc5)c5ccc2[nH]5)C=C4)C=C3)cc1
REMARK SMILES IDX 6 1 5 2 4 3 3 4 2 5 1 6 24 7 25 8 71 9 26 10 70 11 27 12
REMARK SMILES IDX 28 13 29 14 64 15 30 16 69 17 63 18 65 19 31 20 68 21 62 22
REMARK SMILES IDX 61 23 32 25 54 26 39 27 53 28 40 29 43 30 52 31 66 32 41 33
REMARK SMILES IDX 42 34 51 36 67 37 44 38 33 39 34 40 38 41 35 42 37 43 36 44
REMARK SMILES IDX 55 45 56 46 60 47 57 48 59 49 58 50 45 51 46 52 50 53 47 54
REMARK SMILES IDX 49 55 48 56 7 57 8 58 9 59 10 60 11 61 12 62 13 63 17 64
REMARK SMILES IDX 14 65 15 66 16 67 18 68 19 69 20 70 23 71 21 72 22 73
REMARK H PARENT 65 24 43 35
REMARK Flexibility Score: inf
ROOT
ATOM      1  O   UNL A   1      35.867  23.076  22.716  1.00  0.00    -0.374 OA
ENDROOT
BRANCH   1   2
ATOM      2  C   UNL A   1      36.962  22.743  23.567  1.00  0.00     0.202 C 
BRANCH   2   3
ATOM      3  C   UNL A   1      37.020  21.446  24.413  1.00  0.00     0.261 C 
BRANCH   3   4
ATOM      4  O   UNL A   1      37.608  21.497  25.738  1.00  0.00    -0.460 OA
BRANCH   4   5
ATOM      5  C   UNL A   1      38.950  21.403  25.999  1.00  0.00     0.338 C 
ATOM      6  O   UNL A   1      39.585  20.384  25.758  1.00  0.00    -0.246 OA
BRANCH   5   7
ATOM      7  C   UNL A   1      39.609  22.560  26.654  1.00  0.00     0.060 A 
ATOM      8  C   UNL A   1      39.129  23.823  26.387  1.00  0.00     0.016 A 
ATOM      9  C   UNL A   1      40.685  22.447  27.533  1.00  0.00     0.016 A 
ATOM     10  C   UNL A   1      39.868  24.939  26.607  1.00  0.00     0.010 A 
ATOM     11  C   UNL A   1      41.280  23.617  28.035  1.00  0.00     0.010 A 
ATOM     12  C   UNL A   1      40.886  24.870  27.533  1.00  0.00    -0.014 A 
BRANCH  12  13
ATOM     13  C   UNL A   1      41.484  26.173  27.858  1.00  0.00     0.031 A 
ATOM     14  C   UNL A   1      42.724  26.576  27.138  1.00  0.00     0.074 A 
ATOM     15  C   UNL A   1      40.756  27.048  28.588  1.00  0.00     0.049 A 
ATOM     16  N   UNL A   1      43.418  27.673  27.255  1.00  0.00    -0.248 NA
ATOM     17  C   UNL A   1      43.257  25.624  26.148  1.00  0.00     0.031 C 
ATOM     18  C   UNL A   1      39.425  26.780  29.164  1.00  0.00     0.029 A 
ATOM     19  N   UNL A   1      40.967  28.365  28.881  1.00  0.00    -0.354 N 
ATOM     20  C   UNL A   1      44.510  27.506  26.419  1.00  0.00     0.074 A 
ATOM     21  C   UNL A   1      44.381  26.216  25.784  1.00  0.00     0.031 C 
ATOM     22  C   UNL A   1      38.902  27.921  29.632  1.00  0.00     0.029 A 
ATOM     23  C   UNL A   1      39.913  28.957  29.540  1.00  0.00     0.049 A 
ATOM     24  H   UNL A   1      41.792  28.845  28.644  1.00  0.00     0.167 HD
ATOM     25  C   UNL A   1      45.542  28.359  26.235  1.00  0.00     0.031 A 
ATOM     26  C   UNL A   1      39.806  30.191  30.060  1.00  0.00     0.031 A 
ATOM     27  C   UNL A   1      45.609  29.638  26.886  1.00  0.00     0.049 A 
ATOM     28  C   UNL A   1      41.008  31.077  29.930  1.00  0.00     0.074 A 
ATOM     29  C   UNL A   1      46.625  30.572  26.864  1.00  0.00     0.029 A 
ATOM     30  N   UNL A   1      44.591  30.163  27.675  1.00  0.00    -0.354 N 
ATOM     31  N   UNL A   1      42.116  30.865  29.257  1.00  0.00    -0.248 NA
ATOM     32  C   UNL A   1      40.968  32.349  30.653  1.00  0.00     0.031 C 
ATOM     33  C   UNL A   1      46.245  31.637  27.689  1.00  0.00     0.029 A 
ATOM     34  C   UNL A   1      44.961  31.401  28.164  1.00  0.00     0.049 A 
ATOM     35  H   UNL A   1      43.732  29.718  27.860  1.00  0.00     0.167 HD
ATOM     36  C   UNL A   1      42.901  31.987  29.457  1.00  0.00     0.074 A 
ATOM     37  C   UNL A   1      42.128  32.883  30.299  1.00  0.00     0.031 C 
ATOM     38  C   UNL A   1      44.146  32.255  28.994  1.00  0.00     0.031 A 
BRANCH  25  39
ATOM     39  C   UNL A   1      46.698  27.849  25.424  1.00  0.00    -0.014 A 
ATOM     40  C   UNL A   1      46.790  28.047  24.037  1.00  0.00     0.009 A 
ATOM     41  C   UNL A   1      47.673  27.066  26.063  1.00  0.00     0.009 A 
ATOM     42  C   UNL A   1      47.802  27.422  23.301  1.00  0.00     0.001 A 
ATOM     43  C   UNL A   1      48.701  26.471  25.331  1.00  0.00     0.001 A 
ATOM     44  C   UNL A   1      48.755  26.636  23.947  1.00  0.00     0.000 A 
ENDBRANCH  25  39
BRANCH  26  45
ATOM     45  C   UNL A   1      38.592  30.606  30.815  1.00  0.00    -0.014 A 
ATOM     46  C   UNL A   1      38.464  30.337  32.186  1.00  0.00     0.009 A 
ATOM     47  C   UNL A   1      37.537  31.271  30.163  1.00  0.00     0.009 A 
ATOM     48  C   UNL A   1      37.304  30.701  32.877  1.00  0.00     0.001 A 
ATOM     49  C   UNL A   1      36.394  31.665  30.863  1.00  0.00     0.001 A 
ATOM     50  C   UNL A   1      36.273  31.370  32.218  1.00  0.00     0.000 A 
ENDBRANCH  26  45
BRANCH  38  51
ATOM     51  C   UNL A   1      44.704  33.603  29.340  1.00  0.00    -0.014 A 
ATOM     52  C   UNL A   1      44.472  34.725  28.531  1.00  0.00     0.009 A 
ATOM     53  C   UNL A   1      45.448  33.746  30.521  1.00  0.00     0.009 A 
ATOM     54  C   UNL A   1      45.010  35.962  28.882  1.00  0.00     0.001 A 
ATOM     55  C   UNL A   1      45.952  34.992  30.888  1.00  0.00     0.001 A 
ATOM     56  C   UNL A   1      45.742  36.095  30.063  1.00  0.00     0.000 A 
ENDBRANCH  38  51
ENDBRANCH  12  13
ENDBRANCH   5   7
ENDBRANCH   4   5
ENDBRANCH   3   4
ENDBRANCH   2   3
ENDBRANCH   1   2
BRANCH   1  57
ATOM     57  C   UNL A   1      34.520  22.949  23.149  1.00  0.00     0.202 C 
BRANCH  57  58
ATOM     58  C   UNL A   1      33.943  24.054  24.027  1.00  0.00     0.261 C 
BRANCH  58  59
ATOM     59  O   UNL A   1      33.226  25.071  23.308  1.00  0.00    -0.462 OA
BRANCH  59  60
ATOM     60  C   UNL A   1      32.283  25.686  24.071  1.00  0.00     0.328 C 
ATOM     61  O   UNL A   1      31.130  25.279  24.180  1.00  0.00    -0.250 OA
BRANCH  60  62
ATOM     62  C   UNL A   1      32.815  26.955  24.777  1.00  0.00     0.196 C 
ATOM     63  C   UNL A   1      33.530  27.760  23.686  1.00  0.00     0.047 C 
ATOM     64  N   UNL A   1      31.859  27.955  25.271  1.00  0.00    -0.321 N 
ATOM     65  C   UNL A   1      32.381  28.548  23.052  1.00  0.00     0.103 C 
ATOM     66  C   UNL A   1      31.547  28.879  24.262  1.00  0.00     0.223 C 
ATOM     67  O   UNL A   1      30.795  29.837  24.350  1.00  0.00    -0.275 OA
BRANCH  64  68
ATOM     68  C   UNL A   1      31.843  28.423  26.662  1.00  0.00     0.195 C 
BRANCH  68  69
ATOM     69  C   UNL A   1      33.014  29.246  27.059  1.00  0.00     0.123 A 
ATOM     70  C   UNL A   1      34.365  28.983  27.195  1.00  0.00     0.047 A 
ATOM     71  O   UNL A   1      32.784  30.572  27.312  1.00  0.00    -0.467 OA
ATOM     72  C   UNL A   1      34.982  30.204  27.571  1.00  0.00     0.042 A 
ATOM     73  C   UNL A   1      33.978  31.141  27.623  1.00  0.00     0.195 A 
ENDBRANCH  68  69
ENDBRANCH  64  68
ENDBRANCH  60  62
ENDBRANCH  59  60
ENDBRANCH  58  59
ENDBRANCH  57  58
ENDBRANCH   1  57
TORSDOF 16
ENDMDL
MODEL 2
REMARK VINA RESULT:      -9.5      3.765      8.932
REMARK SMILES O=C(OCCOCCOC(=O)[C@H]1CCC(=O)N1Cc1ccco1)c1ccc(-c2c3nc(c(-c4ccccc4)c4ccc([nH]4)c(-c4ccccc4)c4nc(c(-c5ccccc5)c5ccc2[nH]5)C=C4)C=C3)cc1
REMARK SMILES IDX 6 1 5 2 4 3 3 4 2 5 1 6 24 7 25 8 71 9 26 10 70 11 27 12
REMARK SMILES IDX 28 13 29 14 64 15 30 16 69 17 63 18 65 19 31 20 68 21 62 22
REMARK SMILES IDX 61 23 32 25 54 26 39 27 53 28 40 29 43 30 52 31 66 32 41 33
REMARK SMILES IDX 42 34 51 36 67 37 44 38 33 39 34 40 38 41 35 42 37 43 36 44
REMARK SMILES IDX 55 45 56 46 60 47 57 48 59 49 58 50 45 51 46 52 50 53 47 54
REMARK SMILES IDX 49 55 48 56 7 57 8 58 9 59 10 60 11 61 12 62 13 63 17 64
REMARK SMILES IDX 14 65 15 66 16 67 18 68 19 69 20 70 23 71 21 72 22 73
REMARK H PARENT 65 24 43 35
REMARK Flexibility Score: inf
ROOT
ATOM      1  O   UNL A   1      33.347  30.458  26.349  1.00  0.00    -0.374 OA
ENDROOT
BRANCH   1   2
ATOM      2  C   UNL A   1      31.962  30.752  26.526  1.00  0.00     0.202 C 
BRANCH   2   3
ATOM      3  C   UNL A   1      31.435  32.141  26.968  1.00  0.00     0.261 C 
BRANCH   3   4
ATOM      4  O   UNL A   1      32.337  33.276  26.940  1.00  0.00    -0.460 OA
BRANCH   4   5
ATOM      5  C   UNL A   1      32.952  33.811  28.041  1.00  0.00     0.338 C 
ATOM      6  O   UNL A   1      32.422  34.683  28.717  1.00  0.00    -0.246 OA
BRANCH   5   7
ATOM      7  C   UNL A   1      34.325  33.346  28.358  1.00  0.00     0.060 A 
ATOM      8  C   UNL A   1      34.473  32.161  29.043  1.00  0.00     0.016 A 
ATOM      9  C   UNL A   1      35.482  34.036  27.998  1.00  0.00     0.016 A 
ATOM     10  C   UNL A   1      35.613  31.847  29.708  1.00  0.00     0.010 A 
ATOM     11  C   UNL A   1      36.729  33.541  28.418  1.00  0.00     0.010 A 
ATOM     12  C   UNL A   1      36.783  32.458  29.313  1.00  0.00    -0.014 A 
BRANCH  12  13
ATOM     13  C   UNL A   1      37.988  31.898  29.940  1.00  0.00     0.031 A 
ATOM     14  C   UNL A   1      38.382  32.407  31.284  1.00  0.00     0.074 A 
ATOM     15  C   UNL A   1      38.531  30.781  29.405  1.00  0.00     0.049 A 
ATOM     16  N   UNL A   1      39.394  32.058  32.026  1.00  0.00    -0.248 NA
ATOM     17  C   UNL A   1      37.520  33.444  31.880  1.00  0.00     0.031 C 
ATOM     18  C   UNL A   1      38.061  30.107  28.179  1.00  0.00     0.029 A 
ATOM     19  N   UNL A   1      39.513  29.951  29.864  1.00  0.00    -0.354 N 
ATOM     20  C   UNL A   1      39.339  32.888  33.134  1.00  0.00     0.074 A 
ATOM     21  C   UNL A   1      38.185  33.744  32.982  1.00  0.00     0.031 C 
ATOM     22  C   UNL A   1      38.674  28.923  28.058  1.00  0.00     0.029 A 
ATOM     23  C   UNL A   1      39.688  28.826  29.091  1.00  0.00     0.049 A 
ATOM     24  H   UNL A   1      40.045  30.139  30.670  1.00  0.00     0.167 HD
ATOM     25  C   UNL A   1      40.208  32.939  34.168  1.00  0.00     0.031 A 
ATOM     26  C   UNL A   1      40.607  27.851  29.184  1.00  0.00     0.031 A 
ATOM     27  C   UNL A   1      41.333  32.051  34.272  1.00  0.00     0.049 A 
ATOM     28  C   UNL A   1      41.621  27.993  30.279  1.00  0.00     0.074 A 
ATOM     29  C   UNL A   1      42.344  32.036  35.212  1.00  0.00     0.029 A 
ATOM     30  N   UNL A   1      41.580  31.003  33.392  1.00  0.00    -0.354 N 
ATOM     31  N   UNL A   1      41.660  28.871  31.254  1.00  0.00    -0.248 NA
ATOM     32  C   UNL A   1      42.734  27.040  30.271  1.00  0.00     0.031 C 
ATOM     33  C   UNL A   1      43.234  31.013  34.864  1.00  0.00     0.029 A 
ATOM     34  C   UNL A   1      42.738  30.344  33.753  1.00  0.00     0.049 A 
ATOM     35  H   UNL A   1      41.012  30.765  32.623  1.00  0.00     0.167 HD
ATOM     36  C   UNL A   1      42.791  28.568  31.991  1.00  0.00     0.074 A 
ATOM     37  C   UNL A   1      43.395  27.408  31.359  1.00  0.00     0.031 C 
ATOM     38  C   UNL A   1      43.290  29.187  33.089  1.00  0.00     0.031 A 
BRANCH  25  39
ATOM     39  C   UNL A   1      40.029  34.068  35.141  1.00  0.00    -0.014 A 
ATOM     40  C   UNL A   1      40.598  35.336  34.937  1.00  0.00     0.009 A 
ATOM     41  C   UNL A   1      39.348  33.817  36.343  1.00  0.00     0.009 A 
ATOM     42  C   UNL A   1      40.536  36.307  35.941  1.00  0.00     0.001 A 
ATOM     43  C   UNL A   1      39.260  34.799  37.330  1.00  0.00     0.001 A 
ATOM     44  C   UNL A   1      39.868  36.038  37.135  1.00  0.00     0.000 A 
ENDBRANCH  25  39
BRANCH  26  45
ATOM     45  C   UNL A   1      40.669  26.753  28.181  1.00  0.00    -0.014 A 
ATOM     46  C   UNL A   1      41.428  26.884  27.009  1.00  0.00     0.009 A 
ATOM     47  C   UNL A   1      39.956  25.557  28.385  1.00  0.00     0.009 A 
ATOM     48  C   UNL A   1      41.451  25.858  26.058  1.00  0.00     0.001 A 
ATOM     49  C   UNL A   1      40.008  24.520  27.451  1.00  0.00     0.001 A 
ATOM     50  C   UNL A   1      40.747  24.676  26.281  1.00  0.00     0.000 A 
ENDBRANCH  26  45
BRANCH  38  51
ATOM     51  C   UNL A   1      44.511  28.568  33.701  1.00  0.00    -0.014 A 
ATOM     52  C   UNL A   1      44.417  27.545  34.656  1.00  0.00     0.009 A 
ATOM     53  C   UNL A   1      45.776  29.003  33.278  1.00  0.00     0.009 A 
ATOM     54  C   UNL A   1      45.573  26.995  35.205  1.00  0.00     0.001 A 
ATOM     55  C   UNL A   1      46.930  28.425  33.802  1.00  0.00     0.001 A 
ATOM     56  C   UNL A   1      46.827  27.430  34.773  1.00  0.00     0.000 A 
ENDBRANCH  38  51
ENDBRANCH  12  13
ENDBRANCH   5   7
ENDBRANCH   4   5
ENDBRANCH   3   4
ENDBRANCH   2   3
ENDBRANCH   1   2
BRANCH   1  57
ATOM     57  C   UNL A   1      33.812  29.124  26.203  1.00  0.00     0.202 C 
BRANCH  57  58
ATOM     58  C   UNL A   1      33.388  28.350  24.959  1.00  0.00     0.261 C 
BRANCH  58  59
ATOM     59  O   UNL A   1      33.589  26.930  25.046  1.00  0.00    -0.462 OA
BRANCH  59  60
ATOM     60  C   UNL A   1      32.420  26.241  25.149  1.00  0.00     0.328 C 
ATOM     61  O   UNL A   1      31.489  26.592  25.868  1.00  0.00    -0.250 OA
BRANCH  60  62
ATOM     62  C   UNL A   1      32.394  24.968  24.271  1.00  0.00     0.196 C 
ATOM     63  C   UNL A   1      31.054  25.012  23.528  1.00  0.00     0.047 C 
ATOM     64  N   UNL A   1      33.328  24.857  23.143  1.00  0.00    -0.321 N 
ATOM     65  C   UNL A   1      31.379  25.888  22.315  1.00  0.00     0.103 C 
ATOM     66  C   UNL A   1      32.778  25.433  21.988  1.00  0.00     0.223 C 
ATOM     67  O   UNL A   1      33.291  25.496  20.882  1.00  0.00    -0.275 OA
BRANCH  64  68
ATOM     68  C   UNL A   1      34.243  23.721  22.976  1.00  0.00     0.195 C 
BRANCH  68  69
ATOM     69  C   UNL A   1      35.024  23.362  24.188  1.00  0.00     0.123 A 
ATOM     70  C   UNL A   1      35.838  24.078  25.046  1.00  0.00     0.047 A 
ATOM     71  O   UNL A   1      34.921  22.071  24.633  1.00  0.00    -0.467 OA
ATOM     72  C   UNL A   1      36.269  23.172  26.050  1.00  0.00     0.042 A 
ATOM     73  C   UNL A   1      35.679  21.966  25.757  1.00  0.00     0.195 A 
ENDBRANCH  68  69
ENDBRANCH  64  68
ENDBRANCH  60  62
ENDBRANCH  59  60
ENDBRANCH  58  59
ENDBRANCH  57  58
ENDBRANCH   1  57
TORSDOF 16
ENDMDL
MODEL 3
REMARK VINA RESULT:      -9.5      3.046      5.107
REMARK SMILES O=C(OCCOCCOC(=O)[C@H]1CCC(=O)N1Cc1ccco1)c1ccc(-c2c3nc(c(-c4ccccc4)c4ccc([nH]4)c(-c4ccccc4)c4nc(c(-c5ccccc5)c5ccc2[nH]5)C=C4)C=C3)cc1
REMARK SMILES IDX 6 1 5 2 4 3 3 4 2 5 1 6 24 7 25 8 71 9 26 10 70 11 27 12
REMARK SMILES IDX 28 13 29 14 64 15 30 16 69 17 63 18 65 19 31 20 68 21 62 22
REMARK SMILES IDX 61 23 32 25 54 26 39 27 53 28 40 29 43 30 52 31 66 32 41 33
REMARK SMILES IDX 42 34 51 36 67 37 44 38 33 39 34 40 38 41 35 42 37 43 36 44
REMARK SMILES IDX 55 45 56 46 60 47 57 48 59 49 58 50 45 51 46 52 50 53 47 54
REMARK SMILES IDX 49 55 48 56 7 57 8 58 9 59 10 60 11 61 12 62 13 63 17 64
REMARK SMILES IDX 14 65 15 66 16 67 18 68 19 69 20 70 23 71 21 72 22 73
REMARK H PARENT 65 24 43 35
REMARK Flexibility Score: inf
ROOT
ATOM      1  O   UNL A   1      37.950  22.432  24.883  1.00  0.00    -0.374 OA
ENDROOT
BRANCH   1   2
ATOM      2  C   UNL A   1      38.541  21.516  25.803  1.00  0.00     0.202 C 
BRANCH   2   3
ATOM      3  C   UNL A   1      38.997  20.088  25.411  1.00  0.00     0.261 C 
BRANCH   3   4
ATOM      4  O   UNL A   1      39.998  19.423  26.222  1.00  0.00    -0.460 OA
BRANCH   4   5
ATOM      5  C   UNL A   1      41.350  19.604  26.095  1.00  0.00     0.338 C 
ATOM      6  O   UNL A   1      42.097  18.688  25.775  1.00  0.00    -0.246 OA
BRANCH   5   7
ATOM      7  C   UNL A   1      41.902  20.941  26.426  1.00  0.00     0.060 A 
ATOM      8  C   UNL A   1      42.058  21.273  27.754  1.00  0.00     0.016 A 
ATOM      9  C   UNL A   1      42.279  21.885  25.472  1.00  0.00     0.016 A 
ATOM     10  C   UNL A   1      42.176  22.559  28.168  1.00  0.00     0.010 A 
ATOM     11  C   UNL A   1      42.718  23.150  25.902  1.00  0.00     0.010 A 
ATOM     12  C   UNL A   1      42.625  23.494  27.261  1.00  0.00    -0.014 A 
BRANCH  12  13
ATOM     13  C   UNL A   1      42.925  24.804  27.857  1.00  0.00     0.031 A 
ATOM     14  C   UNL A   1      44.349  25.237  27.920  1.00  0.00     0.074 A 
ATOM     15  C   UNL A   1      41.901  25.659  28.077  1.00  0.00     0.049 A 
ATOM     16  N   UNL A   1      44.847  26.345  28.393  1.00  0.00    -0.248 NA
ATOM     17  C   UNL A   1      45.352  24.304  27.376  1.00  0.00     0.031 C 
ATOM     18  C   UNL A   1      40.475  25.361  27.843  1.00  0.00     0.029 A 
ATOM     19  N   UNL A   1      41.893  26.977  28.436  1.00  0.00    -0.354 N 
ATOM     20  C   UNL A   1      46.221  26.206  28.279  1.00  0.00     0.074 A 
ATOM     21  C   UNL A   1      46.482  24.920  27.676  1.00  0.00     0.031 C 
ATOM     22  C   UNL A   1      39.759  26.488  27.952  1.00  0.00     0.029 A 
ATOM     23  C   UNL A   1      40.639  27.543  28.421  1.00  0.00     0.049 A 
ATOM     24  H   UNL A   1      42.706  27.474  28.682  1.00  0.00     0.167 HD
ATOM     25  C   UNL A   1      47.172  27.079  28.681  1.00  0.00     0.031 A 
ATOM     26  C   UNL A   1      40.242  28.770  28.798  1.00  0.00     0.031 A 
ATOM     27  C   UNL A   1      46.850  28.353  29.263  1.00  0.00     0.049 A 
ATOM     28  C   UNL A   1      41.306  29.678  29.338  1.00  0.00     0.074 A 
ATOM     29  C   UNL A   1      47.698  29.305  29.793  1.00  0.00     0.029 A 
ATOM     30  N   UNL A   1      45.557  28.851  29.377  1.00  0.00    -0.354 N 
ATOM     31  N   UNL A   1      42.605  29.493  29.370  1.00  0.00    -0.248 NA
ATOM     32  C   UNL A   1      40.855  30.942  29.924  1.00  0.00     0.031 C 
ATOM     33  C   UNL A   1      46.910  30.354  30.281  1.00  0.00     0.029 A 
ATOM     34  C   UNL A   1      45.578  30.090  29.987  1.00  0.00     0.049 A 
ATOM     35  H   UNL A   1      44.744  28.389  29.069  1.00  0.00     0.167 HD
ATOM     36  C   UNL A   1      43.134  30.626  29.962  1.00  0.00     0.074 A 
ATOM     37  C   UNL A   1      42.011  31.500  30.251  1.00  0.00     0.031 C 
ATOM     38  C   UNL A   1      44.427  30.922  30.244  1.00  0.00     0.031 A 
BRANCH  25  39
ATOM     39  C   UNL A   1      48.593  26.598  28.624  1.00  0.00    -0.014 A 
ATOM     40  C   UNL A   1      49.190  25.889  29.678  1.00  0.00     0.009 A 
ATOM     41  C   UNL A   1      49.378  26.954  27.515  1.00  0.00     0.009 A 
ATOM     42  C   UNL A   1      50.558  25.598  29.646  1.00  0.00     0.001 A 
ATOM     43  C   UNL A   1      50.735  26.633  27.472  1.00  0.00     0.001 A 
ATOM     44  C   UNL A   1      51.328  25.970  28.545  1.00  0.00     0.000 A 
ENDBRANCH  25  39
BRANCH  26  45
ATOM     45  C   UNL A   1      38.804  29.155  28.777  1.00  0.00    -0.014 A 
ATOM     46  C   UNL A   1      38.220  29.713  27.631  1.00  0.00     0.009 A 
ATOM     47  C   UNL A   1      37.999  28.973  29.917  1.00  0.00     0.009 A 
ATOM     48  C   UNL A   1      36.876  30.102  27.634  1.00  0.00     0.001 A 
ATOM     49  C   UNL A   1      36.649  29.329  29.907  1.00  0.00     0.001 A 
ATOM     50  C   UNL A   1      36.090  29.905  28.769  1.00  0.00     0.000 A 
ENDBRANCH  26  45
BRANCH  38  51
ATOM     51  C   UNL A   1      44.682  32.275  30.835  1.00  0.00    -0.014 A 
ATOM     52  C   UNL A   1      44.720  32.477  32.222  1.00  0.00     0.009 A 
ATOM     53  C   UNL A   1      44.922  33.357  29.974  1.00  0.00     0.009 A 
ATOM     54  C   UNL A   1      44.957  33.751  32.737  1.00  0.00     0.001 A 
ATOM     55  C   UNL A   1      45.195  34.621  30.492  1.00  0.00     0.001 A 
ATOM     56  C   UNL A   1      45.201  34.818  31.872  1.00  0.00     0.000 A 
ENDBRANCH  38  51
ENDBRANCH  12  13
ENDBRANCH   5   7
ENDBRANCH   4   5
ENDBRANCH   3   4
ENDBRANCH   2   3
ENDBRANCH   1   2
BRANCH   1  57
ATOM     57  C   UNL A   1      36.543  22.611  24.810  1.00  0.00     0.202 C 
BRANCH  57  58
ATOM     58  C   UNL A   1      35.718  22.318  26.058  1.00  0.00     0.261 C 
BRANCH  58  59
ATOM     59  O   UNL A   1      34.883  21.153  25.959  1.00  0.00    -0.462 OA
BRANCH  59  60
ATOM     60  C   UNL A   1      33.681  21.316  26.574  1.00  0.00     0.328 C 
ATOM     61  O   UNL A   1      33.560  21.709  27.731  1.00  0.00    -0.250 OA
BRANCH  60  62
ATOM     62  C   UNL A   1      32.485  20.945  25.665  1.00  0.00     0.196 C 
ATOM     63  C   UNL A   1      31.589  22.188  25.642  1.00  0.00     0.047 C 
ATOM     64  N   UNL A   1      32.713  20.746  24.227  1.00  0.00    -0.321 N 
ATOM     65  C   UNL A   1      32.222  23.029  24.531  1.00  0.00     0.103 C 
ATOM     66  C   UNL A   1      32.612  21.964  23.539  1.00  0.00     0.223 C 
ATOM     67  O   UNL A   1      32.736  22.142  22.338  1.00  0.00    -0.275 OA
BRANCH  64  68
ATOM     68  C   UNL A   1      32.319  19.522  23.521  1.00  0.00     0.195 C 
BRANCH  68  69
ATOM     69  C   UNL A   1      32.890  18.267  24.074  1.00  0.00     0.123 A 
ATOM     70  C   UNL A   1      34.080  17.590  23.876  1.00  0.00     0.047 A 
ATOM     71  O   UNL A   1      32.152  17.616  25.027  1.00  0.00    -0.467 OA
ATOM     72  C   UNL A   1      34.053  16.460  24.735  1.00  0.00     0.042 A 
ATOM     73  C   UNL A   1      32.862  16.525  25.417  1.00  0.00     0.195 A 
ENDBRANCH  68  69
ENDBRANCH  64  68
ENDBRANCH  60  62
ENDBRANCH  59  60
ENDBRANCH  58  59
ENDBRANCH  57  58
ENDBRANCH   1  57
TORSDOF 16
ENDMDL
