MODEL 1
REMARK VINA RESULT:      -9.3      0.000      0.000
REMARK SMILES CC(C)CCC(=O)NCc1ccc(C(=O)OCCOCCOC(=O)c2ccc(-c3c4nc(c(-c5ccccc5)c5ccc([nH]5)c(-c5ccccc5)c5nc(c(-c6ccccc6)c6ccc3[nH]6)C=C5)C=C4)cc2)o1
REMARK SMILES IDX 17 1 16 2 14 3 15 4 13 5 10 6 11 7 73 8 12 9 9 10 8 11 6 12
REMARK SMILES IDX 7 13 5 15 4 16 2 17 1 18 3 19 18 20 19 21 20 22 21 23 22 24
REMARK SMILES IDX 23 25 24 26 25 27 26 28 72 29 27 30 71 31 28 32 29 33 30 34
REMARK SMILES IDX 65 35 31 36 70 37 64 38 66 39 32 40 69 41 63 42 62 43 33 45
REMARK SMILES IDX 55 46 40 47 54 48 41 49 44 50 53 51 67 52 42 53 43 54 52 56
REMARK SMILES IDX 68 57 45 58 34 59 35 60 39 61 36 62 38 63 37 64 56 65 57 66
REMARK SMILES IDX 61 67 58 68 60 69 59 70 46 71 47 72 51 73 48 74 50 75 49 76
REMARK H PARENT 8 14 66 44 44 55
REMARK Flexibility Score: inf
ROOT
ATOM      1  C   UNL A   1      31.359  29.155  24.407  1.00  0.00     0.261 C 
ENDROOT
BRANCH   1   2
ATOM      2  O   UNL A   1      31.477  27.862  23.794  1.00  0.00    -0.457 OA
BRANCH   2   3
ATOM      3  C   UNL A   1      30.323  27.144  23.673  1.00  0.00     0.374 C 
ATOM      4  O   UNL A   1      29.307  27.541  23.117  1.00  0.00    -0.242 OA
BRANCH   3   5
ATOM      5  C   UNL A   1      30.574  25.802  24.149  1.00  0.00     0.211 A 
ATOM      6  C   UNL A   1      31.337  23.743  23.940  1.00  0.00     0.124 A 
ATOM      7  C   UNL A   1      31.193  23.974  25.295  1.00  0.00     0.048 A 
ATOM      8  O   UNL A   1      30.945  24.845  23.240  1.00  0.00    -0.452 OA
ATOM      9  C   UNL A   1      30.666  25.278  25.427  1.00  0.00     0.058 A 
BRANCH   6  10
ATOM     10  C   UNL A   1      31.762  22.568  23.130  1.00  0.00     0.191 C 
BRANCH  10  11
ATOM     11  N   UNL A   1      33.069  22.135  23.575  1.00  0.00    -0.349 N 
ATOM     12  C   UNL A   1      33.429  21.068  24.333  1.00  0.00     0.220 C 
ATOM     13  O   UNL A   1      34.597  21.001  24.720  1.00  0.00    -0.275 OA
ATOM     14  H   UNL A   1      33.816  22.707  23.284  1.00  0.00     0.163 HD
BRANCH  12  15
ATOM     15  C   UNL A   1      32.428  19.983  24.685  1.00  0.00     0.100 C 
BRANCH  15  16
ATOM     16  C   UNL A   1      33.046  18.581  24.761  1.00  0.00     0.013 C 
BRANCH  16  17
ATOM     17  C   UNL A   1      33.497  17.999  23.410  1.00  0.00    -0.017 C 
ATOM     18  C   UNL A   1      34.027  16.570  23.508  1.00  0.00     0.007 C 
ATOM     19  C   UNL A   1      32.377  18.079  22.373  1.00  0.00     0.007 C 
ENDBRANCH  16  17
ENDBRANCH  15  16
ENDBRANCH  12  15
ENDBRANCH  10  11
ENDBRANCH   6  10
ENDBRANCH   3   5
ENDBRANCH   2   3
ENDBRANCH   1   2
BRANCH   1  20
ATOM     20  C   UNL A   1      32.074  29.127  25.765  1.00  0.00     0.202 C 
BRANCH  20  21
ATOM     21  O   UNL A   1      31.679  30.163  26.671  1.00  0.00    -0.374 OA
BRANCH  21  22
ATOM     22  C   UNL A   1      31.080  31.324  26.095  1.00  0.00     0.202 C 
BRANCH  22  23
ATOM     23  C   UNL A   1      31.566  32.666  26.649  1.00  0.00     0.261 C 
BRANCH  23  24
ATOM     24  O   UNL A   1      32.785  32.514  27.396  1.00  0.00    -0.460 OA
BRANCH  24  25
ATOM     25  C   UNL A   1      33.160  33.617  28.088  1.00  0.00     0.338 C 
ATOM     26  O   UNL A   1      32.535  34.656  28.220  1.00  0.00    -0.246 OA
BRANCH  25  27
ATOM     27  C   UNL A   1      34.403  33.343  28.833  1.00  0.00     0.060 A 
ATOM     28  C   UNL A   1      35.608  33.685  28.209  1.00  0.00     0.016 A 
ATOM     29  C   UNL A   1      34.402  32.708  30.077  1.00  0.00     0.016 A 
ATOM     30  C   UNL A   1      36.821  33.344  28.801  1.00  0.00     0.010 A 
ATOM     31  C   UNL A   1      35.621  32.362  30.669  1.00  0.00     0.010 A 
ATOM     32  C   UNL A   1      36.835  32.646  30.016  1.00  0.00    -0.014 A 
BRANCH  32  33
ATOM     33  C   UNL A   1      38.114  32.094  30.523  1.00  0.00     0.031 A 
ATOM     34  C   UNL A   1      38.643  30.814  29.937  1.00  0.00     0.074 A 
ATOM     35  C   UNL A   1      38.820  32.746  31.463  1.00  0.00     0.049 A 
ATOM     36  N   UNL A   1      39.742  30.162  30.224  1.00  0.00    -0.248 NA
ATOM     37  C   UNL A   1      37.826  30.185  28.885  1.00  0.00     0.031 C 
ATOM     38  C   UNL A   1      38.438  34.015  32.081  1.00  0.00     0.029 A 
ATOM     39  N   UNL A   1      40.013  32.425  32.059  1.00  0.00    -0.354 N 
ATOM     40  C   UNL A   1      39.745  29.047  29.396  1.00  0.00     0.074 A 
ATOM     41  C   UNL A   1      38.527  29.093  28.616  1.00  0.00     0.031 C 
ATOM     42  C   UNL A   1      39.381  34.364  32.973  1.00  0.00     0.029 A 
ATOM     43  C   UNL A   1      40.415  33.332  33.007  1.00  0.00     0.049 A 
ATOM     44  H   UNL A   1      40.531  31.620  31.830  1.00  0.00     0.167 HD
ATOM     45  C   UNL A   1      40.682  28.075  29.286  1.00  0.00     0.031 A 
ATOM     46  C   UNL A   1      41.487  33.324  33.822  1.00  0.00     0.031 A 
ATOM     47  C   UNL A   1      41.888  28.019  30.066  1.00  0.00     0.049 A 
ATOM     48  C   UNL A   1      42.476  32.192  33.733  1.00  0.00     0.074 A 
ATOM     49  C   UNL A   1      42.906  27.082  30.014  1.00  0.00     0.029 A 
ATOM     50  N   UNL A   1      42.236  28.934  31.047  1.00  0.00    -0.354 N 
ATOM     51  N   UNL A   1      42.484  31.161  32.925  1.00  0.00    -0.248 NA
ATOM     52  C   UNL A   1      43.611  32.232  34.668  1.00  0.00     0.031 C 
ATOM     53  C   UNL A   1      43.845  27.401  31.000  1.00  0.00     0.029 A 
ATOM     54  C   UNL A   1      43.438  28.568  31.628  1.00  0.00     0.049 A 
ATOM     55  H   UNL A   1      41.707  29.726  31.294  1.00  0.00     0.167 HD
ATOM     56  C   UNL A   1      43.634  30.445  33.233  1.00  0.00     0.074 A 
ATOM     57  C   UNL A   1      44.305  31.165  34.295  1.00  0.00     0.031 C 
ATOM     58  C   UNL A   1      44.094  29.293  32.684  1.00  0.00     0.031 A 
BRANCH  45  59
ATOM     59  C   UNL A   1      40.417  26.971  28.302  1.00  0.00    -0.014 A 
ATOM     60  C   UNL A   1      40.983  26.988  27.017  1.00  0.00     0.009 A 
ATOM     61  C   UNL A   1      39.611  25.885  28.676  1.00  0.00     0.009 A 
ATOM     62  C   UNL A   1      40.720  25.953  26.116  1.00  0.00     0.001 A 
ATOM     63  C   UNL A   1      39.372  24.840  27.783  1.00  0.00     0.001 A 
ATOM     64  C   UNL A   1      39.918  24.879  26.501  1.00  0.00     0.000 A 
ENDBRANCH  45  59
BRANCH  46  65
ATOM     65  C   UNL A   1      41.681  34.417  34.808  1.00  0.00    -0.014 A 
ATOM     66  C   UNL A   1      42.338  35.603  34.445  1.00  0.00     0.009 A 
ATOM     67  C   UNL A   1      41.224  34.270  36.128  1.00  0.00     0.009 A 
ATOM     68  C   UNL A   1      42.554  36.609  35.389  1.00  0.00     0.001 A 
ATOM     69  C   UNL A   1      41.419  35.289  37.063  1.00  0.00     0.001 A 
ATOM     70  C   UNL A   1      42.092  36.453  36.695  1.00  0.00     0.000 A 
ENDBRANCH  46  65
BRANCH  58  71
ATOM     71  C   UNL A   1      45.402  28.760  33.197  1.00  0.00    -0.014 A 
ATOM     72  C   UNL A   1      45.450  27.837  34.253  1.00  0.00     0.009 A 
ATOM     73  C   UNL A   1      46.601  29.154  32.583  1.00  0.00     0.009 A 
ATOM     74  C   UNL A   1      46.676  27.344  34.704  1.00  0.00     0.001 A 
ATOM     75  C   UNL A   1      47.823  28.639  33.018  1.00  0.00     0.001 A 
ATOM     76  C   UNL A   1      47.860  27.741  34.083  1.00  0.00     0.000 A 
ENDBRANCH  58  71
ENDBRANCH  32  33
ENDBRANCH  25  27
ENDBRANCH  24  25
ENDBRANCH  23  24
ENDBRANCH  22  23
ENDBRANCH  21  22
ENDBRANCH  20  21
ENDBRANCH   1  20
TORSDOF 19
ENDMDL
MODEL 2
REMARK VINA RESULT:      -9.2      2.074      6.197
REMARK SMILES CC(C)CCC(=O)NCc1ccc(C(=O)OCCOCCOC(=O)c2ccc(-c3c4nc(c(-c5ccccc5)c5ccc([nH]5)c(-c5ccccc5)c5nc(c(-c6ccccc6)c6ccc3[nH]6)C=C5)C=C4)cc2)o1
REMARK SMILES IDX 17 1 16 2 14 3 15 4 13 5 10 6 11 7 73 8 12 9 9 10 8 11 6 12
REMARK SMILES IDX 7 13 5 15 4 16 2 17 1 18 3 19 18 20 19 21 20 22 21 23 22 24
REMARK SMILES IDX 23 25 24 26 25 27 26 28 72 29 27 30 71 31 28 32 29 33 30 34
REMARK SMILES IDX 65 35 31 36 70 37 64 38 66 39 32 40 69 41 63 42 62 43 33 45
REMARK SMILES IDX 55 46 40 47 54 48 41 49 44 50 53 51 67 52 42 53 43 54 52 56
REMARK SMILES IDX 68 57 45 58 34 59 35 60 39 61 36 62 38 63 37 64 56 65 57 66
REMARK SMILES IDX 61 67 58 68 60 69 59 70 46 71 47 72 51 73 48 74 50 75 49 76
REMARK H PARENT 8 14 66 44 44 55
REMARK Flexibility Score: inf
ROOT
ATOM      1  C   UNL A   1      32.590  29.170  24.834  1.00  0.00     0.261 C 
ENDROOT
BRANCH   1   2
ATOM      2  O   UNL A   1      32.127  27.813  24.761  1.00  0.00    -0.457 OA
BRANCH   2   3
ATOM      3  C   UNL A   1      33.086  26.844  24.828  1.00  0.00     0.374 C 
ATOM      4  O   UNL A   1      34.263  27.004  24.537  1.00  0.00    -0.242 OA
BRANCH   3   5
ATOM      5  C   UNL A   1      32.506  25.679  25.460  1.00  0.00     0.211 A 
ATOM      6  C   UNL A   1      32.613  23.780  26.576  1.00  0.00     0.124 A 
ATOM      7  C   UNL A   1      31.314  24.236  26.698  1.00  0.00     0.048 A 
ATOM      8  O   UNL A   1      33.335  24.645  25.810  1.00  0.00    -0.452 OA
ATOM      9  C   UNL A   1      31.235  25.431  25.951  1.00  0.00     0.058 A 
BRANCH   6  10
ATOM     10  C   UNL A   1      33.330  22.562  27.045  1.00  0.00     0.191 C 
BRANCH  10  11
ATOM     11  N   UNL A   1      32.641  21.389  26.554  1.00  0.00    -0.349 N 
ATOM     12  C   UNL A   1      32.817  20.684  25.407  1.00  0.00     0.220 C 
ATOM     13  O   UNL A   1      31.991  19.812  25.132  1.00  0.00    -0.275 OA
ATOM     14  H   UNL A   1      31.931  21.048  27.144  1.00  0.00     0.163 HD
BRANCH  12  15
ATOM     15  C   UNL A   1      34.000  20.953  24.495  1.00  0.00     0.100 C 
BRANCH  15  16
ATOM     16  C   UNL A   1      35.304  20.303  24.978  1.00  0.00     0.013 C 
BRANCH  16  17
ATOM     17  C   UNL A   1      36.493  21.268  25.122  1.00  0.00    -0.017 C 
ATOM     18  C   UNL A   1      37.847  20.608  24.875  1.00  0.00     0.007 C 
ATOM     19  C   UNL A   1      36.325  22.490  24.219  1.00  0.00     0.007 C 
ENDBRANCH  16  17
ENDBRANCH  15  16
ENDBRANCH  12  15
ENDBRANCH  10  11
ENDBRANCH   6  10
ENDBRANCH   3   5
ENDBRANCH   2   3
ENDBRANCH   1   2
BRANCH   1  20
ATOM     20  C   UNL A   1      32.705  29.575  26.311  1.00  0.00     0.202 C 
BRANCH  20  21
ATOM     21  O   UNL A   1      31.579  30.299  26.821  1.00  0.00    -0.374 OA
BRANCH  21  22
ATOM     22  C   UNL A   1      31.335  31.586  26.255  1.00  0.00     0.202 C 
BRANCH  22  23
ATOM     23  C   UNL A   1      31.553  32.778  27.192  1.00  0.00     0.261 C 
BRANCH  23  24
ATOM     24  O   UNL A   1      32.844  33.376  26.987  1.00  0.00    -0.460 OA
BRANCH  24  25
ATOM     25  C   UNL A   1      33.411  33.882  28.108  1.00  0.00     0.338 C 
ATOM     26  O   UNL A   1      32.947  34.725  28.857  1.00  0.00    -0.246 OA
BRANCH  25  27
ATOM     27  C   UNL A   1      34.649  33.143  28.421  1.00  0.00     0.060 A 
ATOM     28  C   UNL A   1      34.509  31.816  28.845  1.00  0.00     0.016 A 
ATOM     29  C   UNL A   1      35.909  33.744  28.370  1.00  0.00     0.016 A 
ATOM     30  C   UNL A   1      35.624  31.100  29.273  1.00  0.00     0.010 A 
ATOM     31  C   UNL A   1      37.028  33.026  28.804  1.00  0.00     0.010 A 
ATOM     32  C   UNL A   1      36.884  31.713  29.292  1.00  0.00    -0.014 A 
BRANCH  32  33
ATOM     33  C   UNL A   1      38.017  31.024  29.955  1.00  0.00     0.031 A 
ATOM     34  C   UNL A   1      38.286  31.290  31.410  1.00  0.00     0.074 A 
ATOM     35  C   UNL A   1      38.772  30.138  29.281  1.00  0.00     0.049 A 
ATOM     36  N   UNL A   1      39.215  30.790  32.186  1.00  0.00    -0.248 NA
ATOM     37  C   UNL A   1      37.389  32.245  32.081  1.00  0.00     0.031 C 
ATOM     38  C   UNL A   1      38.589  29.761  27.881  1.00  0.00     0.029 A 
ATOM     39  N   UNL A   1      39.847  29.393  29.695  1.00  0.00    -0.354 N 
ATOM     40  C   UNL A   1      39.017  31.372  33.432  1.00  0.00     0.074 A 
ATOM     41  C   UNL A   1      37.901  32.285  33.302  1.00  0.00     0.031 C 
ATOM     42  C   UNL A   1      39.524  28.853  27.550  1.00  0.00     0.029 A 
ATOM     43  C   UNL A   1      40.384  28.608  28.705  1.00  0.00     0.049 A 
ATOM     44  H   UNL A   1      40.200  29.418  30.613  1.00  0.00     0.167 HD
ATOM     45  C   UNL A   1      39.697  31.162  34.584  1.00  0.00     0.031 A 
ATOM     46  C   UNL A   1      41.458  27.795  28.725  1.00  0.00     0.031 A 
ATOM     47  C   UNL A   1      40.813  30.265  34.715  1.00  0.00     0.049 A 
ATOM     48  C   UNL A   1      42.244  27.636  29.999  1.00  0.00     0.074 A 
ATOM     49  C   UNL A   1      41.556  29.972  35.846  1.00  0.00     0.029 A 
ATOM     50  N   UNL A   1      41.354  29.523  33.677  1.00  0.00    -0.354 N 
ATOM     51  N   UNL A   1      42.028  28.168  31.176  1.00  0.00    -0.248 NA
ATOM     52  C   UNL A   1      43.419  26.753  29.944  1.00  0.00     0.031 C 
ATOM     53  C   UNL A   1      42.580  29.092  35.481  1.00  0.00     0.029 A 
ATOM     54  C   UNL A   1      42.439  28.794  34.135  1.00  0.00     0.049 A 
ATOM     55  H   UNL A   1      41.017  29.515  32.753  1.00  0.00     0.167 HD
ATOM     56  C   UNL A   1      43.021  27.665  32.008  1.00  0.00     0.074 A 
ATOM     57  C   UNL A   1      43.832  26.776  31.204  1.00  0.00     0.031 C 
ATOM     58  C   UNL A   1      43.239  27.915  33.323  1.00  0.00     0.031 A 
BRANCH  45  59
ATOM     59  C   UNL A   1      39.266  31.946  35.791  1.00  0.00    -0.014 A 
ATOM     60  C   UNL A   1      39.843  33.188  36.098  1.00  0.00     0.009 A 
ATOM     61  C   UNL A   1      38.249  31.445  36.618  1.00  0.00     0.009 A 
ATOM     62  C   UNL A   1      39.430  33.899  37.228  1.00  0.00     0.001 A 
ATOM     63  C   UNL A   1      37.821  32.169  37.731  1.00  0.00     0.001 A 
ATOM     64  C   UNL A   1      38.417  33.390  38.041  1.00  0.00     0.000 A 
ENDBRANCH  45  59
BRANCH  46  65
ATOM     65  C   UNL A   1      41.868  27.076  27.492  1.00  0.00    -0.014 A 
ATOM     66  C   UNL A   1      41.410  25.775  27.235  1.00  0.00     0.009 A 
ATOM     67  C   UNL A   1      42.739  27.684  26.573  1.00  0.00     0.009 A 
ATOM     68  C   UNL A   1      41.835  25.088  26.095  1.00  0.00     0.001 A 
ATOM     69  C   UNL A   1      43.141  27.005  25.421  1.00  0.00     0.001 A 
ATOM     70  C   UNL A   1      42.696  25.705  25.187  1.00  0.00     0.000 A 
ENDBRANCH  46  65
BRANCH  58  71
ATOM     71  C   UNL A   1      44.380  27.193  33.982  1.00  0.00    -0.014 A 
ATOM     72  C   UNL A   1      45.661  27.760  34.050  1.00  0.00     0.009 A 
ATOM     73  C   UNL A   1      44.155  25.944  34.583  1.00  0.00     0.009 A 
ATOM     74  C   UNL A   1      46.704  27.077  34.680  1.00  0.00     0.001 A 
ATOM     75  C   UNL A   1      45.193  25.275  35.236  1.00  0.00     0.001 A 
ATOM     76  C   UNL A   1      46.467  25.838  35.276  1.00  0.00     0.000 A 
ENDBRANCH  58  71
ENDBRANCH  32  33
ENDBRANCH  25  27
ENDBRANCH  24  25
ENDBRANCH  23  24
ENDBRANCH  22  23
ENDBRANCH  21  22
ENDBRANCH  20  21
ENDBRANCH   1  20
TORSDOF 19
ENDMDL
MODEL 3
REMARK VINA RESULT:      -9.2      3.306      9.015
REMARK SMILES CC(C)CCC(=O)NCc1ccc(C(=O)OCCOCCOC(=O)c2ccc(-c3c4nc(c(-c5ccccc5)c5ccc([nH]5)c(-c5ccccc5)c5nc(c(-c6ccccc6)c6ccc3[nH]6)C=C5)C=C4)cc2)o1
REMARK SMILES IDX 17 1 16 2 14 3 15 4 13 5 10 6 11 7 73 8 12 9 9 10 8 11 6 12
REMARK SMILES IDX 7 13 5 15 4 16 2 17 1 18 3 19 18 20 19 21 20 22 21 23 22 24
REMARK SMILES IDX 23 25 24 26 25 27 26 28 72 29 27 30 71 31 28 32 29 33 30 34
REMARK SMILES IDX 65 35 31 36 70 37 64 38 66 39 32 40 69 41 63 42 62 43 33 45
REMARK SMILES IDX 55 46 40 47 54 48 41 49 44 50 53 51 67 52 42 53 43 54 52 56
REMARK SMILES IDX 68 57 45 58 34 59 35 60 39 61 36 62 38 63 37 64 56 65 57 66
REMARK SMILES IDX 61 67 58 68 60 69 59 70 46 71 47 72 51 73 48 74 50 75 49 76
REMARK H PARENT 8 14 66 44 44 55
REMARK Flexibility Score: inf
ROOT
ATOM      1  C   UNL A   1      35.652  21.542  25.368  1.00  0.00     0.261 C 
ENDROOT
BRANCH   1   2
ATOM      2  O   UNL A   1      34.728  22.628  25.537  1.00  0.00    -0.457 OA
BRANCH   2   3
ATOM      3  C   UNL A   1      33.688  22.407  26.392  1.00  0.00     0.374 C 
ATOM      4  O   UNL A   1      33.801  22.016  27.546  1.00  0.00    -0.242 OA
BRANCH   3   5
ATOM      5  C   UNL A   1      32.476  22.880  25.759  1.00  0.00     0.211 A 
ATOM      6  C   UNL A   1      30.868  24.352  25.426  1.00  0.00     0.124 A 
ATOM      7  C   UNL A   1      30.864  23.510  24.330  1.00  0.00     0.048 A 
ATOM      8  O   UNL A   1      31.833  23.961  26.305  1.00  0.00    -0.452 OA
ATOM      9  C   UNL A   1      31.867  22.543  24.562  1.00  0.00     0.058 A 
BRANCH   6  10
ATOM     10  C   UNL A   1      30.030  25.510  25.842  1.00  0.00     0.191 C 
BRANCH  10  11
ATOM     11  N   UNL A   1      29.619  26.244  24.665  1.00  0.00    -0.349 N 
ATOM     12  C   UNL A   1      30.195  27.309  24.051  1.00  0.00     0.220 C 
ATOM     13  O   UNL A   1      29.564  27.868  23.151  1.00  0.00    -0.275 OA
ATOM     14  H   UNL A   1      28.790  25.922  24.244  1.00  0.00     0.163 HD
BRANCH  12  15
ATOM     15  C   UNL A   1      31.577  27.792  24.450  1.00  0.00     0.100 C 
BRANCH  15  16
ATOM     16  C   UNL A   1      31.559  29.095  25.261  1.00  0.00     0.013 C 
BRANCH  16  17
ATOM     17  C   UNL A   1      32.316  29.034  26.599  1.00  0.00    -0.017 C 
ATOM     18  C   UNL A   1      31.576  28.253  27.683  1.00  0.00     0.007 C 
ATOM     19  C   UNL A   1      33.726  28.475  26.411  1.00  0.00     0.007 C 
ENDBRANCH  16  17
ENDBRANCH  15  16
ENDBRANCH  12  15
ENDBRANCH  10  11
ENDBRANCH   6  10
ENDBRANCH   3   5
ENDBRANCH   2   3
ENDBRANCH   1   2
BRANCH   1  20
ATOM     20  C   UNL A   1      37.037  21.988  25.858  1.00  0.00     0.202 C 
BRANCH  20  21
ATOM     21  O   UNL A   1      38.137  21.421  25.139  1.00  0.00    -0.374 OA
BRANCH  21  22
ATOM     22  C   UNL A   1      38.018  20.049  24.762  1.00  0.00     0.202 C 
BRANCH  22  23
ATOM     23  C   UNL A   1      38.863  19.061  25.571  1.00  0.00     0.261 C 
BRANCH  23  24
ATOM     24  O   UNL A   1      39.701  19.744  26.519  1.00  0.00    -0.460 OA
BRANCH  24  25
ATOM     25  C   UNL A   1      41.011  19.791  26.176  1.00  0.00     0.338 C 
ATOM     26  O   UNL A   1      41.620  19.004  25.472  1.00  0.00    -0.246 OA
BRANCH  25  27
ATOM     27  C   UNL A   1      41.608  21.054  26.649  1.00  0.00     0.060 A 
ATOM     28  C   UNL A   1      41.591  21.291  28.028  1.00  0.00     0.016 A 
ATOM     29  C   UNL A   1      42.109  22.016  25.769  1.00  0.00     0.016 A 
ATOM     30  C   UNL A   1      42.026  22.514  28.531  1.00  0.00     0.010 A 
ATOM     31  C   UNL A   1      42.542  23.246  26.274  1.00  0.00     0.010 A 
ATOM     32  C   UNL A   1      42.468  23.514  27.654  1.00  0.00    -0.014 A 
BRANCH  32  33
ATOM     33  C   UNL A   1      42.714  24.880  28.175  1.00  0.00     0.031 A 
ATOM     34  C   UNL A   1      44.117  25.282  28.541  1.00  0.00     0.074 A 
ATOM     35  C   UNL A   1      41.710  25.768  28.279  1.00  0.00     0.049 A 
ATOM     36  N   UNL A   1      44.556  26.425  29.004  1.00  0.00    -0.248 NA
ATOM     37  C   UNL A   1      45.162  24.262  28.360  1.00  0.00     0.031 C 
ATOM     38  C   UNL A   1      40.316  25.515  27.918  1.00  0.00     0.029 A 
ATOM     39  N   UNL A   1      41.716  27.066  28.721  1.00  0.00    -0.354 N 
ATOM     40  C   UNL A   1      45.925  26.260  29.174  1.00  0.00     0.074 A 
ATOM     41  C   UNL A   1      46.239  24.899  28.795  1.00  0.00     0.031 C 
ATOM     42  C   UNL A   1      39.598  26.627  28.155  1.00  0.00     0.029 A 
ATOM     43  C   UNL A   1      40.476  27.656  28.709  1.00  0.00     0.049 A 
ATOM     44  H   UNL A   1      42.531  27.531  29.018  1.00  0.00     0.167 HD
ATOM     45  C   UNL A   1      46.842  27.161  29.601  1.00  0.00     0.031 A 
ATOM     46  C   UNL A   1      40.091  28.881  29.112  1.00  0.00     0.031 A 
ATOM     47  C   UNL A   1      46.533  28.510  29.990  1.00  0.00     0.049 A 
ATOM     48  C   UNL A   1      41.118  29.840  29.654  1.00  0.00     0.074 A 
ATOM     49  C   UNL A   1      47.397  29.503  30.419  1.00  0.00     0.029 A 
ATOM     50  N   UNL A   1      45.258  29.054  30.005  1.00  0.00    -0.354 N 
ATOM     51  N   UNL A   1      42.412  29.682  29.781  1.00  0.00    -0.248 NA
ATOM     52  C   UNL A   1      40.625  31.152  30.100  1.00  0.00     0.031 C 
ATOM     53  C   UNL A   1      46.638  30.632  30.745  1.00  0.00     0.029 A 
ATOM     54  C   UNL A   1      45.309  30.359  30.464  1.00  0.00     0.049 A 
ATOM     55  H   UNL A   1      44.439  28.583  29.730  1.00  0.00     0.167 HD
ATOM     56  C   UNL A   1      42.893  30.881  30.294  1.00  0.00     0.074 A 
ATOM     57  C   UNL A   1      41.753  31.760  30.444  1.00  0.00     0.031 C 
ATOM     58  C   UNL A   1      44.166  31.223  30.611  1.00  0.00     0.031 A 
BRANCH  45  59
ATOM     59  C   UNL A   1      48.268  26.699  29.698  1.00  0.00    -0.014 A 
ATOM     60  C   UNL A   1      48.749  26.055  30.849  1.00  0.00     0.009 A 
ATOM     61  C   UNL A   1      49.135  26.888  28.611  1.00  0.00     0.009 A 
ATOM     62  C   UNL A   1      50.081  25.638  30.920  1.00  0.00     0.001 A 
ATOM     63  C   UNL A   1      50.457  26.446  28.675  1.00  0.00     0.001 A 
ATOM     64  C   UNL A   1      50.932  25.830  29.832  1.00  0.00     0.000 A 
ENDBRANCH  45  59
BRANCH  46  65
ATOM     65  C   UNL A   1      38.661  29.274  29.035  1.00  0.00    -0.014 A 
ATOM     66  C   UNL A   1      38.125  29.806  27.852  1.00  0.00     0.009 A 
ATOM     67  C   UNL A   1      37.827  29.136  30.157  1.00  0.00     0.009 A 
ATOM     68  C   UNL A   1      36.790  30.213  27.801  1.00  0.00     0.001 A 
ATOM     69  C   UNL A   1      36.485  29.519  30.094  1.00  0.00     0.001 A 
ATOM     70  C   UNL A   1      35.971  30.066  28.920  1.00  0.00     0.000 A 
ENDBRANCH  46  65
BRANCH  58  71
ATOM     71  C   UNL A   1      44.399  32.618  31.118  1.00  0.00    -0.014 A 
ATOM     72  C   UNL A   1      44.380  32.908  32.491  1.00  0.00     0.009 A 
ATOM     73  C   UNL A   1      44.687  33.648  30.209  1.00  0.00     0.009 A 
ATOM     74  C   UNL A   1      44.612  34.209  32.941  1.00  0.00     0.001 A 
ATOM     75  C   UNL A   1      44.947  34.942  30.663  1.00  0.00     0.001 A 
ATOM     76  C   UNL A   1      44.901  35.223  32.027  1.00  0.00     0.000 A 
ENDBRANCH  58  71
ENDBRANCH  32  33
ENDBRANCH  25  27
ENDBRANCH  24  25
ENDBRANCH  23  24
ENDBRANCH  22  23
ENDBRANCH  21  22
ENDBRANCH  20  21
ENDBRANCH   1  20
TORSDOF 19
ENDMDL
