MODEL 1
REMARK VINA RESULT:     -11.7      0.000      0.000
REMARK SMILES O=C(OCCOCCOC(=O)c1ccc(-c2c3nc(c(-c4ccccc4)c4ccc([nH]4)c(-c4ccccc4)c4nc(c(-c5ccccc5)c5ccc2[nH]5)C=C4)C=C3)cc1)C1=Cc2cc(Cl)cc(Cl)c2O[C@@H]1C(F)(F)F
REMARK SMILES IDX 7 1 6 2 5 3 4 4 3 5 2 6 1 7 60 8 61 9 71 10 62 11 70 12
REMARK SMILES IDX 63 13 69 14 64 15 67 16 65 17 66 18 68 19 72 20 73 21 74 22
REMARK SMILES IDX 75 23 8 24 9 25 10 26 11 27 12 28 13 29 59 30 14 31 58 32
REMARK SMILES IDX 15 33 16 34 17 35 52 36 18 37 57 38 51 39 53 40 19 41 56 42
REMARK SMILES IDX 50 43 49 44 20 46 42 47 27 48 41 49 28 50 31 51 40 52 54 53
REMARK SMILES IDX 29 54 30 55 39 57 55 58 32 59 21 60 22 61 26 62 23 63 25 64
REMARK SMILES IDX 24 65 43 66 44 67 48 68 45 69 47 70 46 71 33 72 34 73 38 74
REMARK SMILES IDX 35 75 37 76 36 77
REMARK H PARENT 53 45 31 56
REMARK Flexibility Score: inf
ROOT
ATOM      1  C   UNL A   1      42.720  20.527  26.145  1.00  0.00     0.202 C 
ENDROOT
BRANCH   1   2
ATOM      2  O   UNL A   1      41.304  20.529  25.933  1.00  0.00    -0.374 OA
BRANCH   2   3
ATOM      3  C   UNL A   1      40.069  21.245  26.624  1.00  0.00     0.202 C 
BRANCH   3   4
ATOM      4  C   UNL A   1      38.441  22.472  25.881  1.00  0.00     0.261 C 
BRANCH   4   5
ATOM      5  O   UNL A   1      36.971  22.044  25.702  1.00  0.00    -0.460 OA
BRANCH   5   6
ATOM      6  C   UNL A   1      36.399  22.592  24.626  1.00  0.00     0.338 C 
ATOM      7  O   UNL A   1      36.901  23.030  23.624  1.00  0.00    -0.246 OA
BRANCH   6   8
ATOM      8  C   UNL A   1      35.106  22.786  25.239  1.00  0.00     0.087 C 
ATOM      9  C   UNL A   1      34.939  24.196  25.710  1.00  0.00     0.027 C 
ATOM     10  C   UNL A   1      34.068  21.971  23.820  1.00  0.00     0.316 C 
ATOM     11  C   UNL A   1      33.868  25.412  24.874  1.00  0.00     0.020 A 
ATOM     12  O   UNL A   1      32.982  23.261  22.894  1.00  0.00    -0.474 OA
ATOM     13  C   UNL A   1      33.928  26.729  25.244  1.00  0.00     0.032 A 
ATOM     14  C   UNL A   1      32.985  24.999  23.437  1.00  0.00     0.146 A 
ATOM     15  C   UNL A   1      33.312  27.627  24.350  1.00  0.00     0.043 A 
ATOM     16  C   UNL A   1      32.585  25.966  22.558  1.00  0.00     0.085 A 
ATOM     17  Cl  UNL A   1      33.343  29.307  24.786  1.00  0.00    -0.084 Cl
ATOM     18  C   UNL A   1      32.726  27.278  23.065  1.00  0.00     0.045 A 
ATOM     19  Cl  UNL A   1      32.310  25.667  20.904  1.00  0.00    -0.080 Cl
BRANCH  10  20
ATOM     20  C   UNL A   1      33.668  20.611  24.515  1.00  0.00     0.430 C 
ATOM     21  F   UNL A   1      32.986  20.730  25.667  1.00  0.00    -0.167 F 
ATOM     22  F   UNL A   1      32.815  19.964  23.666  1.00  0.00    -0.167 F 
ATOM     23  F   UNL A   1      34.693  19.749  24.693  1.00  0.00    -0.167 F 
ENDBRANCH  10  20
ENDBRANCH   6   8
ENDBRANCH   5   6
ENDBRANCH   4   5
ENDBRANCH   3   4
ENDBRANCH   2   3
ENDBRANCH   1   2
BRANCH   1  24
ATOM     24  C   UNL A   1      43.544  21.530  25.352  1.00  0.00     0.261 C 
BRANCH  24  25
ATOM     25  O   UNL A   1      42.841  22.734  25.101  1.00  0.00    -0.460 OA
BRANCH  25  26
ATOM     26  C   UNL A   1      43.619  23.836  25.035  1.00  0.00     0.338 C 
ATOM     27  O   UNL A   1      44.513  24.083  24.248  1.00  0.00    -0.246 OA
BRANCH  26  28
ATOM     28  C   UNL A   1      43.182  24.739  26.110  1.00  0.00     0.060 A 
ATOM     29  C   UNL A   1      42.249  24.267  27.037  1.00  0.00     0.016 A 
ATOM     30  C   UNL A   1      43.743  26.018  26.233  1.00  0.00     0.016 A 
ATOM     31  C   UNL A   1      41.914  25.058  28.131  1.00  0.00     0.010 A 
ATOM     32  C   UNL A   1      43.409  26.807  27.323  1.00  0.00     0.010 A 
ATOM     33  C   UNL A   1      42.492  26.327  28.271  1.00  0.00    -0.014 A 
BRANCH  33  34
ATOM     34  C   UNL A   1      41.974  27.270  29.272  1.00  0.00     0.031 A 
ATOM     35  C   UNL A   1      42.680  27.308  30.590  1.00  0.00     0.074 A 
ATOM     36  C   UNL A   1      40.882  28.015  29.036  1.00  0.00     0.049 A 
ATOM     37  N   UNL A   1      42.392  27.989  31.663  1.00  0.00    -0.248 NA
ATOM     38  C   UNL A   1      43.868  26.443  30.715  1.00  0.00     0.031 C 
ATOM     39  C   UNL A   1      40.133  28.052  27.783  1.00  0.00     0.029 A 
ATOM     40  N   UNL A   1      40.201  28.868  29.863  1.00  0.00    -0.354 N 
ATOM     41  C   UNL A   1      43.362  27.636  32.590  1.00  0.00     0.074 A 
ATOM     42  C   UNL A   1      44.217  26.651  31.972  1.00  0.00     0.031 C 
ATOM     43  C   UNL A   1      39.080  28.875  27.929  1.00  0.00     0.029 A 
ATOM     44  C   UNL A   1      39.065  29.392  29.296  1.00  0.00     0.049 A 
ATOM     45  H   UNL A   1      40.497  29.087  30.776  1.00  0.00     0.167 HD
ATOM     46  C   UNL A   1      43.522  28.096  33.849  1.00  0.00     0.031 A 
ATOM     47  C   UNL A   1      38.112  30.174  29.837  1.00  0.00     0.031 A 
ATOM     48  C   UNL A   1      42.625  29.031  34.467  1.00  0.00     0.049 A 
ATOM     49  C   UNL A   1      38.262  30.610  31.272  1.00  0.00     0.074 A 
ATOM     50  C   UNL A   1      42.691  29.577  35.735  1.00  0.00     0.029 A 
ATOM     51  N   UNL A   1      41.478  29.531  33.867  1.00  0.00    -0.354 N 
ATOM     52  N   UNL A   1      39.219  30.329  32.125  1.00  0.00    -0.248 NA
ATOM     53  C   UNL A   1      37.209  31.478  31.817  1.00  0.00     0.031 C 
ATOM     54  C   UNL A   1      41.541  30.345  35.930  1.00  0.00     0.029 A 
ATOM     55  C   UNL A   1      40.805  30.351  34.753  1.00  0.00     0.049 A 
ATOM     56  H   UNL A   1      41.188  29.333  32.947  1.00  0.00     0.167 HD
ATOM     57  C   UNL A   1      38.903  31.012  33.293  1.00  0.00     0.074 A 
ATOM     58  C   UNL A   1      37.668  31.726  33.037  1.00  0.00     0.031 C 
ATOM     59  C   UNL A   1      39.577  31.051  34.470  1.00  0.00     0.031 A 
BRANCH  46  60
ATOM     60  C   UNL A   1      44.667  27.531  34.637  1.00  0.00    -0.014 A 
ATOM     61  C   UNL A   1      45.899  28.200  34.728  1.00  0.00     0.009 A 
ATOM     62  C   UNL A   1      44.521  26.288  35.271  1.00  0.00     0.009 A 
ATOM     63  C   UNL A   1      46.977  27.609  35.389  1.00  0.00     0.001 A 
ATOM     64  C   UNL A   1      45.588  25.718  35.965  1.00  0.00     0.001 A 
ATOM     65  C   UNL A   1      46.819  26.372  36.010  1.00  0.00     0.000 A 
ENDBRANCH  46  60
BRANCH  47  66
ATOM     66  C   UNL A   1      36.928  30.572  29.031  1.00  0.00    -0.014 A 
ATOM     67  C   UNL A   1      36.770  31.893  28.582  1.00  0.00     0.009 A 
ATOM     68  C   UNL A   1      35.940  29.627  28.705  1.00  0.00     0.009 A 
ATOM     69  C   UNL A   1      35.639  32.263  27.848  1.00  0.00     0.001 A 
ATOM     70  C   UNL A   1      34.826  29.992  27.944  1.00  0.00     0.001 A 
ATOM     71  C   UNL A   1      34.672  31.311  27.526  1.00  0.00     0.000 A 
ENDBRANCH  47  66
BRANCH  59  72
ATOM     72  C   UNL A   1      39.027  31.929  35.561  1.00  0.00    -0.014 A 
ATOM     73  C   UNL A   1      38.185  31.421  36.560  1.00  0.00     0.009 A 
ATOM     74  C   UNL A   1      39.448  33.267  35.639  1.00  0.00     0.009 A 
ATOM     75  C   UNL A   1      37.760  32.243  37.606  1.00  0.00     0.001 A 
ATOM     76  C   UNL A   1      39.052  34.074  36.704  1.00  0.00     0.001 A 
ATOM     77  C   UNL A   1      38.202  33.564  37.683  1.00  0.00     0.000 A 
ENDBRANCH  59  72
ENDBRANCH  33  34
ENDBRANCH  26  28
ENDBRANCH  25  26
ENDBRANCH  24  25
ENDBRANCH   1  24
TORSDOF 15
ENDMDL
MODEL 2
REMARK VINA RESULT:     -11.2      0.793      6.015
REMARK SMILES O=C(OCCOCCOC(=O)c1ccc(-c2c3nc(c(-c4ccccc4)c4ccc([nH]4)c(-c4ccccc4)c4nc(c(-c5ccccc5)c5ccc2[nH]5)C=C4)C=C3)cc1)C1=Cc2cc(Cl)cc(Cl)c2O[C@@H]1C(F)(F)F
REMARK SMILES IDX 7 1 6 2 5 3 4 4 3 5 2 6 1 7 60 8 61 9 71 10 62 11 70 12
REMARK SMILES IDX 63 13 69 14 64 15 67 16 65 17 66 18 68 19 72 20 73 21 74 22
REMARK SMILES IDX 75 23 8 24 9 25 10 26 11 27 12 28 13 29 59 30 14 31 58 32
REMARK SMILES IDX 15 33 16 34 17 35 52 36 18 37 57 38 51 39 53 40 19 41 56 42
REMARK SMILES IDX 50 43 49 44 20 46 42 47 27 48 41 49 28 50 31 51 40 52 54 53
REMARK SMILES IDX 29 54 30 55 39 57 55 58 32 59 21 60 22 61 26 62 23 63 25 64
REMARK SMILES IDX 24 65 43 66 44 67 48 68 45 69 47 70 46 71 33 72 34 73 38 74
REMARK SMILES IDX 35 75 37 76 36 77
REMARK H PARENT 53 45 31 56
REMARK Flexibility Score: inf
ROOT
ATOM      1  C   UNL A   1      42.839  21.720  26.066  1.00  0.00     0.202 C 
ENDROOT
BRANCH   1   2
ATOM      2  O   UNL A   1      41.518  21.278  25.736  1.00  0.00    -0.374 OA
BRANCH   2   3
ATOM      3  C   UNL A   1      40.099  21.364  26.438  1.00  0.00     0.202 C 
BRANCH   3   4
ATOM      4  C   UNL A   1      38.090  21.750  25.715  1.00  0.00     0.261 C 
BRANCH   4   5
ATOM      5  O   UNL A   1      37.470  23.128  25.406  1.00  0.00    -0.460 OA
BRANCH   5   6
ATOM      6  C   UNL A   1      36.614  23.093  24.382  1.00  0.00     0.338 C 
ATOM      7  O   UNL A   1      36.811  23.257  23.205  1.00  0.00    -0.246 OA
BRANCH   6   8
ATOM      8  C   UNL A   1      35.422  23.159  25.193  1.00  0.00     0.087 C 
ATOM      9  C   UNL A   1      35.220  24.534  25.744  1.00  0.00     0.027 C 
ATOM     10  C   UNL A   1      34.242  22.303  23.915  1.00  0.00     0.316 C 
ATOM     11  C   UNL A   1      33.939  25.681  25.136  1.00  0.00     0.020 A 
ATOM     12  O   UNL A   1      32.927  23.525  23.222  1.00  0.00    -0.474 OA
ATOM     13  C   UNL A   1      33.952  26.987  25.549  1.00  0.00     0.032 A 
ATOM     14  C   UNL A   1      32.878  25.239  23.834  1.00  0.00     0.146 A 
ATOM     15  C   UNL A   1      33.137  27.856  24.800  1.00  0.00     0.043 A 
ATOM     16  C   UNL A   1      32.271  26.196  23.069  1.00  0.00     0.085 A 
ATOM     17  Cl  UNL A   1      33.103  29.518  25.299  1.00  0.00    -0.084 Cl
ATOM     18  C   UNL A   1      32.387  27.499  23.606  1.00  0.00     0.045 A 
ATOM     19  Cl  UNL A   1      31.766  25.926  21.466  1.00  0.00    -0.080 Cl
BRANCH  10  20
ATOM     20  C   UNL A   1      34.063  20.893  24.603  1.00  0.00     0.430 C 
ATOM     21  F   UNL A   1      33.275  20.026  23.945  1.00  0.00    -0.167 F 
ATOM     22  F   UNL A   1      35.295  20.302  24.628  1.00  0.00    -0.167 F 
ATOM     23  F   UNL A   1      33.681  20.945  25.898  1.00  0.00    -0.167 F 
ENDBRANCH  10  20
ENDBRANCH   6   8
ENDBRANCH   5   6
ENDBRANCH   4   5
ENDBRANCH   3   4
ENDBRANCH   2   3
ENDBRANCH   1   2
BRANCH   1  24
ATOM     24  C   UNL A   1      43.545  22.616  25.061  1.00  0.00     0.261 C 
BRANCH  24  25
ATOM     25  O   UNL A   1      42.982  23.914  25.000  1.00  0.00    -0.460 OA
BRANCH  25  26
ATOM     26  C   UNL A   1      43.845  24.915  25.282  1.00  0.00     0.338 C 
ATOM     27  O   UNL A   1      44.880  25.203  24.711  1.00  0.00    -0.246 OA
BRANCH  26  28
ATOM     28  C   UNL A   1      43.299  25.644  26.436  1.00  0.00     0.060 A 
ATOM     29  C   UNL A   1      43.769  26.937  26.688  1.00  0.00     0.016 A 
ATOM     30  C   UNL A   1      42.284  25.077  27.219  1.00  0.00     0.016 A 
ATOM     31  C   UNL A   1      43.180  27.692  27.697  1.00  0.00     0.010 A 
ATOM     32  C   UNL A   1      41.697  25.829  28.225  1.00  0.00     0.010 A 
ATOM     33  C   UNL A   1      42.147  27.136  28.465  1.00  0.00    -0.014 A 
BRANCH  33  34
ATOM     34  C   UNL A   1      41.683  27.815  29.683  1.00  0.00     0.031 A 
ATOM     35  C   UNL A   1      40.479  28.693  29.547  1.00  0.00     0.074 A 
ATOM     36  C   UNL A   1      42.346  27.702  30.845  1.00  0.00     0.049 A 
ATOM     37  N   UNL A   1      39.908  29.454  30.437  1.00  0.00    -0.248 NA
ATOM     38  C   UNL A   1      39.845  28.723  28.216  1.00  0.00     0.031 C 
ATOM     39  C   UNL A   1      43.521  26.866  31.076  1.00  0.00     0.029 A 
ATOM     40  N   UNL A   1      42.128  28.320  32.048  1.00  0.00    -0.354 N 
ATOM     41  C   UNL A   1      38.847  30.054  29.774  1.00  0.00     0.074 A 
ATOM     42  C   UNL A   1      38.880  29.605  28.403  1.00  0.00     0.031 C 
ATOM     43  C   UNL A   1      43.935  27.037  32.344  1.00  0.00     0.029 A 
ATOM     44  C   UNL A   1      43.074  28.021  32.997  1.00  0.00     0.049 A 
ATOM     45  H   UNL A   1      41.367  28.921  32.217  1.00  0.00     0.167 HD
ATOM     46  C   UNL A   1      37.925  30.907  30.271  1.00  0.00     0.031 A 
ATOM     47  C   UNL A   1      43.237  28.515  34.240  1.00  0.00     0.031 A 
ATOM     48  C   UNL A   1      37.945  31.389  31.623  1.00  0.00     0.049 A 
ATOM     49  C   UNL A   1      42.247  29.531  34.750  1.00  0.00     0.074 A 
ATOM     50  C   UNL A   1      37.058  32.248  32.242  1.00  0.00     0.029 A 
ATOM     51  N   UNL A   1      38.925  31.075  32.554  1.00  0.00    -0.354 N 
ATOM     52  N   UNL A   1      41.203  30.044  34.142  1.00  0.00    -0.248 NA
ATOM     53  C   UNL A   1      42.450  30.029  36.117  1.00  0.00     0.031 C 
ATOM     54  C   UNL A   1      37.546  32.517  33.523  1.00  0.00     0.029 A 
ATOM     55  C   UNL A   1      38.687  31.755  33.733  1.00  0.00     0.049 A 
ATOM     56  H   UNL A   1      39.676  30.458  32.398  1.00  0.00     0.167 HD
ATOM     57  C   UNL A   1      40.606  30.897  35.063  1.00  0.00     0.074 A 
ATOM     58  C   UNL A   1      41.401  30.826  36.272  1.00  0.00     0.031 C 
ATOM     59  C   UNL A   1      39.496  31.663  34.924  1.00  0.00     0.031 A 
BRANCH  46  60
ATOM     60  C   UNL A   1      36.882  31.409  29.317  1.00  0.00    -0.014 A 
ATOM     61  C   UNL A   1      36.930  32.712  28.792  1.00  0.00     0.009 A 
ATOM     62  C   UNL A   1      35.810  30.574  28.965  1.00  0.00     0.009 A 
ATOM     63  C   UNL A   1      35.898  33.185  27.981  1.00  0.00     0.001 A 
ATOM     64  C   UNL A   1      34.801  31.037  28.121  1.00  0.00     0.001 A 
ATOM     65  C   UNL A   1      34.838  32.346  27.642  1.00  0.00     0.000 A 
ENDBRANCH  46  60
BRANCH  47  66
ATOM     66  C   UNL A   1      44.387  28.074  35.073  1.00  0.00    -0.014 A 
ATOM     67  C   UNL A   1      44.277  26.968  35.929  1.00  0.00     0.009 A 
ATOM     68  C   UNL A   1      45.610  28.764  35.017  1.00  0.00     0.009 A 
ATOM     69  C   UNL A   1      45.355  26.579  36.729  1.00  0.00     0.001 A 
ATOM     70  C   UNL A   1      46.697  28.354  35.794  1.00  0.00     0.001 A 
ATOM     71  C   UNL A   1      46.565  27.269  36.656  1.00  0.00     0.000 A 
ENDBRANCH  47  66
BRANCH  59  72
ATOM     72  C   UNL A   1      39.038  32.456  36.118  1.00  0.00    -0.014 A 
ATOM     73  C   UNL A   1      38.128  31.930  37.045  1.00  0.00     0.009 A 
ATOM     74  C   UNL A   1      39.612  33.714  36.364  1.00  0.00     0.009 A 
ATOM     75  C   UNL A   1      37.788  32.658  38.187  1.00  0.00     0.001 A 
ATOM     76  C   UNL A   1      39.299  34.422  37.523  1.00  0.00     0.001 A 
ATOM     77  C   UNL A   1      38.382  33.897  38.431  1.00  0.00     0.000 A 
ENDBRANCH  59  72
ENDBRANCH  33  34
ENDBRANCH  26  28
ENDBRANCH  25  26
ENDBRANCH  24  25
ENDBRANCH   1  24
TORSDOF 15
ENDMDL
MODEL 3
REMARK VINA RESULT:     -11.2      3.531      8.644
REMARK SMILES O=C(OCCOCCOC(=O)c1ccc(-c2c3nc(c(-c4ccccc4)c4ccc([nH]4)c(-c4ccccc4)c4nc(c(-c5ccccc5)c5ccc2[nH]5)C=C4)C=C3)cc1)C1=Cc2cc(Cl)cc(Cl)c2O[C@@H]1C(F)(F)F
REMARK SMILES IDX 7 1 6 2 5 3 4 4 3 5 2 6 1 7 60 8 61 9 71 10 62 11 70 12
REMARK SMILES IDX 63 13 69 14 64 15 67 16 65 17 66 18 68 19 72 20 73 21 74 22
REMARK SMILES IDX 75 23 8 24 9 25 10 26 11 27 12 28 13 29 59 30 14 31 58 32
REMARK SMILES IDX 15 33 16 34 17 35 52 36 18 37 57 38 51 39 53 40 19 41 56 42
REMARK SMILES IDX 50 43 49 44 20 46 42 47 27 48 41 49 28 50 31 51 40 52 54 53
REMARK SMILES IDX 29 54 30 55 39 57 55 58 32 59 21 60 22 61 26 62 23 63 25 64
REMARK SMILES IDX 24 65 43 66 44 67 48 68 45 69 47 70 46 71 33 72 34 73 38 74
REMARK SMILES IDX 35 75 37 76 36 77
REMARK H PARENT 53 45 31 56
REMARK Flexibility Score: inf
ROOT
ATOM      1  C   UNL A   1      32.814  32.059  27.220  1.00  0.00     0.202 C 
ENDROOT
BRANCH   1   2
ATOM      2  O   UNL A   1      32.026  31.033  26.609  1.00  0.00    -0.374 OA
BRANCH   2   3
ATOM      3  C   UNL A   1      32.338  29.639  25.919  1.00  0.00     0.202 C 
BRANCH   3   4
ATOM      4  C   UNL A   1      31.632  27.614  26.246  1.00  0.00     0.261 C 
BRANCH   4   5
ATOM      5  O   UNL A   1      32.415  26.459  26.904  1.00  0.00    -0.460 OA
BRANCH   5   6
ATOM      6  C   UNL A   1      31.973  25.256  26.530  1.00  0.00     0.338 C 
ATOM      7  O   UNL A   1      31.438  24.394  27.178  1.00  0.00    -0.246 OA
BRANCH   6   8
ATOM      8  C   UNL A   1      32.666  25.240  25.263  1.00  0.00     0.087 C 
ATOM      9  C   UNL A   1      34.148  25.180  25.460  1.00  0.00     0.027 C 
ATOM     10  C   UNL A   1      31.607  23.832  24.454  1.00  0.00     0.316 C 
ATOM     11  C   UNL A   1      35.141  23.683  25.148  1.00  0.00     0.020 A 
ATOM     12  O   UNL A   1      32.635  22.229  24.179  1.00  0.00    -0.474 OA
ATOM     13  C   UNL A   1      36.452  23.649  25.545  1.00  0.00     0.032 A 
ATOM     14  C   UNL A   1      34.402  22.204  24.620  1.00  0.00     0.146 A 
ATOM     15  C   UNL A   1      37.039  22.369  25.550  1.00  0.00     0.043 A 
ATOM     16  C   UNL A   1      35.011  20.999  24.837  1.00  0.00     0.085 A 
ATOM     17  Cl  UNL A   1      38.706  22.277  26.026  1.00  0.00    -0.084 Cl
ATOM     18  C   UNL A   1      36.352  21.118  25.267  1.00  0.00     0.045 A 
ATOM     19  Cl  UNL A   1      34.157  19.530  24.954  1.00  0.00    -0.080 Cl
BRANCH  10  20
ATOM     20  C   UNL A   1      30.748  24.681  23.437  1.00  0.00     0.430 C 
ATOM     21  F   UNL A   1      31.442  25.278  22.454  1.00  0.00    -0.167 F 
ATOM     22  F   UNL A   1      29.910  23.811  22.799  1.00  0.00    -0.167 F 
ATOM     23  F   UNL A   1      29.929  25.587  24.015  1.00  0.00    -0.167 F 
ENDBRANCH  10  20
ENDBRANCH   6   8
ENDBRANCH   5   6
ENDBRANCH   4   5
ENDBRANCH   3   4
ENDBRANCH   2   3
ENDBRANCH   1   2
BRANCH   1  24
ATOM     24  C   UNL A   1      32.098  33.336  27.631  1.00  0.00     0.261 C 
BRANCH  24  25
ATOM     25  O   UNL A   1      32.927  34.480  27.536  1.00  0.00    -0.460 OA
BRANCH  25  26
ATOM     26  C   UNL A   1      33.166  35.101  28.711  1.00  0.00     0.338 C 
ATOM     27  O   UNL A   1      32.532  35.998  29.234  1.00  0.00    -0.246 OA
BRANCH  26  28
ATOM     28  C   UNL A   1      34.365  34.480  29.293  1.00  0.00     0.060 A 
ATOM     29  C   UNL A   1      34.225  33.741  30.472  1.00  0.00     0.016 A 
ATOM     30  C   UNL A   1      35.602  34.576  28.640  1.00  0.00     0.016 A 
ATOM     31  C   UNL A   1      35.320  33.043  30.973  1.00  0.00     0.010 A 
ATOM     32  C   UNL A   1      36.692  33.881  29.140  1.00  0.00     0.010 A 
ATOM     33  C   UNL A   1      36.551  33.117  30.308  1.00  0.00    -0.014 A 
BRANCH  33  34
ATOM     34  C   UNL A   1      37.769  32.595  30.946  1.00  0.00     0.031 A 
ATOM     35  C   UNL A   1      38.372  31.367  30.343  1.00  0.00     0.074 A 
ATOM     36  C   UNL A   1      38.277  33.160  32.053  1.00  0.00     0.049 A 
ATOM     37  N   UNL A   1      39.394  30.666  30.744  1.00  0.00    -0.248 NA
ATOM     38  C   UNL A   1      37.716  30.853  29.125  1.00  0.00     0.031 C 
ATOM     39  C   UNL A   1      37.765  34.361  32.707  1.00  0.00     0.029 A 
ATOM     40  N   UNL A   1      39.332  32.771  32.835  1.00  0.00    -0.354 N 
ATOM     41  C   UNL A   1      39.506  29.628  29.829  1.00  0.00     0.074 A 
ATOM     42  C   UNL A   1      38.425  29.765  28.882  1.00  0.00     0.031 C 
ATOM     43  C   UNL A   1      38.498  34.603  33.808  1.00  0.00     0.029 A 
ATOM     44  C   UNL A   1      39.505  33.554  33.950  1.00  0.00     0.049 A 
ATOM     45  H   UNL A   1      39.912  32.005  32.620  1.00  0.00     0.167 HD
ATOM     46  C   UNL A   1      40.433  28.647  29.787  1.00  0.00     0.031 A 
ATOM     47  C   UNL A   1      40.362  33.413  34.980  1.00  0.00     0.031 A 
ATOM     48  C   UNL A   1      41.464  28.493  30.774  1.00  0.00     0.049 A 
ATOM     49  C   UNL A   1      41.334  32.261  34.959  1.00  0.00     0.074 A 
ATOM     50  C   UNL A   1      42.465  27.543  30.829  1.00  0.00     0.029 A 
ATOM     51  N   UNL A   1      41.602  29.297  31.895  1.00  0.00    -0.354 N 
ATOM     52  N   UNL A   1      41.482  31.322  34.055  1.00  0.00    -0.248 NA
ATOM     53  C   UNL A   1      42.265  32.156  36.092  1.00  0.00     0.031 C 
ATOM     54  C   UNL A   1      43.159  27.723  32.028  1.00  0.00     0.029 A 
ATOM     55  C   UNL A   1      42.649  28.841  32.673  1.00  0.00     0.049 A 
ATOM     56  H   UNL A   1      41.039  30.077  32.106  1.00  0.00     0.167 HD
ATOM     57  C   UNL A   1      42.542  30.535  34.491  1.00  0.00     0.074 A 
ATOM     58  C   UNL A   1      43.003  31.113  35.738  1.00  0.00     0.031 C 
ATOM     59  C   UNL A   1      43.088  29.438  33.910  1.00  0.00     0.031 A 
BRANCH  46  60
ATOM     60  C   UNL A   1      40.308  27.645  28.677  1.00  0.00    -0.014 A 
ATOM     61  C   UNL A   1      39.604  26.441  28.849  1.00  0.00     0.009 A 
ATOM     62  C   UNL A   1      40.938  27.894  27.448  1.00  0.00     0.009 A 
ATOM     63  C   UNL A   1      39.581  25.484  27.833  1.00  0.00     0.001 A 
ATOM     64  C   UNL A   1      40.880  26.953  26.421  1.00  0.00     0.001 A 
ATOM     65  C   UNL A   1      40.215  25.744  26.619  1.00  0.00     0.000 A 
ENDBRANCH  46  60
BRANCH  47  66
ATOM     66  C   UNL A   1      40.323  34.368  36.118  1.00  0.00    -0.014 A 
ATOM     67  C   UNL A   1      41.067  35.558  36.090  1.00  0.00     0.009 A 
ATOM     68  C   UNL A   1      39.538  34.092  37.251  1.00  0.00     0.009 A 
ATOM     69  C   UNL A   1      41.045  36.435  37.178  1.00  0.00     0.001 A 
ATOM     70  C   UNL A   1      39.492  34.986  38.324  1.00  0.00     0.001 A 
ATOM     71  C   UNL A   1      40.254  36.151  38.290  1.00  0.00     0.000 A 
ENDBRANCH  47  66
BRANCH  59  72
ATOM     72  C   UNL A   1      44.279  28.810  34.583  1.00  0.00    -0.014 A 
ATOM     73  C   UNL A   1      44.133  27.812  35.556  1.00  0.00     0.009 A 
ATOM     74  C   UNL A   1      45.570  29.162  34.155  1.00  0.00     0.009 A 
ATOM     75  C   UNL A   1      45.259  27.190  36.100  1.00  0.00     0.001 A 
ATOM     76  C   UNL A   1      46.690  28.513  34.673  1.00  0.00     0.001 A 
ATOM     77  C   UNL A   1      46.534  27.533  35.651  1.00  0.00     0.000 A 
ENDBRANCH  59  72
ENDBRANCH  33  34
ENDBRANCH  26  28
ENDBRANCH  25  26
ENDBRANCH  24  25
ENDBRANCH   1  24
TORSDOF 15
ENDMDL
