MODEL 1
REMARK VINA RESULT:     -10.9      0.000      0.000
REMARK SMILES COc1ccc(C(=O)OCCOCCOC(=O)c2ccc(-c3c4nc(c(-c5ccccc5)c5ccc([nH]5)c(-c5ccccc5)c5nc(c(-c6ccccc6)c6ccc3[nH]6)C=C5)C=C4)cc2)cc1NC(=S)NC(=O)c1cccc(C)c1OC
REMARK SMILES IDX 10 1 9 2 7 3 8 4 6 5 3 6 4 7 67 8 5 9 66 10 2 11 1 12 68 13
REMARK SMILES IDX 69 15 70 16 71 17 72 18 73 20 74 21 75 22 80 23 76 24 78 25
REMARK SMILES IDX 77 26 79 27 81 28 82 29 11 30 12 31 13 32 14 33 15 34 16 35
REMARK SMILES IDX 17 36 18 37 19 38 65 39 20 40 64 41 21 42 22 43 23 44 58 45
REMARK SMILES IDX 24 46 63 47 57 48 59 49 25 50 62 51 56 52 55 53 26 55 48 56
REMARK SMILES IDX 33 57 47 58 34 59 37 60 46 61 60 62 35 63 36 64 45 66 61 67
REMARK SMILES IDX 38 68 27 69 28 70 32 71 29 72 31 73 30 74 49 75 50 76 54 77
REMARK SMILES IDX 51 78 53 79 52 80 39 81 40 82 44 83 41 84 43 85 42 86
REMARK H PARENT 68 14 71 19 59 54 37 65
REMARK Flexibility Score: inf
ROOT
ATOM      1  C   UNL A   1      34.805  31.207  28.424  1.00  0.00     0.261 C 
ENDROOT
BRANCH   1   2
ATOM      2  O   UNL A   1      34.168  30.938  27.133  1.00  0.00    -0.460 OA
BRANCH   2   3
ATOM      3  C   UNL A   1      33.551  29.610  26.727  1.00  0.00     0.338 C 
ATOM      4  O   UNL A   1      34.072  28.856  27.589  1.00  0.00    -0.246 OA
BRANCH   3   5
ATOM      5  C   UNL A   1      32.179  29.301  25.090  1.00  0.00     0.062 A 
ATOM      6  C   UNL A   1      29.872  28.280  23.538  1.00  0.00     0.142 A 
ATOM      7  C   UNL A   1      29.949  29.631  23.762  1.00  0.00     0.049 A 
ATOM      8  C   UNL A   1      31.005  27.539  23.742  1.00  0.00     0.084 A 
ATOM      9  C   UNL A   1      31.033  30.105  24.535  1.00  0.00     0.019 A 
ATOM     10  C   UNL A   1      32.138  28.228  24.085  1.00  0.00     0.045 A 
BRANCH   6  11
ATOM     11  O   UNL A   1      28.712  27.730  23.095  1.00  0.00    -0.495 OA
ATOM     12  C   UNL A   1      27.742  28.769  22.935  1.00  0.00     0.278 C 
ENDBRANCH   6  11
BRANCH   8  13
ATOM     13  N   UNL A   1      31.069  26.151  23.615  1.00  0.00    -0.329 N 
ATOM     14  H   UNL A   1      30.389  25.776  23.009  1.00  0.00     0.169 HD
BRANCH  13  15
ATOM     15  C   UNL A   1      31.881  25.218  24.165  1.00  0.00     0.177 C 
ATOM     16  S   UNL A   1      33.022  24.517  23.150  1.00  0.00    -0.040 S 
BRANCH  15  17
ATOM     17  N   UNL A   1      31.858  24.743  25.471  1.00  0.00    -0.299 N 
ATOM     18  C   UNL A   1      32.132  23.682  26.377  1.00  0.00     0.261 C 
ATOM     19  H   UNL A   1      31.482  25.473  26.016  1.00  0.00     0.172 HD
ATOM     20  O   UNL A   1      31.738  23.769  27.539  1.00  0.00    -0.269 OA
BRANCH  18  21
ATOM     21  C   UNL A   1      32.807  22.441  25.968  1.00  0.00     0.082 A 
ATOM     22  C   UNL A   1      31.739  21.161  25.136  1.00  0.00     0.018 A 
ATOM     23  C   UNL A   1      34.593  22.209  25.979  1.00  0.00     0.134 A 
ATOM     24  C   UNL A   1      32.496  19.644  24.452  1.00  0.00     0.001 A 
ATOM     25  C   UNL A   1      35.340  20.737  25.236  1.00  0.00    -0.008 A 
ATOM     26  C   UNL A   1      34.293  19.400  24.547  1.00  0.00     0.007 A 
ATOM     27  C   UNL A   1      36.807  20.764  24.906  1.00  0.00     0.048 C 
BRANCH  23  28
ATOM     28  O   UNL A   1      35.542  23.072  26.454  1.00  0.00    -0.496 OA
ATOM     29  C   UNL A   1      35.830  24.228  25.700  1.00  0.00     0.278 C 
ENDBRANCH  23  28
ENDBRANCH  18  21
ENDBRANCH  15  17
ENDBRANCH  13  15
ENDBRANCH   8  13
ENDBRANCH   3   5
ENDBRANCH   2   3
ENDBRANCH   1   2
BRANCH   1  30
ATOM     30  C   UNL A   1      34.899  32.731  28.685  1.00  0.00     0.202 C 
BRANCH  30  31
ATOM     31  O   UNL A   1      33.844  33.595  28.234  1.00  0.00    -0.374 OA
BRANCH  31  32
ATOM     32  C   UNL A   1      34.023  34.976  28.498  1.00  0.00     0.202 C 
BRANCH  32  33
ATOM     33  C   UNL A   1      32.986  35.706  29.371  1.00  0.00     0.261 C 
BRANCH  33  34
ATOM     34  O   UNL A   1      32.564  34.954  30.523  1.00  0.00    -0.460 OA
BRANCH  34  35
ATOM     35  C   UNL A   1      32.823  35.580  31.695  1.00  0.00     0.338 C 
ATOM     36  O   UNL A   1      32.176  36.482  32.201  1.00  0.00    -0.246 OA
BRANCH  35  37
ATOM     37  C   UNL A   1      33.934  34.934  32.418  1.00  0.00     0.060 A 
ATOM     38  C   UNL A   1      35.177  35.572  32.346  1.00  0.00     0.016 A 
ATOM     39  C   UNL A   1      33.816  33.672  33.000  1.00  0.00     0.016 A 
ATOM     40  C   UNL A   1      36.326  34.917  32.774  1.00  0.00     0.010 A 
ATOM     41  C   UNL A   1      34.974  33.015  33.435  1.00  0.00     0.010 A 
ATOM     42  C   UNL A   1      36.240  33.612  33.275  1.00  0.00    -0.014 A 
BRANCH  42  43
ATOM     43  C   UNL A   1      37.486  32.842  33.521  1.00  0.00     0.031 A 
ATOM     44  C   UNL A   1      38.246  33.037  34.806  1.00  0.00     0.074 A 
ATOM     45  C   UNL A   1      37.917  31.941  32.620  1.00  0.00     0.049 A 
ATOM     46  N   UNL A   1      39.361  32.476  35.206  1.00  0.00    -0.248 NA
ATOM     47  C   UNL A   1      37.678  33.996  35.766  1.00  0.00     0.031 C 
ATOM     48  C   UNL A   1      37.241  31.613  31.367  1.00  0.00     0.029 A 
ATOM     49  N   UNL A   1      39.026  31.134  32.630  1.00  0.00    -0.354 N 
ATOM     50  C   UNL A   1      39.639  33.030  36.450  1.00  0.00     0.074 A 
ATOM     51  C   UNL A   1      38.596  33.997  36.721  1.00  0.00     0.031 C 
ATOM     52  C   UNL A   1      37.941  30.657  30.734  1.00  0.00     0.029 A 
ATOM     53  C   UNL A   1      39.141  30.349  31.510  1.00  0.00     0.049 A 
ATOM     54  H   UNL A   1      39.677  31.118  33.369  1.00  0.00     0.167 HD
ATOM     55  C   UNL A   1      40.667  32.759  37.293  1.00  0.00     0.031 A 
ATOM     56  C   UNL A   1      40.112  29.494  31.139  1.00  0.00     0.031 A 
ATOM     57  C   UNL A   1      41.717  31.813  37.007  1.00  0.00     0.049 A 
ATOM     58  C   UNL A   1      41.300  29.290  32.041  1.00  0.00     0.074 A 
ATOM     59  C   UNL A   1      42.792  31.453  37.802  1.00  0.00     0.029 A 
ATOM     60  N   UNL A   1      41.835  31.093  35.828  1.00  0.00    -0.354 N 
ATOM     61  N   UNL A   1      41.538  29.796  33.227  1.00  0.00    -0.248 NA
ATOM     62  C   UNL A   1      42.351  28.388  31.550  1.00  0.00     0.031 C 
ATOM     63  C   UNL A   1      43.608  30.587  37.067  1.00  0.00     0.029 A 
ATOM     64  C   UNL A   1      42.991  30.328  35.854  1.00  0.00     0.049 A 
ATOM     65  H   UNL A   1      41.193  31.121  35.082  1.00  0.00     0.167 HD
ATOM     66  C   UNL A   1      42.744  29.242  33.641  1.00  0.00     0.074 A 
ATOM     67  C   UNL A   1      43.179  28.351  32.585  1.00  0.00     0.031 C 
ATOM     68  C   UNL A   1      43.424  29.448  34.797  1.00  0.00     0.031 A 
BRANCH  55  69
ATOM     69  C   UNL A   1      40.740  33.548  38.575  1.00  0.00    -0.014 A 
ATOM     70  C   UNL A   1      39.981  33.202  39.705  1.00  0.00     0.009 A 
ATOM     71  C   UNL A   1      41.590  34.663  38.654  1.00  0.00     0.009 A 
ATOM     72  C   UNL A   1      40.024  33.989  40.859  1.00  0.00     0.001 A 
ATOM     73  C   UNL A   1      41.665  35.423  39.823  1.00  0.00     0.001 A 
ATOM     74  C   UNL A   1      40.868  35.097  40.918  1.00  0.00     0.000 A 
ENDBRANCH  55  69
BRANCH  56  75
ATOM     75  C   UNL A   1      40.005  28.757  29.852  1.00  0.00    -0.014 A 
ATOM     76  C   UNL A   1      39.456  27.467  29.816  1.00  0.00     0.009 A 
ATOM     77  C   UNL A   1      40.458  29.335  28.654  1.00  0.00     0.009 A 
ATOM     78  C   UNL A   1      39.389  26.758  28.614  1.00  0.00     0.001 A 
ATOM     79  C   UNL A   1      40.355  28.639  27.448  1.00  0.00     0.001 A 
ATOM     80  C   UNL A   1      39.832  27.348  27.431  1.00  0.00     0.000 A 
ENDBRANCH  56  75
BRANCH  68  81
ATOM     81  C   UNL A   1      44.690  28.658  35.007  1.00  0.00    -0.014 A 
ATOM     82  C   UNL A   1      44.680  27.382  35.590  1.00  0.00     0.009 A 
ATOM     83  C   UNL A   1      45.916  29.195  34.580  1.00  0.00     0.009 A 
ATOM     84  C   UNL A   1      45.874  26.679  35.780  1.00  0.00     0.001 A 
ATOM     85  C   UNL A   1      47.101  28.474  34.730  1.00  0.00     0.001 A 
ATOM     86  C   UNL A   1      47.081  27.223  35.343  1.00  0.00     0.000 A 
ENDBRANCH  68  81
ENDBRANCH  42  43
ENDBRANCH  35  37
ENDBRANCH  34  35
ENDBRANCH  33  34
ENDBRANCH  32  33
ENDBRANCH  31  32
ENDBRANCH  30  31
ENDBRANCH   1  30
TORSDOF 20
ENDMDL
MODEL 2
REMARK VINA RESULT:     -10.5      0.583      5.697
REMARK SMILES COc1ccc(C(=O)OCCOCCOC(=O)c2ccc(-c3c4nc(c(-c5ccccc5)c5ccc([nH]5)c(-c5ccccc5)c5nc(c(-c6ccccc6)c6ccc3[nH]6)C=C5)C=C4)cc2)cc1NC(=S)NC(=O)c1cccc(C)c1OC
REMARK SMILES IDX 10 1 9 2 7 3 8 4 6 5 3 6 4 7 67 8 5 9 66 10 2 11 1 12 68 13
REMARK SMILES IDX 69 15 70 16 71 17 72 18 73 20 74 21 75 22 80 23 76 24 78 25
REMARK SMILES IDX 77 26 79 27 81 28 82 29 11 30 12 31 13 32 14 33 15 34 16 35
REMARK SMILES IDX 17 36 18 37 19 38 65 39 20 40 64 41 21 42 22 43 23 44 58 45
REMARK SMILES IDX 24 46 63 47 57 48 59 49 25 50 62 51 56 52 55 53 26 55 48 56
REMARK SMILES IDX 33 57 47 58 34 59 37 60 46 61 60 62 35 63 36 64 45 66 61 67
REMARK SMILES IDX 38 68 27 69 28 70 32 71 29 72 31 73 30 74 49 75 50 76 54 77
REMARK SMILES IDX 51 78 53 79 52 80 39 81 40 82 44 83 41 84 43 85 42 86
REMARK H PARENT 68 14 71 19 59 54 37 65
REMARK Flexibility Score: inf
ROOT
ATOM      1  C   UNL A   1      34.808  30.791  27.903  1.00  0.00     0.261 C 
ENDROOT
BRANCH   1   2
ATOM      2  O   UNL A   1      33.654  30.580  27.027  1.00  0.00    -0.460 OA
BRANCH   2   3
ATOM      3  C   UNL A   1      33.357  29.294  26.273  1.00  0.00     0.338 C 
ATOM      4  O   UNL A   1      34.199  28.529  26.809  1.00  0.00    -0.246 OA
BRANCH   3   5
ATOM      5  C   UNL A   1      31.860  29.046  24.738  1.00  0.00     0.062 A 
ATOM      6  C   UNL A   1      29.320  28.291  23.414  1.00  0.00     0.142 A 
ATOM      7  C   UNL A   1      29.657  29.621  23.450  1.00  0.00     0.049 A 
ATOM      8  C   UNL A   1      30.308  27.381  23.679  1.00  0.00     0.084 A 
ATOM      9  C   UNL A   1      30.851  29.975  24.117  1.00  0.00     0.019 A 
ATOM     10  C   UNL A   1      31.566  27.881  23.890  1.00  0.00     0.045 A 
BRANCH   6  11
ATOM     11  O   UNL A   1      28.056  27.919  23.087  1.00  0.00    -0.495 OA
ATOM     12  C   UNL A   1      27.238  29.090  23.007  1.00  0.00     0.278 C 
ENDBRANCH   6  11
BRANCH   8  13
ATOM     13  N   UNL A   1      30.109  26.001  23.741  1.00  0.00    -0.329 N 
ATOM     14  H   UNL A   1      29.237  25.710  23.386  1.00  0.00     0.169 HD
BRANCH  13  15
ATOM     15  C   UNL A   1      30.878  24.984  24.194  1.00  0.00     0.177 C 
ATOM     16  S   UNL A   1      31.726  24.106  23.040  1.00  0.00    -0.040 S 
BRANCH  15  17
ATOM     17  N   UNL A   1      31.022  24.557  25.509  1.00  0.00    -0.299 N 
ATOM     18  C   UNL A   1      31.625  23.654  26.428  1.00  0.00     0.261 C 
ATOM     19  H   UNL A   1      30.448  25.148  26.049  1.00  0.00     0.172 HD
ATOM     20  O   UNL A   1      31.240  23.642  27.596  1.00  0.00    -0.269 OA
BRANCH  18  21
ATOM     21  C   UNL A   1      32.644  22.673  26.026  1.00  0.00     0.082 A 
ATOM     22  C   UNL A   1      32.013  20.997  25.513  1.00  0.00     0.018 A 
ATOM     23  C   UNL A   1      34.380  23.071  25.752  1.00  0.00     0.134 A 
ATOM     24  C   UNL A   1      33.174  19.747  24.854  1.00  0.00     0.001 A 
ATOM     25  C   UNL A   1      35.506  21.849  25.032  1.00  0.00    -0.008 A 
ATOM     26  C   UNL A   1      34.933  20.149  24.661  1.00  0.00     0.007 A 
ATOM     27  C   UNL A   1      36.809  22.327  24.454  1.00  0.00     0.048 C 
BRANCH  23  28
ATOM     28  O   UNL A   1      35.005  24.266  25.974  1.00  0.00    -0.496 OA
ATOM     29  C   UNL A   1      34.637  25.370  25.177  1.00  0.00     0.278 C 
ENDBRANCH  23  28
ENDBRANCH  18  21
ENDBRANCH  15  17
ENDBRANCH  13  15
ENDBRANCH   8  13
ENDBRANCH   3   5
ENDBRANCH   2   3
ENDBRANCH   1   2
BRANCH   1  30
ATOM     30  C   UNL A   1      34.996  32.297  28.215  1.00  0.00     0.202 C 
BRANCH  30  31
ATOM     31  O   UNL A   1      33.880  33.192  28.087  1.00  0.00    -0.374 OA
BRANCH  31  32
ATOM     32  C   UNL A   1      34.176  34.570  28.240  1.00  0.00     0.202 C 
BRANCH  32  33
ATOM     33  C   UNL A   1      33.293  35.420  29.172  1.00  0.00     0.261 C 
BRANCH  33  34
ATOM     34  O   UNL A   1      32.805  34.704  30.322  1.00  0.00    -0.460 OA
BRANCH  34  35
ATOM     35  C   UNL A   1      32.977  35.378  31.483  1.00  0.00     0.338 C 
ATOM     36  O   UNL A   1      32.262  36.260  31.930  1.00  0.00    -0.246 OA
BRANCH  35  37
ATOM     37  C   UNL A   1      34.084  34.813  32.277  1.00  0.00     0.060 A 
ATOM     38  C   UNL A   1      35.308  35.487  32.205  1.00  0.00     0.016 A 
ATOM     39  C   UNL A   1      33.987  33.584  32.930  1.00  0.00     0.016 A 
ATOM     40  C   UNL A   1      36.462  34.896  32.705  1.00  0.00     0.010 A 
ATOM     41  C   UNL A   1      35.151  32.993  33.438  1.00  0.00     0.010 A 
ATOM     42  C   UNL A   1      36.402  33.621  33.281  1.00  0.00    -0.014 A 
BRANCH  42  43
ATOM     43  C   UNL A   1      37.662  32.908  33.610  1.00  0.00     0.031 A 
ATOM     44  C   UNL A   1      38.236  31.912  32.637  1.00  0.00     0.074 A 
ATOM     45  C   UNL A   1      38.317  33.177  34.754  1.00  0.00     0.049 A 
ATOM     46  N   UNL A   1      39.314  31.175  32.740  1.00  0.00    -0.248 NA
ATOM     47  C   UNL A   1      37.493  31.718  31.382  1.00  0.00     0.031 C 
ATOM     48  C   UNL A   1      37.902  34.161  35.751  1.00  0.00     0.029 A 
ATOM     49  N   UNL A   1      39.475  32.646  35.262  1.00  0.00    -0.354 N 
ATOM     50  C   UNL A   1      39.366  30.414  31.578  1.00  0.00     0.074 A 
ATOM     51  C   UNL A   1      38.191  30.754  30.802  1.00  0.00     0.031 C 
ATOM     52  C   UNL A   1      38.804  34.178  36.745  1.00  0.00     0.029 A 
ATOM     53  C   UNL A   1      39.825  33.166  36.482  1.00  0.00     0.049 A 
ATOM     54  H   UNL A   1      40.003  31.957  34.797  1.00  0.00     0.167 HD
ATOM     55  C   UNL A   1      40.304  29.515  31.189  1.00  0.00     0.031 A 
ATOM     56  C   UNL A   1      40.842  32.851  37.306  1.00  0.00     0.031 A 
ATOM     57  C   UNL A   1      41.459  29.162  31.977  1.00  0.00     0.049 A 
ATOM     58  C   UNL A   1      41.812  31.772  36.903  1.00  0.00     0.074 A 
ATOM     59  C   UNL A   1      42.477  28.278  31.664  1.00  0.00     0.029 A 
ATOM     60  N   UNL A   1      41.738  29.659  33.242  1.00  0.00    -0.354 N 
ATOM     61  N   UNL A   1      41.868  31.080  35.791  1.00  0.00    -0.248 NA
ATOM     62  C   UNL A   1      42.863  31.437  37.873  1.00  0.00     0.031 C 
ATOM     63  C   UNL A   1      43.320  28.171  32.777  1.00  0.00     0.029 A 
ATOM     64  C   UNL A   1      42.885  29.064  33.742  1.00  0.00     0.049 A 
ATOM     65  H   UNL A   1      41.199  30.335  33.714  1.00  0.00     0.167 HD
ATOM     66  C   UNL A   1      42.983  30.259  35.910  1.00  0.00     0.074 A 
ATOM     67  C   UNL A   1      43.581  30.551  37.196  1.00  0.00     0.031 C 
ATOM     68  C   UNL A   1      43.472  29.352  35.028  1.00  0.00     0.031 A 
BRANCH  55  69
ATOM     69  C   UNL A   1      40.082  28.801  29.880  1.00  0.00    -0.014 A 
ATOM     70  C   UNL A   1      39.429  27.559  29.813  1.00  0.00     0.009 A 
ATOM     71  C   UNL A   1      40.532  29.388  28.686  1.00  0.00     0.009 A 
ATOM     72  C   UNL A   1      39.292  26.894  28.591  1.00  0.00     0.001 A 
ATOM     73  C   UNL A   1      40.355  28.743  27.461  1.00  0.00     0.001 A 
ATOM     74  C   UNL A   1      39.752  27.487  27.416  1.00  0.00     0.000 A 
ENDBRANCH  55  69
BRANCH  56  75
ATOM     75  C   UNL A   1      41.004  33.568  38.599  1.00  0.00    -0.014 A 
ATOM     76  C   UNL A   1      41.779  34.735  38.671  1.00  0.00     0.009 A 
ATOM     77  C   UNL A   1      40.394  33.087  39.768  1.00  0.00     0.009 A 
ATOM     78  C   UNL A   1      41.963  35.390  39.891  1.00  0.00     0.001 A 
ATOM     79  C   UNL A   1      40.549  33.763  40.979  1.00  0.00     0.001 A 
ATOM     80  C   UNL A   1      41.342  34.907  41.042  1.00  0.00     0.000 A 
ENDBRANCH  56  75
BRANCH  68  81
ATOM     81  C   UNL A   1      44.746  28.639  35.399  1.00  0.00    -0.014 A 
ATOM     82  C   UNL A   1      46.008  29.140  35.043  1.00  0.00     0.009 A 
ATOM     83  C   UNL A   1      44.679  27.455  36.153  1.00  0.00     0.009 A 
ATOM     84  C   UNL A   1      47.171  28.450  35.395  1.00  0.00     0.001 A 
ATOM     85  C   UNL A   1      45.843  26.790  36.540  1.00  0.00     0.001 A 
ATOM     86  C   UNL A   1      47.087  27.279  36.150  1.00  0.00     0.000 A 
ENDBRANCH  68  81
ENDBRANCH  42  43
ENDBRANCH  35  37
ENDBRANCH  34  35
ENDBRANCH  33  34
ENDBRANCH  32  33
ENDBRANCH  31  32
ENDBRANCH  30  31
ENDBRANCH   1  30
TORSDOF 20
ENDMDL
MODEL 3
REMARK VINA RESULT:     -10.4      4.234      6.448
REMARK SMILES COc1ccc(C(=O)OCCOCCOC(=O)c2ccc(-c3c4nc(c(-c5ccccc5)c5ccc([nH]5)c(-c5ccccc5)c5nc(c(-c6ccccc6)c6ccc3[nH]6)C=C5)C=C4)cc2)cc1NC(=S)NC(=O)c1cccc(C)c1OC
REMARK SMILES IDX 10 1 9 2 7 3 8 4 6 5 3 6 4 7 67 8 5 9 66 10 2 11 1 12 68 13
REMARK SMILES IDX 69 15 70 16 71 17 72 18 73 20 74 21 75 22 80 23 76 24 78 25
REMARK SMILES IDX 77 26 79 27 81 28 82 29 11 30 12 31 13 32 14 33 15 34 16 35
REMARK SMILES IDX 17 36 18 37 19 38 65 39 20 40 64 41 21 42 22 43 23 44 58 45
REMARK SMILES IDX 24 46 63 47 57 48 59 49 25 50 62 51 56 52 55 53 26 55 48 56
REMARK SMILES IDX 33 57 47 58 34 59 37 60 46 61 60 62 35 63 36 64 45 66 61 67
REMARK SMILES IDX 38 68 27 69 28 70 32 71 29 72 31 73 30 74 49 75 50 76 54 77
REMARK SMILES IDX 51 78 53 79 52 80 39 81 40 82 44 83 41 84 43 85 42 86
REMARK H PARENT 68 14 71 19 59 54 37 65
REMARK Flexibility Score: inf
ROOT
ATOM      1  C   UNL A   1      33.767  31.904  27.744  1.00  0.00     0.261 C 
ENDROOT
BRANCH   1   2
ATOM      2  O   UNL A   1      34.702  30.785  27.609  1.00  0.00    -0.460 OA
BRANCH   2   3
ATOM      3  C   UNL A   1      34.413  29.495  26.860  1.00  0.00     0.338 C 
ATOM      4  O   UNL A   1      35.274  28.743  27.384  1.00  0.00    -0.246 OA
BRANCH   3   5
ATOM      5  C   UNL A   1      32.898  29.223  25.348  1.00  0.00     0.062 A 
ATOM      6  C   UNL A   1      30.521  28.155  23.939  1.00  0.00     0.142 A 
ATOM      7  C   UNL A   1      30.518  29.480  24.292  1.00  0.00     0.049 A 
ATOM      8  C   UNL A   1      31.723  27.500  23.950  1.00  0.00     0.084 A 
ATOM      9  C   UNL A   1      31.640  29.972  24.997  1.00  0.00     0.019 A 
ATOM     10  C   UNL A   1      32.831  28.251  24.246  1.00  0.00     0.045 A 
BRANCH   6  11
ATOM     11  O   UNL A   1      29.366  27.549  23.561  1.00  0.00    -0.495 OA
ATOM     12  C   UNL A   1      28.545  28.507  22.885  1.00  0.00     0.278 C 
ENDBRANCH   6  11
BRANCH   8  13
ATOM     13  N   UNL A   1      31.880  26.141  23.675  1.00  0.00    -0.329 N 
ATOM     14  H   UNL A   1      31.853  25.569  24.477  1.00  0.00     0.169 HD
BRANCH  13  15
ATOM     15  C   UNL A   1      32.064  25.455  22.524  1.00  0.00     0.177 C 
ATOM     16  S   UNL A   1      32.442  26.358  21.158  1.00  0.00    -0.040 S 
BRANCH  15  17
ATOM     17  N   UNL A   1      31.943  24.084  22.329  1.00  0.00    -0.299 N 
ATOM     18  C   UNL A   1      32.397  22.773  22.643  1.00  0.00     0.261 C 
ATOM     19  H   UNL A   1      31.210  23.967  21.682  1.00  0.00     0.172 HD
ATOM     20  O   UNL A   1      31.969  21.819  21.996  1.00  0.00    -0.269 OA
BRANCH  18  21
ATOM     21  C   UNL A   1      33.422  22.510  23.665  1.00  0.00     0.082 A 
ATOM     22  C   UNL A   1      35.186  22.827  23.161  1.00  0.00     0.018 A 
ATOM     23  C   UNL A   1      33.059  22.170  25.397  1.00  0.00     0.134 A 
ATOM     24  C   UNL A   1      36.529  22.677  24.392  1.00  0.00     0.001 A 
ATOM     25  C   UNL A   1      34.390  22.094  26.622  1.00  0.00    -0.008 A 
ATOM     26  C   UNL A   1      36.143  22.257  26.115  1.00  0.00     0.007 A 
ATOM     27  C   UNL A   1      34.033  22.212  28.079  1.00  0.00     0.048 C 
BRANCH  23  28
ATOM     28  O   UNL A   1      31.831  22.003  25.973  1.00  0.00    -0.496 OA
ATOM     29  C   UNL A   1      30.987  23.128  26.083  1.00  0.00     0.278 C 
ENDBRANCH  23  28
ENDBRANCH  18  21
ENDBRANCH  15  17
ENDBRANCH  13  15
ENDBRANCH   8  13
ENDBRANCH   3   5
ENDBRANCH   2   3
ENDBRANCH   1   2
BRANCH   1  30
ATOM     30  C   UNL A   1      33.934  32.599  29.118  1.00  0.00     0.202 C 
BRANCH  30  31
ATOM     31  O   UNL A   1      33.618  33.994  29.250  1.00  0.00    -0.374 OA
BRANCH  31  32
ATOM     32  C   UNL A   1      33.938  34.583  30.499  1.00  0.00     0.202 C 
BRANCH  32  33
ATOM     33  C   UNL A   1      35.121  34.018  31.305  1.00  0.00     0.261 C 
BRANCH  33  34
ATOM     34  O   UNL A   1      34.841  32.758  31.942  1.00  0.00    -0.460 OA
BRANCH  34  35
ATOM     35  C   UNL A   1      35.846  32.327  32.740  1.00  0.00     0.338 C 
ATOM     36  O   UNL A   1      35.945  32.492  33.944  1.00  0.00    -0.246 OA
BRANCH  35  37
ATOM     37  C   UNL A   1      36.787  31.463  32.004  1.00  0.00     0.060 A 
ATOM     38  C   UNL A   1      37.884  30.981  32.727  1.00  0.00     0.016 A 
ATOM     39  C   UNL A   1      36.702  31.265  30.625  1.00  0.00     0.016 A 
ATOM     40  C   UNL A   1      38.947  30.377  32.065  1.00  0.00     0.010 A 
ATOM     41  C   UNL A   1      37.773  30.653  29.961  1.00  0.00     0.010 A 
ATOM     42  C   UNL A   1      38.923  30.254  30.670  1.00  0.00    -0.014 A 
BRANCH  42  43
ATOM     43  C   UNL A   1      40.148  29.814  29.956  1.00  0.00     0.031 A 
ATOM     44  C   UNL A   1      41.297  30.772  29.779  1.00  0.00     0.074 A 
ATOM     45  C   UNL A   1      40.254  28.553  29.500  1.00  0.00     0.049 A 
ATOM     46  N   UNL A   1      42.445  30.590  29.173  1.00  0.00    -0.248 NA
ATOM     47  C   UNL A   1      41.128  32.114  30.357  1.00  0.00     0.031 C 
ATOM     48  C   UNL A   1      39.242  27.512  29.660  1.00  0.00     0.029 A 
ATOM     49  N   UNL A   1      41.270  27.936  28.816  1.00  0.00    -0.354 N 
ATOM     50  C   UNL A   1      43.124  31.799  29.277  1.00  0.00     0.074 A 
ATOM     51  C   UNL A   1      42.243  32.715  29.970  1.00  0.00     0.031 C 
ATOM     52  C   UNL A   1      39.696  26.376  29.105  1.00  0.00     0.029 A 
ATOM     53  C   UNL A   1      41.003  26.627  28.503  1.00  0.00     0.049 A 
ATOM     54  H   UNL A   1      42.111  28.389  28.573  1.00  0.00     0.167 HD
ATOM     55  C   UNL A   1      44.366  32.119  28.837  1.00  0.00     0.031 A 
ATOM     56  C   UNL A   1      41.720  25.736  27.794  1.00  0.00     0.031 A 
ATOM     57  C   UNL A   1      45.229  31.210  28.124  1.00  0.00     0.049 A 
ATOM     58  C   UNL A   1      43.050  26.146  27.220  1.00  0.00     0.074 A 
ATOM     59  C   UNL A   1      46.512  31.431  27.653  1.00  0.00     0.029 A 
ATOM     60  N   UNL A   1      44.890  29.914  27.763  1.00  0.00    -0.354 N 
ATOM     61  N   UNL A   1      43.694  27.281  27.349  1.00  0.00    -0.248 NA
ATOM     62  C   UNL A   1      43.753  25.144  26.408  1.00  0.00     0.031 C 
ATOM     63  C   UNL A   1      46.911  30.303  26.927  1.00  0.00     0.029 A 
ATOM     64  C   UNL A   1      45.919  29.342  27.032  1.00  0.00     0.049 A 
ATOM     65  H   UNL A   1      44.042  29.468  27.991  1.00  0.00     0.167 HD
ATOM     66  C   UNL A   1      44.895  27.115  26.669  1.00  0.00     0.074 A 
ATOM     67  C   UNL A   1      44.895  25.766  26.144  1.00  0.00     0.031 C 
ATOM     68  C   UNL A   1      45.911  28.000  26.504  1.00  0.00     0.031 A 
BRANCH  55  69
ATOM     69  C   UNL A   1      44.837  33.534  29.056  1.00  0.00    -0.014 A 
ATOM     70  C   UNL A   1      45.540  33.913  30.212  1.00  0.00     0.009 A 
ATOM     71  C   UNL A   1      44.573  34.510  28.082  1.00  0.00     0.009 A 
ATOM     72  C   UNL A   1      45.909  35.246  30.414  1.00  0.00     0.001 A 
ATOM     73  C   UNL A   1      44.982  35.832  28.265  1.00  0.00     0.001 A 
ATOM     74  C   UNL A   1      45.633  36.203  29.440  1.00  0.00     0.000 A 
ENDBRANCH  55  69
BRANCH  56  75
ATOM     75  C   UNL A   1      41.200  24.359  27.585  1.00  0.00    -0.014 A 
ATOM     76  C   UNL A   1      40.167  24.122  26.664  1.00  0.00     0.009 A 
ATOM     77  C   UNL A   1      41.723  23.275  28.308  1.00  0.00     0.009 A 
ATOM     78  C   UNL A   1      39.651  22.836  26.493  1.00  0.00     0.001 A 
ATOM     79  C   UNL A   1      41.231  21.984  28.108  1.00  0.00     0.001 A 
ATOM     80  C   UNL A   1      40.188  21.768  27.210  1.00  0.00     0.000 A 
ENDBRANCH  56  75
BRANCH  68  81
ATOM     81  C   UNL A   1      47.133  27.523  25.764  1.00  0.00    -0.014 A 
ATOM     82  C   UNL A   1      48.216  26.925  26.427  1.00  0.00     0.009 A 
ATOM     83  C   UNL A   1      47.184  27.648  24.365  1.00  0.00     0.009 A 
ATOM     84  C   UNL A   1      49.340  26.501  25.711  1.00  0.00     0.001 A 
ATOM     85  C   UNL A   1      48.288  27.186  23.648  1.00  0.00     0.001 A 
ATOM     86  C   UNL A   1      49.371  26.626  24.322  1.00  0.00     0.000 A 
ENDBRANCH  68  81
ENDBRANCH  42  43
ENDBRANCH  35  37
ENDBRANCH  34  35
ENDBRANCH  33  34
ENDBRANCH  32  33
ENDBRANCH  31  32
ENDBRANCH  30  31
ENDBRANCH   1  30
TORSDOF 20
ENDMDL
