MODEL 1
REMARK VINA RESULT:     -10.8      0.000      0.000
REMARK SMILES C[C@@]1(C(=O)c2ccccc2N)[C@H](C(=O)OCCOCCOC(=O)c2ccc(-c3c4nc(c(-c5ccccc5)c5ccc([nH]5)c(-c5ccccc5)c5nc(c(-c6ccccc6)c6ccc3[nH]6)C=C5)C=C4)cc2)[C@@H]1C(=O)N1CCOCC1
REMARK SMILES IDX 17 1 16 2 15 3 13 4 14 5 12 6 1 7 2 8 72 9 3 10 4 11 5 12
REMARK SMILES IDX 6 13 10 14 7 15 9 16 8 17 11 18 73 21 74 22 75 23 76 24
REMARK SMILES IDX 80 25 77 26 79 27 78 28 18 29 19 30 20 31 21 32 22 33 23 34
REMARK SMILES IDX 24 35 25 36 71 37 26 38 70 39 27 40 28 41 29 42 64 43 30 44
REMARK SMILES IDX 69 45 63 46 65 47 31 48 68 49 62 50 61 51 32 53 54 54 39 55
REMARK SMILES IDX 53 56 40 57 43 58 52 59 66 60 41 61 42 62 51 64 67 65 44 66
REMARK SMILES IDX 33 67 34 68 38 69 35 70 37 71 36 72 55 73 56 74 60 75 57 76
REMARK SMILES IDX 59 77 58 78 45 79 46 80 50 81 47 82 49 83 48 84
REMARK H PARENT 11 19 11 20 65 52 43 63
REMARK Flexibility Score: inf
ROOT
ATOM      1  C   UNL A   1      36.738  23.136  26.020  1.00  0.00     0.202 C 
ENDROOT
BRANCH   1   2
ATOM      2  C   UNL A   1      35.469  23.690  25.362  1.00  0.00     0.261 C 
BRANCH   2   3
ATOM      3  O   UNL A   1      34.763  22.788  24.495  1.00  0.00    -0.463 OA
BRANCH   3   4
ATOM      4  C   UNL A   1      34.309  23.364  23.350  1.00  0.00     0.310 C 
ATOM      5  O   UNL A   1      34.776  24.368  22.829  1.00  0.00    -0.252 OA
BRANCH   4   6
ATOM      6  C   UNL A   1      33.164  22.697  22.683  1.00  0.00     0.127 C 
ATOM      7  C   UNL A   1      31.777  20.691  21.960  1.00  0.00     0.022 C 
ATOM      8  C   UNL A   1      32.233  21.569  23.127  1.00  0.00     0.057 C 
ATOM      9  C   UNL A   1      31.760  23.027  23.126  1.00  0.00     0.108 C 
BRANCH   8  10
ATOM     10  C   UNL A   1      32.648  20.753  24.316  1.00  0.00     0.172 C 
ATOM     11  O   UNL A   1      32.510  21.286  25.415  1.00  0.00    -0.293 OA
BRANCH  10  12
ATOM     12  C   UNL A   1      33.321  19.421  24.248  1.00  0.00     0.041 A 
ATOM     13  C   UNL A   1      32.524  18.385  23.721  1.00  0.00     0.014 A 
ATOM     14  C   UNL A   1      34.640  19.126  24.626  1.00  0.00     0.042 A 
ATOM     15  C   UNL A   1      33.034  17.106  23.495  1.00  0.00     0.001 A 
ATOM     16  C   UNL A   1      35.151  17.843  24.345  1.00  0.00     0.026 A 
ATOM     17  C   UNL A   1      34.365  16.845  23.773  1.00  0.00     0.002 A 
BRANCH  14  18
ATOM     18  N   UNL A   1      35.470  19.967  25.370  1.00  0.00    -0.398 N 
ATOM     19  H   UNL A   1      35.080  20.678  25.929  1.00  0.00     0.156 HD
ATOM     20  H   UNL A   1      36.447  19.849  25.337  1.00  0.00     0.156 HD
ENDBRANCH  14  18
ENDBRANCH  10  12
ENDBRANCH   8  10
BRANCH   9  21
ATOM     21  C   UNL A   1      31.432  23.791  24.360  1.00  0.00     0.227 C 
ATOM     22  O   UNL A   1      30.556  23.389  25.117  1.00  0.00    -0.275 OA
ATOM     23  N   UNL A   1      32.031  25.023  24.539  1.00  0.00    -0.338 N 
ATOM     24  C   UNL A   1      31.613  26.106  23.648  1.00  0.00     0.148 C 
ATOM     25  C   UNL A   1      32.266  25.443  25.918  1.00  0.00     0.148 C 
ATOM     26  C   UNL A   1      32.469  27.363  23.815  1.00  0.00     0.181 C 
ATOM     27  C   UNL A   1      33.131  26.701  25.980  1.00  0.00     0.181 C 
ATOM     28  O   UNL A   1      32.554  27.754  25.195  1.00  0.00    -0.378 OA
ENDBRANCH   9  21
ENDBRANCH   4   6
ENDBRANCH   3   4
ENDBRANCH   2   3
ENDBRANCH   1   2
BRANCH   1  29
ATOM     29  O   UNL A   1      37.559  22.253  25.271  1.00  0.00    -0.374 OA
BRANCH  29  30
ATOM     30  C   UNL A   1      38.778  21.806  25.866  1.00  0.00     0.202 C 
BRANCH  30  31
ATOM     31  C   UNL A   1      39.281  20.398  25.524  1.00  0.00     0.261 C 
BRANCH  31  32
ATOM     32  O   UNL A   1      40.227  19.879  26.477  1.00  0.00    -0.460 OA
BRANCH  32  33
ATOM     33  C   UNL A   1      41.523  19.942  26.098  1.00  0.00     0.338 C 
ATOM     34  O   UNL A   1      42.133  19.174  25.373  1.00  0.00    -0.246 OA
BRANCH  33  35
ATOM     35  C   UNL A   1      42.123  21.188  26.596  1.00  0.00     0.060 A 
ATOM     36  C   UNL A   1      42.079  21.456  27.969  1.00  0.00     0.016 A 
ATOM     37  C   UNL A   1      42.591  22.147  25.699  1.00  0.00     0.016 A 
ATOM     38  C   UNL A   1      42.471  22.707  28.447  1.00  0.00     0.010 A 
ATOM     39  C   UNL A   1      42.996  23.394  26.180  1.00  0.00     0.010 A 
ATOM     40  C   UNL A   1      42.899  23.696  27.551  1.00  0.00    -0.014 A 
BRANCH  40  41
ATOM     41  C   UNL A   1      43.078  25.096  28.009  1.00  0.00     0.031 A 
ATOM     42  C   UNL A   1      44.459  25.571  28.371  1.00  0.00     0.074 A 
ATOM     43  C   UNL A   1      42.034  25.936  28.113  1.00  0.00     0.049 A 
ATOM     44  N   UNL A   1      44.843  26.727  28.848  1.00  0.00    -0.248 NA
ATOM     45  C   UNL A   1      45.554  24.603  28.184  1.00  0.00     0.031 C 
ATOM     46  C   UNL A   1      40.647  25.610  27.786  1.00  0.00     0.029 A 
ATOM     47  N   UNL A   1      41.983  27.239  28.539  1.00  0.00    -0.354 N 
ATOM     48  C   UNL A   1      46.214  26.618  29.042  1.00  0.00     0.074 A 
ATOM     49  C   UNL A   1      46.590  25.273  28.665  1.00  0.00     0.031 C 
ATOM     50  C   UNL A   1      39.879  26.685  28.031  1.00  0.00     0.029 A 
ATOM     51  C   UNL A   1      40.714  27.761  28.561  1.00  0.00     0.049 A 
ATOM     52  H   UNL A   1      42.781  27.751  28.805  1.00  0.00     0.167 HD
ATOM     53  C   UNL A   1      47.089  27.552  29.485  1.00  0.00     0.031 A 
ATOM     54  C   UNL A   1      40.270  28.962  28.980  1.00  0.00     0.031 A 
ATOM     55  C   UNL A   1      46.722  28.891  29.859  1.00  0.00     0.049 A 
ATOM     56  C   UNL A   1      41.251  29.978  29.502  1.00  0.00     0.074 A 
ATOM     57  C   UNL A   1      47.542  29.925  30.275  1.00  0.00     0.029 A 
ATOM     58  N   UNL A   1      45.425  29.378  29.869  1.00  0.00    -0.354 N 
ATOM     59  N   UNL A   1      42.551  29.877  29.634  1.00  0.00    -0.248 NA
ATOM     60  C   UNL A   1      40.701  31.275  29.922  1.00  0.00     0.031 C 
ATOM     61  C   UNL A   1      46.733  31.023  30.589  1.00  0.00     0.029 A 
ATOM     62  C   UNL A   1      45.416  30.688  30.315  1.00  0.00     0.049 A 
ATOM     63  H   UNL A   1      44.627  28.867  29.599  1.00  0.00     0.167 HD
ATOM     64  C   UNL A   1      42.978  31.101  30.136  1.00  0.00     0.074 A 
ATOM     65  C   UNL A   1      41.800  31.933  30.268  1.00  0.00     0.031 C 
ATOM     66  C   UNL A   1      44.234  31.500  30.454  1.00  0.00     0.031 A 
BRANCH  53  67
ATOM     67  C   UNL A   1      48.525  27.131  29.625  1.00  0.00    -0.014 A 
ATOM     68  C   UNL A   1      49.009  26.558  30.813  1.00  0.00     0.009 A 
ATOM     69  C   UNL A   1      49.410  27.318  28.553  1.00  0.00     0.009 A 
ATOM     70  C   UNL A   1      50.360  26.229  30.939  1.00  0.00     0.001 A 
ATOM     71  C   UNL A   1      50.753  26.960  28.671  1.00  0.00     0.001 A 
ATOM     72  C   UNL A   1      51.231  26.428  29.868  1.00  0.00     0.000 A 
ENDBRANCH  53  67
BRANCH  54  73
ATOM     73  C   UNL A   1      38.816  29.260  28.940  1.00  0.00    -0.014 A 
ATOM     74  C   UNL A   1      38.207  29.707  27.758  1.00  0.00     0.009 A 
ATOM     75  C   UNL A   1      38.025  29.079  30.087  1.00  0.00     0.009 A 
ATOM     76  C   UNL A   1      36.836  29.977  27.729  1.00  0.00     0.001 A 
ATOM     77  C   UNL A   1      36.652  29.325  30.046  1.00  0.00     0.001 A 
ATOM     78  C   UNL A   1      36.059  29.780  28.870  1.00  0.00     0.000 A 
ENDBRANCH  54  73
BRANCH  66  79
ATOM     79  C   UNL A   1      44.405  32.906  30.961  1.00  0.00    -0.014 A 
ATOM     80  C   UNL A   1      44.587  33.981  30.079  1.00  0.00     0.009 A 
ATOM     81  C   UNL A   1      44.334  33.161  32.340  1.00  0.00     0.009 A 
ATOM     82  C   UNL A   1      44.722  35.282  30.570  1.00  0.00     0.001 A 
ATOM     83  C   UNL A   1      44.443  34.465  32.827  1.00  0.00     0.001 A 
ATOM     84  C   UNL A   1      44.645  35.523  31.942  1.00  0.00     0.000 A 
ENDBRANCH  66  79
ENDBRANCH  40  41
ENDBRANCH  33  35
ENDBRANCH  32  33
ENDBRANCH  31  32
ENDBRANCH  30  31
ENDBRANCH  29  30
ENDBRANCH   1  29
TORSDOF 18
ENDMDL
MODEL 2
REMARK VINA RESULT:     -10.6      3.939      8.349
REMARK SMILES C[C@@]1(C(=O)c2ccccc2N)[C@H](C(=O)OCCOCCOC(=O)c2ccc(-c3c4nc(c(-c5ccccc5)c5ccc([nH]5)c(-c5ccccc5)c5nc(c(-c6ccccc6)c6ccc3[nH]6)C=C5)C=C4)cc2)[C@@H]1C(=O)N1CCOCC1
REMARK SMILES IDX 17 1 16 2 15 3 13 4 14 5 12 6 1 7 2 8 72 9 3 10 4 11 5 12
REMARK SMILES IDX 6 13 10 14 7 15 9 16 8 17 11 18 73 21 74 22 75 23 76 24
REMARK SMILES IDX 80 25 77 26 79 27 78 28 18 29 19 30 20 31 21 32 22 33 23 34
REMARK SMILES IDX 24 35 25 36 71 37 26 38 70 39 27 40 28 41 29 42 64 43 30 44
REMARK SMILES IDX 69 45 63 46 65 47 31 48 68 49 62 50 61 51 32 53 54 54 39 55
REMARK SMILES IDX 53 56 40 57 43 58 52 59 66 60 41 61 42 62 51 64 67 65 44 66
REMARK SMILES IDX 33 67 34 68 38 69 35 70 37 71 36 72 55 73 56 74 60 75 57 76
REMARK SMILES IDX 59 77 58 78 45 79 46 80 50 81 47 82 49 83 48 84
REMARK H PARENT 11 19 11 20 65 52 43 63
REMARK Flexibility Score: inf
ROOT
ATOM      1  C   UNL A   1      32.744  28.866  27.244  1.00  0.00     0.202 C 
ENDROOT
BRANCH   1   2
ATOM      2  C   UNL A   1      33.760  27.911  26.604  1.00  0.00     0.261 C 
BRANCH   2   3
ATOM      3  O   UNL A   1      33.234  26.992  25.633  1.00  0.00    -0.463 OA
BRANCH   3   4
ATOM      4  C   UNL A   1      33.432  25.684  25.947  1.00  0.00     0.310 C 
ATOM      5  O   UNL A   1      32.590  24.935  26.426  1.00  0.00    -0.252 OA
BRANCH   4   6
ATOM      6  C   UNL A   1      34.779  25.131  25.663  1.00  0.00     0.127 C 
ATOM      7  C   UNL A   1      36.788  23.634  26.102  1.00  0.00     0.022 C 
ATOM      8  C   UNL A   1      35.323  23.703  25.665  1.00  0.00     0.057 C 
ATOM      9  C   UNL A   1      35.025  24.432  24.349  1.00  0.00     0.108 C 
BRANCH   8  10
ATOM     10  C   UNL A   1      34.489  22.643  26.321  1.00  0.00     0.172 C 
ATOM     11  O   UNL A   1      34.317  22.761  27.533  1.00  0.00    -0.293 OA
BRANCH  10  12
ATOM     12  C   UNL A   1      33.978  21.414  25.644  1.00  0.00     0.041 A 
ATOM     13  C   UNL A   1      34.979  20.557  25.144  1.00  0.00     0.014 A 
ATOM     14  C   UNL A   1      32.635  21.038  25.487  1.00  0.00     0.042 A 
ATOM     15  C   UNL A   1      34.674  19.321  24.575  1.00  0.00     0.001 A 
ATOM     16  C   UNL A   1      32.349  19.764  24.955  1.00  0.00     0.026 A 
ATOM     17  C   UNL A   1      33.354  18.906  24.516  1.00  0.00     0.002 A 
BRANCH  14  18
ATOM     18  N   UNL A   1      31.536  21.870  25.710  1.00  0.00    -0.398 N 
ATOM     19  H   UNL A   1      30.742  21.523  26.178  1.00  0.00     0.156 HD
ATOM     20  H   UNL A   1      31.554  22.804  25.400  1.00  0.00     0.156 HD
ENDBRANCH  14  18
ENDBRANCH  10  12
ENDBRANCH   8  10
BRANCH   9  21
ATOM     21  C   UNL A   1      33.949  24.026  23.405  1.00  0.00     0.227 C 
ATOM     22  O   UNL A   1      34.006  22.943  22.837  1.00  0.00    -0.275 OA
ATOM     23  N   UNL A   1      32.983  24.960  23.083  1.00  0.00    -0.338 N 
ATOM     24  C   UNL A   1      33.401  26.098  22.262  1.00  0.00     0.148 C 
ATOM     25  C   UNL A   1      31.657  24.444  22.756  1.00  0.00     0.148 C 
ATOM     26  C   UNL A   1      32.301  27.153  22.124  1.00  0.00     0.181 C 
ATOM     27  C   UNL A   1      30.630  25.572  22.644  1.00  0.00     0.181 C 
ATOM     28  O   UNL A   1      31.062  26.561  21.699  1.00  0.00    -0.378 OA
ENDBRANCH   9  21
ENDBRANCH   4   6
ENDBRANCH   3   4
ENDBRANCH   2   3
ENDBRANCH   1   2
BRANCH   1  29
ATOM     29  O   UNL A   1      32.932  30.263  27.080  1.00  0.00    -0.374 OA
BRANCH  29  30
ATOM     30  C   UNL A   1      31.792  31.057  26.747  1.00  0.00     0.202 C 
BRANCH  30  31
ATOM     31  C   UNL A   1      31.869  32.572  26.973  1.00  0.00     0.261 C 
BRANCH  31  32
ATOM     32  O   UNL A   1      33.197  33.041  27.271  1.00  0.00    -0.460 OA
BRANCH  32  33
ATOM     33  C   UNL A   1      33.271  34.002  28.220  1.00  0.00     0.338 C 
ATOM     34  O   UNL A   1      32.517  34.943  28.398  1.00  0.00    -0.246 OA
BRANCH  33  35
ATOM     35  C   UNL A   1      34.371  33.695  29.147  1.00  0.00     0.060 A 
ATOM     36  C   UNL A   1      35.631  34.255  28.907  1.00  0.00     0.016 A 
ATOM     37  C   UNL A   1      34.193  32.750  30.155  1.00  0.00     0.016 A 
ATOM     38  C   UNL A   1      36.732  33.838  29.656  1.00  0.00     0.010 A 
ATOM     39  C   UNL A   1      35.293  32.343  30.914  1.00  0.00     0.010 A 
ATOM     40  C   UNL A   1      36.575  32.854  30.641  1.00  0.00    -0.014 A 
BRANCH  40  41
ATOM     41  C   UNL A   1      37.764  32.224  31.268  1.00  0.00     0.031 A 
ATOM     42  C   UNL A   1      38.492  31.141  30.518  1.00  0.00     0.074 A 
ATOM     43  C   UNL A   1      38.192  32.597  32.486  1.00  0.00     0.049 A 
ATOM     44  N   UNL A   1      39.513  30.412  30.892  1.00  0.00    -0.248 NA
ATOM     45  C   UNL A   1      37.988  30.825  29.171  1.00  0.00     0.031 C 
ATOM     46  C   UNL A   1      37.588  33.637  33.316  1.00  0.00     0.029 A 
ATOM     47  N   UNL A   1      39.235  32.124  33.243  1.00  0.00    -0.354 N 
ATOM     48  C   UNL A   1      39.757  29.539  29.839  1.00  0.00     0.074 A 
ATOM     49  C   UNL A   1      38.756  29.803  28.829  1.00  0.00     0.031 C 
ATOM     50  C   UNL A   1      38.267  33.721  34.472  1.00  0.00     0.029 A 
ATOM     51  C   UNL A   1      39.332  32.718  34.476  1.00  0.00     0.049 A 
ATOM     52  H   UNL A   1      39.854  31.425  32.931  1.00  0.00     0.167 HD
ATOM     53  C   UNL A   1      40.730  28.604  29.715  1.00  0.00     0.031 A 
ATOM     54  C   UNL A   1      40.169  32.470  35.502  1.00  0.00     0.031 A 
ATOM     55  C   UNL A   1      41.728  28.340  30.715  1.00  0.00     0.049 A 
ATOM     56  C   UNL A   1      41.224  31.406  35.361  1.00  0.00     0.074 A 
ATOM     57  C   UNL A   1      42.784  27.447  30.663  1.00  0.00     0.029 A 
ATOM     58  N   UNL A   1      41.789  28.962  31.952  1.00  0.00    -0.354 N 
ATOM     59  N   UNL A   1      41.473  30.620  34.342  1.00  0.00    -0.248 NA
ATOM     60  C   UNL A   1      42.118  31.202  36.511  1.00  0.00     0.031 C 
ATOM     61  C   UNL A   1      43.452  27.491  31.893  1.00  0.00     0.029 A 
ATOM     62  C   UNL A   1      42.845  28.451  32.687  1.00  0.00     0.049 A 
ATOM     63  H   UNL A   1      41.172  29.665  32.262  1.00  0.00     0.167 HD
ATOM     64  C   UNL A   1      42.561  29.841  34.719  1.00  0.00     0.074 A 
ATOM     65  C   UNL A   1      42.934  30.262  36.054  1.00  0.00     0.031 C 
ATOM     66  C   UNL A   1      43.196  28.869  34.019  1.00  0.00     0.031 A 
BRANCH  53  67
ATOM     67  C   UNL A   1      40.724  27.775  28.462  1.00  0.00    -0.014 A 
ATOM     68  C   UNL A   1      40.035  26.554  28.394  1.00  0.00     0.009 A 
ATOM     69  C   UNL A   1      41.429  28.221  27.334  1.00  0.00     0.009 A 
ATOM     70  C   UNL A   1      40.094  25.773  27.237  1.00  0.00     0.001 A 
ATOM     71  C   UNL A   1      41.461  27.454  26.168  1.00  0.00     0.001 A 
ATOM     72  C   UNL A   1      40.804  26.224  26.125  1.00  0.00     0.000 A 
ENDBRANCH  53  67
BRANCH  54  73
ATOM     73  C   UNL A   1      40.028  33.238  36.765  1.00  0.00    -0.014 A 
ATOM     74  C   UNL A   1      40.759  34.416  36.975  1.00  0.00     0.009 A 
ATOM     75  C   UNL A   1      39.140  32.802  37.762  1.00  0.00     0.009 A 
ATOM     76  C   UNL A   1      40.613  35.136  38.164  1.00  0.00     0.001 A 
ATOM     77  C   UNL A   1      38.977  33.537  38.937  1.00  0.00     0.001 A 
ATOM     78  C   UNL A   1      39.717  34.699  39.141  1.00  0.00     0.000 A 
ENDBRANCH  54  73
BRANCH  66  79
ATOM     79  C   UNL A   1      44.373  28.202  34.676  1.00  0.00    -0.014 A 
ATOM     80  C   UNL A   1      45.679  28.677  34.486  1.00  0.00     0.009 A 
ATOM     81  C   UNL A   1      44.164  27.111  35.536  1.00  0.00     0.009 A 
ATOM     82  C   UNL A   1      46.756  28.055  35.123  1.00  0.00     0.001 A 
ATOM     83  C   UNL A   1      45.239  26.508  36.192  1.00  0.00     0.001 A 
ATOM     84  C   UNL A   1      46.534  26.976  35.979  1.00  0.00     0.000 A 
ENDBRANCH  66  79
ENDBRANCH  40  41
ENDBRANCH  33  35
ENDBRANCH  32  33
ENDBRANCH  31  32
ENDBRANCH  30  31
ENDBRANCH  29  30
ENDBRANCH   1  29
TORSDOF 18
ENDMDL
MODEL 3
REMARK VINA RESULT:     -10.6      1.469      6.955
REMARK SMILES C[C@@]1(C(=O)c2ccccc2N)[C@H](C(=O)OCCOCCOC(=O)c2ccc(-c3c4nc(c(-c5ccccc5)c5ccc([nH]5)c(-c5ccccc5)c5nc(c(-c6ccccc6)c6ccc3[nH]6)C=C5)C=C4)cc2)[C@@H]1C(=O)N1CCOCC1
REMARK SMILES IDX 17 1 16 2 15 3 13 4 14 5 12 6 1 7 2 8 72 9 3 10 4 11 5 12
REMARK SMILES IDX 6 13 10 14 7 15 9 16 8 17 11 18 73 21 74 22 75 23 76 24
REMARK SMILES IDX 80 25 77 26 79 27 78 28 18 29 19 30 20 31 21 32 22 33 23 34
REMARK SMILES IDX 24 35 25 36 71 37 26 38 70 39 27 40 28 41 29 42 64 43 30 44
REMARK SMILES IDX 69 45 63 46 65 47 31 48 68 49 62 50 61 51 32 53 54 54 39 55
REMARK SMILES IDX 53 56 40 57 43 58 52 59 66 60 41 61 42 62 51 64 67 65 44 66
REMARK SMILES IDX 33 67 34 68 38 69 35 70 37 71 36 72 55 73 56 74 60 75 57 76
REMARK SMILES IDX 59 77 58 78 45 79 46 80 50 81 47 82 49 83 48 84
REMARK H PARENT 11 19 11 20 65 52 43 63
REMARK Flexibility Score: inf
ROOT
ATOM      1  C   UNL A   1      37.081  21.853  24.871  1.00  0.00     0.202 C 
ENDROOT
BRANCH   1   2
ATOM      2  C   UNL A   1      36.175  22.877  24.176  1.00  0.00     0.261 C 
BRANCH   2   3
ATOM      3  O   UNL A   1      35.775  24.006  24.969  1.00  0.00    -0.463 OA
BRANCH   3   4
ATOM      4  C   UNL A   1      34.728  24.701  24.451  1.00  0.00     0.310 C 
ATOM      5  O   UNL A   1      34.241  24.526  23.341  1.00  0.00    -0.252 OA
BRANCH   4   6
ATOM      6  C   UNL A   1      34.128  25.740  25.322  1.00  0.00     0.127 C 
ATOM      7  C   UNL A   1      33.113  28.020  25.815  1.00  0.00     0.022 C 
ATOM      8  C   UNL A   1      32.922  26.661  25.139  1.00  0.00     0.057 C 
ATOM      9  C   UNL A   1      32.846  25.434  26.057  1.00  0.00     0.108 C 
BRANCH   8  10
ATOM     10  C   UNL A   1      32.352  26.795  23.758  1.00  0.00     0.172 C 
ATOM     11  O   UNL A   1      33.121  26.554  22.829  1.00  0.00    -0.293 OA
BRANCH  10  12
ATOM     12  C   UNL A   1      30.988  27.314  23.441  1.00  0.00     0.041 A 
ATOM     13  C   UNL A   1      29.932  26.460  23.816  1.00  0.00     0.014 A 
ATOM     14  C   UNL A   1      30.676  28.544  22.844  1.00  0.00     0.042 A 
ATOM     15  C   UNL A   1      28.596  26.839  23.683  1.00  0.00     0.001 A 
ATOM     16  C   UNL A   1      29.322  28.930  22.763  1.00  0.00     0.026 A 
ATOM     17  C   UNL A   1      28.291  28.096  23.190  1.00  0.00     0.002 A 
BRANCH  14  18
ATOM     18  N   UNL A   1      31.591  29.387  22.210  1.00  0.00    -0.398 N 
ATOM     19  H   UNL A   1      31.285  30.015  21.517  1.00  0.00     0.156 HD
ATOM     20  H   UNL A   1      32.544  29.352  22.456  1.00  0.00     0.156 HD
ENDBRANCH  14  18
ENDBRANCH  10  12
ENDBRANCH   8  10
BRANCH   9  21
ATOM     21  C   UNL A   1      31.990  24.249  25.782  1.00  0.00     0.227 C 
ATOM     22  O   UNL A   1      30.772  24.368  25.737  1.00  0.00    -0.275 OA
ATOM     23  N   UNL A   1      32.596  23.008  25.735  1.00  0.00    -0.338 N 
ATOM     24  C   UNL A   1      33.106  22.464  26.994  1.00  0.00     0.148 C 
ATOM     25  C   UNL A   1      31.983  22.013  24.860  1.00  0.00     0.148 C 
ATOM     26  C   UNL A   1      33.914  21.181  26.791  1.00  0.00     0.181 C 
ATOM     27  C   UNL A   1      32.865  20.773  24.718  1.00  0.00     0.181 C 
ATOM     28  O   UNL A   1      33.183  20.224  26.005  1.00  0.00    -0.378 OA
ENDBRANCH   9  21
ENDBRANCH   4   6
ENDBRANCH   3   4
ENDBRANCH   2   3
ENDBRANCH   1   2
BRANCH   1  29
ATOM     29  O   UNL A   1      36.811  20.472  24.685  1.00  0.00    -0.374 OA
BRANCH  29  30
ATOM     30  C   UNL A   1      37.857  19.542  24.968  1.00  0.00     0.202 C 
BRANCH  30  31
ATOM     31  C   UNL A   1      39.237  20.093  25.349  1.00  0.00     0.261 C 
BRANCH  31  32
ATOM     32  O   UNL A   1      40.136  19.090  25.857  1.00  0.00    -0.460 OA
BRANCH  32  33
ATOM     33  C   UNL A   1      41.425  19.479  25.985  1.00  0.00     0.338 C 
ATOM     34  O   UNL A   1      42.430  18.867  25.665  1.00  0.00    -0.246 OA
BRANCH  33  35
ATOM     35  C   UNL A   1      41.475  20.864  26.477  1.00  0.00     0.060 A 
ATOM     36  C   UNL A   1      41.887  21.875  25.602  1.00  0.00     0.016 A 
ATOM     37  C   UNL A   1      41.260  21.134  27.827  1.00  0.00     0.016 A 
ATOM     38  C   UNL A   1      42.122  23.162  26.088  1.00  0.00     0.010 A 
ATOM     39  C   UNL A   1      41.482  22.426  28.309  1.00  0.00     0.010 A 
ATOM     40  C   UNL A   1      41.954  23.437  27.452  1.00  0.00    -0.014 A 
BRANCH  40  41
ATOM     41  C   UNL A   1      42.436  24.719  28.023  1.00  0.00     0.031 A 
ATOM     42  C   UNL A   1      41.440  25.816  28.285  1.00  0.00     0.074 A 
ATOM     43  C   UNL A   1      43.737  24.916  28.300  1.00  0.00     0.049 A 
ATOM     44  N   UNL A   1      41.640  27.034  28.722  1.00  0.00    -0.248 NA
ATOM     45  C   UNL A   1      40.030  25.503  27.999  1.00  0.00     0.031 C 
ATOM     46  C   UNL A   1      44.803  23.936  28.105  1.00  0.00     0.029 A 
ATOM     47  N   UNL A   1      44.380  26.022  28.795  1.00  0.00    -0.354 N 
ATOM     48  C   UNL A   1      40.388  27.636  28.740  1.00  0.00     0.074 A 
ATOM     49  C   UNL A   1      39.443  26.665  28.236  1.00  0.00     0.031 C 
ATOM     50  C   UNL A   1      45.973  24.488  28.470  1.00  0.00     0.029 A 
ATOM     51  C   UNL A   1      45.740  25.869  28.893  1.00  0.00     0.049 A 
ATOM     52  H   UNL A   1      43.911  26.849  29.054  1.00  0.00     0.167 HD
ATOM     53  C   UNL A   1      40.049  28.884  29.145  1.00  0.00     0.031 A 
ATOM     54  C   UNL A   1      46.694  26.745  29.262  1.00  0.00     0.031 A 
ATOM     55  C   UNL A   1      40.985  29.853  29.649  1.00  0.00     0.049 A 
ATOM     56  C   UNL A   1      46.304  28.138  29.679  1.00  0.00     0.074 A 
ATOM     57  C   UNL A   1      40.732  31.126  30.129  1.00  0.00     0.029 A 
ATOM     58  N   UNL A   1      42.355  29.657  29.730  1.00  0.00    -0.354 N 
ATOM     59  N   UNL A   1      45.112  28.680  29.735  1.00  0.00    -0.248 NA
ATOM     60  C   UNL A   1      47.394  29.036  30.090  1.00  0.00     0.031 C 
ATOM     61  C   UNL A   1      41.958  31.721  30.450  1.00  0.00     0.029 A 
ATOM     62  C   UNL A   1      42.966  30.797  30.221  1.00  0.00     0.049 A 
ATOM     63  H   UNL A   1      42.823  28.829  29.474  1.00  0.00     0.167 HD
ATOM     64  C   UNL A   1      45.304  29.974  30.204  1.00  0.00     0.074 A 
ATOM     65  C   UNL A   1      46.726  30.130  30.432  1.00  0.00     0.031 C 
ATOM     66  C   UNL A   1      44.384  30.944  30.430  1.00  0.00     0.031 A 
BRANCH  53  67
ATOM     67  C   UNL A   1      38.604  29.275  29.016  1.00  0.00    -0.014 A 
ATOM     68  C   UNL A   1      37.708  29.136  30.089  1.00  0.00     0.009 A 
ATOM     69  C   UNL A   1      38.130  29.782  27.797  1.00  0.00     0.009 A 
ATOM     70  C   UNL A   1      36.357  29.451  29.926  1.00  0.00     0.001 A 
ATOM     71  C   UNL A   1      36.785  30.125  27.646  1.00  0.00     0.001 A 
ATOM     72  C   UNL A   1      35.897  29.947  28.707  1.00  0.00     0.000 A 
ENDBRANCH  53  67
BRANCH  54  73
ATOM     73  C   UNL A   1      48.119  26.330  29.235  1.00  0.00    -0.014 A 
ATOM     74  C   UNL A   1      48.928  26.611  28.123  1.00  0.00     0.009 A 
ATOM     75  C   UNL A   1      48.684  25.665  30.336  1.00  0.00     0.009 A 
ATOM     76  C   UNL A   1      50.270  26.223  28.111  1.00  0.00     0.001 A 
ATOM     77  C   UNL A   1      50.032  25.302  30.330  1.00  0.00     0.001 A 
ATOM     78  C   UNL A   1      50.823  25.576  29.216  1.00  0.00     0.000 A 
ENDBRANCH  54  73
BRANCH  66  79
ATOM     79  C   UNL A   1      44.882  32.257  30.967  1.00  0.00    -0.014 A 
ATOM     80  C   UNL A   1      45.039  32.468  32.344  1.00  0.00     0.009 A 
ATOM     81  C   UNL A   1      45.244  33.280  30.075  1.00  0.00     0.009 A 
ATOM     82  C   UNL A   1      45.523  33.689  32.821  1.00  0.00     0.001 A 
ATOM     83  C   UNL A   1      45.752  34.490  30.553  1.00  0.00     0.001 A 
ATOM     84  C   UNL A   1      45.885  34.696  31.925  1.00  0.00     0.000 A 
ENDBRANCH  66  79
ENDBRANCH  40  41
ENDBRANCH  33  35
ENDBRANCH  32  33
ENDBRANCH  31  32
ENDBRANCH  30  31
ENDBRANCH  29  30
ENDBRANCH   1  29
TORSDOF 18
ENDMDL
