MODEL 1
REMARK VINA RESULT:      -9.1      0.000      0.000
REMARK SMILES CCCC[C@H](C(=O)OCCOCCOC(=O)c1ccc(-c2c3nc(c(-c4ccccc4)c4ccc([nH]4)c(-c4ccccc4)c4nc(c(-c5ccccc5)c5ccc2[nH]5)C=C4)C=C3)cc1)[C@H](O)c1ccc(C(F)(F)F)cc1
REMARK SMILES IDX 10 1 9 2 8 3 6 4 7 5 5 6 4 7 3 8 2 9 1 10 65 11 67 12 68 13
REMARK SMILES IDX 76 14 69 15 75 16 70 17 71 18 72 19 73 20 74 21 66 22 11 24
REMARK SMILES IDX 12 25 13 26 14 27 15 28 16 29 17 30 18 31 64 32 19 33 63 34
REMARK SMILES IDX 20 35 21 36 22 37 57 38 23 39 62 40 56 41 58 42 24 43 61 44
REMARK SMILES IDX 55 45 54 46 25 48 47 49 32 50 46 51 33 52 36 53 45 54 59 55
REMARK SMILES IDX 34 56 35 57 44 59 60 60 37 61 26 62 27 63 31 64 28 65 30 66
REMARK SMILES IDX 29 67 48 68 49 69 53 70 50 71 52 72 51 73 38 74 39 75 43 76
REMARK SMILES IDX 40 77 42 78 41 79
REMARK H PARENT 66 23 58 47 36 58
REMARK Flexibility Score: inf
ROOT
ATOM      1  C   UNL A   1      31.902  28.622  26.588  1.00  0.00     0.202 C 
ENDROOT
BRANCH   1   2
ATOM      2  C   UNL A   1      32.910  27.475  26.520  1.00  0.00     0.261 C 
BRANCH   2   3
ATOM      3  O   UNL A   1      32.455  26.491  25.570  1.00  0.00    -0.463 OA
BRANCH   3   4
ATOM      4  C   UNL A   1      33.346  26.120  24.630  1.00  0.00     0.312 C 
ATOM      5  O   UNL A   1      33.840  26.929  23.855  1.00  0.00    -0.252 OA
BRANCH   4   6
ATOM      6  C   UNL A   1      33.718  24.629  24.648  1.00  0.00     0.132 C 
BRANCH   6   7
ATOM      7  C   UNL A   1      35.118  24.524  25.345  1.00  0.00     0.018 C 
BRANCH   7   8
ATOM      8  C   UNL A   1      36.116  23.556  24.679  1.00  0.00     0.001 C 
BRANCH   8   9
ATOM      9  C   UNL A   1      36.724  22.456  25.550  1.00  0.00    -0.003 C 
ATOM     10  C   UNL A   1      36.789  21.093  24.867  1.00  0.00     0.004 C 
ENDBRANCH   8   9
ENDBRANCH   7   8
ENDBRANCH   6   7
BRANCH   6  11
ATOM     11  C   UNL A   1      32.675  23.695  25.352  1.00  0.00     0.158 C 
BRANCH  11  12
ATOM     12  C   UNL A   1      32.719  22.223  24.970  1.00  0.00    -0.019 A 
ATOM     13  C   UNL A   1      32.300  21.817  23.694  1.00  0.00     0.007 A 
ATOM     14  C   UNL A   1      33.159  21.230  25.857  1.00  0.00     0.007 A 
ATOM     15  C   UNL A   1      32.426  20.494  23.272  1.00  0.00     0.013 A 
ATOM     16  C   UNL A   1      33.245  19.891  25.452  1.00  0.00     0.013 A 
ATOM     17  C   UNL A   1      32.912  19.516  24.144  1.00  0.00     0.056 A 
BRANCH  17  18
ATOM     18  C   UNL A   1      33.108  18.104  23.650  1.00  0.00     0.416 C 
ATOM     19  F   UNL A   1      32.757  17.948  22.344  1.00  0.00    -0.166 F 
ATOM     20  F   UNL A   1      34.410  17.710  23.737  1.00  0.00    -0.166 F 
ATOM     21  F   UNL A   1      32.392  17.179  24.345  1.00  0.00    -0.166 F 
ENDBRANCH  17  18
ENDBRANCH  11  12
BRANCH  11  22
ATOM     22  O   UNL A   1      32.802  23.754  26.782  1.00  0.00    -0.388 OA
ATOM     23  H   UNL A   1      33.734  23.648  27.029  1.00  0.00     0.211 HD
ENDBRANCH  11  22
ENDBRANCH   6  11
ENDBRANCH   4   6
ENDBRANCH   3   4
ENDBRANCH   2   3
ENDBRANCH   1   2
BRANCH   1  24
ATOM     24  O   UNL A   1      32.231  29.704  27.459  1.00  0.00    -0.374 OA
BRANCH  24  25
ATOM     25  C   UNL A   1      32.721  30.907  26.870  1.00  0.00     0.202 C 
BRANCH  25  26
ATOM     26  C   UNL A   1      32.101  32.223  27.363  1.00  0.00     0.261 C 
BRANCH  26  27
ATOM     27  O   UNL A   1      32.981  33.348  27.169  1.00  0.00    -0.460 OA
BRANCH  27  28
ATOM     28  C   UNL A   1      33.209  34.085  28.281  1.00  0.00     0.338 C 
ATOM     29  O   UNL A   1      32.434  34.856  28.832  1.00  0.00    -0.246 OA
BRANCH  28  30
ATOM     30  C   UNL A   1      34.483  33.677  28.903  1.00  0.00     0.060 A 
ATOM     31  C   UNL A   1      35.662  33.974  28.205  1.00  0.00     0.016 A 
ATOM     32  C   UNL A   1      34.532  32.979  30.111  1.00  0.00     0.016 A 
ATOM     33  C   UNL A   1      36.890  33.525  28.682  1.00  0.00     0.010 A 
ATOM     34  C   UNL A   1      35.767  32.522  30.585  1.00  0.00     0.010 A 
ATOM     35  C   UNL A   1      36.945  32.757  29.851  1.00  0.00    -0.014 A 
BRANCH  35  36
ATOM     36  C   UNL A   1      38.208  32.064  30.205  1.00  0.00     0.031 A 
ATOM     37  C   UNL A   1      39.153  32.727  31.170  1.00  0.00     0.074 A 
ATOM     38  C   UNL A   1      38.494  30.845  29.715  1.00  0.00     0.049 A 
ATOM     39  N   UNL A   1      40.314  32.313  31.613  1.00  0.00    -0.248 NA
ATOM     40  C   UNL A   1      38.732  34.030  31.710  1.00  0.00     0.031 C 
ATOM     41  C   UNL A   1      37.639  30.070  28.818  1.00  0.00     0.029 A 
ATOM     42  N   UNL A   1      39.594  30.047  29.908  1.00  0.00    -0.354 N 
ATOM     43  C   UNL A   1      40.764  33.308  32.472  1.00  0.00     0.074 A 
ATOM     44  C   UNL A   1      39.769  34.358  32.466  1.00  0.00     0.031 C 
ATOM     45  C   UNL A   1      38.254  28.912  28.524  1.00  0.00     0.029 A 
ATOM     46  C   UNL A   1      39.554  28.876  29.192  1.00  0.00     0.049 A 
ATOM     47  H   UNL A   1      40.340  30.291  30.502  1.00  0.00     0.167 HD
ATOM     48  C   UNL A   1      41.902  33.343  33.207  1.00  0.00     0.031 A 
ATOM     49  C   UNL A   1      40.470  27.896  29.074  1.00  0.00     0.031 A 
ATOM     50  C   UNL A   1      42.898  32.306  33.207  1.00  0.00     0.049 A 
ATOM     51  C   UNL A   1      41.765  27.995  29.837  1.00  0.00     0.074 A 
ATOM     52  C   UNL A   1      44.075  32.241  33.932  1.00  0.00     0.029 A 
ATOM     53  N   UNL A   1      42.840  31.156  32.435  1.00  0.00    -0.354 N 
ATOM     54  N   UNL A   1      42.166  28.925  30.669  1.00  0.00    -0.248 NA
ATOM     55  C   UNL A   1      42.729  26.900  29.650  1.00  0.00     0.031 C 
ATOM     56  C   UNL A   1      44.759  31.082  33.553  1.00  0.00     0.029 A 
ATOM     57  C   UNL A   1      43.975  30.391  32.642  1.00  0.00     0.049 A 
ATOM     58  H   UNL A   1      42.101  30.920  31.829  1.00  0.00     0.167 HD
ATOM     59  C   UNL A   1      43.412  28.513  31.128  1.00  0.00     0.074 A 
ATOM     60  C   UNL A   1      43.694  27.244  30.491  1.00  0.00     0.031 C 
ATOM     61  C   UNL A   1      44.245  29.130  32.002  1.00  0.00     0.031 A 
BRANCH  48  62
ATOM     62  C   UNL A   1      42.146  34.569  34.043  1.00  0.00    -0.014 A 
ATOM     63  C   UNL A   1      41.762  34.625  35.393  1.00  0.00     0.009 A 
ATOM     64  C   UNL A   1      42.795  35.676  33.476  1.00  0.00     0.009 A 
ATOM     65  C   UNL A   1      41.989  35.780  36.145  1.00  0.00     0.001 A 
ATOM     66  C   UNL A   1      43.050  36.817  34.239  1.00  0.00     0.001 A 
ATOM     67  C   UNL A   1      42.637  36.872  35.569  1.00  0.00     0.000 A 
ENDBRANCH  48  62
BRANCH  49  68
ATOM     68  C   UNL A   1      40.204  26.735  28.184  1.00  0.00    -0.014 A 
ATOM     69  C   UNL A   1      40.692  26.712  26.869  1.00  0.00     0.009 A 
ATOM     70  C   UNL A   1      39.448  25.646  28.647  1.00  0.00     0.009 A 
ATOM     71  C   UNL A   1      40.408  25.632  26.029  1.00  0.00     0.001 A 
ATOM     72  C   UNL A   1      39.189  24.556  27.814  1.00  0.00     0.001 A 
ATOM     73  C   UNL A   1      39.662  24.553  26.504  1.00  0.00     0.000 A 
ENDBRANCH  49  68
BRANCH  61  74
ATOM     74  C   UNL A   1      45.524  28.422  32.358  1.00  0.00    -0.014 A 
ATOM     75  C   UNL A   1      45.581  27.494  33.410  1.00  0.00     0.009 A 
ATOM     76  C   UNL A   1      46.680  28.654  31.595  1.00  0.00     0.009 A 
ATOM     77  C   UNL A   1      46.777  26.840  33.710  1.00  0.00     0.001 A 
ATOM     78  C   UNL A   1      47.866  27.976  31.877  1.00  0.00     0.001 A 
ATOM     79  C   UNL A   1      47.916  27.077  32.941  1.00  0.00     0.000 A 
ENDBRANCH  61  74
ENDBRANCH  35  36
ENDBRANCH  28  30
ENDBRANCH  27  28
ENDBRANCH  26  27
ENDBRANCH  25  26
ENDBRANCH  24  25
ENDBRANCH   1  24
TORSDOF 21
ENDMDL
MODEL 2
REMARK VINA RESULT:      -9.1      4.623      8.257
REMARK SMILES CCCC[C@H](C(=O)OCCOCCOC(=O)c1ccc(-c2c3nc(c(-c4ccccc4)c4ccc([nH]4)c(-c4ccccc4)c4nc(c(-c5ccccc5)c5ccc2[nH]5)C=C4)C=C3)cc1)[C@H](O)c1ccc(C(F)(F)F)cc1
REMARK SMILES IDX 10 1 9 2 8 3 6 4 7 5 5 6 4 7 3 8 2 9 1 10 65 11 67 12 68 13
REMARK SMILES IDX 76 14 69 15 75 16 70 17 71 18 72 19 73 20 74 21 66 22 11 24
REMARK SMILES IDX 12 25 13 26 14 27 15 28 16 29 17 30 18 31 64 32 19 33 63 34
REMARK SMILES IDX 20 35 21 36 22 37 57 38 23 39 62 40 56 41 58 42 24 43 61 44
REMARK SMILES IDX 55 45 54 46 25 48 47 49 32 50 46 51 33 52 36 53 45 54 59 55
REMARK SMILES IDX 34 56 35 57 44 59 60 60 37 61 26 62 27 63 31 64 28 65 30 66
REMARK SMILES IDX 29 67 48 68 49 69 53 70 50 71 52 72 51 73 38 74 39 75 43 76
REMARK SMILES IDX 40 77 42 78 41 79
REMARK H PARENT 66 23 58 47 36 58
REMARK Flexibility Score: inf
ROOT
ATOM      1  C   UNL A   1      34.112  21.783  25.744  1.00  0.00     0.202 C 
ENDROOT
BRANCH   1   2
ATOM      2  C   UNL A   1      33.915  23.239  25.324  1.00  0.00     0.261 C 
BRANCH   2   3
ATOM      3  O   UNL A   1      32.506  23.522  25.214  1.00  0.00    -0.463 OA
BRANCH   3   4
ATOM      4  C   UNL A   1      32.016  24.429  26.081  1.00  0.00     0.312 C 
ATOM      5  O   UNL A   1      31.727  24.130  27.233  1.00  0.00    -0.252 OA
BRANCH   4   6
ATOM      6  C   UNL A   1      31.900  25.856  25.523  1.00  0.00     0.132 C 
BRANCH   6   7
ATOM      7  C   UNL A   1      33.266  26.566  25.818  1.00  0.00     0.018 C 
BRANCH   7   8
ATOM      8  C   UNL A   1      33.161  27.932  26.525  1.00  0.00     0.001 C 
BRANCH   8   9
ATOM      9  C   UNL A   1      31.767  28.538  26.691  1.00  0.00    -0.003 C 
ATOM     10  C   UNL A   1      31.678  30.003  26.273  1.00  0.00     0.004 C 
ENDBRANCH   8   9
ENDBRANCH   7   8
ENDBRANCH   6   7
BRANCH   6  11
ATOM     11  C   UNL A   1      31.546  25.944  24.000  1.00  0.00     0.158 C 
BRANCH  11  12
ATOM     12  C   UNL A   1      30.745  27.162  23.559  1.00  0.00    -0.019 A 
ATOM     13  C   UNL A   1      31.395  28.242  22.945  1.00  0.00     0.007 A 
ATOM     14  C   UNL A   1      29.360  27.259  23.752  1.00  0.00     0.007 A 
ATOM     15  C   UNL A   1      30.682  29.325  22.432  1.00  0.00     0.013 A 
ATOM     16  C   UNL A   1      28.645  28.366  23.278  1.00  0.00     0.013 A 
ATOM     17  C   UNL A   1      29.295  29.395  22.582  1.00  0.00     0.056 A 
BRANCH  17  18
ATOM     18  C   UNL A   1      28.531  30.537  21.961  1.00  0.00     0.416 C 
ATOM     19  F   UNL A   1      27.214  30.540  22.305  1.00  0.00    -0.166 F 
ATOM     20  F   UNL A   1      29.021  31.749  22.347  1.00  0.00    -0.166 F 
ATOM     21  F   UNL A   1      28.564  30.539  20.600  1.00  0.00    -0.166 F 
ENDBRANCH  17  18
ENDBRANCH  11  12
BRANCH  11  22
ATOM     22  O   UNL A   1      32.729  25.912  23.184  1.00  0.00    -0.388 OA
ATOM     23  H   UNL A   1      33.477  26.275  23.684  1.00  0.00     0.211 HD
ENDBRANCH  11  22
ENDBRANCH   6  11
ENDBRANCH   4   6
ENDBRANCH   3   4
ENDBRANCH   2   3
ENDBRANCH   1   2
BRANCH   1  24
ATOM     24  O   UNL A   1      34.563  20.886  24.730  1.00  0.00    -0.374 OA
BRANCH  24  25
ATOM     25  C   UNL A   1      35.742  20.125  24.990  1.00  0.00     0.202 C 
BRANCH  25  26
ATOM     26  C   UNL A   1      37.087  20.810  24.707  1.00  0.00     0.261 C 
BRANCH  26  27
ATOM     27  O   UNL A   1      37.584  21.533  25.850  1.00  0.00    -0.460 OA
BRANCH  27  28
ATOM     28  C   UNL A   1      38.906  21.369  26.091  1.00  0.00     0.338 C 
ATOM     29  O   UNL A   1      39.610  20.428  25.749  1.00  0.00    -0.246 OA
BRANCH  28  30
ATOM     30  C   UNL A   1      39.472  22.608  26.656  1.00  0.00     0.060 A 
ATOM     31  C   UNL A   1      38.953  23.823  26.187  1.00  0.00     0.016 A 
ATOM     32  C   UNL A   1      40.516  22.595  27.583  1.00  0.00     0.016 A 
ATOM     33  C   UNL A   1      39.513  25.029  26.599  1.00  0.00     0.010 A 
ATOM     34  C   UNL A   1      41.083  23.808  27.989  1.00  0.00     0.010 A 
ATOM     35  C   UNL A   1      40.611  25.027  27.467  1.00  0.00    -0.014 A 
BRANCH  35  36
ATOM     36  C   UNL A   1      41.362  26.287  27.689  1.00  0.00     0.031 A 
ATOM     37  C   UNL A   1      40.755  27.350  28.564  1.00  0.00     0.074 A 
ATOM     38  C   UNL A   1      42.586  26.469  27.161  1.00  0.00     0.049 A 
ATOM     39  N   UNL A   1      41.225  28.528  28.887  1.00  0.00    -0.248 NA
ATOM     40  C   UNL A   1      39.443  27.041  29.156  1.00  0.00     0.031 C 
ATOM     41  C   UNL A   1      43.310  25.498  26.344  1.00  0.00     0.029 A 
ATOM     42  N   UNL A   1      43.433  27.546  27.237  1.00  0.00    -0.354 N 
ATOM     43  C   UNL A   1      40.263  29.104  29.707  1.00  0.00     0.074 A 
ATOM     44  C   UNL A   1      39.171  28.161  29.809  1.00  0.00     0.031 C 
ATOM     45  C   UNL A   1      44.490  26.029  25.980  1.00  0.00     0.029 A 
ATOM     46  C   UNL A   1      44.590  27.385  26.517  1.00  0.00     0.049 A 
ATOM     47  H   UNL A   1      43.230  28.356  27.758  1.00  0.00     0.167 HD
ATOM     48  C   UNL A   1      40.288  30.308  30.328  1.00  0.00     0.031 A 
ATOM     49  C   UNL A   1      45.608  28.241  26.300  1.00  0.00     0.031 A 
ATOM     50  C   UNL A   1      41.366  31.252  30.220  1.00  0.00     0.049 A 
ATOM     51  C   UNL A   1      45.576  29.607  26.933  1.00  0.00     0.074 A 
ATOM     52  C   UNL A   1      41.493  32.490  30.826  1.00  0.00     0.029 A 
ATOM     53  N   UNL A   1      42.502  31.069  29.445  1.00  0.00    -0.354 N 
ATOM     54  N   UNL A   1      44.676  30.128  27.732  1.00  0.00    -0.248 NA
ATOM     55  C   UNL A   1      46.708  30.499  26.641  1.00  0.00     0.031 C 
ATOM     56  C   UNL A   1      42.674  33.083  30.370  1.00  0.00     0.029 A 
ATOM     57  C   UNL A   1      43.317  32.184  29.533  1.00  0.00     0.049 A 
ATOM     58  H   UNL A   1      42.697  30.265  28.912  1.00  0.00     0.167 HD
ATOM     59  C   UNL A   1      45.148  31.394  28.062  1.00  0.00     0.074 A 
ATOM     60  C   UNL A   1      46.419  31.555  27.388  1.00  0.00     0.031 C 
ATOM     61  C   UNL A   1      44.580  32.334  28.857  1.00  0.00     0.031 A 
BRANCH  48  62
ATOM     62  C   UNL A   1      39.085  30.687  31.148  1.00  0.00    -0.014 A 
ATOM     63  C   UNL A   1      37.981  31.337  30.574  1.00  0.00     0.009 A 
ATOM     64  C   UNL A   1      39.048  30.364  32.513  1.00  0.00     0.009 A 
ATOM     65  C   UNL A   1      36.881  31.689  31.359  1.00  0.00     0.001 A 
ATOM     66  C   UNL A   1      37.935  30.689  33.289  1.00  0.00     0.001 A 
ATOM     67  C   UNL A   1      36.857  31.360  32.715  1.00  0.00     0.000 A 
ENDBRANCH  48  62
BRANCH  49  68
ATOM     68  C   UNL A   1      46.743  27.838  25.429  1.00  0.00    -0.014 A 
ATOM     69  C   UNL A   1      46.693  28.046  24.042  1.00  0.00     0.009 A 
ATOM     70  C   UNL A   1      47.881  27.231  25.983  1.00  0.00     0.009 A 
ATOM     71  C   UNL A   1      47.750  27.634  23.227  1.00  0.00     0.001 A 
ATOM     72  C   UNL A   1      48.948  26.845  25.169  1.00  0.00     0.001 A 
ATOM     73  C   UNL A   1      48.879  27.038  23.792  1.00  0.00     0.000 A 
ENDBRANCH  49  68
BRANCH  61  74
ATOM     74  C   UNL A   1      45.348  33.609  29.079  1.00  0.00    -0.014 A 
ATOM     75  C   UNL A   1      46.297  33.725  30.106  1.00  0.00     0.009 A 
ATOM     76  C   UNL A   1      45.149  34.697  28.213  1.00  0.00     0.009 A 
ATOM     77  C   UNL A   1      47.006  34.914  30.281  1.00  0.00     0.001 A 
ATOM     78  C   UNL A   1      45.882  35.874  28.370  1.00  0.00     0.001 A 
ATOM     79  C   UNL A   1      46.803  35.985  29.411  1.00  0.00     0.000 A 
ENDBRANCH  61  74
ENDBRANCH  35  36
ENDBRANCH  28  30
ENDBRANCH  27  28
ENDBRANCH  26  27
ENDBRANCH  25  26
ENDBRANCH  24  25
ENDBRANCH   1  24
TORSDOF 21
ENDMDL
MODEL 3
REMARK VINA RESULT:      -9.0      4.382      8.927
REMARK SMILES CCCC[C@H](C(=O)OCCOCCOC(=O)c1ccc(-c2c3nc(c(-c4ccccc4)c4ccc([nH]4)c(-c4ccccc4)c4nc(c(-c5ccccc5)c5ccc2[nH]5)C=C4)C=C3)cc1)[C@H](O)c1ccc(C(F)(F)F)cc1
REMARK SMILES IDX 10 1 9 2 8 3 6 4 7 5 5 6 4 7 3 8 2 9 1 10 65 11 67 12 68 13
REMARK SMILES IDX 76 14 69 15 75 16 70 17 71 18 72 19 73 20 74 21 66 22 11 24
REMARK SMILES IDX 12 25 13 26 14 27 15 28 16 29 17 30 18 31 64 32 19 33 63 34
REMARK SMILES IDX 20 35 21 36 22 37 57 38 23 39 62 40 56 41 58 42 24 43 61 44
REMARK SMILES IDX 55 45 54 46 25 48 47 49 32 50 46 51 33 52 36 53 45 54 59 55
REMARK SMILES IDX 34 56 35 57 44 59 60 60 37 61 26 62 27 63 31 64 28 65 30 66
REMARK SMILES IDX 29 67 48 68 49 69 53 70 50 71 52 72 51 73 38 74 39 75 43 76
REMARK SMILES IDX 40 77 42 78 41 79
REMARK H PARENT 66 23 58 47 36 58
REMARK Flexibility Score: inf
ROOT
ATOM      1  C   UNL A   1      35.108  21.705  24.937  1.00  0.00     0.202 C 
ENDROOT
BRANCH   1   2
ATOM      2  C   UNL A   1      34.451  23.055  25.216  1.00  0.00     0.261 C 
BRANCH   2   3
ATOM      3  O   UNL A   1      34.855  24.004  24.209  1.00  0.00    -0.463 OA
BRANCH   3   4
ATOM      4  C   UNL A   1      33.862  24.702  23.622  1.00  0.00     0.312 C 
ATOM      5  O   UNL A   1      33.959  25.118  22.475  1.00  0.00    -0.252 OA
BRANCH   4   6
ATOM      6  C   UNL A   1      32.604  24.881  24.485  1.00  0.00     0.132 C 
BRANCH   6   7
ATOM      7  C   UNL A   1      32.697  26.309  25.125  1.00  0.00     0.018 C 
BRANCH   7   8
ATOM      8  C   UNL A   1      32.042  26.454  26.513  1.00  0.00     0.001 C 
BRANCH   8   9
ATOM      9  C   UNL A   1      31.578  27.849  26.934  1.00  0.00    -0.003 C 
ATOM     10  C   UNL A   1      31.463  28.837  25.778  1.00  0.00     0.004 C 
ENDBRANCH   8   9
ENDBRANCH   7   8
ENDBRANCH   6   7
BRANCH   6  11
ATOM     11  C   UNL A   1      31.247  24.702  23.722  1.00  0.00     0.158 C 
BRANCH  11  12
ATOM     12  C   UNL A   1      30.490  25.976  23.377  1.00  0.00    -0.019 A 
ATOM     13  C   UNL A   1      29.208  26.194  23.904  1.00  0.00     0.007 A 
ATOM     14  C   UNL A   1      31.022  26.960  22.531  1.00  0.00     0.007 A 
ATOM     15  C   UNL A   1      28.530  27.395  23.697  1.00  0.00     0.013 A 
ATOM     16  C   UNL A   1      30.325  28.150  22.284  1.00  0.00     0.013 A 
ATOM     17  C   UNL A   1      29.086  28.393  22.893  1.00  0.00     0.056 A 
BRANCH  17  18
ATOM     18  C   UNL A   1      28.372  29.713  22.738  1.00  0.00     0.416 C 
ATOM     19  F   UNL A   1      29.155  30.778  23.064  1.00  0.00    -0.166 F 
ATOM     20  F   UNL A   1      27.968  29.926  21.454  1.00  0.00    -0.166 F 
ATOM     21  F   UNL A   1      27.252  29.821  23.504  1.00  0.00    -0.166 F 
ENDBRANCH  17  18
ENDBRANCH  11  12
BRANCH  11  22
ATOM     22  O   UNL A   1      31.430  23.985  22.490  1.00  0.00    -0.388 OA
ATOM     23  H   UNL A   1      30.631  23.470  22.294  1.00  0.00     0.211 HD
ENDBRANCH  11  22
ENDBRANCH   6  11
ENDBRANCH   4   6
ENDBRANCH   3   4
ENDBRANCH   2   3
ENDBRANCH   1   2
BRANCH   1  24
ATOM     24  O   UNL A   1      36.472  21.568  25.335  1.00  0.00    -0.374 OA
BRANCH  24  25
ATOM     25  C   UNL A   1      37.361  20.896  24.445  1.00  0.00     0.202 C 
BRANCH  25  26
ATOM     26  C   UNL A   1      38.291  19.839  25.059  1.00  0.00     0.261 C 
BRANCH  26  27
ATOM     27  O   UNL A   1      39.026  20.348  26.188  1.00  0.00    -0.460 OA
BRANCH  27  28
ATOM     28  C   UNL A   1      40.339  20.016  26.203  1.00  0.00     0.338 C 
ATOM     29  O   UNL A   1      40.851  18.998  25.759  1.00  0.00    -0.246 OA
BRANCH  28  30
ATOM     30  C   UNL A   1      41.144  21.169  26.649  1.00  0.00     0.060 A 
ATOM     31  C   UNL A   1      41.116  21.481  28.016  1.00  0.00     0.016 A 
ATOM     32  C   UNL A   1      41.870  21.960  25.757  1.00  0.00     0.016 A 
ATOM     33  C   UNL A   1      41.767  22.618  28.488  1.00  0.00     0.010 A 
ATOM     34  C   UNL A   1      42.517  23.106  26.233  1.00  0.00     0.010 A 
ATOM     35  C   UNL A   1      42.433  23.462  27.592  1.00  0.00    -0.014 A 
BRANCH  35  36
ATOM     36  C   UNL A   1      42.892  24.795  28.055  1.00  0.00     0.031 A 
ATOM     37  C   UNL A   1      41.865  25.859  28.331  1.00  0.00     0.074 A 
ATOM     38  C   UNL A   1      44.195  25.045  28.272  1.00  0.00     0.049 A 
ATOM     39  N   UNL A   1      42.037  27.094  28.732  1.00  0.00    -0.248 NA
ATOM     40  C   UNL A   1      40.457  25.480  28.132  1.00  0.00     0.031 C 
ATOM     41  C   UNL A   1      45.284  24.086  28.098  1.00  0.00     0.029 A 
ATOM     42  N   UNL A   1      44.820  26.194  28.687  1.00  0.00    -0.354 N 
ATOM     43  C   UNL A   1      40.762  27.640  28.821  1.00  0.00     0.074 A 
ATOM     44  C   UNL A   1      39.830  26.615  28.404  1.00  0.00     0.031 C 
ATOM     45  C   UNL A   1      46.448  24.691  28.389  1.00  0.00     0.029 A 
ATOM     46  C   UNL A   1      46.187  26.085  28.745  1.00  0.00     0.049 A 
ATOM     47  H   UNL A   1      44.335  27.019  28.920  1.00  0.00     0.167 HD
ATOM     48  C   UNL A   1      40.396  28.882  29.219  1.00  0.00     0.031 A 
ATOM     49  C   UNL A   1      47.124  27.009  29.034  1.00  0.00     0.031 A 
ATOM     50  C   UNL A   1      41.321  29.907  29.624  1.00  0.00     0.049 A 
ATOM     51  C   UNL A   1      46.699  28.408  29.395  1.00  0.00     0.074 A 
ATOM     52  C   UNL A   1      41.047  31.191  30.063  1.00  0.00     0.029 A 
ATOM     53  N   UNL A   1      42.700  29.769  29.627  1.00  0.00    -0.354 N 
ATOM     54  N   UNL A   1      45.491  28.903  29.505  1.00  0.00    -0.248 NA
ATOM     55  C   UNL A   1      47.772  29.372  29.682  1.00  0.00     0.031 C 
ATOM     56  C   UNL A   1      42.262  31.850  30.273  1.00  0.00     0.029 A 
ATOM     57  C   UNL A   1      43.291  30.954  30.030  1.00  0.00     0.049 A 
ATOM     58  H   UNL A   1      43.186  28.950  29.379  1.00  0.00     0.167 HD
ATOM     59  C   UNL A   1      45.656  30.225  29.904  1.00  0.00     0.074 A 
ATOM     60  C   UNL A   1      47.081  30.449  30.029  1.00  0.00     0.031 C 
ATOM     61  C   UNL A   1      44.711  31.166  30.149  1.00  0.00     0.031 A 
BRANCH  48  62
ATOM     62  C   UNL A   1      38.929  29.211  29.196  1.00  0.00    -0.014 A 
ATOM     63  C   UNL A   1      38.108  28.979  30.312  1.00  0.00     0.009 A 
ATOM     64  C   UNL A   1      38.366  29.787  28.048  1.00  0.00     0.009 A 
ATOM     65  C   UNL A   1      36.746  29.283  30.262  1.00  0.00     0.001 A 
ATOM     66  C   UNL A   1      37.011  30.118  28.011  1.00  0.00     0.001 A 
ATOM     67  C   UNL A   1      36.200  29.857  29.113  1.00  0.00     0.000 A 
ENDBRANCH  48  62
BRANCH  49  68
ATOM     68  C   UNL A   1      48.565  26.646  28.981  1.00  0.00    -0.014 A 
ATOM     69  C   UNL A   1      49.267  26.673  27.767  1.00  0.00     0.009 A 
ATOM     70  C   UNL A   1      49.242  26.260  30.149  1.00  0.00     0.009 A 
ATOM     71  C   UNL A   1      50.613  26.297  27.721  1.00  0.00     0.001 A 
ATOM     72  C   UNL A   1      50.594  25.913  30.104  1.00  0.00     0.001 A 
ATOM     73  C   UNL A   1      51.276  25.923  28.890  1.00  0.00     0.000 A 
ENDBRANCH  49  68
BRANCH  61  74
ATOM     74  C   UNL A   1      45.182  32.515  30.619  1.00  0.00    -0.014 A 
ATOM     75  C   UNL A   1      45.450  32.768  31.974  1.00  0.00     0.009 A 
ATOM     76  C   UNL A   1      45.406  33.536  29.682  1.00  0.00     0.009 A 
ATOM     77  C   UNL A   1      45.900  34.024  32.382  1.00  0.00     0.001 A 
ATOM     78  C   UNL A   1      45.886  34.782  30.088  1.00  0.00     0.001 A 
ATOM     79  C   UNL A   1      46.123  35.028  31.439  1.00  0.00     0.000 A 
ENDBRANCH  61  74
ENDBRANCH  35  36
ENDBRANCH  28  30
ENDBRANCH  27  28
ENDBRANCH  26  27
ENDBRANCH  25  26
ENDBRANCH  24  25
ENDBRANCH   1  24
TORSDOF 21
ENDMDL
