MODEL 1
REMARK VINA RESULT:     -10.2      0.000      0.000
REMARK SMILES CC[C@@H](C)NC(=O)Cn1cccc1C(=O)OCCOCCOC(=O)c1ccc(-c2c3nc(c(-c4ccccc4)c4ccc([nH]4)c(-c4ccccc4)c4nc(c(-c5ccccc5)c5ccc2[nH]5)C=C4)C=C3)cc1
REMARK SMILES IDX 18 1 17 2 16 3 14 4 15 5 13 6 9 7 10 8 11 9 12 10 8 11 6 12
REMARK SMILES IDX 5 13 7 15 3 16 4 17 2 18 1 19 19 20 20 21 21 22 22 23 23 24
REMARK SMILES IDX 24 25 25 26 26 27 72 28 27 29 71 30 28 31 29 32 30 33 65 34
REMARK SMILES IDX 31 35 70 36 64 37 66 38 32 39 69 40 63 41 62 42 33 44 55 45
REMARK SMILES IDX 40 46 54 47 41 48 44 49 53 50 67 51 42 52 43 53 52 55 68 56
REMARK SMILES IDX 45 57 34 58 35 59 39 60 36 61 38 62 37 63 56 64 57 65 61 66
REMARK SMILES IDX 58 67 60 68 59 69 46 70 47 71 51 72 48 73 50 74 49 75
REMARK H PARENT 5 14 66 43 44 54
REMARK Flexibility Score: inf
ROOT
ATOM      1  C   UNL A   1      37.658  23.496  25.767  1.00  0.00     0.202 C 
ENDROOT
BRANCH   1   2
ATOM      2  C   UNL A   1      36.151  23.733  25.721  1.00  0.00     0.261 C 
BRANCH   2   3
ATOM      3  O   UNL A   1      35.731  24.299  24.471  1.00  0.00    -0.459 OA
BRANCH   3   4
ATOM      4  C   UNL A   1      35.469  23.375  23.504  1.00  0.00     0.355 C 
ATOM      5  O   UNL A   1      36.311  22.872  22.780  1.00  0.00    -0.244 OA
BRANCH   4   6
ATOM      6  C   UNL A   1      34.075  22.968  23.540  1.00  0.00     0.128 A 
ATOM      7  N   UNL A   1      33.442  22.070  24.379  1.00  0.00    -0.333 N 
ATOM      8  C   UNL A   1      32.100  22.024  24.069  1.00  0.00     0.087 A 
ATOM      9  C   UNL A   1      31.852  22.923  23.061  1.00  0.00     0.020 A 
ATOM     10  C   UNL A   1      33.086  23.518  22.733  1.00  0.00     0.035 A 
BRANCH   7  11
ATOM     11  C   UNL A   1      34.018  21.330  25.496  1.00  0.00     0.222 C 
BRANCH  11  12
ATOM     12  C   UNL A   1      34.874  20.156  25.058  1.00  0.00     0.240 C 
ATOM     13  N   UNL A   1      34.318  18.920  24.875  1.00  0.00    -0.352 N 
ATOM     14  H   UNL A   1      34.955  18.192  24.684  1.00  0.00     0.163 HD
ATOM     15  O   UNL A   1      36.095  20.277  24.915  1.00  0.00    -0.273 OA
BRANCH  13  16
ATOM     16  C   UNL A   1      32.912  18.526  24.926  1.00  0.00     0.078 C 
ATOM     17  C   UNL A   1      32.765  17.178  25.617  1.00  0.00     0.031 C 
BRANCH  16  18
ATOM     18  C   UNL A   1      32.311  18.561  23.512  1.00  0.00     0.021 C 
ATOM     19  C   UNL A   1      32.860  17.491  22.578  1.00  0.00     0.006 C 
ENDBRANCH  16  18
ENDBRANCH  13  16
ENDBRANCH  11  12
ENDBRANCH   7  11
ENDBRANCH   4   6
ENDBRANCH   3   4
ENDBRANCH   2   3
ENDBRANCH   1   2
BRANCH   1  20
ATOM     20  O   UNL A   1      38.176  22.236  25.347  1.00  0.00    -0.374 OA
BRANCH  20  21
ATOM     21  C   UNL A   1      39.261  21.613  26.023  1.00  0.00     0.202 C 
BRANCH  21  22
ATOM     22  C   UNL A   1      39.659  20.179  25.696  1.00  0.00     0.261 C 
BRANCH  22  23
ATOM     23  O   UNL A   1      40.466  19.552  26.679  1.00  0.00    -0.460 OA
BRANCH  23  24
ATOM     24  C   UNL A   1      41.701  19.311  26.189  1.00  0.00     0.338 C 
ATOM     25  O   UNL A   1      42.122  18.276  25.696  1.00  0.00    -0.246 OA
BRANCH  24  26
ATOM     26  C   UNL A   1      42.597  20.402  26.534  1.00  0.00     0.060 A 
ATOM     27  C   UNL A   1      42.524  20.828  27.862  1.00  0.00     0.016 A 
ATOM     28  C   UNL A   1      43.028  21.223  25.486  1.00  0.00     0.016 A 
ATOM     29  C   UNL A   1      42.687  22.166  28.114  1.00  0.00     0.010 A 
ATOM     30  C   UNL A   1      43.142  22.569  25.728  1.00  0.00     0.010 A 
ATOM     31  C   UNL A   1      42.934  23.025  27.034  1.00  0.00    -0.014 A 
BRANCH  31  32
ATOM     32  C   UNL A   1      43.241  24.414  27.356  1.00  0.00     0.031 A 
ATOM     33  C   UNL A   1      41.903  25.163  27.545  1.00  0.00     0.074 A 
ATOM     34  C   UNL A   1      44.572  24.744  27.324  1.00  0.00     0.049 A 
ATOM     35  N   UNL A   1      41.635  26.414  27.383  1.00  0.00    -0.248 NA
ATOM     36  C   UNL A   1      40.656  24.406  27.896  1.00  0.00     0.031 C 
ATOM     37  C   UNL A   1      45.701  23.789  27.152  1.00  0.00     0.029 A 
ATOM     38  N   UNL A   1      45.259  25.931  27.417  1.00  0.00    -0.354 N 
ATOM     39  C   UNL A   1      40.294  26.627  27.770  1.00  0.00     0.074 A 
ATOM     40  C   UNL A   1      39.713  25.343  27.986  1.00  0.00     0.031 C 
ATOM     41  C   UNL A   1      46.887  24.440  27.054  1.00  0.00     0.029 A 
ATOM     42  C   UNL A   1      46.659  25.868  27.159  1.00  0.00     0.049 A 
ATOM     43  H   UNL A   1      44.810  26.776  27.650  1.00  0.00     0.167 HD
ATOM     44  C   UNL A   1      39.793  27.868  28.017  1.00  0.00     0.031 A 
ATOM     45  C   UNL A   1      47.539  26.909  26.987  1.00  0.00     0.031 A 
ATOM     46  C   UNL A   1      40.748  28.853  27.643  1.00  0.00     0.049 A 
ATOM     47  C   UNL A   1      46.737  28.106  27.271  1.00  0.00     0.074 A 
ATOM     48  C   UNL A   1      41.206  29.244  26.411  1.00  0.00     0.029 A 
ATOM     49  N   UNL A   1      41.672  29.187  28.604  1.00  0.00    -0.354 N 
ATOM     50  N   UNL A   1      46.341  28.475  28.450  1.00  0.00    -0.248 NA
ATOM     51  C   UNL A   1      46.243  28.897  26.138  1.00  0.00     0.031 C 
ATOM     52  C   UNL A   1      42.603  29.288  26.605  1.00  0.00     0.029 A 
ATOM     53  C   UNL A   1      42.890  29.240  27.974  1.00  0.00     0.049 A 
ATOM     54  H   UNL A   1      41.495  29.356  29.558  1.00  0.00     0.167 HD
ATOM     55  C   UNL A   1      45.260  29.264  28.152  1.00  0.00     0.074 A 
ATOM     56  C   UNL A   1      45.456  29.741  26.798  1.00  0.00     0.031 C 
ATOM     57  C   UNL A   1      44.072  29.048  28.771  1.00  0.00     0.031 A 
BRANCH  44  58
ATOM     58  C   UNL A   1      38.607  28.306  28.817  1.00  0.00    -0.014 A 
ATOM     59  C   UNL A   1      37.751  29.261  28.221  1.00  0.00     0.009 A 
ATOM     60  C   UNL A   1      38.500  28.113  30.198  1.00  0.00     0.009 A 
ATOM     61  C   UNL A   1      36.929  30.087  28.987  1.00  0.00     0.001 A 
ATOM     62  C   UNL A   1      37.643  28.916  30.963  1.00  0.00     0.001 A 
ATOM     63  C   UNL A   1      36.891  29.926  30.363  1.00  0.00     0.000 A 
ENDBRANCH  44  58
BRANCH  45  64
ATOM     64  C   UNL A   1      48.951  27.195  26.517  1.00  0.00    -0.014 A 
ATOM     65  C   UNL A   1      49.898  28.012  27.137  1.00  0.00     0.009 A 
ATOM     66  C   UNL A   1      49.419  26.513  25.352  1.00  0.00     0.009 A 
ATOM     67  C   UNL A   1      51.239  28.051  26.677  1.00  0.00     0.001 A 
ATOM     68  C   UNL A   1      50.750  26.502  24.927  1.00  0.00     0.001 A 
ATOM     69  C   UNL A   1      51.674  27.267  25.606  1.00  0.00     0.000 A 
ENDBRANCH  45  64
BRANCH  57  70
ATOM     70  C   UNL A   1      44.140  28.297  30.093  1.00  0.00    -0.014 A 
ATOM     71  C   UNL A   1      44.574  28.974  31.242  1.00  0.00     0.009 A 
ATOM     72  C   UNL A   1      43.882  26.919  30.226  1.00  0.00     0.009 A 
ATOM     73  C   UNL A   1      44.751  28.311  32.463  1.00  0.00     0.001 A 
ATOM     74  C   UNL A   1      44.066  26.247  31.446  1.00  0.00     0.001 A 
ATOM     75  C   UNL A   1      44.500  26.947  32.567  1.00  0.00     0.000 A 
ENDBRANCH  57  70
ENDBRANCH  31  32
ENDBRANCH  24  26
ENDBRANCH  23  24
ENDBRANCH  22  23
ENDBRANCH  21  22
ENDBRANCH  20  21
ENDBRANCH   1  20
TORSDOF 18
ENDMDL
MODEL 2
REMARK VINA RESULT:      -9.9      1.729      3.083
REMARK SMILES CC[C@@H](C)NC(=O)Cn1cccc1C(=O)OCCOCCOC(=O)c1ccc(-c2c3nc(c(-c4ccccc4)c4ccc([nH]4)c(-c4ccccc4)c4nc(c(-c5ccccc5)c5ccc2[nH]5)C=C4)C=C3)cc1
REMARK SMILES IDX 18 1 17 2 16 3 14 4 15 5 13 6 9 7 10 8 11 9 12 10 8 11 6 12
REMARK SMILES IDX 5 13 7 15 3 16 4 17 2 18 1 19 19 20 20 21 21 22 22 23 23 24
REMARK SMILES IDX 24 25 25 26 26 27 72 28 27 29 71 30 28 31 29 32 30 33 65 34
REMARK SMILES IDX 31 35 70 36 64 37 66 38 32 39 69 40 63 41 62 42 33 44 55 45
REMARK SMILES IDX 40 46 54 47 41 48 44 49 53 50 67 51 42 52 43 53 52 55 68 56
REMARK SMILES IDX 45 57 34 58 35 59 39 60 36 61 38 62 37 63 56 64 57 65 61 66
REMARK SMILES IDX 58 67 60 68 59 69 46 70 47 71 51 72 48 73 50 74 49 75
REMARK H PARENT 5 14 66 43 44 54
REMARK Flexibility Score: inf
ROOT
ATOM      1  C   UNL A   1      37.511  23.263  25.016  1.00  0.00     0.202 C 
ENDROOT
BRANCH   1   2
ATOM      2  C   UNL A   1      36.647  23.751  26.175  1.00  0.00     0.261 C 
BRANCH   2   3
ATOM      3  O   UNL A   1      35.310  24.065  25.759  1.00  0.00    -0.459 OA
BRANCH   3   4
ATOM      4  C   UNL A   1      34.361  23.224  26.260  1.00  0.00     0.355 C 
ATOM      5  O   UNL A   1      34.193  22.998  27.446  1.00  0.00    -0.244 OA
BRANCH   4   6
ATOM      6  C   UNL A   1      33.489  22.740  25.205  1.00  0.00     0.128 A 
ATOM      7  N   UNL A   1      32.409  23.358  24.602  1.00  0.00    -0.333 N 
ATOM      8  C   UNL A   1      31.899  22.534  23.622  1.00  0.00     0.087 A 
ATOM      9  C   UNL A   1      32.674  21.402  23.555  1.00  0.00     0.020 A 
ATOM     10  C   UNL A   1      33.672  21.532  24.540  1.00  0.00     0.035 A 
BRANCH   7  11
ATOM     11  C   UNL A   1      31.896  24.701  24.846  1.00  0.00     0.222 C 
BRANCH  11  12
ATOM     12  C   UNL A   1      31.226  24.849  26.200  1.00  0.00     0.240 C 
ATOM     13  N   UNL A   1      31.342  26.013  26.909  1.00  0.00    -0.352 N 
ATOM     14  H   UNL A   1      30.959  25.996  27.817  1.00  0.00     0.163 HD
ATOM     15  O   UNL A   1      30.615  23.908  26.714  1.00  0.00    -0.273 OA
BRANCH  13  16
ATOM     16  C   UNL A   1      31.955  27.277  26.510  1.00  0.00     0.078 C 
ATOM     17  C   UNL A   1      33.452  27.097  26.305  1.00  0.00     0.031 C 
BRANCH  16  18
ATOM     18  C   UNL A   1      31.602  28.372  27.530  1.00  0.00     0.021 C 
ATOM     19  C   UNL A   1      32.144  29.749  27.174  1.00  0.00     0.006 C 
ENDBRANCH  16  18
ENDBRANCH  13  16
ENDBRANCH  11  12
ENDBRANCH   7  11
ENDBRANCH   4   6
ENDBRANCH   3   4
ENDBRANCH   2   3
ENDBRANCH   1   2
BRANCH   1  20
ATOM     20  O   UNL A   1      37.929  21.901  24.985  1.00  0.00    -0.374 OA
BRANCH  20  21
ATOM     21  C   UNL A   1      39.009  21.434  25.784  1.00  0.00     0.202 C 
BRANCH  21  22
ATOM     22  C   UNL A   1      39.519  20.006  25.641  1.00  0.00     0.261 C 
BRANCH  22  23
ATOM     23  O   UNL A   1      40.386  19.582  26.681  1.00  0.00    -0.460 OA
BRANCH  23  24
ATOM     24  C   UNL A   1      41.621  19.339  26.192  1.00  0.00     0.338 C 
ATOM     25  O   UNL A   1      42.040  18.305  25.695  1.00  0.00    -0.246 OA
BRANCH  24  26
ATOM     26  C   UNL A   1      42.520  20.425  26.545  1.00  0.00     0.060 A 
ATOM     27  C   UNL A   1      42.428  20.861  27.869  1.00  0.00     0.016 A 
ATOM     28  C   UNL A   1      42.976  21.236  25.499  1.00  0.00     0.016 A 
ATOM     29  C   UNL A   1      42.599  22.199  28.114  1.00  0.00     0.010 A 
ATOM     30  C   UNL A   1      43.096  22.582  25.734  1.00  0.00     0.010 A 
ATOM     31  C   UNL A   1      42.870  23.049  27.033  1.00  0.00    -0.014 A 
BRANCH  31  32
ATOM     32  C   UNL A   1      43.184  24.437  27.351  1.00  0.00     0.031 A 
ATOM     33  C   UNL A   1      41.849  25.204  27.489  1.00  0.00     0.074 A 
ATOM     34  C   UNL A   1      44.519  24.751  27.359  1.00  0.00     0.049 A 
ATOM     35  N   UNL A   1      41.602  26.457  27.305  1.00  0.00    -0.248 NA
ATOM     36  C   UNL A   1      40.582  24.466  27.805  1.00  0.00     0.031 C 
ATOM     37  C   UNL A   1      45.642  23.782  27.234  1.00  0.00     0.029 A 
ATOM     38  N   UNL A   1      45.217  25.931  27.464  1.00  0.00    -0.354 N 
ATOM     39  C   UNL A   1      40.252  26.689  27.645  1.00  0.00     0.074 A 
ATOM     40  C   UNL A   1      39.648  25.415  27.855  1.00  0.00     0.031 C 
ATOM     41  C   UNL A   1      46.837  24.418  27.169  1.00  0.00     0.029 A 
ATOM     42  C   UNL A   1      46.624  25.849  27.253  1.00  0.00     0.049 A 
ATOM     43  H   UNL A   1      44.771  26.784  27.673  1.00  0.00     0.167 HD
ATOM     44  C   UNL A   1      39.758  27.939  27.863  1.00  0.00     0.031 A 
ATOM     45  C   UNL A   1      47.521  26.878  27.099  1.00  0.00     0.031 A 
ATOM     46  C   UNL A   1      40.737  28.909  27.511  1.00  0.00     0.049 A 
ATOM     47  C   UNL A   1      46.725  28.087  27.344  1.00  0.00     0.074 A 
ATOM     48  C   UNL A   1      41.239  29.281  26.290  1.00  0.00     0.029 A 
ATOM     49  N   UNL A   1      41.632  29.242  28.498  1.00  0.00    -0.354 N 
ATOM     50  N   UNL A   1      46.295  28.473  28.505  1.00  0.00    -0.248 NA
ATOM     51  C   UNL A   1      46.278  28.872  26.187  1.00  0.00     0.031 C 
ATOM     52  C   UNL A   1      42.629  29.310  26.530  1.00  0.00     0.029 A 
ATOM     53  C   UNL A   1      42.871  29.273  27.908  1.00  0.00     0.049 A 
ATOM     54  H   UNL A   1      41.426  29.423  29.444  1.00  0.00     0.167 HD
ATOM     55  C   UNL A   1      45.234  29.272  28.164  1.00  0.00     0.074 A 
ATOM     56  C   UNL A   1      45.480  29.732  26.812  1.00  0.00     0.031 C 
ATOM     57  C   UNL A   1      44.024  29.076  28.746  1.00  0.00     0.031 A 
BRANCH  44  58
ATOM     58  C   UNL A   1      38.552  28.399  28.619  1.00  0.00    -0.014 A 
ATOM     59  C   UNL A   1      37.727  29.357  27.985  1.00  0.00     0.009 A 
ATOM     60  C   UNL A   1      38.397  28.223  29.998  1.00  0.00     0.009 A 
ATOM     61  C   UNL A   1      36.890  30.200  28.714  1.00  0.00     0.001 A 
ATOM     62  C   UNL A   1      37.525  29.044  30.725  1.00  0.00     0.001 A 
ATOM     63  C   UNL A   1      36.805  30.055  30.091  1.00  0.00     0.000 A 
ENDBRANCH  44  58
BRANCH  45  64
ATOM     64  C   UNL A   1      48.952  27.142  26.673  1.00  0.00    -0.014 A 
ATOM     65  C   UNL A   1      49.996  27.613  27.470  1.00  0.00     0.009 A 
ATOM     66  C   UNL A   1      49.320  26.817  25.331  1.00  0.00     0.009 A 
ATOM     67  C   UNL A   1      51.327  27.649  26.979  1.00  0.00     0.001 A 
ATOM     68  C   UNL A   1      50.636  26.796  24.859  1.00  0.00     0.001 A 
ATOM     69  C   UNL A   1      51.652  27.202  25.697  1.00  0.00     0.000 A 
ENDBRANCH  45  64
BRANCH  57  70
ATOM     70  C   UNL A   1      44.039  28.339  30.076  1.00  0.00    -0.014 A 
ATOM     71  C   UNL A   1      44.422  29.029  31.236  1.00  0.00     0.009 A 
ATOM     72  C   UNL A   1      43.781  26.961  30.212  1.00  0.00     0.009 A 
ATOM     73  C   UNL A   1      44.550  28.378  32.470  1.00  0.00     0.001 A 
ATOM     74  C   UNL A   1      43.916  26.301  31.446  1.00  0.00     0.001 A 
ATOM     75  C   UNL A   1      44.300  27.014  32.577  1.00  0.00     0.000 A 
ENDBRANCH  57  70
ENDBRANCH  31  32
ENDBRANCH  24  26
ENDBRANCH  23  24
ENDBRANCH  22  23
ENDBRANCH  21  22
ENDBRANCH  20  21
ENDBRANCH   1  20
TORSDOF 18
ENDMDL
MODEL 3
REMARK VINA RESULT:      -9.6      5.159     10.500
REMARK SMILES CC[C@@H](C)NC(=O)Cn1cccc1C(=O)OCCOCCOC(=O)c1ccc(-c2c3nc(c(-c4ccccc4)c4ccc([nH]4)c(-c4ccccc4)c4nc(c(-c5ccccc5)c5ccc2[nH]5)C=C4)C=C3)cc1
REMARK SMILES IDX 18 1 17 2 16 3 14 4 15 5 13 6 9 7 10 8 11 9 12 10 8 11 6 12
REMARK SMILES IDX 5 13 7 15 3 16 4 17 2 18 1 19 19 20 20 21 21 22 22 23 23 24
REMARK SMILES IDX 24 25 25 26 26 27 72 28 27 29 71 30 28 31 29 32 30 33 65 34
REMARK SMILES IDX 31 35 70 36 64 37 66 38 32 39 69 40 63 41 62 42 33 44 55 45
REMARK SMILES IDX 40 46 54 47 41 48 44 49 53 50 67 51 42 52 43 53 52 55 68 56
REMARK SMILES IDX 45 57 34 58 35 59 39 60 36 61 38 62 37 63 56 64 57 65 61 66
REMARK SMILES IDX 58 67 60 68 59 69 46 70 47 71 51 72 48 73 50 74 49 75
REMARK H PARENT 5 14 66 43 44 54
REMARK Flexibility Score: inf
ROOT
ATOM      1  C   UNL A   1      33.011  29.984  26.304  1.00  0.00     0.202 C 
ENDROOT
BRANCH   1   2
ATOM      2  C   UNL A   1      34.128  28.944  26.296  1.00  0.00     0.261 C 
BRANCH   2   3
ATOM      3  O   UNL A   1      33.619  27.604  26.216  1.00  0.00    -0.459 OA
BRANCH   3   4
ATOM      4  C   UNL A   1      33.776  27.023  24.993  1.00  0.00     0.355 C 
ATOM      5  O   UNL A   1      33.968  27.634  23.956  1.00  0.00    -0.244 OA
BRANCH   4   6
ATOM      6  C   UNL A   1      33.821  25.577  25.109  1.00  0.00     0.128 A 
ATOM      7  N   UNL A   1      32.847  24.639  24.814  1.00  0.00    -0.333 N 
ATOM      8  C   UNL A   1      33.345  23.375  25.049  1.00  0.00     0.087 A 
ATOM      9  C   UNL A   1      34.653  23.487  25.451  1.00  0.00     0.020 A 
ATOM     10  C   UNL A   1      34.953  24.863  25.484  1.00  0.00     0.035 A 
BRANCH   7  11
ATOM     11  C   UNL A   1      31.523  24.872  24.251  1.00  0.00     0.222 C 
BRANCH  11  12
ATOM     12  C   UNL A   1      30.522  25.388  25.269  1.00  0.00     0.240 C 
ATOM     13  N   UNL A   1      29.732  26.467  24.983  1.00  0.00    -0.352 N 
ATOM     14  H   UNL A   1      29.179  26.798  25.728  1.00  0.00     0.163 HD
ATOM     15  O   UNL A   1      30.441  24.885  26.394  1.00  0.00    -0.273 OA
BRANCH  13  16
ATOM     16  C   UNL A   1      29.596  27.200  23.727  1.00  0.00     0.078 C 
ATOM     17  C   UNL A   1      30.460  28.453  23.749  1.00  0.00     0.031 C 
BRANCH  16  18
ATOM     18  C   UNL A   1      28.111  27.482  23.447  1.00  0.00     0.021 C 
ATOM     19  C   UNL A   1      27.822  28.913  23.016  1.00  0.00     0.006 C 
ENDBRANCH  16  18
ENDBRANCH  13  16
ENDBRANCH  11  12
ENDBRANCH   7  11
ENDBRANCH   4   6
ENDBRANCH   3   4
ENDBRANCH   2   3
ENDBRANCH   1   2
BRANCH   1  20
ATOM     20  O   UNL A   1      32.857  30.829  27.441  1.00  0.00    -0.374 OA
BRANCH  20  21
ATOM     21  C   UNL A   1      33.653  31.994  27.618  1.00  0.00     0.202 C 
BRANCH  21  22
ATOM     22  C   UNL A   1      33.033  33.382  27.516  1.00  0.00     0.261 C 
BRANCH  22  23
ATOM     23  O   UNL A   1      32.423  33.845  28.709  1.00  0.00    -0.460 OA
BRANCH  23  24
ATOM     24  C   UNL A   1      32.909  35.060  29.044  1.00  0.00     0.338 C 
ATOM     25  O   UNL A   1      32.563  36.149  28.615  1.00  0.00    -0.246 OA
BRANCH  24  26
ATOM     26  C   UNL A   1      34.111  34.912  29.847  1.00  0.00     0.060 A 
ATOM     27  C   UNL A   1      35.309  34.950  29.131  1.00  0.00     0.016 A 
ATOM     28  C   UNL A   1      33.973  34.262  31.080  1.00  0.00     0.016 A 
ATOM     29  C   UNL A   1      36.334  34.145  29.556  1.00  0.00     0.010 A 
ATOM     30  C   UNL A   1      34.979  33.418  31.478  1.00  0.00     0.010 A 
ATOM     31  C   UNL A   1      36.132  33.345  30.689  1.00  0.00    -0.014 A 
BRANCH  31  32
ATOM     32  C   UNL A   1      37.287  32.611  31.191  1.00  0.00     0.031 A 
ATOM     33  C   UNL A   1      37.502  31.384  30.278  1.00  0.00     0.074 A 
ATOM     34  C   UNL A   1      37.833  33.097  32.352  1.00  0.00     0.049 A 
ATOM     35  N   UNL A   1      38.051  30.248  30.549  1.00  0.00    -0.248 NA
ATOM     36  C   UNL A   1      36.966  31.380  28.878  1.00  0.00     0.031 C 
ATOM     37  C   UNL A   1      37.451  34.368  33.028  1.00  0.00     0.029 A 
ATOM     38  N   UNL A   1      38.803  32.639  33.211  1.00  0.00    -0.354 N 
ATOM     39  C   UNL A   1      38.094  29.490  29.359  1.00  0.00     0.074 A 
ATOM     40  C   UNL A   1      37.329  30.196  28.386  1.00  0.00     0.031 C 
ATOM     41  C   UNL A   1      38.097  34.510  34.212  1.00  0.00     0.029 A 
ATOM     42  C   UNL A   1      38.964  33.368  34.425  1.00  0.00     0.049 A 
ATOM     43  H   UNL A   1      39.357  31.852  33.000  1.00  0.00     0.167 HD
ATOM     44  C   UNL A   1      38.880  28.387  29.224  1.00  0.00     0.031 A 
ATOM     45  C   UNL A   1      39.701  33.024  35.532  1.00  0.00     0.031 A 
ATOM     46  C   UNL A   1      39.453  28.049  30.481  1.00  0.00     0.049 A 
ATOM     47  C   UNL A   1      40.404  31.799  35.127  1.00  0.00     0.074 A 
ATOM     48  C   UNL A   1      38.886  27.549  31.626  1.00  0.00     0.029 A 
ATOM     49  N   UNL A   1      40.633  28.681  30.790  1.00  0.00    -0.354 N 
ATOM     50  N   UNL A   1      41.400  31.752  34.298  1.00  0.00    -0.248 NA
ATOM     51  C   UNL A   1      39.884  30.511  35.600  1.00  0.00     0.031 C 
ATOM     52  C   UNL A   1      39.450  28.370  32.626  1.00  0.00     0.029 A 
ATOM     53  C   UNL A   1      40.532  29.083  32.098  1.00  0.00     0.049 A 
ATOM     54  H   UNL A   1      41.402  28.818  30.190  1.00  0.00     0.167 HD
ATOM     55  C   UNL A   1      41.344  30.454  33.862  1.00  0.00     0.074 A 
ATOM     56  C   UNL A   1      40.664  29.698  34.894  1.00  0.00     0.031 C 
ATOM     57  C   UNL A   1      41.348  30.185  32.531  1.00  0.00     0.031 A 
BRANCH  44  58
ATOM     58  C   UNL A   1      39.410  27.704  28.003  1.00  0.00    -0.014 A 
ATOM     59  C   UNL A   1      39.353  26.291  27.984  1.00  0.00     0.009 A 
ATOM     60  C   UNL A   1      40.256  28.330  27.081  1.00  0.00     0.009 A 
ATOM     61  C   UNL A   1      40.204  25.533  27.181  1.00  0.00     0.001 A 
ATOM     62  C   UNL A   1      41.083  27.567  26.245  1.00  0.00     0.001 A 
ATOM     63  C   UNL A   1      41.086  26.175  26.325  1.00  0.00     0.000 A 
ENDBRANCH  44  58
BRANCH  45  64
ATOM     64  C   UNL A   1      39.913  33.423  36.979  1.00  0.00    -0.014 A 
ATOM     65  C   UNL A   1      41.084  33.917  37.555  1.00  0.00     0.009 A 
ATOM     66  C   UNL A   1      38.790  33.363  37.860  1.00  0.00     0.009 A 
ATOM     67  C   UNL A   1      41.089  34.412  38.884  1.00  0.00     0.001 A 
ATOM     68  C   UNL A   1      38.772  33.900  39.150  1.00  0.00     0.001 A 
ATOM     69  C   UNL A   1      39.929  34.444  39.662  1.00  0.00     0.000 A 
ENDBRANCH  45  64
BRANCH  57  70
ATOM     70  C   UNL A   1      41.914  31.277  31.636  1.00  0.00    -0.014 A 
ATOM     71  C   UNL A   1      41.031  32.143  30.973  1.00  0.00     0.009 A 
ATOM     72  C   UNL A   1      43.284  31.421  31.346  1.00  0.00     0.009 A 
ATOM     73  C   UNL A   1      41.489  33.102  30.060  1.00  0.00     0.001 A 
ATOM     74  C   UNL A   1      43.748  32.375  30.424  1.00  0.00     0.001 A 
ATOM     75  C   UNL A   1      42.847  33.218  29.782  1.00  0.00     0.000 A 
ENDBRANCH  57  70
ENDBRANCH  31  32
ENDBRANCH  24  26
ENDBRANCH  23  24
ENDBRANCH  22  23
ENDBRANCH  21  22
ENDBRANCH  20  21
ENDBRANCH   1  20
TORSDOF 18
ENDMDL
