MODEL 1
REMARK VINA RESULT:     -10.2      0.000      0.000
REMARK SMILES CCCCCCCCNC(=O)Oc1cccc(-c2ccc([C@@H](C)C(=O)OCCOCCOC(=O)c3ccc(-c4c5nc(c(-c6ccccc6)c6ccc([nH]6)c(-c6ccccc6)c6nc(c(-c7ccccc7)c7ccc4[nH]7)C=C6)C=C5)cc3)cc2F)c1
REMARK SMILES IDX 22 1 23 2 21 3 18 4 19 5 84 6 20 7 83 8 85 9 17 10 13 11
REMARK SMILES IDX 14 12 86 13 15 14 16 15 12 16 10 17 9 18 11 20 8 21 7 22
REMARK SMILES IDX 6 23 5 24 4 25 3 26 2 27 1 28 24 29 25 30 26 31 27 32 28 33
REMARK SMILES IDX 29 34 30 35 31 36 32 37 33 38 34 39 35 40 36 41 82 42 37 43
REMARK SMILES IDX 81 44 38 45 39 46 40 47 75 48 41 49 80 50 74 51 76 52 42 53
REMARK SMILES IDX 79 54 73 55 72 56 43 58 65 59 50 60 64 61 51 62 54 63 63 64
REMARK SMILES IDX 77 65 52 66 53 67 62 69 78 70 55 71 44 72 45 73 49 74 46 75
REMARK SMILES IDX 48 76 47 77 66 78 67 79 71 80 68 81 70 82 69 83 56 84 57 85
REMARK SMILES IDX 61 86 58 87 60 88 59 89
REMARK H PARENT 9 19 76 57 54 68
REMARK Flexibility Score: inf
ROOT
ATOM      1  C   UNL A   1      37.922  21.333  25.805  1.00  0.00     0.126 C 
ATOM      2  C   UNL A   1      38.085  20.030  25.024  1.00  0.00     0.025 C 
ENDROOT
BRANCH   1   3
ATOM      3  C   UNL A   1      36.961  22.293  25.110  1.00  0.00    -0.031 A 
ATOM      4  C   UNL A   1      34.956  23.945  23.917  1.00  0.00     0.018 A 
ATOM      5  C   UNL A   1      35.764  23.098  23.140  1.00  0.00     0.012 A 
ATOM      6  C   UNL A   1      35.216  23.983  25.293  1.00  0.00     0.131 A 
ATOM      7  C   UNL A   1      36.747  22.283  23.724  1.00  0.00     0.005 A 
ATOM      8  C   UNL A   1      36.194  23.178  25.882  1.00  0.00     0.044 A 
ATOM      9  F   UNL A   1      34.484  24.768  26.099  1.00  0.00    -0.206 F 
BRANCH   4  10
ATOM     10  C   UNL A   1      33.841  24.703  23.317  1.00  0.00    -0.012 A 
ATOM     11  C   UNL A   1      32.664  26.781  22.876  1.00  0.00     0.133 A 
ATOM     12  C   UNL A   1      31.619  26.097  22.260  1.00  0.00     0.047 A 
ATOM     13  C   UNL A   1      33.762  26.103  23.410  1.00  0.00     0.056 A 
ATOM     14  C   UNL A   1      31.684  24.713  22.154  1.00  0.00     0.004 A 
ATOM     15  C   UNL A   1      32.784  24.025  22.677  1.00  0.00     0.009 A 
BRANCH  11  16
ATOM     16  O   UNL A   1      32.488  28.164  23.051  1.00  0.00    -0.410 OA
BRANCH  16  17
ATOM     17  C   UNL A   1      33.578  28.936  23.413  1.00  0.00     0.412 C 
ATOM     18  N   UNL A   1      33.355  29.688  24.531  1.00  0.00    -0.321 N 
ATOM     19  H   UNL A   1      34.100  30.254  24.839  1.00  0.00     0.167 HD
ATOM     20  O   UNL A   1      34.654  28.990  22.818  1.00  0.00    -0.224 OA
BRANCH  18  21
ATOM     21  C   UNL A   1      32.133  29.740  25.312  1.00  0.00     0.119 C 
BRANCH  21  22
ATOM     22  C   UNL A   1      32.134  28.718  26.449  1.00  0.00     0.021 C 
BRANCH  22  23
ATOM     23  C   UNL A   1      31.178  27.534  26.252  1.00  0.00     0.002 C 
BRANCH  23  24
ATOM     24  C   UNL A   1      31.773  26.155  26.558  1.00  0.00     0.000 C 
BRANCH  24  25
ATOM     25  C   UNL A   1      31.116  24.984  25.818  1.00  0.00    -0.000 C 
BRANCH  25  26
ATOM     26  C   UNL A   1      31.376  23.601  26.427  1.00  0.00    -0.000 C 
BRANCH  26  27
ATOM     27  C   UNL A   1      30.229  22.596  26.285  1.00  0.00    -0.003 C 
ATOM     28  C   UNL A   1      29.238  22.638  27.438  1.00  0.00     0.004 C 
ENDBRANCH  26  27
ENDBRANCH  25  26
ENDBRANCH  24  25
ENDBRANCH  23  24
ENDBRANCH  22  23
ENDBRANCH  21  22
ENDBRANCH  18  21
ENDBRANCH  16  17
ENDBRANCH  11  16
ENDBRANCH   4  10
ENDBRANCH   1   3
BRANCH   1  29
ATOM     29  C   UNL A   1      39.294  21.855  26.198  1.00  0.00     0.313 C 
ATOM     30  O   UNL A   1      39.428  22.880  26.860  1.00  0.00    -0.252 OA
BRANCH  29  31
ATOM     31  O   UNL A   1      40.321  21.064  25.793  1.00  0.00    -0.463 OA
BRANCH  31  32
ATOM     32  C   UNL A   1      41.061  20.411  26.840  1.00  0.00     0.261 C 
BRANCH  32  33
ATOM     33  C   UNL A   1      41.932  19.281  26.287  1.00  0.00     0.202 C 
BRANCH  33  34
ATOM     34  O   UNL A   1      42.670  19.577  25.103  1.00  0.00    -0.374 OA
BRANCH  34  35
ATOM     35  C   UNL A   1      44.094  19.569  25.198  1.00  0.00     0.202 C 
BRANCH  35  36
ATOM     36  C   UNL A   1      44.804  20.916  25.010  1.00  0.00     0.261 C 
BRANCH  36  37
ATOM     37  O   UNL A   1      44.347  21.912  25.944  1.00  0.00    -0.460 OA
BRANCH  37  38
ATOM     38  C   UNL A   1      43.669  22.948  25.391  1.00  0.00     0.338 C 
ATOM     39  O   UNL A   1      43.174  23.006  24.281  1.00  0.00    -0.246 OA
BRANCH  38  40
ATOM     40  C   UNL A   1      43.417  23.975  26.420  1.00  0.00     0.060 A 
ATOM     41  C   UNL A   1      42.679  23.593  27.549  1.00  0.00     0.016 A 
ATOM     42  C   UNL A   1      43.844  25.295  26.266  1.00  0.00     0.016 A 
ATOM     43  C   UNL A   1      42.352  24.534  28.524  1.00  0.00     0.010 A 
ATOM     44  C   UNL A   1      43.502  26.242  27.240  1.00  0.00     0.010 A 
ATOM     45  C   UNL A   1      42.741  25.871  28.364  1.00  0.00    -0.014 A 
BRANCH  45  46
ATOM     46  C   UNL A   1      42.291  26.894  29.338  1.00  0.00     0.031 A 
ATOM     47  C   UNL A   1      43.062  27.098  30.613  1.00  0.00     0.074 A 
ATOM     48  C   UNL A   1      41.207  27.649  29.079  1.00  0.00     0.049 A 
ATOM     49  N   UNL A   1      42.798  27.893  31.619  1.00  0.00    -0.248 NA
ATOM     50  C   UNL A   1      44.295  26.311  30.771  1.00  0.00     0.031 C 
ATOM     51  C   UNL A   1      40.407  27.589  27.857  1.00  0.00     0.029 A 
ATOM     52  N   UNL A   1      40.590  28.609  29.839  1.00  0.00    -0.354 N 
ATOM     53  C   UNL A   1      43.830  27.701  32.530  1.00  0.00     0.074 A 
ATOM     54  C   UNL A   1      44.711  26.700  31.968  1.00  0.00     0.031 C 
ATOM     55  C   UNL A   1      39.392  28.465  27.957  1.00  0.00     0.029 A 
ATOM     56  C   UNL A   1      39.449  29.115  29.264  1.00  0.00     0.049 A 
ATOM     57  H   UNL A   1      40.930  28.909  30.714  1.00  0.00     0.167 HD
ATOM     58  C   UNL A   1      44.027  28.308  33.724  1.00  0.00     0.031 A 
ATOM     59  C   UNL A   1      38.537  29.978  29.751  1.00  0.00     0.031 A 
ATOM     60  C   UNL A   1      43.141  29.288  34.295  1.00  0.00     0.049 A 
ATOM     61  C   UNL A   1      38.718  30.548  31.132  1.00  0.00     0.074 A 
ATOM     62  C   UNL A   1      43.263  29.962  35.499  1.00  0.00     0.029 A 
ATOM     63  N   UNL A   1      41.967  29.728  33.708  1.00  0.00    -0.354 N 
ATOM     64  N   UNL A   1      39.707  30.373  31.976  1.00  0.00    -0.248 NA
ATOM     65  C   UNL A   1      37.653  31.433  31.629  1.00  0.00     0.031 C 
ATOM     66  C   UNL A   1      42.132  30.766  35.666  1.00  0.00     0.029 A 
ATOM     67  C   UNL A   1      41.335  30.636  34.541  1.00  0.00     0.049 A 
ATOM     68  H   UNL A   1      41.631  29.438  32.829  1.00  0.00     0.167 HD
ATOM     69  C   UNL A   1      39.391  31.137  33.092  1.00  0.00     0.074 A 
ATOM     70  C   UNL A   1      38.134  31.796  32.811  1.00  0.00     0.031 C 
ATOM     71  C   UNL A   1      40.080  31.279  34.251  1.00  0.00     0.031 A 
BRANCH  58  72
ATOM     72  C   UNL A   1      45.239  27.909  34.517  1.00  0.00    -0.014 A 
ATOM     73  C   UNL A   1      45.160  26.931  35.519  1.00  0.00     0.009 A 
ATOM     74  C   UNL A   1      46.488  28.472  34.211  1.00  0.00     0.009 A 
ATOM     75  C   UNL A   1      46.306  26.537  36.213  1.00  0.00     0.001 A 
ATOM     76  C   UNL A   1      47.636  28.060  34.891  1.00  0.00     0.001 A 
ATOM     77  C   UNL A   1      47.543  27.096  35.894  1.00  0.00     0.000 A 
ENDBRANCH  58  72
BRANCH  59  78
ATOM     78  C   UNL A   1      37.327  30.319  28.954  1.00  0.00    -0.014 A 
ATOM     79  C   UNL A   1      37.084  31.639  28.546  1.00  0.00     0.009 A 
ATOM     80  C   UNL A   1      36.385  29.327  28.640  1.00  0.00     0.009 A 
ATOM     81  C   UNL A   1      35.906  31.964  27.868  1.00  0.00     0.001 A 
ATOM     82  C   UNL A   1      35.224  29.649  27.935  1.00  0.00     0.001 A 
ATOM     83  C   UNL A   1      34.980  30.968  27.560  1.00  0.00     0.000 A 
ENDBRANCH  59  78
BRANCH  71  84
ATOM     84  C   UNL A   1      39.498  32.192  35.292  1.00  0.00    -0.014 A 
ATOM     85  C   UNL A   1      39.807  33.561  35.308  1.00  0.00     0.009 A 
ATOM     86  C   UNL A   1      38.597  31.687  36.241  1.00  0.00     0.009 A 
ATOM     87  C   UNL A   1      39.248  34.399  36.275  1.00  0.00     0.001 A 
ATOM     88  C   UNL A   1      38.018  32.532  37.190  1.00  0.00     0.001 A 
ATOM     89  C   UNL A   1      38.350  33.885  37.210  1.00  0.00     0.000 A 
ENDBRANCH  71  84
ENDBRANCH  45  46
ENDBRANCH  38  40
ENDBRANCH  37  38
ENDBRANCH  36  37
ENDBRANCH  35  36
ENDBRANCH  34  35
ENDBRANCH  33  34
ENDBRANCH  32  33
ENDBRANCH  31  32
ENDBRANCH  29  31
ENDBRANCH   1  29
TORSDOF 25
ENDMDL
MODEL 2
REMARK VINA RESULT:      -9.7      1.359      2.470
REMARK SMILES CCCCCCCCNC(=O)Oc1cccc(-c2ccc([C@@H](C)C(=O)OCCOCCOC(=O)c3ccc(-c4c5nc(c(-c6ccccc6)c6ccc([nH]6)c(-c6ccccc6)c6nc(c(-c7ccccc7)c7ccc4[nH]7)C=C6)C=C5)cc3)cc2F)c1
REMARK SMILES IDX 22 1 23 2 21 3 18 4 19 5 84 6 20 7 83 8 85 9 17 10 13 11
REMARK SMILES IDX 14 12 86 13 15 14 16 15 12 16 10 17 9 18 11 20 8 21 7 22
REMARK SMILES IDX 6 23 5 24 4 25 3 26 2 27 1 28 24 29 25 30 26 31 27 32 28 33
REMARK SMILES IDX 29 34 30 35 31 36 32 37 33 38 34 39 35 40 36 41 82 42 37 43
REMARK SMILES IDX 81 44 38 45 39 46 40 47 75 48 41 49 80 50 74 51 76 52 42 53
REMARK SMILES IDX 79 54 73 55 72 56 43 58 65 59 50 60 64 61 51 62 54 63 63 64
REMARK SMILES IDX 77 65 52 66 53 67 62 69 78 70 55 71 44 72 45 73 49 74 46 75
REMARK SMILES IDX 48 76 47 77 66 78 67 79 71 80 68 81 70 82 69 83 56 84 57 85
REMARK SMILES IDX 61 86 58 87 60 88 59 89
REMARK H PARENT 9 19 76 57 54 68
REMARK Flexibility Score: inf
ROOT
ATOM      1  C   UNL A   1      36.278  21.526  25.817  1.00  0.00     0.126 C 
ATOM      2  C   UNL A   1      36.259  20.211  25.040  1.00  0.00     0.025 C 
ENDROOT
BRANCH   1   3
ATOM      3  C   UNL A   1      35.010  22.341  25.582  1.00  0.00    -0.031 A 
ATOM      4  C   UNL A   1      32.746  23.948  24.902  1.00  0.00     0.018 A 
ATOM      5  C   UNL A   1      33.607  24.305  25.953  1.00  0.00     0.012 A 
ATOM      6  C   UNL A   1      33.016  22.743  24.241  1.00  0.00     0.131 A 
ATOM      7  C   UNL A   1      34.723  23.519  26.286  1.00  0.00     0.005 A 
ATOM      8  C   UNL A   1      34.120  21.953  24.569  1.00  0.00     0.044 A 
ATOM      9  F   UNL A   1      32.236  22.336  23.228  1.00  0.00    -0.206 F 
BRANCH   4  10
ATOM     10  C   UNL A   1      31.650  24.839  24.472  1.00  0.00    -0.012 A 
ATOM     11  C   UNL A   1      30.708  26.490  22.961  1.00  0.00     0.133 A 
ATOM     12  C   UNL A   1      29.575  26.624  23.761  1.00  0.00     0.047 A 
ATOM     13  C   UNL A   1      31.743  25.619  23.308  1.00  0.00     0.056 A 
ATOM     14  C   UNL A   1      29.464  25.854  24.914  1.00  0.00     0.004 A 
ATOM     15  C   UNL A   1      30.491  24.972  25.263  1.00  0.00     0.009 A 
BRANCH  11  16
ATOM     16  O   UNL A   1      30.811  27.374  21.874  1.00  0.00    -0.410 OA
BRANCH  16  17
ATOM     17  C   UNL A   1      30.658  28.730  22.099  1.00  0.00     0.412 C 
ATOM     18  N   UNL A   1      31.822  29.349  22.459  1.00  0.00    -0.321 N 
ATOM     19  H   UNL A   1      31.774  30.319  22.626  1.00  0.00     0.167 HD
ATOM     20  O   UNL A   1      29.606  29.363  22.013  1.00  0.00    -0.224 OA
BRANCH  18  21
ATOM     21  C   UNL A   1      33.121  28.725  22.621  1.00  0.00     0.119 C 
BRANCH  21  22
ATOM     22  C   UNL A   1      33.724  29.001  23.998  1.00  0.00     0.021 C 
BRANCH  22  23
ATOM     23  C   UNL A   1      33.864  27.769  24.901  1.00  0.00     0.002 C 
BRANCH  23  24
ATOM     24  C   UNL A   1      33.005  27.787  26.171  1.00  0.00     0.000 C 
BRANCH  24  25
ATOM     25  C   UNL A   1      31.754  28.670  26.099  1.00  0.00    -0.000 C 
BRANCH  25  26
ATOM     26  C   UNL A   1      31.745  29.863  27.061  1.00  0.00    -0.000 C 
BRANCH  26  27
ATOM     27  C   UNL A   1      32.026  31.225  26.419  1.00  0.00    -0.003 C 
ATOM     28  C   UNL A   1      30.766  32.009  26.082  1.00  0.00     0.004 C 
ENDBRANCH  26  27
ENDBRANCH  25  26
ENDBRANCH  24  25
ENDBRANCH  23  24
ENDBRANCH  22  23
ENDBRANCH  21  22
ENDBRANCH  18  21
ENDBRANCH  16  17
ENDBRANCH  11  16
ENDBRANCH   4  10
ENDBRANCH   1   3
BRANCH   1  29
ATOM     29  C   UNL A   1      37.618  22.212  25.604  1.00  0.00     0.313 C 
ATOM     30  O   UNL A   1      37.700  23.422  25.416  1.00  0.00    -0.252 OA
BRANCH  29  31
ATOM     31  O   UNL A   1      38.685  21.375  25.690  1.00  0.00    -0.463 OA
BRANCH  31  32
ATOM     32  C   UNL A   1      39.941  21.993  26.025  1.00  0.00     0.261 C 
BRANCH  32  33
ATOM     33  C   UNL A   1      40.535  21.392  27.301  1.00  0.00     0.202 C 
BRANCH  33  34
ATOM     34  O   UNL A   1      41.671  20.547  27.128  1.00  0.00    -0.374 OA
BRANCH  34  35
ATOM     35  C   UNL A   1      42.189  20.404  25.806  1.00  0.00     0.202 C 
BRANCH  35  36
ATOM     36  C   UNL A   1      43.634  20.866  25.578  1.00  0.00     0.261 C 
BRANCH  36  37
ATOM     37  O   UNL A   1      43.996  21.974  26.425  1.00  0.00    -0.460 OA
BRANCH  37  38
ATOM     38  C   UNL A   1      43.891  23.196  25.846  1.00  0.00     0.338 C 
ATOM     39  O   UNL A   1      43.864  23.457  24.658  1.00  0.00    -0.246 OA
BRANCH  38  40
ATOM     40  C   UNL A   1      43.599  24.206  26.882  1.00  0.00     0.060 A 
ATOM     41  C   UNL A   1      42.802  23.810  27.964  1.00  0.00     0.016 A 
ATOM     42  C   UNL A   1      44.047  25.523  26.775  1.00  0.00     0.016 A 
ATOM     43  C   UNL A   1      42.435  24.736  28.940  1.00  0.00     0.010 A 
ATOM     44  C   UNL A   1      43.667  26.456  27.749  1.00  0.00     0.010 A 
ATOM     45  C   UNL A   1      42.847  26.071  28.827  1.00  0.00    -0.014 A 
BRANCH  45  46
ATOM     46  C   UNL A   1      42.359  27.080  29.797  1.00  0.00     0.031 A 
ATOM     47  C   UNL A   1      43.074  27.259  31.107  1.00  0.00     0.074 A 
ATOM     48  C   UNL A   1      41.291  27.846  29.503  1.00  0.00     0.049 A 
ATOM     49  N   UNL A   1      42.769  28.038  32.114  1.00  0.00    -0.248 NA
ATOM     50  C   UNL A   1      44.294  26.462  31.306  1.00  0.00     0.031 C 
ATOM     51  C   UNL A   1      40.546  27.811  28.246  1.00  0.00     0.029 A 
ATOM     52  N   UNL A   1      40.645  28.797  30.251  1.00  0.00    -0.354 N 
ATOM     53  C   UNL A   1      43.759  27.826  33.067  1.00  0.00     0.074 A 
ATOM     54  C   UNL A   1      44.659  26.829  32.527  1.00  0.00     0.031 C 
ATOM     55  C   UNL A   1      39.532  28.691  28.316  1.00  0.00     0.029 A 
ATOM     56  C   UNL A   1      39.534  29.319  29.635  1.00  0.00     0.049 A 
ATOM     57  H   UNL A   1      40.948  29.080  31.144  1.00  0.00     0.167 HD
ATOM     58  C   UNL A   1      43.906  28.412  34.279  1.00  0.00     0.031 A 
ATOM     59  C   UNL A   1      38.606  30.179  30.095  1.00  0.00     0.031 A 
ATOM     60  C   UNL A   1      43.001  29.387  34.826  1.00  0.00     0.049 A 
ATOM     61  C   UNL A   1      38.728  30.725  31.492  1.00  0.00     0.074 A 
ATOM     62  C   UNL A   1      43.072  30.040  36.046  1.00  0.00     0.029 A 
ATOM     63  N   UNL A   1      41.856  29.843  34.195  1.00  0.00    -0.354 N 
ATOM     64  N   UNL A   1      39.678  30.530  32.376  1.00  0.00    -0.248 NA
ATOM     65  C   UNL A   1      37.647  31.607  31.957  1.00  0.00     0.031 C 
ATOM     66  C   UNL A   1      41.939  30.847  36.176  1.00  0.00     0.029 A 
ATOM     67  C   UNL A   1      41.192  30.741  35.015  1.00  0.00     0.049 A 
ATOM     68  H   UNL A   1      41.558  29.570  33.297  1.00  0.00     0.167 HD
ATOM     69  C   UNL A   1      39.317  31.278  33.490  1.00  0.00     0.074 A 
ATOM     70  C   UNL A   1      38.076  31.948  33.164  1.00  0.00     0.031 C 
ATOM     71  C   UNL A   1      39.955  31.396  34.680  1.00  0.00     0.031 A 
BRANCH  58  72
ATOM     72  C   UNL A   1      45.080  27.993  35.117  1.00  0.00    -0.014 A 
ATOM     73  C   UNL A   1      46.313  28.654  35.020  1.00  0.00     0.009 A 
ATOM     74  C   UNL A   1      44.929  26.967  36.064  1.00  0.00     0.009 A 
ATOM     75  C   UNL A   1      47.379  28.283  35.842  1.00  0.00     0.001 A 
ATOM     76  C   UNL A   1      45.990  26.614  36.900  1.00  0.00     0.001 A 
ATOM     77  C   UNL A   1      47.215  27.269  36.785  1.00  0.00     0.000 A 
ENDBRANCH  58  72
BRANCH  59  78
ATOM     78  C   UNL A   1      37.434  30.540  29.252  1.00  0.00    -0.014 A 
ATOM     79  C   UNL A   1      37.292  31.837  28.737  1.00  0.00     0.009 A 
ATOM     80  C   UNL A   1      36.427  29.595  28.999  1.00  0.00     0.009 A 
ATOM     81  C   UNL A   1      36.149  32.189  28.013  1.00  0.00     0.001 A 
ATOM     82  C   UNL A   1      35.302  29.941  28.249  1.00  0.00     0.001 A 
ATOM     83  C   UNL A   1      35.158  31.240  27.767  1.00  0.00     0.000 A 
ENDBRANCH  59  78
BRANCH  71  84
ATOM     84  C   UNL A   1      39.331  32.295  35.709  1.00  0.00    -0.014 A 
ATOM     85  C   UNL A   1      38.399  31.800  36.634  1.00  0.00     0.009 A 
ATOM     86  C   UNL A   1      39.711  33.644  35.782  1.00  0.00     0.009 A 
ATOM     87  C   UNL A   1      37.838  32.647  37.592  1.00  0.00     0.001 A 
ATOM     88  C   UNL A   1      39.169  34.482  36.758  1.00  0.00     0.001 A 
ATOM     89  C   UNL A   1      38.227  33.984  37.657  1.00  0.00     0.000 A 
ENDBRANCH  71  84
ENDBRANCH  45  46
ENDBRANCH  38  40
ENDBRANCH  37  38
ENDBRANCH  36  37
ENDBRANCH  35  36
ENDBRANCH  34  35
ENDBRANCH  33  34
ENDBRANCH  32  33
ENDBRANCH  31  32
ENDBRANCH  29  31
ENDBRANCH   1  29
TORSDOF 25
ENDMDL
MODEL 3
REMARK VINA RESULT:      -8.9      4.837     10.417
REMARK SMILES CCCCCCCCNC(=O)Oc1cccc(-c2ccc([C@@H](C)C(=O)OCCOCCOC(=O)c3ccc(-c4c5nc(c(-c6ccccc6)c6ccc([nH]6)c(-c6ccccc6)c6nc(c(-c7ccccc7)c7ccc4[nH]7)C=C6)C=C5)cc3)cc2F)c1
REMARK SMILES IDX 22 1 23 2 21 3 18 4 19 5 84 6 20 7 83 8 85 9 17 10 13 11
REMARK SMILES IDX 14 12 86 13 15 14 16 15 12 16 10 17 9 18 11 20 8 21 7 22
REMARK SMILES IDX 6 23 5 24 4 25 3 26 2 27 1 28 24 29 25 30 26 31 27 32 28 33
REMARK SMILES IDX 29 34 30 35 31 36 32 37 33 38 34 39 35 40 36 41 82 42 37 43
REMARK SMILES IDX 81 44 38 45 39 46 40 47 75 48 41 49 80 50 74 51 76 52 42 53
REMARK SMILES IDX 79 54 73 55 72 56 43 58 65 59 50 60 64 61 51 62 54 63 63 64
REMARK SMILES IDX 77 65 52 66 53 67 62 69 78 70 55 71 44 72 45 73 49 74 46 75
REMARK SMILES IDX 48 76 47 77 66 78 67 79 71 80 68 81 70 82 69 83 56 84 57 85
REMARK SMILES IDX 61 86 58 87 60 88 59 89
REMARK H PARENT 9 19 76 57 54 68
REMARK Flexibility Score: inf
ROOT
ATOM      1  C   UNL A   1      38.655  27.852  29.785  1.00  0.00     0.126 C 
ATOM      2  C   UNL A   1      38.843  27.578  31.276  1.00  0.00     0.025 C 
ENDROOT
BRANCH   1   3
ATOM      3  C   UNL A   1      39.964  27.710  29.014  1.00  0.00    -0.031 A 
ATOM      4  C   UNL A   1      42.342  27.185  27.517  1.00  0.00     0.018 A 
ATOM      5  C   UNL A   1      42.381  27.380  28.908  1.00  0.00     0.012 A 
ATOM      6  C   UNL A   1      41.095  27.314  26.893  1.00  0.00     0.131 A 
ATOM      7  C   UNL A   1      41.214  27.635  29.646  1.00  0.00     0.005 A 
ATOM      8  C   UNL A   1      39.929  27.571  27.618  1.00  0.00     0.044 A 
ATOM      9  F   UNL A   1      40.980  27.141  25.567  1.00  0.00    -0.206 F 
BRANCH   4  10
ATOM     10  C   UNL A   1      43.549  26.792  26.764  1.00  0.00    -0.012 A 
ATOM     11  C   UNL A   1      44.792  25.226  25.385  1.00  0.00     0.133 A 
ATOM     12  C   UNL A   1      45.929  26.028  25.441  1.00  0.00     0.047 A 
ATOM     13  C   UNL A   1      43.613  25.589  26.042  1.00  0.00     0.056 A 
ATOM     14  C   UNL A   1      45.880  27.226  26.145  1.00  0.00     0.004 A 
ATOM     15  C   UNL A   1      44.702  27.602  26.798  1.00  0.00     0.009 A 
BRANCH  11  16
ATOM     16  O   UNL A   1      44.938  23.979  24.753  1.00  0.00    -0.410 OA
BRANCH  16  17
ATOM     17  C   UNL A   1      45.335  22.891  25.509  1.00  0.00     0.412 C 
ATOM     18  N   UNL A   1      44.315  22.021  25.774  1.00  0.00    -0.321 N 
ATOM     19  H   UNL A   1      44.541  21.222  26.304  1.00  0.00     0.167 HD
ATOM     20  O   UNL A   1      46.468  22.684  25.940  1.00  0.00    -0.224 OA
BRANCH  18  21
ATOM     21  C   UNL A   1      42.932  22.152  25.353  1.00  0.00     0.119 C 
BRANCH  21  22
ATOM     22  C   UNL A   1      42.016  21.163  26.073  1.00  0.00     0.021 C 
BRANCH  22  23
ATOM     23  C   UNL A   1      42.026  21.271  27.603  1.00  0.00     0.002 C 
BRANCH  23  24
ATOM     24  C   UNL A   1      41.288  22.485  28.179  1.00  0.00     0.000 C 
BRANCH  24  25
ATOM     25  C   UNL A   1      42.190  23.588  28.745  1.00  0.00    -0.000 C 
BRANCH  25  26
ATOM     26  C   UNL A   1      43.370  23.094  29.590  1.00  0.00    -0.000 C 
BRANCH  26  27
ATOM     27  C   UNL A   1      44.758  23.470  29.061  1.00  0.00    -0.003 C 
ATOM     28  C   UNL A   1      45.163  24.900  29.385  1.00  0.00     0.004 C 
ENDBRANCH  26  27
ENDBRANCH  25  26
ENDBRANCH  24  25
ENDBRANCH  23  24
ENDBRANCH  22  23
ENDBRANCH  21  22
ENDBRANCH  18  21
ENDBRANCH  16  17
ENDBRANCH  11  16
ENDBRANCH   4  10
ENDBRANCH   1   3
BRANCH   1  29
ATOM     29  C   UNL A   1      37.857  29.133  29.609  1.00  0.00     0.313 C 
ATOM     30  O   UNL A   1      36.837  29.169  28.929  1.00  0.00    -0.252 OA
BRANCH  29  31
ATOM     31  O   UNL A   1      38.354  30.190  30.303  1.00  0.00    -0.463 OA
BRANCH  31  32
ATOM     32  C   UNL A   1      38.344  31.453  29.613  1.00  0.00     0.261 C 
BRANCH  32  33
ATOM     33  C   UNL A   1      37.638  32.533  30.436  1.00  0.00     0.202 C 
BRANCH  33  34
ATOM     34  O   UNL A   1      36.597  32.085  31.302  1.00  0.00    -0.374 OA
BRANCH  34  35
ATOM     35  C   UNL A   1      35.929  33.070  32.090  1.00  0.00     0.202 C 
BRANCH  35  36
ATOM     36  C   UNL A   1      36.600  33.466  33.411  1.00  0.00     0.261 C 
BRANCH  36  37
ATOM     37  O   UNL A   1      36.368  32.501  34.455  1.00  0.00    -0.460 OA
BRANCH  37  38
ATOM     38  C   UNL A   1      37.353  32.415  35.384  1.00  0.00     0.338 C 
ATOM     39  O   UNL A   1      37.284  32.683  36.569  1.00  0.00    -0.246 OA
BRANCH  38  40
ATOM     40  C   UNL A   1      38.522  31.731  34.798  1.00  0.00     0.060 A 
ATOM     41  C   UNL A   1      39.782  32.307  35.008  1.00  0.00     0.016 A 
ATOM     42  C   UNL A   1      38.389  30.581  34.016  1.00  0.00     0.016 A 
ATOM     43  C   UNL A   1      40.915  31.745  34.423  1.00  0.00     0.010 A 
ATOM     44  C   UNL A   1      39.528  30.026  33.419  1.00  0.00     0.010 A 
ATOM     45  C   UNL A   1      40.793  30.613  33.606  1.00  0.00    -0.014 A 
BRANCH  45  46
ATOM     46  C   UNL A   1      41.979  30.088  32.888  1.00  0.00     0.031 A 
ATOM     47  C   UNL A   1      42.733  28.918  33.455  1.00  0.00     0.074 A 
ATOM     48  C   UNL A   1      42.372  30.642  31.726  1.00  0.00     0.049 A 
ATOM     49  N   UNL A   1      43.829  28.351  33.017  1.00  0.00    -0.248 NA
ATOM     50  C   UNL A   1      42.177  28.301  34.669  1.00  0.00     0.031 C 
ATOM     51  C   UNL A   1      41.694  31.742  31.042  1.00  0.00     0.029 A 
ATOM     52  N   UNL A   1      43.446  30.356  30.922  1.00  0.00    -0.354 N 
ATOM     53  C   UNL A   1      44.095  27.311  33.902  1.00  0.00     0.074 A 
ATOM     54  C   UNL A   1      43.059  27.341  34.912  1.00  0.00     0.031 C 
ATOM     55  C   UNL A   1      42.379  32.049  29.927  1.00  0.00     0.029 A 
ATOM     56  C   UNL A   1      43.562  31.197  29.842  1.00  0.00     0.049 A 
ATOM     57  H   UNL A   1      44.074  29.619  31.101  1.00  0.00     0.167 HD
ATOM     58  C   UNL A   1      45.107  26.413  33.870  1.00  0.00     0.031 A 
ATOM     59  C   UNL A   1      44.531  31.290  28.910  1.00  0.00     0.031 A 
ATOM     60  C   UNL A   1      46.150  26.396  32.879  1.00  0.00     0.049 A 
ATOM     61  C   UNL A   1      45.708  30.354  28.969  1.00  0.00     0.074 A 
ATOM     62  C   UNL A   1      47.215  25.518  32.765  1.00  0.00     0.029 A 
ATOM     63  N   UNL A   1      46.264  27.301  31.837  1.00  0.00    -0.354 N 
ATOM     64  N   UNL A   1      45.938  29.366  29.799  1.00  0.00    -0.248 NA
ATOM     65  C   UNL A   1      46.763  30.552  27.962  1.00  0.00     0.031 C 
ATOM     66  C   UNL A   1      48.006  25.929  31.687  1.00  0.00     0.029 A 
ATOM     67  C   UNL A   1      47.402  27.027  31.098  1.00  0.00     0.049 A 
ATOM     68  H   UNL A   1      45.630  28.031  31.651  1.00  0.00     0.167 HD
ATOM     69  C   UNL A   1      47.151  28.814  29.403  1.00  0.00     0.074 A 
ATOM     70  C   UNL A   1      47.597  29.561  28.247  1.00  0.00     0.031 C 
ATOM     71  C   UNL A   1      47.837  27.782  29.952  1.00  0.00     0.031 A 
BRANCH  58  72
ATOM     72  C   UNL A   1      45.157  25.382  34.962  1.00  0.00    -0.014 A 
ATOM     73  C   UNL A   1      44.506  24.148  34.824  1.00  0.00     0.009 A 
ATOM     74  C   UNL A   1      45.923  25.625  36.114  1.00  0.00     0.009 A 
ATOM     75  C   UNL A   1      44.604  23.182  35.828  1.00  0.00     0.001 A 
ATOM     76  C   UNL A   1      46.037  24.649  37.106  1.00  0.00     0.001 A 
ATOM     77  C   UNL A   1      45.374  23.431  36.964  1.00  0.00     0.000 A 
ENDBRANCH  58  72
BRANCH  59  78
ATOM     78  C   UNL A   1      44.469  32.350  27.868  1.00  0.00    -0.014 A 
ATOM     79  C   UNL A   1      44.086  32.043  26.554  1.00  0.00     0.009 A 
ATOM     80  C   UNL A   1      44.841  33.668  28.177  1.00  0.00     0.009 A 
ATOM     81  C   UNL A   1      44.108  33.029  25.563  1.00  0.00     0.001 A 
ATOM     82  C   UNL A   1      44.832  34.657  27.191  1.00  0.00     0.001 A 
ATOM     83  C   UNL A   1      44.477  34.334  25.884  1.00  0.00     0.000 A 
ENDBRANCH  59  78
BRANCH  71  84
ATOM     84  C   UNL A   1      49.132  27.391  29.298  1.00  0.00    -0.014 A 
ATOM     85  C   UNL A   1      49.151  26.539  28.183  1.00  0.00     0.009 A 
ATOM     86  C   UNL A   1      50.343  27.912  29.777  1.00  0.00     0.009 A 
ATOM     87  C   UNL A   1      50.361  26.194  27.579  1.00  0.00     0.001 A 
ATOM     88  C   UNL A   1      51.550  27.588  29.155  1.00  0.00     0.001 A 
ATOM     89  C   UNL A   1      51.558  26.723  28.061  1.00  0.00     0.000 A 
ENDBRANCH  71  84
ENDBRANCH  45  46
ENDBRANCH  38  40
ENDBRANCH  37  38
ENDBRANCH  36  37
ENDBRANCH  35  36
ENDBRANCH  34  35
ENDBRANCH  33  34
ENDBRANCH  32  33
ENDBRANCH  31  32
ENDBRANCH  29  31
ENDBRANCH   1  29
TORSDOF 25
ENDMDL
