MODEL 1
REMARK VINA RESULT:      -9.5      0.000      0.000
REMARK SMILES Cc1cc(Cl)cc2c1O[C@H](C(F)(F)F)C(C(=O)OCCOCCOC(=O)c1ccc(-c3c4nc(c(-c5ccccc5)c5ccc([nH]5)c(-c5ccccc5)c5nc(c(-c6ccccc6)c6ccc3[nH]6)C=C5)C=C4)cc1)=C2
REMARK SMILES IDX 22 1 21 2 20 3 19 4 18 5 16 6 17 7 15 8 1 9 2 10 3 11 8 12
REMARK SMILES IDX 4 13 7 14 9 15 5 16 6 17 75 18 10 19 11 20 12 21 13 22 14 23
REMARK SMILES IDX 23 24 24 25 25 26 26 27 27 28 28 29 74 30 29 31 73 32 30 33
REMARK SMILES IDX 31 34 32 35 67 36 33 37 72 38 66 39 68 40 34 41 71 42 65 43
REMARK SMILES IDX 64 44 35 46 57 47 42 48 56 49 43 50 46 51 55 52 69 53 44 54
REMARK SMILES IDX 45 55 54 57 70 58 47 59 36 60 37 61 41 62 38 63 40 64 39 65
REMARK SMILES IDX 58 66 59 67 63 68 60 69 62 70 61 71 48 72 49 73 53 74 50 75
REMARK SMILES IDX 52 76 51 77
REMARK H PARENT 68 45 46 56
REMARK Flexibility Score: inf
ROOT
ATOM      1  C   UNL A   1      40.909  19.179  25.989  1.00  0.00     0.202 C 
ENDROOT
BRANCH   1   2
ATOM      2  O   UNL A   1      42.056  18.357  25.762  1.00  0.00    -0.374 OA
BRANCH   2   3
ATOM      3  C   UNL A   1      43.338  18.925  26.021  1.00  0.00     0.202 C 
BRANCH   3   4
ATOM      4  C   UNL A   1      44.024  19.613  24.839  1.00  0.00     0.261 C 
BRANCH   4   5
ATOM      5  O   UNL A   1      44.932  20.636  25.283  1.00  0.00    -0.460 OA
BRANCH   5   6
ATOM      6  C   UNL A   1      44.396  21.876  25.350  1.00  0.00     0.338 C 
ATOM      7  O   UNL A   1      43.406  22.279  24.756  1.00  0.00    -0.246 OA
BRANCH   6   8
ATOM      8  C   UNL A   1      45.113  22.681  26.354  1.00  0.00     0.087 C 
ATOM      9  C   UNL A   1      48.082  26.079  28.826  1.00  0.00     0.048 C 
ATOM     10  C   UNL A   1      46.823  25.312  29.120  1.00  0.00    -0.007 A 
ATOM     11  C   UNL A   1      46.106  25.619  30.289  1.00  0.00     0.027 A 
ATOM     12  C   UNL A   1      46.293  24.370  28.221  1.00  0.00     0.131 A 
ATOM     13  C   UNL A   1      44.900  24.977  30.565  1.00  0.00     0.042 A 
ATOM     14  C   UNL A   1      45.064  23.759  28.490  1.00  0.00     0.019 A 
ATOM     15  O   UNL A   1      47.027  24.095  27.100  1.00  0.00    -0.475 OA
ATOM     16  Cl  UNL A   1      44.035  25.361  32.002  1.00  0.00    -0.084 Cl
ATOM     17  C   UNL A   1      44.376  24.049  29.672  1.00  0.00     0.032 A 
ATOM     18  C   UNL A   1      44.460  22.879  27.506  1.00  0.00     0.027 C 
ATOM     19  C   UNL A   1      46.472  23.246  26.056  1.00  0.00     0.316 C 
BRANCH  19  20
ATOM     20  C   UNL A   1      46.520  24.035  24.739  1.00  0.00     0.430 C 
ATOM     21  F   UNL A   1      47.624  24.819  24.678  1.00  0.00    -0.167 F 
ATOM     22  F   UNL A   1      46.570  23.218  23.661  1.00  0.00    -0.167 F 
ATOM     23  F   UNL A   1      45.443  24.838  24.589  1.00  0.00    -0.167 F 
ENDBRANCH  19  20
ENDBRANCH   6   8
ENDBRANCH   5   6
ENDBRANCH   4   5
ENDBRANCH   3   4
ENDBRANCH   2   3
ENDBRANCH   1   2
BRANCH   1  24
ATOM     24  C   UNL A   1      41.023  20.228  27.101  1.00  0.00     0.261 C 
BRANCH  24  25
ATOM     25  O   UNL A   1      41.123  21.564  26.573  1.00  0.00    -0.460 OA
BRANCH  25  26
ATOM     26  C   UNL A   1      39.952  22.238  26.502  1.00  0.00     0.338 C 
ATOM     27  O   UNL A   1      38.872  21.814  26.110  1.00  0.00    -0.246 OA
BRANCH  26  28
ATOM     28  C   UNL A   1      40.087  23.554  27.147  1.00  0.00     0.060 A 
ATOM     29  C   UNL A   1      39.457  24.645  26.535  1.00  0.00     0.016 A 
ATOM     30  C   UNL A   1      40.890  23.736  28.275  1.00  0.00     0.016 A 
ATOM     31  C   UNL A   1      39.666  25.932  27.022  1.00  0.00     0.010 A 
ATOM     32  C   UNL A   1      41.108  25.033  28.754  1.00  0.00     0.010 A 
ATOM     33  C   UNL A   1      40.526  26.137  28.108  1.00  0.00    -0.014 A 
BRANCH  33  34
ATOM     34  C   UNL A   1      40.933  27.517  28.460  1.00  0.00     0.031 A 
ATOM     35  C   UNL A   1      42.348  27.950  28.196  1.00  0.00     0.074 A 
ATOM     36  C   UNL A   1      40.041  28.393  28.956  1.00  0.00     0.049 A 
ATOM     37  N   UNL A   1      42.914  29.109  28.416  1.00  0.00    -0.248 NA
ATOM     38  C   UNL A   1      43.244  26.945  27.598  1.00  0.00     0.031 C 
ATOM     39  C   UNL A   1      38.627  28.114  29.198  1.00  0.00     0.029 A 
ATOM     40  N   UNL A   1      40.198  29.702  29.336  1.00  0.00    -0.354 N 
ATOM     41  C   UNL A   1      44.226  28.976  27.978  1.00  0.00     0.074 A 
ATOM     42  C   UNL A   1      44.384  27.616  27.511  1.00  0.00     0.031 C 
ATOM     43  C   UNL A   1      38.041  29.223  29.680  1.00  0.00     0.029 A 
ATOM     44  C   UNL A   1      39.046  30.279  29.809  1.00  0.00     0.049 A 
ATOM     45  H   UNL A   1      41.055  30.182  29.274  1.00  0.00     0.167 HD
ATOM     46  C   UNL A   1      45.210  29.905  27.957  1.00  0.00     0.031 A 
ATOM     47  C   UNL A   1      38.829  31.513  30.302  1.00  0.00     0.031 A 
ATOM     48  C   UNL A   1      45.064  31.252  28.438  1.00  0.00     0.049 A 
ATOM     49  C   UNL A   1      39.967  32.495  30.368  1.00  0.00     0.074 A 
ATOM     50  C   UNL A   1      46.006  32.264  28.464  1.00  0.00     0.029 A 
ATOM     51  N   UNL A   1      43.900  31.771  28.984  1.00  0.00    -0.354 N 
ATOM     52  N   UNL A   1      41.201  32.358  29.949  1.00  0.00    -0.248 NA
ATOM     53  C   UNL A   1      39.680  33.804  30.976  1.00  0.00     0.031 C 
ATOM     54  C   UNL A   1      45.428  33.382  29.073  1.00  0.00     0.029 A 
ATOM     55  C   UNL A   1      44.110  33.081  29.377  1.00  0.00     0.049 A 
ATOM     56  H   UNL A   1      43.052  31.281  29.080  1.00  0.00     0.167 HD
ATOM     57  C   UNL A   1      41.832  33.565  30.223  1.00  0.00     0.074 A 
ATOM     58  C   UNL A   1      40.841  34.429  30.832  1.00  0.00     0.031 C 
ATOM     59  C   UNL A   1      43.117  33.926  29.988  1.00  0.00     0.031 A 
BRANCH  46  60
ATOM     60  C   UNL A   1      46.546  29.488  27.414  1.00  0.00    -0.014 A 
ATOM     61  C   UNL A   1      47.722  29.690  28.152  1.00  0.00     0.009 A 
ATOM     62  C   UNL A   1      46.623  28.842  26.171  1.00  0.00     0.009 A 
ATOM     63  C   UNL A   1      48.954  29.271  27.645  1.00  0.00     0.001 A 
ATOM     64  C   UNL A   1      47.853  28.402  25.677  1.00  0.00     0.001 A 
ATOM     65  C   UNL A   1      49.017  28.623  26.412  1.00  0.00     0.000 A 
ENDBRANCH  46  60
BRANCH  47  66
ATOM     66  C   UNL A   1      37.475  31.891  30.781  1.00  0.00    -0.014 A 
ATOM     67  C   UNL A   1      37.103  31.670  32.115  1.00  0.00     0.009 A 
ATOM     68  C   UNL A   1      36.546  32.477  29.905  1.00  0.00     0.009 A 
ATOM     69  C   UNL A   1      35.825  32.015  32.560  1.00  0.00     0.001 A 
ATOM     70  C   UNL A   1      35.278  32.843  30.358  1.00  0.00     0.001 A 
ATOM     71  C   UNL A   1      34.916  32.608  31.684  1.00  0.00     0.000 A 
ENDBRANCH  47  66
BRANCH  59  72
ATOM     72  C   UNL A   1      43.531  35.318  30.373  1.00  0.00    -0.014 A 
ATOM     73  C   UNL A   1      43.431  36.382  29.464  1.00  0.00     0.009 A 
ATOM     74  C   UNL A   1      43.955  35.581  31.685  1.00  0.00     0.009 A 
ATOM     75  C   UNL A   1      43.765  37.679  29.856  1.00  0.00     0.001 A 
ATOM     76  C   UNL A   1      44.264  36.882  32.082  1.00  0.00     0.001 A 
ATOM     77  C   UNL A   1      44.174  37.929  31.166  1.00  0.00     0.000 A 
ENDBRANCH  59  72
ENDBRANCH  33  34
ENDBRANCH  26  28
ENDBRANCH  25  26
ENDBRANCH  24  25
ENDBRANCH   1  24
TORSDOF 15
ENDMDL
MODEL 2
REMARK VINA RESULT:      -9.5      6.916     11.872
REMARK SMILES Cc1cc(Cl)cc2c1O[C@H](C(F)(F)F)C(C(=O)OCCOCCOC(=O)c1ccc(-c3c4nc(c(-c5ccccc5)c5ccc([nH]5)c(-c5ccccc5)c5nc(c(-c6ccccc6)c6ccc3[nH]6)C=C5)C=C4)cc1)=C2
REMARK SMILES IDX 22 1 21 2 20 3 19 4 18 5 16 6 17 7 15 8 1 9 2 10 3 11 8 12
REMARK SMILES IDX 4 13 7 14 9 15 5 16 6 17 75 18 10 19 11 20 12 21 13 22 14 23
REMARK SMILES IDX 23 24 24 25 25 26 26 27 27 28 28 29 74 30 29 31 73 32 30 33
REMARK SMILES IDX 31 34 32 35 67 36 33 37 72 38 66 39 68 40 34 41 71 42 65 43
REMARK SMILES IDX 64 44 35 46 57 47 42 48 56 49 43 50 46 51 55 52 69 53 44 54
REMARK SMILES IDX 45 55 54 57 70 58 47 59 36 60 37 61 41 62 38 63 40 64 39 65
REMARK SMILES IDX 58 66 59 67 63 68 60 69 62 70 61 71 48 72 49 73 53 74 50 75
REMARK SMILES IDX 52 76 51 77
REMARK H PARENT 68 45 46 56
REMARK Flexibility Score: inf
ROOT
ATOM      1  C   UNL A   1      33.556  31.397  27.714  1.00  0.00     0.202 C 
ENDROOT
BRANCH   1   2
ATOM      2  O   UNL A   1      33.243  30.208  26.985  1.00  0.00    -0.374 OA
BRANCH   2   3
ATOM      3  C   UNL A   1      34.323  29.349  26.626  1.00  0.00     0.202 C 
BRANCH   3   4
ATOM      4  C   UNL A   1      33.941  28.021  25.968  1.00  0.00     0.261 C 
BRANCH   4   5
ATOM      5  O   UNL A   1      33.687  28.186  24.563  1.00  0.00    -0.460 OA
BRANCH   5   6
ATOM      6  C   UNL A   1      33.109  27.120  23.965  1.00  0.00     0.338 C 
ATOM      7  O   UNL A   1      33.609  26.018  23.789  1.00  0.00    -0.246 OA
BRANCH   6   8
ATOM      8  C   UNL A   1      31.704  27.424  23.641  1.00  0.00     0.087 C 
ATOM      9  C   UNL A   1      26.591  27.991  23.666  1.00  0.00     0.048 C 
ATOM     10  C   UNL A   1      27.762  28.667  23.008  1.00  0.00    -0.007 A 
ATOM     11  C   UNL A   1      27.538  29.858  22.296  1.00  0.00     0.027 A 
ATOM     12  C   UNL A   1      29.078  28.199  23.160  1.00  0.00     0.131 A 
ATOM     13  C   UNL A   1      28.604  30.550  21.726  1.00  0.00     0.042 A 
ATOM     14  C   UNL A   1      30.145  28.920  22.615  1.00  0.00     0.019 A 
ATOM     15  O   UNL A   1      29.250  27.032  23.852  1.00  0.00    -0.475 OA
ATOM     16  Cl  UNL A   1      28.315  32.005  20.855  1.00  0.00    -0.084 Cl
ATOM     17  C   UNL A   1      29.906  30.087  21.881  1.00  0.00     0.032 A 
ATOM     18  C   UNL A   1      31.511  28.504  22.874  1.00  0.00     0.027 C 
ATOM     19  C   UNL A   1      30.591  26.568  24.176  1.00  0.00     0.316 C 
BRANCH  19  20
ATOM     20  C   UNL A   1      30.662  26.372  25.697  1.00  0.00     0.430 C 
ATOM     21  F   UNL A   1      29.504  25.858  26.179  1.00  0.00    -0.167 F 
ATOM     22  F   UNL A   1      31.642  25.508  26.052  1.00  0.00    -0.167 F 
ATOM     23  F   UNL A   1      30.892  27.535  26.348  1.00  0.00    -0.167 F 
ENDBRANCH  19  20
ENDBRANCH   6   8
ENDBRANCH   5   6
ENDBRANCH   4   5
ENDBRANCH   3   4
ENDBRANCH   2   3
ENDBRANCH   1   2
BRANCH   1  24
ATOM     24  C   UNL A   1      32.622  32.595  27.508  1.00  0.00     0.261 C 
BRANCH  24  25
ATOM     25  O   UNL A   1      33.324  33.849  27.609  1.00  0.00    -0.460 OA
BRANCH  25  26
ATOM     26  C   UNL A   1      33.434  34.340  28.865  1.00  0.00     0.338 C 
ATOM     27  O   UNL A   1      32.572  34.919  29.515  1.00  0.00    -0.246 OA
BRANCH  26  28
ATOM     28  C   UNL A   1      34.715  33.927  29.459  1.00  0.00     0.060 A 
ATOM     29  C   UNL A   1      35.884  34.205  28.739  1.00  0.00     0.016 A 
ATOM     30  C   UNL A   1      34.768  33.199  30.649  1.00  0.00     0.016 A 
ATOM     31  C   UNL A   1      37.109  33.715  29.184  1.00  0.00     0.010 A 
ATOM     32  C   UNL A   1      35.998  32.696  31.087  1.00  0.00     0.010 A 
ATOM     33  C   UNL A   1      37.166  32.922  30.338  1.00  0.00    -0.014 A 
BRANCH  33  34
ATOM     34  C   UNL A   1      38.422  32.207  30.663  1.00  0.00     0.031 A 
ATOM     35  C   UNL A   1      39.339  32.783  31.707  1.00  0.00     0.074 A 
ATOM     36  C   UNL A   1      38.717  31.032  30.080  1.00  0.00     0.049 A 
ATOM     37  N   UNL A   1      40.479  32.321  32.152  1.00  0.00    -0.248 NA
ATOM     38  C   UNL A   1      38.911  34.044  32.336  1.00  0.00     0.031 C 
ATOM     39  C   UNL A   1      37.880  30.340  29.102  1.00  0.00     0.029 A 
ATOM     40  N   UNL A   1      39.803  30.210  30.239  1.00  0.00    -0.354 N 
ATOM     41  C   UNL A   1      40.900  33.228  33.118  1.00  0.00     0.074 A 
ATOM     42  C   UNL A   1      39.913  34.284  33.170  1.00  0.00     0.031 C 
ATOM     43  C   UNL A   1      38.482  29.191  28.751  1.00  0.00     0.029 A 
ATOM     44  C   UNL A   1      39.758  29.083  29.456  1.00  0.00     0.049 A 
ATOM     45  H   UNL A   1      40.545  30.409  30.856  1.00  0.00     0.167 HD
ATOM     46  C   UNL A   1      42.005  33.181  33.897  1.00  0.00     0.031 A 
ATOM     47  C   UNL A   1      40.651  28.084  29.317  1.00  0.00     0.031 A 
ATOM     48  C   UNL A   1      42.999  32.144  33.835  1.00  0.00     0.049 A 
ATOM     49  C   UNL A   1      41.925  28.111  30.117  1.00  0.00     0.074 A 
ATOM     50  C   UNL A   1      44.156  32.014  34.582  1.00  0.00     0.029 A 
ATOM     51  N   UNL A   1      42.954  31.062  32.971  1.00  0.00    -0.354 N 
ATOM     52  N   UNL A   1      42.310  28.972  31.027  1.00  0.00    -0.248 NA
ATOM     53  C   UNL A   1      42.887  27.025  29.870  1.00  0.00     0.031 C 
ATOM     54  C   UNL A   1      44.839  30.880  34.134  1.00  0.00     0.029 A 
ATOM     55  C   UNL A   1      44.079  30.274  33.145  1.00  0.00     0.049 A 
ATOM     56  H   UNL A   1      42.231  30.880  32.328  1.00  0.00     0.167 HD
ATOM     57  C   UNL A   1      43.547  28.523  31.476  1.00  0.00     0.074 A 
ATOM     58  C   UNL A   1      43.841  27.306  30.748  1.00  0.00     0.031 C 
ATOM     59  C   UNL A   1      44.362  29.070  32.409  1.00  0.00     0.031 A 
BRANCH  46  60
ATOM     60  C   UNL A   1      42.211  34.302  34.876  1.00  0.00    -0.014 A 
ATOM     61  C   UNL A   1      41.733  34.209  36.192  1.00  0.00     0.009 A 
ATOM     62  C   UNL A   1      42.934  35.441  34.491  1.00  0.00     0.009 A 
ATOM     63  C   UNL A   1      41.956  35.247  37.098  1.00  0.00     0.001 A 
ATOM     64  C   UNL A   1      43.177  36.467  35.406  1.00  0.00     0.001 A 
ATOM     65  C   UNL A   1      42.683  36.372  36.706  1.00  0.00     0.000 A 
ENDBRANCH  46  60
BRANCH  47  66
ATOM     66  C   UNL A   1      40.375  26.973  28.370  1.00  0.00    -0.014 A 
ATOM     67  C   UNL A   1      40.872  27.013  27.059  1.00  0.00     0.009 A 
ATOM     68  C   UNL A   1      39.613  25.864  28.775  1.00  0.00     0.009 A 
ATOM     69  C   UNL A   1      40.601  25.971  26.168  1.00  0.00     0.001 A 
ATOM     70  C   UNL A   1      39.365  24.814  27.889  1.00  0.00     0.001 A 
ATOM     71  C   UNL A   1      39.854  24.871  26.586  1.00  0.00     0.000 A 
ENDBRANCH  47  66
BRANCH  59  72
ATOM     72  C   UNL A   1      45.648  28.356  32.715  1.00  0.00    -0.014 A 
ATOM     73  C   UNL A   1      46.837  28.688  32.048  1.00  0.00     0.009 A 
ATOM     74  C   UNL A   1      45.686  27.394  33.737  1.00  0.00     0.009 A 
ATOM     75  C   UNL A   1      48.035  28.056  32.386  1.00  0.00     0.001 A 
ATOM     76  C   UNL A   1      46.889  26.783  34.090  1.00  0.00     0.001 A 
ATOM     77  C   UNL A   1      48.062  27.110  33.410  1.00  0.00     0.000 A 
ENDBRANCH  59  72
ENDBRANCH  33  34
ENDBRANCH  26  28
ENDBRANCH  25  26
ENDBRANCH  24  25
ENDBRANCH   1  24
TORSDOF 15
ENDMDL
MODEL 3
REMARK VINA RESULT:      -9.5      6.034      9.693
REMARK SMILES Cc1cc(Cl)cc2c1O[C@H](C(F)(F)F)C(C(=O)OCCOCCOC(=O)c1ccc(-c3c4nc(c(-c5ccccc5)c5ccc([nH]5)c(-c5ccccc5)c5nc(c(-c6ccccc6)c6ccc3[nH]6)C=C5)C=C4)cc1)=C2
REMARK SMILES IDX 22 1 21 2 20 3 19 4 18 5 16 6 17 7 15 8 1 9 2 10 3 11 8 12
REMARK SMILES IDX 4 13 7 14 9 15 5 16 6 17 75 18 10 19 11 20 12 21 13 22 14 23
REMARK SMILES IDX 23 24 24 25 25 26 26 27 27 28 28 29 74 30 29 31 73 32 30 33
REMARK SMILES IDX 31 34 32 35 67 36 33 37 72 38 66 39 68 40 34 41 71 42 65 43
REMARK SMILES IDX 64 44 35 46 57 47 42 48 56 49 43 50 46 51 55 52 69 53 44 54
REMARK SMILES IDX 45 55 54 57 70 58 47 59 36 60 37 61 41 62 38 63 40 64 39 65
REMARK SMILES IDX 58 66 59 67 63 68 60 69 62 70 61 71 48 72 49 73 53 74 50 75
REMARK SMILES IDX 52 76 51 77
REMARK H PARENT 68 45 46 56
REMARK Flexibility Score: inf
ROOT
ATOM      1  C   UNL A   1      31.795  28.996  25.292  1.00  0.00     0.202 C 
ENDROOT
BRANCH   1   2
ATOM      2  O   UNL A   1      31.787  28.750  23.885  1.00  0.00    -0.374 OA
BRANCH   2   3
ATOM      3  C   UNL A   1      30.732  27.947  23.360  1.00  0.00     0.202 C 
BRANCH   3   4
ATOM      4  C   UNL A   1      31.048  27.166  22.082  1.00  0.00     0.261 C 
BRANCH   4   5
ATOM      5  O   UNL A   1      31.449  25.817  22.377  1.00  0.00    -0.460 OA
BRANCH   5   6
ATOM      6  C   UNL A   1      32.640  25.455  21.850  1.00  0.00     0.338 C 
ATOM      7  O   UNL A   1      33.224  25.993  20.919  1.00  0.00    -0.246 OA
BRANCH   6   8
ATOM      8  C   UNL A   1      33.228  24.359  22.639  1.00  0.00     0.087 C 
ATOM      9  C   UNL A   1      35.448  21.454  26.259  1.00  0.00     0.048 C 
ATOM     10  C   UNL A   1      34.485  21.239  25.124  1.00  0.00    -0.007 A 
ATOM     11  C   UNL A   1      33.857  19.988  25.003  1.00  0.00     0.027 A 
ATOM     12  C   UNL A   1      34.125  22.272  24.243  1.00  0.00     0.131 A 
ATOM     13  C   UNL A   1      32.911  19.767  24.005  1.00  0.00     0.042 A 
ATOM     14  C   UNL A   1      33.147  22.052  23.267  1.00  0.00     0.019 A 
ATOM     15  O   UNL A   1      34.767  23.471  24.389  1.00  0.00    -0.475 OA
ATOM     16  Cl  UNL A   1      32.152  18.229  23.867  1.00  0.00    -0.084 Cl
ATOM     17  C   UNL A   1      32.553  20.792  23.136  1.00  0.00     0.032 A 
ATOM     18  C   UNL A   1      32.689  23.150  22.436  1.00  0.00     0.027 C 
ATOM     19  C   UNL A   1      34.340  24.626  23.613  1.00  0.00     0.316 C 
BRANCH  19  20
ATOM     20  C   UNL A   1      34.016  25.758  24.599  1.00  0.00     0.430 C 
ATOM     21  F   UNL A   1      32.725  25.693  25.011  1.00  0.00    -0.167 F 
ATOM     22  F   UNL A   1      34.777  25.691  25.716  1.00  0.00    -0.167 F 
ATOM     23  F   UNL A   1      34.206  26.978  24.051  1.00  0.00    -0.167 F 
ENDBRANCH  19  20
ENDBRANCH   6   8
ENDBRANCH   5   6
ENDBRANCH   4   5
ENDBRANCH   3   4
ENDBRANCH   2   3
ENDBRANCH   1   2
BRANCH   1  24
ATOM     24  C   UNL A   1      31.779  30.465  25.734  1.00  0.00     0.261 C 
BRANCH  24  25
ATOM     25  O   UNL A   1      32.265  30.627  27.080  1.00  0.00    -0.460 OA
BRANCH  25  26
ATOM     26  C   UNL A   1      33.031  31.724  27.280  1.00  0.00     0.338 C 
ATOM     27  O   UNL A   1      32.678  32.897  27.237  1.00  0.00    -0.246 OA
BRANCH  26  28
ATOM     28  C   UNL A   1      34.367  31.328  27.753  1.00  0.00     0.060 A 
ATOM     29  C   UNL A   1      34.582  29.970  28.027  1.00  0.00     0.016 A 
ATOM     30  C   UNL A   1      35.361  32.273  28.013  1.00  0.00     0.016 A 
ATOM     31  C   UNL A   1      35.778  29.559  28.608  1.00  0.00     0.010 A 
ATOM     32  C   UNL A   1      36.557  31.858  28.608  1.00  0.00     0.010 A 
ATOM     33  C   UNL A   1      36.755  30.506  28.940  1.00  0.00    -0.014 A 
BRANCH  33  34
ATOM     34  C   UNL A   1      37.908  30.095  29.774  1.00  0.00     0.031 A 
ATOM     35  C   UNL A   1      38.955  29.195  29.176  1.00  0.00     0.074 A 
ATOM     36  C   UNL A   1      38.053  30.560  31.027  1.00  0.00     0.049 A 
ATOM     37  N   UNL A   1      40.047  28.721  29.720  1.00  0.00    -0.248 NA
ATOM     38  C   UNL A   1      38.746  28.779  27.779  1.00  0.00     0.031 C 
ATOM     39  C   UNL A   1      37.142  31.486  31.696  1.00  0.00     0.029 A 
ATOM     40  N   UNL A   1      39.034  30.319  31.956  1.00  0.00    -0.354 N 
ATOM     41  C   UNL A   1      40.659  27.960  28.732  1.00  0.00     0.074 A 
ATOM     42  C   UNL A   1      39.801  28.006  27.567  1.00  0.00     0.031 C 
ATOM     43  C   UNL A   1      37.611  31.742  32.930  1.00  0.00     0.029 A 
ATOM     44  C   UNL A   1      38.837  30.974  33.146  1.00  0.00     0.049 A 
ATOM     45  H   UNL A   1      39.807  29.733  31.785  1.00  0.00     0.167 HD
ATOM     46  C   UNL A   1      41.833  27.290  28.785  1.00  0.00     0.031 A 
ATOM     47  C   UNL A   1      39.557  30.947  34.284  1.00  0.00     0.031 A 
ATOM     48  C   UNL A   1      42.678  27.226  29.947  1.00  0.00     0.049 A 
ATOM     49  C   UNL A   1      40.803  30.107  34.353  1.00  0.00     0.074 A 
ATOM     50  C   UNL A   1      43.885  26.567  30.098  1.00  0.00     0.029 A 
ATOM     51  N   UNL A   1      42.400  27.839  31.158  1.00  0.00    -0.354 N 
ATOM     52  N   UNL A   1      41.372  29.395  33.412  1.00  0.00    -0.248 NA
ATOM     53  C   UNL A   1      41.507  30.071  35.645  1.00  0.00     0.031 C 
ATOM     54  C   UNL A   1      44.313  26.738  31.418  1.00  0.00     0.029 A 
ATOM     55  C   UNL A   1      43.398  27.549  32.071  1.00  0.00     0.049 A 
ATOM     56  H   UNL A   1      41.610  28.396  31.342  1.00  0.00     0.167 HD
ATOM     57  C   UNL A   1      42.509  28.841  33.989  1.00  0.00     0.074 A 
ATOM     58  C   UNL A   1      42.557  29.312  35.358  1.00  0.00     0.031 C 
ATOM     59  C   UNL A   1      43.430  28.019  33.432  1.00  0.00     0.031 A 
BRANCH  46  60
ATOM     60  C   UNL A   1      42.265  26.550  27.552  1.00  0.00    -0.014 A 
ATOM     61  C   UNL A   1      43.139  27.138  26.625  1.00  0.00     0.009 A 
ATOM     62  C   UNL A   1      41.834  25.231  27.341  1.00  0.00     0.009 A 
ATOM     63  C   UNL A   1      43.555  26.426  25.497  1.00  0.00     0.001 A 
ATOM     64  C   UNL A   1      42.269  24.514  26.226  1.00  0.00     0.001 A 
ATOM     65  C   UNL A   1      43.124  25.114  25.303  1.00  0.00     0.000 A 
ENDBRANCH  46  60
BRANCH  47  66
ATOM     66  C   UNL A   1      39.110  31.738  35.460  1.00  0.00    -0.014 A 
ATOM     67  C   UNL A   1      38.200  31.197  36.379  1.00  0.00     0.009 A 
ATOM     68  C   UNL A   1      39.595  33.040  35.669  1.00  0.00     0.009 A 
ATOM     69  C   UNL A   1      37.774  31.948  37.477  1.00  0.00     0.001 A 
ATOM     70  C   UNL A   1      39.186  33.779  36.780  1.00  0.00     0.001 A 
ATOM     71  C   UNL A   1      38.272  33.235  37.681  1.00  0.00     0.000 A 
ENDBRANCH  47  66
BRANCH  59  72
ATOM     72  C   UNL A   1      44.583  27.581  34.290  1.00  0.00    -0.014 A 
ATOM     73  C   UNL A   1      45.747  28.359  34.391  1.00  0.00     0.009 A 
ATOM     74  C   UNL A   1      44.472  26.417  35.066  1.00  0.00     0.009 A 
ATOM     75  C   UNL A   1      46.784  27.967  35.239  1.00  0.00     0.001 A 
ATOM     76  C   UNL A   1      45.500  26.041  35.930  1.00  0.00     0.001 A 
ATOM     77  C   UNL A   1      46.658  26.814  36.013  1.00  0.00     0.000 A 
ENDBRANCH  59  72
ENDBRANCH  33  34
ENDBRANCH  26  28
ENDBRANCH  25  26
ENDBRANCH  24  25
ENDBRANCH   1  24
TORSDOF 15
ENDMDL
