MODEL 1
REMARK VINA RESULT:      -9.0      0.000      0.000
REMARK SMILES CCC[NH2+][C@H]1C[C@@H](C(=O)OCCOCCOC(=O)c2ccc(-c3c4nc(c(-c5ccccc5)c5ccc([nH]5)c(-c5ccccc5)c5nc(c(-c6ccccc6)c6ccc3[nH]6)C=C5)C=C4)cc2)C1
REMARK SMILES IDX 12 1 11 2 10 3 8 4 9 5 7 6 5 7 67 8 6 9 4 10 3 13 2 14 1 15
REMARK SMILES IDX 13 16 14 17 15 18 16 19 17 20 18 21 19 22 20 23 66 24 21 25
REMARK SMILES IDX 65 26 22 27 23 28 24 29 59 30 25 31 64 32 58 33 60 34 26 35
REMARK SMILES IDX 63 36 57 37 56 38 27 40 49 41 34 42 48 43 35 44 38 45 47 46
REMARK SMILES IDX 61 47 36 48 37 49 46 51 62 52 39 53 28 54 29 55 33 56 30 57
REMARK SMILES IDX 32 58 31 59 50 60 51 61 55 62 52 63 54 64 53 65 40 66 41 67
REMARK SMILES IDX 45 68 42 69 44 70 43 71
REMARK H PARENT 4 11 4 12 60 39 38 50
REMARK Flexibility Score: inf
ROOT
ATOM      1  C   UNL A   1      33.995  23.112  24.070  1.00  0.00     0.202 C 
ENDROOT
BRANCH   1   2
ATOM      2  C   UNL A   1      33.565  23.790  22.767  1.00  0.00     0.261 C 
BRANCH   2   3
ATOM      3  O   UNL A   1      33.946  25.174  22.776  1.00  0.00    -0.463 OA
BRANCH   3   4
ATOM      4  C   UNL A   1      33.246  25.990  21.935  1.00  0.00     0.309 C 
ATOM      5  O   UNL A   1      33.209  25.834  20.713  1.00  0.00    -0.252 OA
BRANCH   4   6
ATOM      6  C   UNL A   1      32.447  27.075  22.671  1.00  0.00     0.111 C 
ATOM      7  C   UNL A   1      31.260  28.832  22.733  1.00  0.00     0.184 C 
ATOM      8  C   UNL A   1      31.055  27.440  22.092  1.00  0.00     0.080 C 
ATOM      9  C   UNL A   1      32.775  28.593  22.537  1.00  0.00     0.080 C 
BRANCH   7  10
ATOM     10  N   UNL A   1      30.796  29.860  21.806  1.00  0.00    -0.344 N 
ATOM     11  H   UNL A   1      31.341  30.712  21.939  1.00  0.00     0.346 HD
ATOM     12  H   UNL A   1      30.911  29.534  20.845  1.00  0.00     0.346 HD
BRANCH  10  13
ATOM     13  C   UNL A   1      29.379  30.139  22.066  1.00  0.00     0.260 C 
BRANCH  13  14
ATOM     14  C   UNL A   1      29.153  30.737  23.457  1.00  0.00     0.058 C 
ATOM     15  C   UNL A   1      27.910  31.613  23.547  1.00  0.00     0.010 C 
ENDBRANCH  13  14
ENDBRANCH  10  13
ENDBRANCH   7  10
ENDBRANCH   4   6
ENDBRANCH   3   4
ENDBRANCH   2   3
ENDBRANCH   1   2
BRANCH   1  16
ATOM     16  O   UNL A   1      35.085  22.194  23.963  1.00  0.00    -0.374 OA
BRANCH  16  17
ATOM     17  C   UNL A   1      35.753  21.823  25.171  1.00  0.00     0.202 C 
BRANCH  17  18
ATOM     18  C   UNL A   1      36.261  22.974  26.048  1.00  0.00     0.261 C 
BRANCH  18  19
ATOM     19  O   UNL A   1      37.449  23.583  25.511  1.00  0.00    -0.460 OA
BRANCH  19  20
ATOM     20  C   UNL A   1      38.608  23.163  26.070  1.00  0.00     0.338 C 
ATOM     21  O   UNL A   1      39.143  22.071  25.937  1.00  0.00    -0.246 OA
BRANCH  20  22
ATOM     22  C   UNL A   1      39.275  24.280  26.761  1.00  0.00     0.060 A 
ATOM     23  C   UNL A   1      38.993  24.459  28.122  1.00  0.00     0.016 A 
ATOM     24  C   UNL A   1      40.092  25.186  26.082  1.00  0.00     0.016 A 
ATOM     25  C   UNL A   1      39.483  25.575  28.797  1.00  0.00     0.010 A 
ATOM     26  C   UNL A   1      40.576  26.311  26.758  1.00  0.00     0.010 A 
ATOM     27  C   UNL A   1      40.244  26.528  28.108  1.00  0.00    -0.014 A 
BRANCH  27  28
ATOM     28  C   UNL A   1      40.568  27.816  28.766  1.00  0.00     0.031 A 
ATOM     29  C   UNL A   1      41.942  28.020  29.341  1.00  0.00     0.074 A 
ATOM     30  C   UNL A   1      39.660  28.804  28.828  1.00  0.00     0.049 A 
ATOM     31  N   UNL A   1      42.436  29.063  29.961  1.00  0.00    -0.248 NA
ATOM     32  C   UNL A   1      42.886  26.899  29.200  1.00  0.00     0.031 C 
ATOM     33  C   UNL A   1      38.306  28.746  28.279  1.00  0.00     0.029 A 
ATOM     34  N   UNL A   1      39.745  30.054  29.389  1.00  0.00    -0.354 N 
ATOM     35  C   UNL A   1      43.742  28.722  30.288  1.00  0.00     0.074 A 
ATOM     36  C   UNL A   1      43.957  27.368  29.824  1.00  0.00     0.031 C 
ATOM     37  C   UNL A   1      37.684  29.909  28.536  1.00  0.00     0.029 A 
ATOM     38  C   UNL A   1      38.584  30.779  29.291  1.00  0.00     0.049 A 
ATOM     39  H   UNL A   1      40.560  30.398  29.821  1.00  0.00     0.167 HD
ATOM     40  C   UNL A   1      44.681  29.469  30.915  1.00  0.00     0.031 A 
ATOM     41  C   UNL A   1      38.276  31.999  29.770  1.00  0.00     0.031 A 
ATOM     42  C   UNL A   1      44.468  30.808  31.392  1.00  0.00     0.049 A 
ATOM     43  C   UNL A   1      39.314  32.785  30.524  1.00  0.00     0.074 A 
ATOM     44  C   UNL A   1      45.367  31.656  32.017  1.00  0.00     0.029 A 
ATOM     45  N   UNL A   1      43.266  31.493  31.306  1.00  0.00    -0.354 N 
ATOM     46  N   UNL A   1      40.556  32.466  30.795  1.00  0.00    -0.248 NA
ATOM     47  C   UNL A   1      38.906  34.103  31.031  1.00  0.00     0.031 C 
ATOM     48  C   UNL A   1      44.693  32.834  32.357  1.00  0.00     0.029 A 
ATOM     49  C   UNL A   1      43.390  32.740  31.896  1.00  0.00     0.049 A 
ATOM     50  H   UNL A   1      42.446  31.144  30.889  1.00  0.00     0.167 HD
ATOM     51  C   UNL A   1      41.084  33.550  31.484  1.00  0.00     0.074 A 
ATOM     52  C   UNL A   1      40.032  34.541  31.578  1.00  0.00     0.031 C 
ATOM     53  C   UNL A   1      42.332  33.713  31.990  1.00  0.00     0.031 A 
BRANCH  40  54
ATOM     54  C   UNL A   1      46.018  28.828  31.156  1.00  0.00    -0.014 A 
ATOM     55  C   UNL A   1      46.264  28.061  32.306  1.00  0.00     0.009 A 
ATOM     56  C   UNL A   1      47.044  28.983  30.210  1.00  0.00     0.009 A 
ATOM     57  C   UNL A   1      47.522  27.492  32.521  1.00  0.00     0.001 A 
ATOM     58  C   UNL A   1      48.292  28.393  30.415  1.00  0.00     0.001 A 
ATOM     59  C   UNL A   1      48.532  27.657  31.574  1.00  0.00     0.000 A 
ENDBRANCH  40  54
BRANCH  41  60
ATOM     60  C   UNL A   1      36.911  32.548  29.564  1.00  0.00    -0.014 A 
ATOM     61  C   UNL A   1      36.610  33.312  28.427  1.00  0.00     0.009 A 
ATOM     62  C   UNL A   1      35.902  32.307  30.509  1.00  0.00     0.009 A 
ATOM     63  C   UNL A   1      35.327  33.836  28.248  1.00  0.00     0.001 A 
ATOM     64  C   UNL A   1      34.615  32.811  30.315  1.00  0.00     0.001 A 
ATOM     65  C   UNL A   1      34.330  33.581  29.189  1.00  0.00     0.000 A 
ENDBRANCH  41  60
BRANCH  53  66
ATOM     66  C   UNL A   1      42.635  35.018  32.669  1.00  0.00    -0.014 A 
ATOM     67  C   UNL A   1      43.326  36.042  32.004  1.00  0.00     0.009 A 
ATOM     68  C   UNL A   1      42.183  35.241  33.979  1.00  0.00     0.009 A 
ATOM     69  C   UNL A   1      43.583  37.254  32.649  1.00  0.00     0.001 A 
ATOM     70  C   UNL A   1      42.419  36.462  34.612  1.00  0.00     0.001 A 
ATOM     71  C   UNL A   1      43.127  37.464  33.950  1.00  0.00     0.000 A 
ENDBRANCH  53  66
ENDBRANCH  27  28
ENDBRANCH  20  22
ENDBRANCH  19  20
ENDBRANCH  18  19
ENDBRANCH  17  18
ENDBRANCH  16  17
ENDBRANCH   1  16
TORSDOF 17
ENDMDL
MODEL 2
REMARK VINA RESULT:      -8.8      3.048      8.285
REMARK SMILES CCC[NH2+][C@H]1C[C@@H](C(=O)OCCOCCOC(=O)c2ccc(-c3c4nc(c(-c5ccccc5)c5ccc([nH]5)c(-c5ccccc5)c5nc(c(-c6ccccc6)c6ccc3[nH]6)C=C5)C=C4)cc2)C1
REMARK SMILES IDX 12 1 11 2 10 3 8 4 9 5 7 6 5 7 67 8 6 9 4 10 3 13 2 14 1 15
REMARK SMILES IDX 13 16 14 17 15 18 16 19 17 20 18 21 19 22 20 23 66 24 21 25
REMARK SMILES IDX 65 26 22 27 23 28 24 29 59 30 25 31 64 32 58 33 60 34 26 35
REMARK SMILES IDX 63 36 57 37 56 38 27 40 49 41 34 42 48 43 35 44 38 45 47 46
REMARK SMILES IDX 61 47 36 48 37 49 46 51 62 52 39 53 28 54 29 55 33 56 30 57
REMARK SMILES IDX 32 58 31 59 50 60 51 61 55 62 52 63 54 64 53 65 40 66 41 67
REMARK SMILES IDX 45 68 42 69 44 70 43 71
REMARK H PARENT 4 11 4 12 60 39 38 50
REMARK Flexibility Score: inf
ROOT
ATOM      1  C   UNL A   1      31.677  27.663  25.441  1.00  0.00     0.202 C 
ENDROOT
BRANCH   1   2
ATOM      2  C   UNL A   1      31.466  26.591  26.513  1.00  0.00     0.261 C 
BRANCH   2   3
ATOM      3  O   UNL A   1      31.231  25.313  25.901  1.00  0.00    -0.463 OA
BRANCH   3   4
ATOM      4  C   UNL A   1      31.889  24.255  26.459  1.00  0.00     0.309 C 
ATOM      5  O   UNL A   1      31.483  23.653  27.454  1.00  0.00    -0.252 OA
BRANCH   4   6
ATOM      6  C   UNL A   1      33.143  23.841  25.676  1.00  0.00     0.111 C 
ATOM      7  C   UNL A   1      35.192  23.314  25.532  1.00  0.00     0.184 C 
ATOM      8  C   UNL A   1      33.985  22.676  26.258  1.00  0.00     0.080 C 
ATOM      9  C   UNL A   1      34.465  24.667  25.714  1.00  0.00     0.080 C 
BRANCH   7  10
ATOM     10  N   UNL A   1      36.361  23.258  26.407  1.00  0.00    -0.344 N 
ATOM     11  H   UNL A   1      36.458  24.143  26.904  1.00  0.00     0.346 HD
ATOM     12  H   UNL A   1      36.248  22.503  27.084  1.00  0.00     0.346 HD
BRANCH  10  13
ATOM     13  C   UNL A   1      37.558  23.017  25.595  1.00  0.00     0.260 C 
BRANCH  13  14
ATOM     14  C   UNL A   1      37.318  21.967  24.507  1.00  0.00     0.058 C 
ATOM     15  C   UNL A   1      37.085  20.565  25.057  1.00  0.00     0.010 C 
ENDBRANCH  13  14
ENDBRANCH  10  13
ENDBRANCH   7  10
ENDBRANCH   4   6
ENDBRANCH   3   4
ENDBRANCH   2   3
ENDBRANCH   1   2
BRANCH   1  16
ATOM     16  O   UNL A   1      32.935  28.339  25.477  1.00  0.00    -0.374 OA
BRANCH  16  17
ATOM     17  C   UNL A   1      32.931  29.716  25.859  1.00  0.00     0.202 C 
BRANCH  17  18
ATOM     18  C   UNL A   1      33.400  30.027  27.286  1.00  0.00     0.261 C 
BRANCH  18  19
ATOM     19  O   UNL A   1      34.176  31.237  27.351  1.00  0.00    -0.460 OA
BRANCH  19  20
ATOM     20  C   UNL A   1      34.820  31.438  28.525  1.00  0.00     0.338 C 
ATOM     21  O   UNL A   1      34.424  32.079  29.489  1.00  0.00    -0.246 OA
BRANCH  20  22
ATOM     22  C   UNL A   1      36.044  30.619  28.582  1.00  0.00     0.060 A 
ATOM     23  C   UNL A   1      36.376  30.038  29.813  1.00  0.00     0.016 A 
ATOM     24  C   UNL A   1      36.895  30.488  27.483  1.00  0.00     0.016 A 
ATOM     25  C   UNL A   1      37.588  29.368  29.965  1.00  0.00     0.010 A 
ATOM     26  C   UNL A   1      38.117  29.823  27.640  1.00  0.00     0.010 A 
ATOM     27  C   UNL A   1      38.483  29.292  28.890  1.00  0.00    -0.014 A 
BRANCH  27  28
ATOM     28  C   UNL A   1      39.855  28.783  29.121  1.00  0.00     0.031 A 
ATOM     29  C   UNL A   1      40.867  29.678  29.783  1.00  0.00     0.074 A 
ATOM     30  C   UNL A   1      40.193  27.530  28.773  1.00  0.00     0.049 A 
ATOM     31  N   UNL A   1      42.120  29.437  30.078  1.00  0.00    -0.248 NA
ATOM     32  C   UNL A   1      40.404  31.022  30.164  1.00  0.00     0.031 C 
ATOM     33  C   UNL A   1      39.296  26.552  28.157  1.00  0.00     0.029 A 
ATOM     34  N   UNL A   1      41.390  26.869  28.887  1.00  0.00    -0.354 N 
ATOM     35  C   UNL A   1      42.596  30.600  30.671  1.00  0.00     0.074 A 
ATOM     36  C   UNL A   1      41.508  31.553  30.670  1.00  0.00     0.031 C 
ATOM     37  C   UNL A   1      39.979  25.415  27.941  1.00  0.00     0.029 A 
ATOM     38  C   UNL A   1      41.363  25.594  28.377  1.00  0.00     0.049 A 
ATOM     39  H   UNL A   1      42.191  27.269  29.295  1.00  0.00     0.167 HD
ATOM     40  C   UNL A   1      43.828  30.852  31.174  1.00  0.00     0.031 A 
ATOM     41  C   UNL A   1      42.347  24.683  28.259  1.00  0.00     0.031 A 
ATOM     42  C   UNL A   1      44.917  29.913  31.162  1.00  0.00     0.049 A 
ATOM     43  C   UNL A   1      43.726  25.009  28.763  1.00  0.00     0.074 A 
ATOM     44  C   UNL A   1      46.195  30.067  31.672  1.00  0.00     0.029 A 
ATOM     45  N   UNL A   1      44.859  28.646  30.603  1.00  0.00    -0.354 N 
ATOM     46  N   UNL A   1      44.154  26.098  29.354  1.00  0.00    -0.248 NA
ATOM     47  C   UNL A   1      44.755  23.974  28.590  1.00  0.00     0.031 C 
ATOM     48  C   UNL A   1      46.927  28.914  31.373  1.00  0.00     0.029 A 
ATOM     49  C   UNL A   1      46.089  28.020  30.725  1.00  0.00     0.049 A 
ATOM     50  H   UNL A   1      44.064  28.252  30.180  1.00  0.00     0.167 HD
ATOM     51  C   UNL A   1      45.494  25.872  29.642  1.00  0.00     0.074 A 
ATOM     52  C   UNL A   1      45.805  24.537  29.174  1.00  0.00     0.031 C 
ATOM     53  C   UNL A   1      46.387  26.695  30.246  1.00  0.00     0.031 A 
BRANCH  40  54
ATOM     54  C   UNL A   1      44.069  32.220  31.744  1.00  0.00    -0.014 A 
ATOM     55  C   UNL A   1      43.868  32.490  33.107  1.00  0.00     0.009 A 
ATOM     56  C   UNL A   1      44.518  33.253  30.905  1.00  0.00     0.009 A 
ATOM     57  C   UNL A   1      44.077  33.776  33.611  1.00  0.00     0.001 A 
ATOM     58  C   UNL A   1      44.750  34.530  31.417  1.00  0.00     0.001 A 
ATOM     59  C   UNL A   1      44.521  34.793  32.767  1.00  0.00     0.000 A 
ENDBRANCH  40  54
BRANCH  41  60
ATOM     60  C   UNL A   1      42.064  23.374  27.617  1.00  0.00    -0.014 A 
ATOM     61  C   UNL A   1      41.559  22.302  28.367  1.00  0.00     0.009 A 
ATOM     62  C   UNL A   1      42.299  23.193  26.245  1.00  0.00     0.009 A 
ATOM     63  C   UNL A   1      41.309  21.070  27.758  1.00  0.00     0.001 A 
ATOM     64  C   UNL A   1      42.026  21.968  25.635  1.00  0.00     0.001 A 
ATOM     65  C   UNL A   1      41.537  20.905  26.392  1.00  0.00     0.000 A 
ENDBRANCH  41  60
BRANCH  53  66
ATOM     66  C   UNL A   1      47.777  26.168  30.455  1.00  0.00    -0.014 A 
ATOM     67  C   UNL A   1      48.730  26.196  29.425  1.00  0.00     0.009 A 
ATOM     68  C   UNL A   1      48.153  25.677  31.715  1.00  0.00     0.009 A 
ATOM     69  C   UNL A   1      50.022  25.716  29.645  1.00  0.00     0.001 A 
ATOM     70  C   UNL A   1      49.453  25.221  31.940  1.00  0.00     0.001 A 
ATOM     71  C   UNL A   1      50.383  25.233  30.903  1.00  0.00     0.000 A 
ENDBRANCH  53  66
ENDBRANCH  27  28
ENDBRANCH  20  22
ENDBRANCH  19  20
ENDBRANCH  18  19
ENDBRANCH  17  18
ENDBRANCH  16  17
ENDBRANCH   1  16
TORSDOF 17
ENDMDL
MODEL 3
REMARK VINA RESULT:      -8.7      3.627      5.268
REMARK SMILES CCC[NH2+][C@H]1C[C@@H](C(=O)OCCOCCOC(=O)c2ccc(-c3c4nc(c(-c5ccccc5)c5ccc([nH]5)c(-c5ccccc5)c5nc(c(-c6ccccc6)c6ccc3[nH]6)C=C5)C=C4)cc2)C1
REMARK SMILES IDX 12 1 11 2 10 3 8 4 9 5 7 6 5 7 67 8 6 9 4 10 3 13 2 14 1 15
REMARK SMILES IDX 13 16 14 17 15 18 16 19 17 20 18 21 19 22 20 23 66 24 21 25
REMARK SMILES IDX 65 26 22 27 23 28 24 29 59 30 25 31 64 32 58 33 60 34 26 35
REMARK SMILES IDX 63 36 57 37 56 38 27 40 49 41 34 42 48 43 35 44 38 45 47 46
REMARK SMILES IDX 61 47 36 48 37 49 46 51 62 52 39 53 28 54 29 55 33 56 30 57
REMARK SMILES IDX 32 58 31 59 50 60 51 61 55 62 52 63 54 64 53 65 40 66 41 67
REMARK SMILES IDX 45 68 42 69 44 70 43 71
REMARK H PARENT 4 11 4 12 60 39 38 50
REMARK Flexibility Score: inf
ROOT
ATOM      1  C   UNL A   1      38.728  23.191  26.139  1.00  0.00     0.202 C 
ENDROOT
BRANCH   1   2
ATOM      2  C   UNL A   1      37.511  23.842  25.478  1.00  0.00     0.261 C 
BRANCH   2   3
ATOM      3  O   UNL A   1      36.375  23.782  26.354  1.00  0.00    -0.463 OA
BRANCH   3   4
ATOM      4  C   UNL A   1      35.180  23.491  25.762  1.00  0.00     0.309 C 
ATOM      5  O   UNL A   1      34.648  24.213  24.918  1.00  0.00    -0.252 OA
BRANCH   4   6
ATOM      6  C   UNL A   1      34.603  22.136  26.198  1.00  0.00     0.111 C 
ATOM      7  C   UNL A   1      33.448  20.386  25.883  1.00  0.00     0.184 C 
ATOM      8  C   UNL A   1      34.694  20.971  25.178  1.00  0.00     0.080 C 
ATOM      9  C   UNL A   1      33.071  21.846  26.222  1.00  0.00     0.080 C 
BRANCH   7  10
ATOM     10  N   UNL A   1      32.531  19.858  24.875  1.00  0.00    -0.344 N 
ATOM     11  H   UNL A   1      31.576  20.134  25.105  1.00  0.00     0.346 HD
ATOM     12  H   UNL A   1      32.777  20.232  23.958  1.00  0.00     0.346 HD
BRANCH  10  13
ATOM     13  C   UNL A   1      32.629  18.395  24.853  1.00  0.00     0.260 C 
BRANCH  13  14
ATOM     14  C   UNL A   1      33.513  17.892  23.709  1.00  0.00     0.058 C 
ATOM     15  C   UNL A   1      33.575  16.372  23.612  1.00  0.00     0.010 C 
ENDBRANCH  13  14
ENDBRANCH  10  13
ENDBRANCH   7  10
ENDBRANCH   4   6
ENDBRANCH   3   4
ENDBRANCH   2   3
ENDBRANCH   1   2
BRANCH   1  16
ATOM     16  O   UNL A   1      38.581  21.815  26.494  1.00  0.00    -0.374 OA
BRANCH  16  17
ATOM     17  C   UNL A   1      38.394  20.879  25.430  1.00  0.00     0.202 C 
BRANCH  17  18
ATOM     18  C   UNL A   1      39.342  19.673  25.412  1.00  0.00     0.261 C 
BRANCH  18  19
ATOM     19  O   UNL A   1      40.323  19.736  26.463  1.00  0.00    -0.460 OA
BRANCH  19  20
ATOM     20  C   UNL A   1      41.601  19.883  26.041  1.00  0.00     0.338 C 
ATOM     21  O   UNL A   1      42.208  19.175  25.250  1.00  0.00    -0.246 OA
BRANCH  20  22
ATOM     22  C   UNL A   1      42.158  21.154  26.538  1.00  0.00     0.060 A 
ATOM     23  C   UNL A   1      42.129  21.375  27.921  1.00  0.00     0.016 A 
ATOM     24  C   UNL A   1      42.621  22.145  25.671  1.00  0.00     0.016 A 
ATOM     25  C   UNL A   1      42.514  22.609  28.440  1.00  0.00     0.010 A 
ATOM     26  C   UNL A   1      42.999  23.388  26.192  1.00  0.00     0.010 A 
ATOM     27  C   UNL A   1      42.913  23.636  27.574  1.00  0.00    -0.014 A 
BRANCH  27  28
ATOM     28  C   UNL A   1      43.100  25.006  28.108  1.00  0.00     0.031 A 
ATOM     29  C   UNL A   1      44.478  25.452  28.512  1.00  0.00     0.074 A 
ATOM     30  C   UNL A   1      42.063  25.854  28.205  1.00  0.00     0.049 A 
ATOM     31  N   UNL A   1      44.866  26.603  29.004  1.00  0.00    -0.248 NA
ATOM     32  C   UNL A   1      45.563  24.473  28.340  1.00  0.00     0.031 C 
ATOM     33  C   UNL A   1      40.686  25.556  27.813  1.00  0.00     0.029 A 
ATOM     34  N   UNL A   1      42.012  27.144  28.670  1.00  0.00    -0.354 N 
ATOM     35  C   UNL A   1      46.235  26.482  29.206  1.00  0.00     0.074 A 
ATOM     36  C   UNL A   1      46.606  25.141  28.810  1.00  0.00     0.031 C 
ATOM     37  C   UNL A   1      39.922  26.634  28.062  1.00  0.00     0.029 A 
ATOM     38  C   UNL A   1      40.750  27.684  28.654  1.00  0.00     0.049 A 
ATOM     39  H   UNL A   1      42.804  27.636  28.986  1.00  0.00     0.167 HD
ATOM     40  C   UNL A   1      47.108  27.406  29.675  1.00  0.00     0.031 A 
ATOM     41  C   UNL A   1      40.309  28.881  29.084  1.00  0.00     0.031 A 
ATOM     42  C   UNL A   1      46.741  28.734  30.084  1.00  0.00     0.049 A 
ATOM     43  C   UNL A   1      41.285  29.867  29.665  1.00  0.00     0.074 A 
ATOM     44  C   UNL A   1      47.558  29.751  30.549  1.00  0.00     0.029 A 
ATOM     45  N   UNL A   1      45.446  29.229  30.087  1.00  0.00    -0.354 N 
ATOM     46  N   UNL A   1      42.582  29.754  29.817  1.00  0.00    -0.248 NA
ATOM     47  C   UNL A   1      40.734  31.149  30.127  1.00  0.00     0.031 C 
ATOM     48  C   UNL A   1      46.750  30.842  30.885  1.00  0.00     0.029 A 
ATOM     49  C   UNL A   1      45.437  30.524  30.577  1.00  0.00     0.049 A 
ATOM     50  H   UNL A   1      44.652  28.732  29.787  1.00  0.00     0.167 HD
ATOM     51  C   UNL A   1      43.005  30.956  30.371  1.00  0.00     0.074 A 
ATOM     52  C   UNL A   1      41.829  31.789  30.516  1.00  0.00     0.031 C 
ATOM     53  C   UNL A   1      44.257  31.338  30.724  1.00  0.00     0.031 A 
BRANCH  40  54
ATOM     54  C   UNL A   1      48.544  26.987  29.808  1.00  0.00    -0.014 A 
ATOM     55  C   UNL A   1      49.021  26.371  30.977  1.00  0.00     0.009 A 
ATOM     56  C   UNL A   1      49.431  27.199  28.741  1.00  0.00     0.009 A 
ATOM     57  C   UNL A   1      50.365  26.010  31.087  1.00  0.00     0.001 A 
ATOM     58  C   UNL A   1      50.768  26.814  28.845  1.00  0.00     0.001 A 
ATOM     59  C   UNL A   1      51.236  26.229  30.020  1.00  0.00     0.000 A 
ENDBRANCH  40  54
BRANCH  41  60
ATOM     60  C   UNL A   1      38.863  29.208  28.994  1.00  0.00    -0.014 A 
ATOM     61  C   UNL A   1      38.314  29.713  27.807  1.00  0.00     0.009 A 
ATOM     62  C   UNL A   1      38.024  29.014  30.103  1.00  0.00     0.009 A 
ATOM     63  C   UNL A   1      36.956  30.031  27.736  1.00  0.00     0.001 A 
ATOM     64  C   UNL A   1      36.663  29.310  30.022  1.00  0.00     0.001 A 
ATOM     65  C   UNL A   1      36.130  29.825  28.841  1.00  0.00     0.000 A 
ENDBRANCH  41  60
BRANCH  53  66
ATOM     66  C   UNL A   1      44.424  32.723  31.280  1.00  0.00    -0.014 A 
ATOM     67  C   UNL A   1      44.367  32.967  32.660  1.00  0.00     0.009 A 
ATOM     68  C   UNL A   1      44.687  33.794  30.411  1.00  0.00     0.009 A 
ATOM     69  C   UNL A   1      44.541  34.260  33.157  1.00  0.00     0.001 A 
ATOM     70  C   UNL A   1      44.886  35.081  30.912  1.00  0.00     0.001 A 
ATOM     71  C   UNL A   1      44.804  35.315  32.283  1.00  0.00     0.000 A 
ENDBRANCH  53  66
ENDBRANCH  27  28
ENDBRANCH  20  22
ENDBRANCH  19  20
ENDBRANCH  18  19
ENDBRANCH  17  18
ENDBRANCH  16  17
ENDBRANCH   1  16
TORSDOF 17
ENDMDL
