MODEL 1
REMARK VINA RESULT:     -10.3      0.000      0.000
REMARK SMILES O=C(OCCOCCOC(=O)[C@@]1([C@@H]2CCO[C@@]3(CCOC3)C2)CCOC1)c1ccc(-c2c3nc(c(-c4ccccc4)c4ccc([nH]4)c(-c4ccccc4)c4nc(c(-c5ccccc5)c5ccc2[nH]5)C=C4)C=C3)cc1
REMARK SMILES IDX 5 1 4 2 3 3 2 4 1 5 27 6 28 7 74 8 29 9 73 10 30 11 31 12
REMARK SMILES IDX 32 13 67 14 33 15 72 16 66 17 68 18 34 19 71 20 65 21 64 22
REMARK SMILES IDX 35 24 57 25 42 26 56 27 43 28 46 29 55 30 69 31 44 32 45 33
REMARK SMILES IDX 54 35 70 36 47 37 36 38 37 39 41 40 38 41 40 42 39 43 58 44
REMARK SMILES IDX 59 45 63 46 60 47 62 48 61 49 48 50 49 51 53 52 50 53 52 54
REMARK SMILES IDX 51 55 6 56 7 57 8 58 9 59 10 60 11 61 12 62 23 63 26 64
REMARK SMILES IDX 24 65 25 66 13 67 14 68 22 69 15 70 17 71 16 72 18 73 21 74
REMARK SMILES IDX 19 75 20 76
REMARK H PARENT 68 23 46 34
REMARK Flexibility Score: inf
ROOT
ATOM      1  C   UNL A   1      38.169  19.800  24.883  1.00  0.00     0.202 C 
ENDROOT
BRANCH   1   2
ATOM      2  C   UNL A   1      39.104  19.583  26.066  1.00  0.00     0.261 C 
BRANCH   2   3
ATOM      3  O   UNL A   1      40.306  18.928  25.611  1.00  0.00    -0.460 OA
BRANCH   3   4
ATOM      4  C   UNL A   1      41.576  19.282  25.933  1.00  0.00     0.338 C 
ATOM      5  O   UNL A   1      42.511  18.509  25.765  1.00  0.00    -0.246 OA
BRANCH   4   6
ATOM      6  C   UNL A   1      41.848  20.653  26.412  1.00  0.00     0.060 A 
ATOM      7  C   UNL A   1      41.890  21.728  25.534  1.00  0.00     0.016 A 
ATOM      8  C   UNL A   1      42.037  20.885  27.774  1.00  0.00     0.016 A 
ATOM      9  C   UNL A   1      42.338  22.963  25.934  1.00  0.00     0.010 A 
ATOM     10  C   UNL A   1      42.318  22.181  28.217  1.00  0.00     0.010 A 
ATOM     11  C   UNL A   1      42.498  23.218  27.287  1.00  0.00    -0.014 A 
BRANCH  11  12
ATOM     12  C   UNL A   1      42.879  24.589  27.666  1.00  0.00     0.031 A 
ATOM     13  C   UNL A   1      44.316  24.985  27.583  1.00  0.00     0.074 A 
ATOM     14  C   UNL A   1      41.909  25.481  27.947  1.00  0.00     0.049 A 
ATOM     15  N   UNL A   1      44.885  26.093  27.968  1.00  0.00    -0.248 NA
ATOM     16  C   UNL A   1      45.242  24.002  26.994  1.00  0.00     0.031 C 
ATOM     17  C   UNL A   1      40.464  25.207  27.918  1.00  0.00     0.029 A 
ATOM     18  N   UNL A   1      41.978  26.810  28.260  1.00  0.00    -0.354 N 
ATOM     19  C   UNL A   1      46.241  25.915  27.732  1.00  0.00     0.074 A 
ATOM     20  C   UNL A   1      46.411  24.598  27.161  1.00  0.00     0.031 C 
ATOM     21  C   UNL A   1      39.791  26.345  28.132  1.00  0.00     0.029 A 
ATOM     22  C   UNL A   1      40.747  27.395  28.441  1.00  0.00     0.049 A 
ATOM     23  H   UNL A   1      42.827  27.302  28.348  1.00  0.00     0.167 HD
ATOM     24  C   UNL A   1      47.246  26.779  27.995  1.00  0.00     0.031 A 
ATOM     25  C   UNL A   1      40.432  28.630  28.868  1.00  0.00     0.031 A 
ATOM     26  C   UNL A   1      47.025  28.085  28.552  1.00  0.00     0.049 A 
ATOM     27  C   UNL A   1      41.568  29.541  29.225  1.00  0.00     0.074 A 
ATOM     28  C   UNL A   1      47.951  29.038  28.927  1.00  0.00     0.029 A 
ATOM     29  N   UNL A   1      45.766  28.622  28.802  1.00  0.00    -0.354 N 
ATOM     30  N   UNL A   1      42.859  29.332  29.103  1.00  0.00    -0.248 NA
ATOM     31  C   UNL A   1      41.215  30.841  29.800  1.00  0.00     0.031 C 
ATOM     32  C   UNL A   1      47.252  30.134  29.448  1.00  0.00     0.029 A 
ATOM     33  C   UNL A   1      45.890  29.888  29.339  1.00  0.00     0.049 A 
ATOM     34  H   UNL A   1      44.913  28.166  28.621  1.00  0.00     0.167 HD
ATOM     35  C   UNL A   1      43.474  30.476  29.581  1.00  0.00     0.074 A 
ATOM     36  C   UNL A   1      42.411  31.387  29.966  1.00  0.00     0.031 C 
ATOM     37  C   UNL A   1      44.797  30.753  29.704  1.00  0.00     0.031 A 
BRANCH  24  38
ATOM     38  C   UNL A   1      48.646  26.284  27.775  1.00  0.00    -0.014 A 
ATOM     39  C   UNL A   1      49.386  25.664  28.795  1.00  0.00     0.009 A 
ATOM     40  C   UNL A   1      49.254  26.488  26.526  1.00  0.00     0.009 A 
ATOM     41  C   UNL A   1      50.718  25.299  28.579  1.00  0.00     0.001 A 
ATOM     42  C   UNL A   1      50.575  26.097  26.305  1.00  0.00     0.001 A 
ATOM     43  C   UNL A   1      51.311  25.515  27.334  1.00  0.00     0.000 A 
ENDBRANCH  24  38
BRANCH  25  44
ATOM     44  C   UNL A   1      39.009  29.023  29.065  1.00  0.00    -0.014 A 
ATOM     45  C   UNL A   1      38.373  28.842  30.302  1.00  0.00     0.009 A 
ATOM     46  C   UNL A   1      38.276  29.593  28.010  1.00  0.00     0.009 A 
ATOM     47  C   UNL A   1      37.032  29.202  30.469  1.00  0.00     0.001 A 
ATOM     48  C   UNL A   1      36.948  29.985  28.190  1.00  0.00     0.001 A 
ATOM     49  C   UNL A   1      36.323  29.778  29.417  1.00  0.00     0.000 A 
ENDBRANCH  25  44
BRANCH  37  50
ATOM     50  C   UNL A   1      45.145  32.108  30.240  1.00  0.00    -0.014 A 
ATOM     51  C   UNL A   1      45.333  32.321  31.613  1.00  0.00     0.009 A 
ATOM     52  C   UNL A   1      45.325  33.175  29.346  1.00  0.00     0.009 A 
ATOM     53  C   UNL A   1      45.668  33.589  32.086  1.00  0.00     0.001 A 
ATOM     54  C   UNL A   1      45.690  34.433  29.818  1.00  0.00     0.001 A 
ATOM     55  C   UNL A   1      45.852  34.642  31.188  1.00  0.00     0.000 A 
ENDBRANCH  37  50
ENDBRANCH  11  12
ENDBRANCH   4   6
ENDBRANCH   3   4
ENDBRANCH   2   3
ENDBRANCH   1   2
BRANCH   1  56
ATOM     56  O   UNL A   1      37.858  21.163  24.638  1.00  0.00    -0.374 OA
BRANCH  56  57
ATOM     57  C   UNL A   1      38.073  22.077  25.710  1.00  0.00     0.202 C 
BRANCH  57  58
ATOM     58  C   UNL A   1      37.144  23.279  25.534  1.00  0.00     0.261 C 
BRANCH  58  59
ATOM     59  O   UNL A   1      35.770  22.866  25.670  1.00  0.00    -0.463 OA
BRANCH  59  60
ATOM     60  C   UNL A   1      34.946  23.128  24.621  1.00  0.00     0.314 C 
ATOM     61  O   UNL A   1      35.262  23.779  23.628  1.00  0.00    -0.252 OA
BRANCH  60  62
ATOM     62  C   UNL A   1      33.558  22.513  24.795  1.00  0.00     0.096 C 
ATOM     63  C   UNL A   1      32.991  22.047  23.451  1.00  0.00     0.050 C 
ATOM     64  C   UNL A   1      33.644  21.168  25.534  1.00  0.00     0.179 C 
ATOM     65  C   UNL A   1      32.339  20.696  23.713  1.00  0.00     0.161 C 
ATOM     66  O   UNL A   1      32.524  20.399  25.097  1.00  0.00    -0.380 OA
BRANCH  62  67
ATOM     67  C   UNL A   1      32.633  23.505  25.573  1.00  0.00     0.014 C 
ATOM     68  C   UNL A   1      31.985  22.976  26.877  1.00  0.00     0.033 C 
ATOM     69  C   UNL A   1      31.548  24.238  24.752  1.00  0.00     0.043 C 
ATOM     70  C   UNL A   1      30.462  23.129  26.904  1.00  0.00     0.161 C 
ATOM     71  C   UNL A   1      30.758  25.183  25.684  1.00  0.00     0.094 C 
ATOM     72  O   UNL A   1      30.009  24.456  26.653  1.00  0.00    -0.372 OA
ATOM     73  C   UNL A   1      31.629  26.226  26.384  1.00  0.00     0.066 C 
ATOM     74  C   UNL A   1      29.877  26.140  24.876  1.00  0.00     0.195 C 
ATOM     75  C   UNL A   1      31.914  27.200  25.266  1.00  0.00     0.163 C 
ATOM     76  O   UNL A   1      30.726  27.234  24.460  1.00  0.00    -0.378 OA
ENDBRANCH  62  67
ENDBRANCH  60  62
ENDBRANCH  59  60
ENDBRANCH  58  59
ENDBRANCH  57  58
ENDBRANCH  56  57
ENDBRANCH   1  56
TORSDOF 15
ENDMDL
MODEL 2
REMARK VINA RESULT:     -10.3      4.377      8.982
REMARK SMILES O=C(OCCOCCOC(=O)[C@@]1([C@@H]2CCO[C@@]3(CCOC3)C2)CCOC1)c1ccc(-c2c3nc(c(-c4ccccc4)c4ccc([nH]4)c(-c4ccccc4)c4nc(c(-c5ccccc5)c5ccc2[nH]5)C=C4)C=C3)cc1
REMARK SMILES IDX 5 1 4 2 3 3 2 4 1 5 27 6 28 7 74 8 29 9 73 10 30 11 31 12
REMARK SMILES IDX 32 13 67 14 33 15 72 16 66 17 68 18 34 19 71 20 65 21 64 22
REMARK SMILES IDX 35 24 57 25 42 26 56 27 43 28 46 29 55 30 69 31 44 32 45 33
REMARK SMILES IDX 54 35 70 36 47 37 36 38 37 39 41 40 38 41 40 42 39 43 58 44
REMARK SMILES IDX 59 45 63 46 60 47 62 48 61 49 48 50 49 51 53 52 50 53 52 54
REMARK SMILES IDX 51 55 6 56 7 57 8 58 9 59 10 60 11 61 12 62 23 63 26 64
REMARK SMILES IDX 24 65 25 66 13 67 14 68 22 69 15 70 17 71 16 72 18 73 21 74
REMARK SMILES IDX 19 75 20 76
REMARK H PARENT 68 23 46 34
REMARK Flexibility Score: inf
ROOT
ATOM      1  C   UNL A   1      31.265  32.028  26.330  1.00  0.00     0.202 C 
ENDROOT
BRANCH   1   2
ATOM      2  C   UNL A   1      32.479  32.543  27.093  1.00  0.00     0.261 C 
BRANCH   2   3
ATOM      3  O   UNL A   1      32.163  33.817  27.690  1.00  0.00    -0.460 OA
BRANCH   3   4
ATOM      4  C   UNL A   1      32.966  34.530  28.519  1.00  0.00     0.338 C 
ATOM      5  O   UNL A   1      32.632  35.633  28.933  1.00  0.00    -0.246 OA
BRANCH   4   6
ATOM      6  C   UNL A   1      34.227  33.927  29.002  1.00  0.00     0.060 A 
ATOM      7  C   UNL A   1      34.222  32.888  29.923  1.00  0.00     0.016 A 
ATOM      8  C   UNL A   1      35.447  34.386  28.506  1.00  0.00     0.016 A 
ATOM      9  C   UNL A   1      35.378  32.460  30.527  1.00  0.00     0.010 A 
ATOM     10  C   UNL A   1      36.636  33.828  28.986  1.00  0.00     0.010 A 
ATOM     11  C   UNL A   1      36.600  32.881  30.023  1.00  0.00    -0.014 A 
BRANCH  11  12
ATOM     12  C   UNL A   1      37.808  32.310  30.641  1.00  0.00     0.031 A 
ATOM     13  C   UNL A   1      38.504  31.183  29.953  1.00  0.00     0.074 A 
ATOM     14  C   UNL A   1      38.324  32.907  31.734  1.00  0.00     0.049 A 
ATOM     15  N   UNL A   1      39.509  30.465  30.368  1.00  0.00    -0.248 NA
ATOM     16  C   UNL A   1      38.000  30.806  28.621  1.00  0.00     0.031 C 
ATOM     17  C   UNL A   1      37.776  34.102  32.392  1.00  0.00     0.029 A 
ATOM     18  N   UNL A   1      39.450  32.628  32.458  1.00  0.00    -0.354 N 
ATOM     19  C   UNL A   1      39.714  29.509  29.383  1.00  0.00     0.074 A 
ATOM     20  C   UNL A   1      38.738  29.744  28.344  1.00  0.00     0.031 C 
ATOM     21  C   UNL A   1      38.603  34.489  33.372  1.00  0.00     0.029 A 
ATOM     22  C   UNL A   1      39.663  33.503  33.497  1.00  0.00     0.049 A 
ATOM     23  H   UNL A   1      40.051  31.874  32.255  1.00  0.00     0.167 HD
ATOM     24  C   UNL A   1      40.630  28.515  29.374  1.00  0.00     0.031 A 
ATOM     25  C   UNL A   1      40.582  33.472  34.477  1.00  0.00     0.031 A 
ATOM     26  C   UNL A   1      41.590  28.330  30.427  1.00  0.00     0.049 A 
ATOM     27  C   UNL A   1      41.538  32.316  34.483  1.00  0.00     0.074 A 
ATOM     28  C   UNL A   1      42.533  27.333  30.577  1.00  0.00     0.029 A 
ATOM     29  N   UNL A   1      41.730  29.189  31.512  1.00  0.00    -0.354 N 
ATOM     30  N   UNL A   1      41.661  31.347  33.605  1.00  0.00    -0.248 NA
ATOM     31  C   UNL A   1      42.459  32.228  35.619  1.00  0.00     0.031 C 
ATOM     32  C   UNL A   1      43.212  27.562  31.780  1.00  0.00     0.029 A 
ATOM     33  C   UNL A   1      42.734  28.737  32.346  1.00  0.00     0.049 A 
ATOM     34  H   UNL A   1      41.192  29.999  31.662  1.00  0.00     0.167 HD
ATOM     35  C   UNL A   1      42.678  30.536  34.078  1.00  0.00     0.074 A 
ATOM     36  C   UNL A   1      43.156  31.145  35.306  1.00  0.00     0.031 C 
ATOM     37  C   UNL A   1      43.171  29.384  33.557  1.00  0.00     0.031 A 
BRANCH  24  38
ATOM     38  C   UNL A   1      40.548  27.524  28.249  1.00  0.00    -0.014 A 
ATOM     39  C   UNL A   1      39.795  26.343  28.350  1.00  0.00     0.009 A 
ATOM     40  C   UNL A   1      41.284  27.759  27.077  1.00  0.00     0.009 A 
ATOM     41  C   UNL A   1      39.816  25.401  27.317  1.00  0.00     0.001 A 
ATOM     42  C   UNL A   1      41.282  26.829  26.036  1.00  0.00     0.001 A 
ATOM     43  C   UNL A   1      40.559  25.645  26.162  1.00  0.00     0.000 A 
ENDBRANCH  24  38
BRANCH  25  44
ATOM     44  C   UNL A   1      40.574  34.498  35.556  1.00  0.00    -0.014 A 
ATOM     45  C   UNL A   1      39.825  34.310  36.727  1.00  0.00     0.009 A 
ATOM     46  C   UNL A   1      41.326  35.678  35.422  1.00  0.00     0.009 A 
ATOM     47  C   UNL A   1      39.815  35.289  37.726  1.00  0.00     0.001 A 
ATOM     48  C   UNL A   1      41.342  36.638  36.436  1.00  0.00     0.001 A 
ATOM     49  C   UNL A   1      40.577  36.447  37.584  1.00  0.00     0.000 A 
ENDBRANCH  25  44
BRANCH  37  50
ATOM     50  C   UNL A   1      44.304  28.749  34.303  1.00  0.00    -0.014 A 
ATOM     51  C   UNL A   1      45.636  29.096  34.035  1.00  0.00     0.009 A 
ATOM     52  C   UNL A   1      44.024  27.819  35.316  1.00  0.00     0.009 A 
ATOM     53  C   UNL A   1      46.673  28.499  34.752  1.00  0.00     0.001 A 
ATOM     54  C   UNL A   1      45.060  27.247  36.051  1.00  0.00     0.001 A 
ATOM     55  C   UNL A   1      46.383  27.580  35.762  1.00  0.00     0.000 A 
ENDBRANCH  37  50
ENDBRANCH  11  12
ENDBRANCH   4   6
ENDBRANCH   3   4
ENDBRANCH   2   3
ENDBRANCH   1   2
BRANCH   1  56
ATOM     56  O   UNL A   1      31.404  30.697  25.858  1.00  0.00    -0.374 OA
BRANCH  56  57
ATOM     57  C   UNL A   1      32.117  29.787  26.692  1.00  0.00     0.202 C 
BRANCH  57  58
ATOM     58  C   UNL A   1      31.716  28.358  26.329  1.00  0.00     0.261 C 
BRANCH  58  59
ATOM     59  O   UNL A   1      32.441  27.921  25.163  1.00  0.00    -0.463 OA
BRANCH  59  60
ATOM     60  C   UNL A   1      31.701  27.576  24.076  1.00  0.00     0.314 C 
ATOM     61  O   UNL A   1      30.811  28.268  23.587  1.00  0.00    -0.252 OA
BRANCH  60  62
ATOM     62  C   UNL A   1      32.096  26.216  23.502  1.00  0.00     0.096 C 
ATOM     63  C   UNL A   1      31.687  26.100  22.032  1.00  0.00     0.050 C 
ATOM     64  C   UNL A   1      33.623  26.101  23.369  1.00  0.00     0.179 C 
ATOM     65  C   UNL A   1      32.854  25.430  21.319  1.00  0.00     0.161 C 
ATOM     66  O   UNL A   1      33.864  25.187  22.299  1.00  0.00    -0.380 OA
BRANCH  62  67
ATOM     67  C   UNL A   1      31.541  25.074  24.415  1.00  0.00     0.014 C 
ATOM     68  C   UNL A   1      30.091  25.242  24.936  1.00  0.00     0.033 C 
ATOM     69  C   UNL A   1      32.433  24.623  25.593  1.00  0.00     0.043 C 
ATOM     70  C   UNL A   1      29.976  25.128  26.458  1.00  0.00     0.161 C 
ATOM     71  C   UNL A   1      31.729  23.481  26.356  1.00  0.00     0.094 C 
ATOM     72  O   UNL A   1      30.538  23.933  26.994  1.00  0.00    -0.372 OA
ATOM     73  C   UNL A   1      31.415  22.263  25.487  1.00  0.00     0.066 C 
ATOM     74  C   UNL A   1      32.687  22.806  27.342  1.00  0.00     0.195 C 
ATOM     75  C   UNL A   1      32.776  21.625  25.336  1.00  0.00     0.163 C 
ATOM     76  O   UNL A   1      33.455  21.846  26.581  1.00  0.00    -0.378 OA
ENDBRANCH  62  67
ENDBRANCH  60  62
ENDBRANCH  59  60
ENDBRANCH  58  59
ENDBRANCH  57  58
ENDBRANCH  56  57
ENDBRANCH   1  56
TORSDOF 15
ENDMDL
MODEL 3
REMARK VINA RESULT:     -10.2      1.206      6.252
REMARK SMILES O=C(OCCOCCOC(=O)[C@@]1([C@@H]2CCO[C@@]3(CCOC3)C2)CCOC1)c1ccc(-c2c3nc(c(-c4ccccc4)c4ccc([nH]4)c(-c4ccccc4)c4nc(c(-c5ccccc5)c5ccc2[nH]5)C=C4)C=C3)cc1
REMARK SMILES IDX 5 1 4 2 3 3 2 4 1 5 27 6 28 7 74 8 29 9 73 10 30 11 31 12
REMARK SMILES IDX 32 13 67 14 33 15 72 16 66 17 68 18 34 19 71 20 65 21 64 22
REMARK SMILES IDX 35 24 57 25 42 26 56 27 43 28 46 29 55 30 69 31 44 32 45 33
REMARK SMILES IDX 54 35 70 36 47 37 36 38 37 39 41 40 38 41 40 42 39 43 58 44
REMARK SMILES IDX 59 45 63 46 60 47 62 48 61 49 48 50 49 51 53 52 50 53 52 54
REMARK SMILES IDX 51 55 6 56 7 57 8 58 9 59 10 60 11 61 12 62 23 63 26 64
REMARK SMILES IDX 24 65 25 66 13 67 14 68 22 69 15 70 17 71 16 72 18 73 21 74
REMARK SMILES IDX 19 75 20 76
REMARK H PARENT 68 23 46 34
REMARK Flexibility Score: inf
ROOT
ATOM      1  C   UNL A   1      38.037  20.012  24.668  1.00  0.00     0.202 C 
ENDROOT
BRANCH   1   2
ATOM      2  C   UNL A   1      38.966  20.160  25.865  1.00  0.00     0.261 C 
BRANCH   2   3
ATOM      3  O   UNL A   1      40.050  19.215  25.748  1.00  0.00    -0.460 OA
BRANCH   3   4
ATOM      4  C   UNL A   1      41.361  19.472  25.990  1.00  0.00     0.338 C 
ATOM      5  O   UNL A   1      42.223  18.631  25.771  1.00  0.00    -0.246 OA
BRANCH   4   6
ATOM      6  C   UNL A   1      41.764  20.821  26.443  1.00  0.00     0.060 A 
ATOM      7  C   UNL A   1      41.853  21.882  25.552  1.00  0.00     0.016 A 
ATOM      8  C   UNL A   1      42.033  21.045  27.792  1.00  0.00     0.016 A 
ATOM      9  C   UNL A   1      42.417  23.079  25.918  1.00  0.00     0.010 A 
ATOM     10  C   UNL A   1      42.437  22.318  28.208  1.00  0.00     0.010 A 
ATOM     11  C   UNL A   1      42.658  23.330  27.260  1.00  0.00    -0.014 A 
BRANCH  11  12
ATOM     12  C   UNL A   1      43.165  24.668  27.607  1.00  0.00     0.031 A 
ATOM     13  C   UNL A   1      42.215  25.676  28.165  1.00  0.00     0.074 A 
ATOM     14  C   UNL A   1      44.491  24.900  27.537  1.00  0.00     0.049 A 
ATOM     15  N   UNL A   1      42.420  26.934  28.435  1.00  0.00    -0.248 NA
ATOM     16  C   UNL A   1      40.849  25.208  28.456  1.00  0.00     0.031 C 
ATOM     17  C   UNL A   1      45.508  23.920  27.127  1.00  0.00     0.029 A 
ATOM     18  N   UNL A   1      45.224  26.010  27.855  1.00  0.00    -0.354 N 
ATOM     19  C   UNL A   1      41.194  27.427  28.859  1.00  0.00     0.074 A 
ATOM     20  C   UNL A   1      40.252  26.331  28.825  1.00  0.00     0.031 C 
ATOM     21  C   UNL A   1      46.728  24.450  27.287  1.00  0.00     0.029 A 
ATOM     22  C   UNL A   1      46.577  25.841  27.681  1.00  0.00     0.049 A 
ATOM     23  H   UNL A   1      44.821  26.850  28.177  1.00  0.00     0.167 HD
ATOM     24  C   UNL A   1      40.893  28.693  29.224  1.00  0.00     0.031 A 
ATOM     25  C   UNL A   1      47.577  26.734  27.775  1.00  0.00     0.031 A 
ATOM     26  C   UNL A   1      41.869  29.747  29.255  1.00  0.00     0.049 A 
ATOM     27  C   UNL A   1      47.205  28.147  28.107  1.00  0.00     0.074 A 
ATOM     28  C   UNL A   1      41.692  31.086  29.544  1.00  0.00     0.029 A 
ATOM     29  N   UNL A   1      43.223  29.563  28.995  1.00  0.00    -0.354 N 
ATOM     30  N   UNL A   1      46.023  28.638  28.405  1.00  0.00    -0.248 NA
ATOM     31  C   UNL A   1      48.286  29.136  28.091  1.00  0.00     0.031 C 
ATOM     32  C   UNL A   1      42.934  31.721  29.411  1.00  0.00     0.029 A 
ATOM     33  C   UNL A   1      43.892  30.766  29.102  1.00  0.00     0.049 A 
ATOM     34  H   UNL A   1      43.641  28.701  28.769  1.00  0.00     0.167 HD
ATOM     35  C   UNL A   1      46.218  29.991  28.618  1.00  0.00     0.074 A 
ATOM     36  C   UNL A   1      47.638  30.237  28.444  1.00  0.00     0.031 C 
ATOM     37  C   UNL A   1      45.310  30.953  28.920  1.00  0.00     0.031 A 
BRANCH  24  38
ATOM     38  C   UNL A   1      39.450  28.996  29.508  1.00  0.00    -0.014 A 
ATOM     39  C   UNL A   1      38.895  28.839  30.788  1.00  0.00     0.009 A 
ATOM     40  C   UNL A   1      38.618  29.403  28.454  1.00  0.00     0.009 A 
ATOM     41  C   UNL A   1      37.526  29.042  30.994  1.00  0.00     0.001 A 
ATOM     42  C   UNL A   1      37.258  29.632  28.667  1.00  0.00     0.001 A 
ATOM     43  C   UNL A   1      36.710  29.439  29.934  1.00  0.00     0.000 A 
ENDBRANCH  24  38
BRANCH  25  44
ATOM     44  C   UNL A   1      48.978  26.337  27.463  1.00  0.00    -0.014 A 
ATOM     45  C   UNL A   1      49.834  25.853  28.464  1.00  0.00     0.009 A 
ATOM     46  C   UNL A   1      49.469  26.434  26.150  1.00  0.00     0.009 A 
ATOM     47  C   UNL A   1      51.151  25.497  28.160  1.00  0.00     0.001 A 
ATOM     48  C   UNL A   1      50.775  26.044  25.841  1.00  0.00     0.001 A 
ATOM     49  C   UNL A   1      51.619  25.587  26.850  1.00  0.00     0.000 A 
ENDBRANCH  25  44
BRANCH  37  50
ATOM     50  C   UNL A   1      45.849  32.338  29.115  1.00  0.00    -0.014 A 
ATOM     51  C   UNL A   1      45.918  33.248  28.051  1.00  0.00     0.009 A 
ATOM     52  C   UNL A   1      46.253  32.742  30.396  1.00  0.00     0.009 A 
ATOM     53  C   UNL A   1      46.412  34.535  28.262  1.00  0.00     0.001 A 
ATOM     54  C   UNL A   1      46.717  34.039  30.610  1.00  0.00     0.001 A 
ATOM     55  C   UNL A   1      46.806  34.930  29.541  1.00  0.00     0.000 A 
ENDBRANCH  37  50
ENDBRANCH  11  12
ENDBRANCH   4   6
ENDBRANCH   3   4
ENDBRANCH   2   3
ENDBRANCH   1   2
BRANCH   1  56
ATOM     56  O   UNL A   1      37.057  21.034  24.570  1.00  0.00    -0.374 OA
BRANCH  56  57
ATOM     57  C   UNL A   1      36.045  21.056  25.574  1.00  0.00     0.202 C 
BRANCH  57  58
ATOM     58  C   UNL A   1      34.791  20.369  25.032  1.00  0.00     0.261 C 
BRANCH  58  59
ATOM     59  O   UNL A   1      33.615  21.103  25.425  1.00  0.00    -0.463 OA
BRANCH  59  60
ATOM     60  C   UNL A   1      33.259  22.153  24.638  1.00  0.00     0.314 C 
ATOM     61  O   UNL A   1      33.554  22.271  23.452  1.00  0.00    -0.252 OA
BRANCH  60  62
ATOM     62  C   UNL A   1      32.431  23.196  25.388  1.00  0.00     0.096 C 
ATOM     63  C   UNL A   1      30.954  22.795  25.435  1.00  0.00     0.050 C 
ATOM     64  C   UNL A   1      32.764  23.183  26.889  1.00  0.00     0.179 C 
ATOM     65  C   UNL A   1      30.475  23.107  26.846  1.00  0.00     0.161 C 
ATOM     66  O   UNL A   1      31.591  23.638  27.562  1.00  0.00    -0.380 OA
BRANCH  62  67
ATOM     67  C   UNL A   1      32.691  24.615  24.783  1.00  0.00     0.014 C 
ATOM     68  C   UNL A   1      33.234  25.696  25.752  1.00  0.00     0.033 C 
ATOM     69  C   UNL A   1      31.551  25.238  23.947  1.00  0.00     0.043 C 
ATOM     70  C   UNL A   1      32.391  26.973  25.771  1.00  0.00     0.161 C 
ATOM     71  C   UNL A   1      32.002  26.618  23.421  1.00  0.00     0.094 C 
ATOM     72  O   UNL A   1      32.184  27.549  24.484  1.00  0.00    -0.372 OA
ATOM     73  C   UNL A   1      33.265  26.565  22.562  1.00  0.00     0.066 C 
ATOM     74  C   UNL A   1      31.035  27.143  22.357  1.00  0.00     0.195 C 
ATOM     75  C   UNL A   1      32.741  25.992  21.267  1.00  0.00     0.163 C 
ATOM     76  O   UNL A   1      31.417  26.524  21.108  1.00  0.00    -0.378 OA
ENDBRANCH  62  67
ENDBRANCH  60  62
ENDBRANCH  59  60
ENDBRANCH  58  59
ENDBRANCH  57  58
ENDBRANCH  56  57
ENDBRANCH   1  56
TORSDOF 15
ENDMDL
