MODEL 1
REMARK VINA RESULT:     -11.9      0.000      0.000
REMARK SMILES COc1cccc([C@@H]2CC(c3cccc(C)c3)=NN2C(=O)CCC(=O)OCCOCCOC(=O)c2ccc(-c3c4nc(c(-c5ccccc5)c5ccc([nH]5)c(-c5ccccc5)c5nc(c(-c6ccccc6)c6ccc3[nH]6)C=C5)C=C4)cc2)c1
REMARK SMILES IDX 27 1 26 2 24 3 25 4 23 5 22 6 20 7 21 8 19 9 8 10 9 11 10 12
REMARK SMILES IDX 18 13 7 14 3 15 4 16 83 17 5 18 6 19 2 20 1 21 11 22 12 23
REMARK SMILES IDX 17 24 13 25 15 26 14 27 16 28 28 29 29 30 30 31 31 32 32 33
REMARK SMILES IDX 33 34 34 35 35 36 36 37 82 38 37 39 81 40 38 41 39 42 40 43
REMARK SMILES IDX 75 44 41 45 80 46 74 47 76 48 42 49 79 50 73 51 72 52 43 54
REMARK SMILES IDX 65 55 50 56 64 57 51 58 54 59 63 60 77 61 52 62 53 63 62 65
REMARK SMILES IDX 78 66 55 67 44 68 45 69 49 70 46 71 48 72 47 73 66 74 67 75
REMARK SMILES IDX 71 76 68 77 70 78 69 79 56 80 57 81 61 82 58 83 60 84 59 85
REMARK H PARENT 76 53 54 64
REMARK Flexibility Score: inf
ROOT
ATOM      1  C   UNL A   1      31.243  27.319  26.410  1.00  0.00     0.261 C 
ENDROOT
BRANCH   1   2
ATOM      2  O   UNL A   1      31.102  25.923  26.611  1.00  0.00    -0.463 OA
BRANCH   2   3
ATOM      3  C   UNL A   1      30.415  25.282  25.669  1.00  0.00     0.306 C 
ATOM      4  O   UNL A   1      29.714  25.828  24.799  1.00  0.00    -0.252 OA
BRANCH   3   5
ATOM      5  C   UNL A   1      30.634  23.826  25.785  1.00  0.00     0.132 C 
BRANCH   5   6
ATOM      6  C   UNL A   1      31.549  23.360  26.915  1.00  0.00     0.114 C 
BRANCH   6   7
ATOM      7  C   UNL A   1      33.113  23.105  26.903  1.00  0.00     0.243 C 
ATOM      8  O   UNL A   1      33.473  22.203  27.683  1.00  0.00    -0.273 OA
BRANCH   7   9
ATOM      9  N   UNL A   1      34.037  23.921  26.176  1.00  0.00    -0.225 N 
ATOM     10  C   UNL A   1      34.401  24.495  24.543  1.00  0.00     0.147 C 
ATOM     11  C   UNL A   1      35.758  23.858  24.276  1.00  0.00     0.091 C 
ATOM     12  C   UNL A   1      36.015  23.194  25.599  1.00  0.00     0.071 C 
ATOM     13  N   UNL A   1      35.239  23.388  26.605  1.00  0.00    -0.174 NA
BRANCH  10  14
ATOM     14  C   UNL A   1      33.492  25.420  23.385  1.00  0.00    -0.019 A 
ATOM     15  C   UNL A   1      32.325  27.580  22.957  1.00  0.00     0.119 A 
ATOM     16  C   UNL A   1      31.507  27.055  21.968  1.00  0.00     0.046 A 
ATOM     17  C   UNL A   1      33.373  26.824  23.555  1.00  0.00     0.052 A 
ATOM     18  C   UNL A   1      31.727  25.762  21.587  1.00  0.00     0.004 A 
ATOM     19  C   UNL A   1      32.668  24.988  22.295  1.00  0.00     0.006 A 
BRANCH  15  20
ATOM     20  O   UNL A   1      32.014  28.865  23.322  1.00  0.00    -0.497 OA
ATOM     21  C   UNL A   1      30.616  29.132  23.241  1.00  0.00     0.278 C 
ENDBRANCH  15  20
ENDBRANCH  10  14
BRANCH  12  22
ATOM     22  C   UNL A   1      36.918  22.070  25.692  1.00  0.00    -0.002 A 
ATOM     23  C   UNL A   1      36.348  20.909  25.198  1.00  0.00     0.010 A 
ATOM     24  C   UNL A   1      38.252  22.148  26.052  1.00  0.00     0.013 A 
ATOM     25  C   UNL A   1      37.186  19.887  24.852  1.00  0.00     0.001 A 
ATOM     26  C   UNL A   1      39.073  21.051  25.777  1.00  0.00    -0.050 A 
ATOM     27  C   UNL A   1      38.548  19.960  25.081  1.00  0.00     0.003 A 
ATOM     28  C   UNL A   1      40.519  21.047  26.141  1.00  0.00     0.044 C 
ENDBRANCH  12  22
ENDBRANCH   7   9
ENDBRANCH   6   7
ENDBRANCH   5   6
ENDBRANCH   3   5
ENDBRANCH   2   3
ENDBRANCH   1   2
BRANCH   1  29
ATOM     29  C   UNL A   1      31.780  28.117  27.650  1.00  0.00     0.202 C 
BRANCH  29  30
ATOM     30  O   UNL A   1      32.543  29.322  27.452  1.00  0.00    -0.374 OA
BRANCH  30  31
ATOM     31  C   UNL A   1      32.476  30.430  26.548  1.00  0.00     0.202 C 
BRANCH  31  32
ATOM     32  C   UNL A   1      31.573  31.944  26.893  1.00  0.00     0.261 C 
BRANCH  32  33
ATOM     33  O   UNL A   1      32.013  33.490  27.316  1.00  0.00    -0.460 OA
BRANCH  33  34
ATOM     34  C   UNL A   1      32.811  34.207  28.203  1.00  0.00     0.338 C 
ATOM     35  O   UNL A   1      32.480  35.231  28.801  1.00  0.00    -0.246 OA
BRANCH  34  36
ATOM     36  C   UNL A   1      34.184  33.862  28.723  1.00  0.00     0.060 A 
ATOM     37  C   UNL A   1      34.240  32.704  29.559  1.00  0.00     0.016 A 
ATOM     38  C   UNL A   1      35.342  34.625  28.668  1.00  0.00     0.016 A 
ATOM     39  C   UNL A   1      35.394  32.254  30.193  1.00  0.00     0.010 A 
ATOM     40  C   UNL A   1      36.518  34.198  29.364  1.00  0.00     0.010 A 
ATOM     41  C   UNL A   1      36.566  32.996  30.099  1.00  0.00    -0.014 A 
BRANCH  41  42
ATOM     42  C   UNL A   1      37.754  32.415  30.796  1.00  0.00     0.031 A 
ATOM     43  C   UNL A   1      37.926  32.637  32.265  1.00  0.00     0.074 A 
ATOM     44  C   UNL A   1      38.542  31.514  30.171  1.00  0.00     0.049 A 
ATOM     45  N   UNL A   1      38.883  32.188  33.027  1.00  0.00    -0.248 NA
ATOM     46  C   UNL A   1      36.996  33.559  32.934  1.00  0.00     0.031 C 
ATOM     47  C   UNL A   1      38.566  31.295  28.739  1.00  0.00     0.029 A 
ATOM     48  N   UNL A   1      39.351  30.509  30.647  1.00  0.00    -0.354 N 
ATOM     49  C   UNL A   1      38.795  32.926  34.196  1.00  0.00     0.074 A 
ATOM     50  C   UNL A   1      37.591  33.722  34.107  1.00  0.00     0.031 C 
ATOM     51  C   UNL A   1      39.034  30.063  28.485  1.00  0.00     0.029 A 
ATOM     52  C   UNL A   1      39.585  29.511  29.709  1.00  0.00     0.049 A 
ATOM     53  H   UNL A   1      39.725  30.498  31.557  1.00  0.00     0.167 HD
ATOM     54  C   UNL A   1      39.746  33.022  35.156  1.00  0.00     0.031 A 
ATOM     55  C   UNL A   1      40.206  28.318  29.841  1.00  0.00     0.031 A 
ATOM     56  C   UNL A   1      40.944  32.222  35.131  1.00  0.00     0.049 A 
ATOM     57  C   UNL A   1      41.108  28.251  31.045  1.00  0.00     0.074 A 
ATOM     58  C   UNL A   1      42.063  32.282  35.939  1.00  0.00     0.029 A 
ATOM     59  N   UNL A   1      41.163  31.187  34.224  1.00  0.00    -0.354 N 
ATOM     60  N   UNL A   1      41.134  29.046  32.088  1.00  0.00    -0.248 NA
ATOM     61  C   UNL A   1      42.193  27.262  31.005  1.00  0.00     0.031 C 
ATOM     62  C   UNL A   1      42.961  31.293  35.508  1.00  0.00     0.029 A 
ATOM     63  C   UNL A   1      42.381  30.581  34.467  1.00  0.00     0.049 A 
ATOM     64  H   UNL A   1      40.537  30.923  33.512  1.00  0.00     0.167 HD
ATOM     65  C   UNL A   1      42.310  28.755  32.753  1.00  0.00     0.074 A 
ATOM     66  C   UNL A   1      42.894  27.608  32.078  1.00  0.00     0.031 C 
ATOM     67  C   UNL A   1      42.905  29.434  33.765  1.00  0.00     0.031 A 
BRANCH  54  68
ATOM     68  C   UNL A   1      39.585  34.164  36.120  1.00  0.00    -0.014 A 
ATOM     69  C   UNL A   1      40.100  35.443  35.858  1.00  0.00     0.009 A 
ATOM     70  C   UNL A   1      39.036  33.904  37.388  1.00  0.00     0.009 A 
ATOM     71  C   UNL A   1      40.143  36.408  36.870  1.00  0.00     0.001 A 
ATOM     72  C   UNL A   1      39.051  34.881  38.388  1.00  0.00     0.001 A 
ATOM     73  C   UNL A   1      39.625  36.125  38.135  1.00  0.00     0.000 A 
ENDBRANCH  54  68
BRANCH  55  74
ATOM     74  C   UNL A   1      40.216  27.236  28.797  1.00  0.00    -0.014 A 
ATOM     75  C   UNL A   1      41.123  27.291  27.719  1.00  0.00     0.009 A 
ATOM     76  C   UNL A   1      39.325  26.151  28.825  1.00  0.00     0.009 A 
ATOM     77  C   UNL A   1      41.139  26.299  26.725  1.00  0.00     0.001 A 
ATOM     78  C   UNL A   1      39.379  25.130  27.869  1.00  0.00     0.001 A 
ATOM     79  C   UNL A   1      40.279  25.208  26.813  1.00  0.00     0.000 A 
ENDBRANCH  55  74
BRANCH  67  80
ATOM     80  C   UNL A   1      44.246  28.924  34.187  1.00  0.00    -0.014 A 
ATOM     81  C   UNL A   1      45.427  29.450  33.639  1.00  0.00     0.009 A 
ATOM     82  C   UNL A   1      44.321  27.925  35.167  1.00  0.00     0.009 A 
ATOM     83  C   UNL A   1      46.665  28.963  34.053  1.00  0.00     0.001 A 
ATOM     84  C   UNL A   1      45.562  27.459  35.594  1.00  0.00     0.001 A 
ATOM     85  C   UNL A   1      46.731  27.971  35.032  1.00  0.00     0.000 A 
ENDBRANCH  67  80
ENDBRANCH  41  42
ENDBRANCH  34  36
ENDBRANCH  33  34
ENDBRANCH  32  33
ENDBRANCH  31  32
ENDBRANCH  30  31
ENDBRANCH  29  30
ENDBRANCH   1  29
TORSDOF 20
ENDMDL
MODEL 2
REMARK VINA RESULT:     -11.7      4.136      8.942
REMARK SMILES COc1cccc([C@@H]2CC(c3cccc(C)c3)=NN2C(=O)CCC(=O)OCCOCCOC(=O)c2ccc(-c3c4nc(c(-c5ccccc5)c5ccc([nH]5)c(-c5ccccc5)c5nc(c(-c6ccccc6)c6ccc3[nH]6)C=C5)C=C4)cc2)c1
REMARK SMILES IDX 27 1 26 2 24 3 25 4 23 5 22 6 20 7 21 8 19 9 8 10 9 11 10 12
REMARK SMILES IDX 18 13 7 14 3 15 4 16 83 17 5 18 6 19 2 20 1 21 11 22 12 23
REMARK SMILES IDX 17 24 13 25 15 26 14 27 16 28 28 29 29 30 30 31 31 32 32 33
REMARK SMILES IDX 33 34 34 35 35 36 36 37 82 38 37 39 81 40 38 41 39 42 40 43
REMARK SMILES IDX 75 44 41 45 80 46 74 47 76 48 42 49 79 50 73 51 72 52 43 54
REMARK SMILES IDX 65 55 50 56 64 57 51 58 54 59 63 60 77 61 52 62 53 63 62 65
REMARK SMILES IDX 78 66 55 67 44 68 45 69 49 70 46 71 48 72 47 73 66 74 67 75
REMARK SMILES IDX 71 76 68 77 70 78 69 79 56 80 57 81 61 82 58 83 60 84 59 85
REMARK H PARENT 76 53 54 64
REMARK Flexibility Score: inf
ROOT
ATOM      1  C   UNL A   1      33.485  33.290  27.997  1.00  0.00     0.261 C 
ENDROOT
BRANCH   1   2
ATOM      2  O   UNL A   1      34.725  32.671  27.700  1.00  0.00    -0.463 OA
BRANCH   2   3
ATOM      3  C   UNL A   1      34.692  31.343  27.630  1.00  0.00     0.306 C 
ATOM      4  O   UNL A   1      35.654  30.591  27.863  1.00  0.00    -0.252 OA
BRANCH   3   5
ATOM      5  C   UNL A   1      33.334  30.889  27.266  1.00  0.00     0.132 C 
BRANCH   5   6
ATOM      6  C   UNL A   1      33.127  29.380  27.155  1.00  0.00     0.114 C 
BRANCH   6   7
ATOM      7  C   UNL A   1      33.314  28.428  25.901  1.00  0.00     0.243 C 
ATOM      8  O   UNL A   1      34.214  28.802  25.126  1.00  0.00    -0.273 OA
BRANCH   7   9
ATOM      9  N   UNL A   1      32.445  27.328  25.612  1.00  0.00    -0.225 N 
ATOM     10  C   UNL A   1      32.270  25.940  24.531  1.00  0.00     0.147 C 
ATOM     11  C   UNL A   1      31.007  26.296  23.757  1.00  0.00     0.091 C 
ATOM     12  C   UNL A   1      30.617  27.576  24.441  1.00  0.00     0.071 C 
ATOM     13  N   UNL A   1      31.234  27.985  25.492  1.00  0.00    -0.174 NA
BRANCH  10  14
ATOM     14  C   UNL A   1      33.265  24.547  24.224  1.00  0.00    -0.019 A 
ATOM     15  C   UNL A   1      33.926  22.287  25.040  1.00  0.00     0.119 A 
ATOM     16  C   UNL A   1      35.143  22.295  24.376  1.00  0.00     0.046 A 
ATOM     17  C   UNL A   1      32.959  23.319  24.867  1.00  0.00     0.052 A 
ATOM     18  C   UNL A   1      35.402  23.349  23.546  1.00  0.00     0.004 A 
ATOM     19  C   UNL A   1      34.500  24.431  23.506  1.00  0.00     0.006 A 
BRANCH  15  20
ATOM     20  O   UNL A   1      33.755  21.225  25.890  1.00  0.00    -0.497 OA
ATOM     21  C   UNL A   1      34.172  21.519  27.221  1.00  0.00     0.278 C 
ENDBRANCH  15  20
ENDBRANCH  10  14
BRANCH  12  22
ATOM     22  C   UNL A   1      29.788  28.545  23.764  1.00  0.00    -0.002 A 
ATOM     23  C   UNL A   1      28.681  27.956  23.177  1.00  0.00     0.010 A 
ATOM     24  C   UNL A   1      29.951  29.918  23.831  1.00  0.00     0.013 A 
ATOM     25  C   UNL A   1      27.625  28.762  22.860  1.00  0.00     0.001 A 
ATOM     26  C   UNL A   1      28.893  30.727  23.409  1.00  0.00    -0.050 A 
ATOM     27  C   UNL A   1      27.691  30.135  23.018  1.00  0.00     0.003 A 
ATOM     28  C   UNL A   1      28.988  32.216  23.437  1.00  0.00     0.044 C 
ENDBRANCH  12  22
ENDBRANCH   7   9
ENDBRANCH   6   7
ENDBRANCH   5   6
ENDBRANCH   3   5
ENDBRANCH   2   3
ENDBRANCH   1   2
BRANCH   1  29
ATOM     29  C   UNL A   1      33.590  34.626  28.814  1.00  0.00     0.202 C 
BRANCH  29  30
ATOM     30  O   UNL A   1      33.127  34.671  30.178  1.00  0.00    -0.374 OA
BRANCH  30  31
ATOM     31  C   UNL A   1      33.668  35.138  31.418  1.00  0.00     0.202 C 
BRANCH  31  32
ATOM     32  C   UNL A   1      34.177  34.051  32.755  1.00  0.00     0.261 C 
BRANCH  32  33
ATOM     33  O   UNL A   1      35.001  32.612  32.833  1.00  0.00    -0.460 OA
BRANCH  33  34
ATOM     34  C   UNL A   1      36.273  32.076  33.023  1.00  0.00     0.338 C 
ATOM     35  O   UNL A   1      36.783  31.803  34.110  1.00  0.00    -0.246 OA
BRANCH  34  36
ATOM     36  C   UNL A   1      37.260  31.609  31.984  1.00  0.00     0.060 A 
ATOM     37  C   UNL A   1      38.311  30.778  32.481  1.00  0.00     0.016 A 
ATOM     38  C   UNL A   1      37.400  32.042  30.673  1.00  0.00     0.016 A 
ATOM     39  C   UNL A   1      39.359  30.295  31.703  1.00  0.00     0.010 A 
ATOM     40  C   UNL A   1      38.508  31.596  29.882  1.00  0.00     0.010 A 
ATOM     41  C   UNL A   1      39.472  30.694  30.375  1.00  0.00    -0.014 A 
BRANCH  41  42
ATOM     42  C   UNL A   1      40.619  30.102  29.621  1.00  0.00     0.031 A 
ATOM     43  C   UNL A   1      40.379  28.946  28.704  1.00  0.00     0.074 A 
ATOM     44  C   UNL A   1      41.813  30.734  29.583  1.00  0.00     0.049 A 
ATOM     45  N   UNL A   1      41.254  28.328  27.961  1.00  0.00    -0.248 NA
ATOM     46  C   UNL A   1      39.042  28.334  28.706  1.00  0.00     0.031 C 
ATOM     47  C   UNL A   1      42.219  31.780  30.500  1.00  0.00     0.029 A 
ATOM     48  N   UNL A   1      42.836  30.716  28.665  1.00  0.00    -0.354 N 
ATOM     49  C   UNL A   1      40.638  27.149  27.576  1.00  0.00     0.074 A 
ATOM     50  C   UNL A   1      39.263  27.222  28.020  1.00  0.00     0.031 C 
ATOM     51  C   UNL A   1      43.182  32.522  29.929  1.00  0.00     0.029 A 
ATOM     52  C   UNL A   1      43.638  31.849  28.727  1.00  0.00     0.049 A 
ATOM     53  H   UNL A   1      42.986  29.978  28.032  1.00  0.00     0.167 HD
ATOM     54  C   UNL A   1      41.248  26.062  27.047  1.00  0.00     0.031 A 
ATOM     55  C   UNL A   1      44.641  32.253  27.916  1.00  0.00     0.031 A 
ATOM     56  C   UNL A   1      42.643  26.067  26.683  1.00  0.00     0.049 A 
ATOM     57  C   UNL A   1      45.223  31.134  27.092  1.00  0.00     0.074 A 
ATOM     58  C   UNL A   1      43.450  25.028  26.264  1.00  0.00     0.029 A 
ATOM     59  N   UNL A   1      43.439  27.211  26.694  1.00  0.00    -0.354 N 
ATOM     60  N   UNL A   1      44.712  29.950  26.851  1.00  0.00    -0.248 NA
ATOM     61  C   UNL A   1      46.594  31.317  26.600  1.00  0.00     0.031 C 
ATOM     62  C   UNL A   1      44.736  25.543  26.038  1.00  0.00     0.029 A 
ATOM     63  C   UNL A   1      44.718  26.913  26.264  1.00  0.00     0.049 A 
ATOM     64  H   UNL A   1      43.134  28.105  26.969  1.00  0.00     0.167 HD
ATOM     65  C   UNL A   1      45.740  29.200  26.312  1.00  0.00     0.074 A 
ATOM     66  C   UNL A   1      46.859  30.108  26.123  1.00  0.00     0.031 C 
ATOM     67  C   UNL A   1      45.790  27.863  26.087  1.00  0.00     0.031 A 
BRANCH  54  68
ATOM     68  C   UNL A   1      40.449  24.789  27.072  1.00  0.00    -0.014 A 
ATOM     69  C   UNL A   1      40.921  23.620  27.687  1.00  0.00     0.009 A 
ATOM     70  C   UNL A   1      39.260  24.725  26.323  1.00  0.00     0.009 A 
ATOM     71  C   UNL A   1      40.266  22.401  27.485  1.00  0.00     0.001 A 
ATOM     72  C   UNL A   1      38.589  23.511  26.150  1.00  0.00     0.001 A 
ATOM     73  C   UNL A   1      39.105  22.346  26.712  1.00  0.00     0.000 A 
ENDBRANCH  54  68
BRANCH  55  74
ATOM     74  C   UNL A   1      45.298  33.604  27.972  1.00  0.00    -0.014 A 
ATOM     75  C   UNL A   1      46.165  33.933  29.033  1.00  0.00     0.009 A 
ATOM     76  C   UNL A   1      45.069  34.596  27.004  1.00  0.00     0.009 A 
ATOM     77  C   UNL A   1      46.778  35.195  29.113  1.00  0.00     0.001 A 
ATOM     78  C   UNL A   1      45.725  35.832  27.049  1.00  0.00     0.001 A 
ATOM     79  C   UNL A   1      46.572  36.136  28.108  1.00  0.00     0.000 A 
ENDBRANCH  55  74
BRANCH  67  80
ATOM     80  C   UNL A   1      47.103  27.337  25.602  1.00  0.00    -0.014 A 
ATOM     81  C   UNL A   1      47.413  27.311  24.233  1.00  0.00     0.009 A 
ATOM     82  C   UNL A   1      48.048  26.892  26.536  1.00  0.00     0.009 A 
ATOM     83  C   UNL A   1      48.646  26.822  23.806  1.00  0.00     0.001 A 
ATOM     84  C   UNL A   1      49.288  26.426  26.106  1.00  0.00     0.001 A 
ATOM     85  C   UNL A   1      49.583  26.384  24.743  1.00  0.00     0.000 A 
ENDBRANCH  67  80
ENDBRANCH  41  42
ENDBRANCH  34  36
ENDBRANCH  33  34
ENDBRANCH  32  33
ENDBRANCH  31  32
ENDBRANCH  30  31
ENDBRANCH  29  30
ENDBRANCH   1  29
TORSDOF 20
ENDMDL
MODEL 3
REMARK VINA RESULT:     -11.7      3.925      7.933
REMARK SMILES COc1cccc([C@@H]2CC(c3cccc(C)c3)=NN2C(=O)CCC(=O)OCCOCCOC(=O)c2ccc(-c3c4nc(c(-c5ccccc5)c5ccc([nH]5)c(-c5ccccc5)c5nc(c(-c6ccccc6)c6ccc3[nH]6)C=C5)C=C4)cc2)c1
REMARK SMILES IDX 27 1 26 2 24 3 25 4 23 5 22 6 20 7 21 8 19 9 8 10 9 11 10 12
REMARK SMILES IDX 18 13 7 14 3 15 4 16 83 17 5 18 6 19 2 20 1 21 11 22 12 23
REMARK SMILES IDX 17 24 13 25 15 26 14 27 16 28 28 29 29 30 30 31 31 32 32 33
REMARK SMILES IDX 33 34 34 35 35 36 36 37 82 38 37 39 81 40 38 41 39 42 40 43
REMARK SMILES IDX 75 44 41 45 80 46 74 47 76 48 42 49 79 50 73 51 72 52 43 54
REMARK SMILES IDX 65 55 50 56 64 57 51 58 54 59 63 60 77 61 52 62 53 63 62 65
REMARK SMILES IDX 78 66 55 67 44 68 45 69 49 70 46 71 48 72 47 73 66 74 67 75
REMARK SMILES IDX 71 76 68 77 70 78 69 79 56 80 57 81 61 82 58 83 60 84 59 85
REMARK H PARENT 76 53 54 64
REMARK Flexibility Score: inf
ROOT
ATOM      1  C   UNL A   1      31.811  23.636  23.893  1.00  0.00     0.261 C 
ENDROOT
BRANCH   1   2
ATOM      2  O   UNL A   1      31.895  24.602  22.860  1.00  0.00    -0.463 OA
BRANCH   2   3
ATOM      3  C   UNL A   1      33.050  24.628  22.201  1.00  0.00     0.306 C 
ATOM      4  O   UNL A   1      33.267  24.060  21.117  1.00  0.00    -0.252 OA
BRANCH   3   5
ATOM      5  C   UNL A   1      34.030  25.459  22.929  1.00  0.00     0.132 C 
BRANCH   5   6
ATOM      6  C   UNL A   1      33.479  26.679  23.663  1.00  0.00     0.114 C 
BRANCH   6   7
ATOM      7  C   UNL A   1      33.149  26.864  25.202  1.00  0.00     0.243 C 
ATOM      8  O   UNL A   1      33.649  25.982  25.925  1.00  0.00    -0.273 OA
BRANCH   7   9
ATOM      9  N   UNL A   1      32.252  27.862  25.700  1.00  0.00    -0.225 N 
ATOM     10  C   UNL A   1      31.345  29.294  25.196  1.00  0.00     0.147 C 
ATOM     11  C   UNL A   1      31.992  30.391  26.032  1.00  0.00     0.091 C 
ATOM     12  C   UNL A   1      32.956  29.579  26.851  1.00  0.00     0.071 C 
ATOM     13  N   UNL A   1      32.946  28.295  26.815  1.00  0.00    -0.174 NA
BRANCH  10  14
ATOM     14  C   UNL A   1      30.123  29.556  23.988  1.00  0.00    -0.019 A 
ATOM     15  C   UNL A   1      28.443  31.164  23.094  1.00  0.00     0.119 A 
ATOM     16  C   UNL A   1      27.667  30.178  22.505  1.00  0.00     0.046 A 
ATOM     17  C   UNL A   1      29.699  30.879  23.702  1.00  0.00     0.052 A 
ATOM     18  C   UNL A   1      28.140  28.898  22.539  1.00  0.00     0.004 A 
ATOM     19  C   UNL A   1      29.308  28.616  23.276  1.00  0.00     0.006 A 
BRANCH  15  20
ATOM     20  O   UNL A   1      27.882  32.415  23.063  1.00  0.00    -0.497 OA
ATOM     21  C   UNL A   1      28.861  33.452  23.065  1.00  0.00     0.278 C 
ENDBRANCH  15  20
ENDBRANCH  10  14
BRANCH  12  22
ATOM     22  C   UNL A   1      34.128  30.196  27.428  1.00  0.00    -0.002 A 
ATOM     23  C   UNL A   1      35.219  29.343  27.415  1.00  0.00     0.010 A 
ATOM     24  C   UNL A   1      34.231  31.529  27.786  1.00  0.00     0.013 A 
ATOM     25  C   UNL A   1      36.460  29.897  27.547  1.00  0.00     0.001 A 
ATOM     26  C   UNL A   1      35.507  32.052  28.012  1.00  0.00    -0.050 A 
ATOM     27  C   UNL A   1      36.627  31.249  27.789  1.00  0.00     0.003 A 
ATOM     28  C   UNL A   1      35.709  33.475  28.412  1.00  0.00     0.044 C 
ENDBRANCH  12  22
ENDBRANCH   7   9
ENDBRANCH   6   7
ENDBRANCH   5   6
ENDBRANCH   3   5
ENDBRANCH   2   3
ENDBRANCH   1   2
BRANCH   1  29
ATOM     29  C   UNL A   1      32.579  22.296  23.613  1.00  0.00     0.202 C 
BRANCH  29  30
ATOM     30  O   UNL A   1      33.706  21.930  24.432  1.00  0.00    -0.374 OA
BRANCH  30  31
ATOM     31  C   UNL A   1      35.124  21.883  24.243  1.00  0.00     0.202 C 
BRANCH  31  32
ATOM     32  C   UNL A   1      36.187  20.639  24.987  1.00  0.00     0.261 C 
BRANCH  32  33
ATOM     33  O   UNL A   1      37.507  20.688  25.993  1.00  0.00    -0.460 OA
BRANCH  33  34
ATOM     34  C   UNL A   1      38.791  21.215  26.104  1.00  0.00     0.338 C 
ATOM     35  O   UNL A   1      39.841  20.583  25.972  1.00  0.00    -0.246 OA
BRANCH  34  36
ATOM     36  C   UNL A   1      39.206  22.652  26.291  1.00  0.00     0.060 A 
ATOM     37  C   UNL A   1      40.494  22.838  26.881  1.00  0.00     0.016 A 
ATOM     38  C   UNL A   1      38.429  23.795  26.164  1.00  0.00     0.016 A 
ATOM     39  C   UNL A   1      41.036  24.079  27.199  1.00  0.00     0.010 A 
ATOM     40  C   UNL A   1      38.958  25.071  26.543  1.00  0.00     0.010 A 
ATOM     41  C   UNL A   1      40.272  25.228  27.027  1.00  0.00    -0.014 A 
BRANCH  41  42
ATOM     42  C   UNL A   1      40.954  26.512  27.378  1.00  0.00     0.031 A 
ATOM     43  C   UNL A   1      40.590  27.215  28.646  1.00  0.00     0.074 A 
ATOM     44  C   UNL A   1      42.040  26.922  26.687  1.00  0.00     0.049 A 
ATOM     45  N   UNL A   1      41.096  28.323  29.111  1.00  0.00    -0.248 NA
ATOM     46  C   UNL A   1      39.455  26.693  29.420  1.00  0.00     0.031 C 
ATOM     47  C   UNL A   1      42.428  26.414  25.387  1.00  0.00     0.029 A 
ATOM     48  N   UNL A   1      43.100  27.728  27.030  1.00  0.00    -0.354 N 
ATOM     49  C   UNL A   1      40.220  28.737  30.101  1.00  0.00     0.074 A 
ATOM     50  C   UNL A   1      39.254  27.677  30.284  1.00  0.00     0.031 C 
ATOM     51  C   UNL A   1      43.742  26.620  25.203  1.00  0.00     0.029 A 
ATOM     52  C   UNL A   1      44.227  27.501  26.249  1.00  0.00     0.049 A 
ATOM     53  H   UNL A   1      43.064  28.396  27.752  1.00  0.00     0.167 HD
ATOM     54  C   UNL A   1      40.168  29.970  30.660  1.00  0.00     0.031 A 
ATOM     55  C   UNL A   1      45.481  27.991  26.366  1.00  0.00     0.031 A 
ATOM     56  C   UNL A   1      41.151  30.984  30.373  1.00  0.00     0.049 A 
ATOM     57  C   UNL A   1      45.553  29.245  27.195  1.00  0.00     0.074 A 
ATOM     58  C   UNL A   1      41.180  32.315  30.741  1.00  0.00     0.029 A 
ATOM     59  N   UNL A   1      42.309  30.750  29.633  1.00  0.00    -0.354 N 
ATOM     60  N   UNL A   1      44.654  29.728  28.021  1.00  0.00    -0.248 NA
ATOM     61  C   UNL A   1      46.704  30.128  26.964  1.00  0.00     0.031 C 
ATOM     62  C   UNL A   1      42.347  32.885  30.209  1.00  0.00     0.029 A 
ATOM     63  C   UNL A   1      43.073  31.899  29.556  1.00  0.00     0.049 A 
ATOM     64  H   UNL A   1      42.549  29.887  29.225  1.00  0.00     0.167 HD
ATOM     65  C   UNL A   1      45.053  31.022  28.296  1.00  0.00     0.074 A 
ATOM     66  C   UNL A   1      46.353  31.196  27.669  1.00  0.00     0.031 C 
ATOM     67  C   UNL A   1      44.366  32.008  28.924  1.00  0.00     0.031 A 
BRANCH  54  68
ATOM     68  C   UNL A   1      38.909  30.290  31.415  1.00  0.00    -0.014 A 
ATOM     69  C   UNL A   1      37.783  30.850  30.792  1.00  0.00     0.009 A 
ATOM     70  C   UNL A   1      38.913  30.166  32.816  1.00  0.00     0.009 A 
ATOM     71  C   UNL A   1      36.727  31.353  31.560  1.00  0.00     0.001 A 
ATOM     72  C   UNL A   1      37.842  30.640  33.579  1.00  0.00     0.001 A 
ATOM     73  C   UNL A   1      36.760  31.254  32.952  1.00  0.00     0.000 A 
ENDBRANCH  54  68
BRANCH  55  74
ATOM     74  C   UNL A   1      46.667  27.509  25.576  1.00  0.00    -0.014 A 
ATOM     75  C   UNL A   1      46.846  27.915  24.238  1.00  0.00     0.009 A 
ATOM     76  C   UNL A   1      47.623  26.629  26.109  1.00  0.00     0.009 A 
ATOM     77  C   UNL A   1      47.938  27.465  23.477  1.00  0.00     0.001 A 
ATOM     78  C   UNL A   1      48.744  26.227  25.372  1.00  0.00     0.001 A 
ATOM     79  C   UNL A   1      48.898  26.637  24.053  1.00  0.00     0.000 A 
ENDBRANCH  55  74
BRANCH  67  80
ATOM     80  C   UNL A   1      45.036  33.345  28.955  1.00  0.00    -0.014 A 
ATOM     81  C   UNL A   1      44.827  34.285  27.933  1.00  0.00     0.009 A 
ATOM     82  C   UNL A   1      45.859  33.672  30.041  1.00  0.00     0.009 A 
ATOM     83  C   UNL A   1      45.457  35.526  27.988  1.00  0.00     0.001 A 
ATOM     84  C   UNL A   1      46.468  34.923  30.102  1.00  0.00     0.001 A 
ATOM     85  C   UNL A   1      46.273  35.845  29.074  1.00  0.00     0.000 A 
ENDBRANCH  67  80
ENDBRANCH  41  42
ENDBRANCH  34  36
ENDBRANCH  33  34
ENDBRANCH  32  33
ENDBRANCH  31  32
ENDBRANCH  30  31
ENDBRANCH  29  30
ENDBRANCH   1  29
TORSDOF 20
ENDMDL
