MODEL 1
REMARK VINA RESULT:     -12.0      0.000      0.000
REMARK SMILES O=C(OCCOCCOC(=O)[C@H]1CCCC[C@H]1C(=O)N1CCN(S(=O)(=O)c2ccc(F)cc2)CC1)c1ccc(-c2c3nc(c(-c4ccccc4)c4ccc([nH]4)c(-c4ccccc4)c4nc(c(-c5ccccc5)c5ccc2[nH]5)C=C4)C=C3)cc1
REMARK SMILES IDX 7 1 6 2 5 3 4 4 3 5 2 6 1 7 36 8 37 9 83 10 38 11 82 12
REMARK SMILES IDX 39 13 40 14 41 15 76 16 42 17 81 18 75 19 77 20 43 21 80 22
REMARK SMILES IDX 74 23 73 24 44 26 66 27 51 28 65 29 52 30 55 31 64 32 78 33
REMARK SMILES IDX 53 34 54 35 63 37 79 38 56 39 45 40 46 41 50 42 47 43 49 44
REMARK SMILES IDX 48 45 67 46 68 47 72 48 69 49 71 50 70 51 57 52 58 53 62 54
REMARK SMILES IDX 59 55 61 56 60 57 8 58 9 59 10 60 11 61 12 62 13 63 17 64
REMARK SMILES IDX 14 65 16 66 15 67 18 68 19 69 20 70 21 71 35 72 22 73 34 74
REMARK SMILES IDX 23 75 24 76 25 77 26 78 27 79 28 80 33 81 29 82 32 83 30 84
REMARK SMILES IDX 31 85
REMARK H PARENT 77 25 55 36
REMARK Flexibility Score: inf
ROOT
ATOM      1  C   UNL A   1      32.630  29.985  26.321  1.00  0.00     0.202 C 
ENDROOT
BRANCH   1   2
ATOM      2  O   UNL A   1      31.558  30.766  25.809  1.00  0.00    -0.374 OA
BRANCH   2   3
ATOM      3  C   UNL A   1      31.245  31.955  26.538  1.00  0.00     0.202 C 
BRANCH   3   4
ATOM      4  C   UNL A   1      32.484  32.579  27.182  1.00  0.00     0.261 C 
BRANCH   4   5
ATOM      5  O   UNL A   1      32.214  33.915  27.635  1.00  0.00    -0.460 OA
BRANCH   5   6
ATOM      6  C   UNL A   1      32.982  34.660  28.470  1.00  0.00     0.338 C 
ATOM      7  O   UNL A   1      32.622  35.808  28.727  1.00  0.00    -0.246 OA
BRANCH   6   8
ATOM      8  C   UNL A   1      34.222  34.149  29.145  1.00  0.00     0.060 A 
ATOM      9  C   UNL A   1      35.519  34.227  28.634  1.00  0.00     0.016 A 
ATOM     10  C   UNL A   1      34.062  33.583  30.421  1.00  0.00     0.016 A 
ATOM     11  C   UNL A   1      36.607  33.704  29.298  1.00  0.00     0.010 A 
ATOM     12  C   UNL A   1      35.163  33.086  31.127  1.00  0.00     0.010 A 
ATOM     13  C   UNL A   1      36.435  33.128  30.543  1.00  0.00    -0.014 A 
BRANCH  13  14
ATOM     14  C   UNL A   1      37.591  32.428  31.107  1.00  0.00     0.031 A 
ATOM     15  C   UNL A   1      38.248  33.035  32.302  1.00  0.00     0.074 A 
ATOM     16  C   UNL A   1      37.908  31.195  30.679  1.00  0.00     0.049 A 
ATOM     17  N   UNL A   1      39.294  32.623  32.956  1.00  0.00    -0.248 NA
ATOM     18  C   UNL A   1      37.593  34.225  32.880  1.00  0.00     0.031 C 
ATOM     19  C   UNL A   1      37.145  30.407  29.711  1.00  0.00     0.029 A 
ATOM     20  N   UNL A   1      38.968  30.392  30.986  1.00  0.00    -0.354 N 
ATOM     21  C   UNL A   1      39.388  33.462  34.056  1.00  0.00     0.074 A 
ATOM     22  C   UNL A   1      38.349  34.457  33.941  1.00  0.00     0.031 C 
ATOM     23  C   UNL A   1      37.839  29.306  29.384  1.00  0.00     0.029 A 
ATOM     24  C   UNL A   1      39.083  29.324  30.127  1.00  0.00     0.049 A 
ATOM     25  H   UNL A   1      39.582  30.558  31.737  1.00  0.00     0.167 HD
ATOM     26  C   UNL A   1      40.248  33.366  35.092  1.00  0.00     0.031 A 
ATOM     27  C   UNL A   1      40.124  28.502  29.930  1.00  0.00     0.031 A 
ATOM     28  C   UNL A   1      41.300  32.391  35.136  1.00  0.00     0.049 A 
ATOM     29  C   UNL A   1      41.266  28.620  30.887  1.00  0.00     0.074 A 
ATOM     30  C   UNL A   1      42.299  32.230  36.074  1.00  0.00     0.029 A 
ATOM     31  N   UNL A   1      41.489  31.411  34.168  1.00  0.00    -0.354 N 
ATOM     32  N   UNL A   1      41.405  29.450  31.893  1.00  0.00    -0.248 NA
ATOM     33  C   UNL A   1      42.355  27.657  30.729  1.00  0.00     0.031 C 
ATOM     34  C   UNL A   1      43.130  31.190  35.639  1.00  0.00     0.029 A 
ATOM     35  C   UNL A   1      42.611  30.662  34.464  1.00  0.00     0.049 A 
ATOM     36  H   UNL A   1      40.909  31.272  33.385  1.00  0.00     0.167 HD
ATOM     37  C   UNL A   1      42.562  29.062  32.543  1.00  0.00     0.074 A 
ATOM     38  C   UNL A   1      43.094  27.936  31.794  1.00  0.00     0.031 C 
ATOM     39  C   UNL A   1      43.113  29.561  33.677  1.00  0.00     0.031 A 
BRANCH  26  40
ATOM     40  C   UNL A   1      40.080  34.368  36.195  1.00  0.00    -0.014 A 
ATOM     41  C   UNL A   1      40.764  35.595  36.167  1.00  0.00     0.009 A 
ATOM     42  C   UNL A   1      39.289  34.055  37.308  1.00  0.00     0.009 A 
ATOM     43  C   UNL A   1      40.685  36.474  37.251  1.00  0.00     0.001 A 
ATOM     44  C   UNL A   1      39.194  34.946  38.380  1.00  0.00     0.001 A 
ATOM     45  C   UNL A   1      39.901  36.148  38.355  1.00  0.00     0.000 A 
ENDBRANCH  26  40
BRANCH  27  46
ATOM     46  C   UNL A   1      40.147  27.574  28.775  1.00  0.00    -0.014 A 
ATOM     47  C   UNL A   1      39.628  26.277  28.862  1.00  0.00     0.009 A 
ATOM     48  C   UNL A   1      40.729  27.992  27.565  1.00  0.00     0.009 A 
ATOM     49  C   UNL A   1      39.727  25.404  27.776  1.00  0.00     0.001 A 
ATOM     50  C   UNL A   1      40.809  27.124  26.475  1.00  0.00     0.001 A 
ATOM     51  C   UNL A   1      40.317  25.825  26.585  1.00  0.00     0.000 A 
ENDBRANCH  27  46
BRANCH  39  52
ATOM     52  C   UNL A   1      44.318  28.836  34.189  1.00  0.00    -0.014 A 
ATOM     53  C   UNL A   1      45.614  29.225  33.825  1.00  0.00     0.009 A 
ATOM     54  C   UNL A   1      44.140  27.744  35.052  1.00  0.00     0.009 A 
ATOM     55  C   UNL A   1      46.713  28.498  34.280  1.00  0.00     0.001 A 
ATOM     56  C   UNL A   1      45.242  27.045  35.537  1.00  0.00     0.001 A 
ATOM     57  C   UNL A   1      46.526  27.414  35.139  1.00  0.00     0.000 A 
ENDBRANCH  39  52
ENDBRANCH  13  14
ENDBRANCH   6   8
ENDBRANCH   5   6
ENDBRANCH   4   5
ENDBRANCH   3   4
ENDBRANCH   2   3
ENDBRANCH   1   2
BRANCH   1  58
ATOM     58  C   UNL A   1      32.123  28.585  26.634  1.00  0.00     0.261 C 
BRANCH  58  59
ATOM     59  O   UNL A   1      31.167  28.133  25.660  1.00  0.00    -0.463 OA
BRANCH  59  60
ATOM     60  C   UNL A   1      30.696  26.862  25.668  1.00  0.00     0.309 C 
ATOM     61  O   UNL A   1      30.370  26.215  26.654  1.00  0.00    -0.252 OA
BRANCH  60  62
ATOM     62  C   UNL A   1      30.569  26.307  24.266  1.00  0.00     0.111 C 
ATOM     63  C   UNL A   1      29.115  26.436  23.782  1.00  0.00     0.016 C 
ATOM     64  C   UNL A   1      31.549  26.921  23.261  1.00  0.00     0.093 C 
ATOM     65  C   UNL A   1      28.714  27.870  23.434  1.00  0.00     0.001 C 
ATOM     66  C   UNL A   1      31.211  28.382  22.942  1.00  0.00     0.014 C 
ATOM     67  C   UNL A   1      29.739  28.571  22.542  1.00  0.00     0.001 C 
BRANCH  64  68
ATOM     68  C   UNL A   1      33.038  26.680  23.585  1.00  0.00     0.226 C 
ATOM     69  O   UNL A   1      33.868  27.579  23.468  1.00  0.00    -0.275 OA
ATOM     70  N   UNL A   1      33.396  25.419  24.023  1.00  0.00    -0.340 N 
ATOM     71  C   UNL A   1      33.903  25.261  25.383  1.00  0.00     0.136 C 
ATOM     72  C   UNL A   1      34.145  24.559  23.109  1.00  0.00     0.136 C 
ATOM     73  C   UNL A   1      33.761  23.806  25.885  1.00  0.00     0.124 C 
ATOM     74  C   UNL A   1      33.851  23.102  23.447  1.00  0.00     0.124 C 
ATOM     75  N   UNL A   1      34.131  22.777  24.864  1.00  0.00    -0.194 NA
BRANCH  75  76
ATOM     76  S   UNL A   1      35.236  21.566  25.216  1.00  0.00     0.243 S 
ATOM     77  O   UNL A   1      36.337  21.708  24.276  1.00  0.00    -0.207 OA
ATOM     78  O   UNL A   1      35.453  21.553  26.638  1.00  0.00    -0.207 OA
BRANCH  76  79
ATOM     79  C   UNL A   1      34.444  20.004  24.819  1.00  0.00     0.082 A 
ATOM     80  C   UNL A   1      33.064  19.854  24.639  1.00  0.00     0.025 A 
ATOM     81  C   UNL A   1      35.287  18.892  24.666  1.00  0.00     0.025 A 
ATOM     82  C   UNL A   1      32.540  18.606  24.274  1.00  0.00     0.040 A 
ATOM     83  C   UNL A   1      34.757  17.653  24.294  1.00  0.00     0.040 A 
ATOM     84  C   UNL A   1      33.391  17.525  24.084  1.00  0.00     0.123 A 
ATOM     85  F   UNL A   1      32.891  16.353  23.673  1.00  0.00    -0.207 F 
ENDBRANCH  76  79
ENDBRANCH  75  76
ENDBRANCH  64  68
ENDBRANCH  60  62
ENDBRANCH  59  60
ENDBRANCH  58  59
ENDBRANCH   1  58
TORSDOF 17
ENDMDL
MODEL 2
REMARK VINA RESULT:     -11.0      1.421      5.897
REMARK SMILES O=C(OCCOCCOC(=O)[C@H]1CCCC[C@H]1C(=O)N1CCN(S(=O)(=O)c2ccc(F)cc2)CC1)c1ccc(-c2c3nc(c(-c4ccccc4)c4ccc([nH]4)c(-c4ccccc4)c4nc(c(-c5ccccc5)c5ccc2[nH]5)C=C4)C=C3)cc1
REMARK SMILES IDX 7 1 6 2 5 3 4 4 3 5 2 6 1 7 36 8 37 9 83 10 38 11 82 12
REMARK SMILES IDX 39 13 40 14 41 15 76 16 42 17 81 18 75 19 77 20 43 21 80 22
REMARK SMILES IDX 74 23 73 24 44 26 66 27 51 28 65 29 52 30 55 31 64 32 78 33
REMARK SMILES IDX 53 34 54 35 63 37 79 38 56 39 45 40 46 41 50 42 47 43 49 44
REMARK SMILES IDX 48 45 67 46 68 47 72 48 69 49 71 50 70 51 57 52 58 53 62 54
REMARK SMILES IDX 59 55 61 56 60 57 8 58 9 59 10 60 11 61 12 62 13 63 17 64
REMARK SMILES IDX 14 65 16 66 15 67 18 68 19 69 20 70 21 71 35 72 22 73 34 74
REMARK SMILES IDX 23 75 24 76 25 77 26 78 27 79 28 80 33 81 29 82 32 83 30 84
REMARK SMILES IDX 31 85
REMARK H PARENT 77 25 55 36
REMARK Flexibility Score: inf
ROOT
ATOM      1  C   UNL A   1      32.146  28.910  27.414  1.00  0.00     0.202 C 
ENDROOT
BRANCH   1   2
ATOM      2  O   UNL A   1      31.994  30.251  26.967  1.00  0.00    -0.374 OA
BRANCH   2   3
ATOM      3  C   UNL A   1      32.878  31.211  27.552  1.00  0.00     0.202 C 
BRANCH   3   4
ATOM      4  C   UNL A   1      32.771  32.579  26.875  1.00  0.00     0.261 C 
BRANCH   4   5
ATOM      5  O   UNL A   1      32.260  33.565  27.785  1.00  0.00    -0.460 OA
BRANCH   5   6
ATOM      6  C   UNL A   1      32.987  34.409  28.562  1.00  0.00     0.338 C 
ATOM      7  O   UNL A   1      32.591  35.566  28.697  1.00  0.00    -0.246 OA
BRANCH   6   8
ATOM      8  C   UNL A   1      34.220  33.999  29.312  1.00  0.00     0.060 A 
ATOM      9  C   UNL A   1      35.536  34.201  28.890  1.00  0.00     0.016 A 
ATOM     10  C   UNL A   1      34.028  33.400  30.569  1.00  0.00     0.016 A 
ATOM     11  C   UNL A   1      36.620  33.766  29.620  1.00  0.00     0.010 A 
ATOM     12  C   UNL A   1      35.120  32.992  31.342  1.00  0.00     0.010 A 
ATOM     13  C   UNL A   1      36.419  33.157  30.845  1.00  0.00    -0.014 A 
BRANCH  13  14
ATOM     14  C   UNL A   1      37.594  32.554  31.478  1.00  0.00     0.031 A 
ATOM     15  C   UNL A   1      38.178  31.342  30.831  1.00  0.00     0.074 A 
ATOM     16  C   UNL A   1      38.223  33.191  32.478  1.00  0.00     0.049 A 
ATOM     17  N   UNL A   1      39.190  30.619  31.214  1.00  0.00    -0.248 NA
ATOM     18  C   UNL A   1      37.589  30.935  29.540  1.00  0.00     0.031 C 
ATOM     19  C   UNL A   1      37.888  34.521  32.986  1.00  0.00     0.029 A 
ATOM     20  N   UNL A   1      39.266  32.798  33.267  1.00  0.00    -0.354 N 
ATOM     21  C   UNL A   1      39.398  29.713  30.186  1.00  0.00     0.074 A 
ATOM     22  C   UNL A   1      38.362  29.917  29.202  1.00  0.00     0.031 C 
ATOM     23  C   UNL A   1      38.599  34.770  34.096  1.00  0.00     0.029 A 
ATOM     24  C   UNL A   1      39.434  33.614  34.360  1.00  0.00     0.049 A 
ATOM     25  H   UNL A   1      39.834  32.017  33.075  1.00  0.00     0.167 HD
ATOM     26  C   UNL A   1      40.406  28.822  30.067  1.00  0.00     0.031 A 
ATOM     27  C   UNL A   1      40.140  33.400  35.480  1.00  0.00     0.031 A 
ATOM     28  C   UNL A   1      41.383  28.618  31.097  1.00  0.00     0.049 A 
ATOM     29  C   UNL A   1      41.026  32.195  35.497  1.00  0.00     0.074 A 
ATOM     30  C   UNL A   1      42.406  27.693  31.156  1.00  0.00     0.029 A 
ATOM     31  N   UNL A   1      41.437  29.360  32.272  1.00  0.00    -0.354 N 
ATOM     32  N   UNL A   1      41.189  31.289  34.562  1.00  0.00    -0.248 NA
ATOM     33  C   UNL A   1      41.868  32.018  36.679  1.00  0.00     0.031 C 
ATOM     34  C   UNL A   1      43.040  27.837  32.397  1.00  0.00     0.029 A 
ATOM     35  C   UNL A   1      42.452  28.892  33.082  1.00  0.00     0.049 A 
ATOM     36  H   UNL A   1      40.838  30.109  32.494  1.00  0.00     0.167 HD
ATOM     37  C   UNL A   1      42.211  30.472  35.006  1.00  0.00     0.074 A 
ATOM     38  C   UNL A   1      42.608  30.982  36.308  1.00  0.00     0.031 C 
ATOM     39  C   UNL A   1      42.798  29.422  34.380  1.00  0.00     0.031 A 
BRANCH  26  40
ATOM     40  C   UNL A   1      40.435  28.011  28.806  1.00  0.00    -0.014 A 
ATOM     41  C   UNL A   1      39.830  26.744  28.748  1.00  0.00     0.009 A 
ATOM     42  C   UNL A   1      41.134  28.482  27.688  1.00  0.00     0.009 A 
ATOM     43  C   UNL A   1      39.956  25.951  27.604  1.00  0.00     0.001 A 
ATOM     44  C   UNL A   1      41.240  27.697  26.538  1.00  0.00     0.001 A 
ATOM     45  C   UNL A   1      40.661  26.429  26.502  1.00  0.00     0.000 A 
ENDBRANCH  26  40
BRANCH  27  46
ATOM     46  C   UNL A   1      39.986  34.290  36.655  1.00  0.00    -0.014 A 
ATOM     47  C   UNL A   1      40.780  35.429  36.823  1.00  0.00     0.009 A 
ATOM     48  C   UNL A   1      39.038  33.971  37.642  1.00  0.00     0.009 A 
ATOM     49  C   UNL A   1      40.657  36.210  37.976  1.00  0.00     0.001 A 
ATOM     50  C   UNL A   1      38.904  34.762  38.783  1.00  0.00     0.001 A 
ATOM     51  C   UNL A   1      39.722  35.877  38.955  1.00  0.00     0.000 A 
ENDBRANCH  27  46
BRANCH  39  52
ATOM     52  C   UNL A   1      43.968  28.812  35.088  1.00  0.00    -0.014 A 
ATOM     53  C   UNL A   1      45.270  29.297  34.899  1.00  0.00     0.009 A 
ATOM     54  C   UNL A   1      43.750  27.733  35.956  1.00  0.00     0.009 A 
ATOM     55  C   UNL A   1      46.343  28.675  35.534  1.00  0.00     0.001 A 
ATOM     56  C   UNL A   1      44.821  27.139  36.621  1.00  0.00     0.001 A 
ATOM     57  C   UNL A   1      46.116  27.602  36.398  1.00  0.00     0.000 A 
ENDBRANCH  39  52
ENDBRANCH  13  14
ENDBRANCH   6   8
ENDBRANCH   5   6
ENDBRANCH   4   5
ENDBRANCH   3   4
ENDBRANCH   2   3
ENDBRANCH   1   2
BRANCH   1  58
ATOM     58  C   UNL A   1      32.465  28.020  26.222  1.00  0.00     0.261 C 
BRANCH  58  59
ATOM     59  O   UNL A   1      31.300  27.763  25.420  1.00  0.00    -0.463 OA
BRANCH  59  60
ATOM     60  C   UNL A   1      30.631  26.587  25.499  1.00  0.00     0.309 C 
ATOM     61  O   UNL A   1      30.321  25.997  26.525  1.00  0.00    -0.252 OA
BRANCH  60  62
ATOM     62  C   UNL A   1      30.252  26.068  24.129  1.00  0.00     0.111 C 
ATOM     63  C   UNL A   1      28.960  26.752  23.650  1.00  0.00     0.016 C 
ATOM     64  C   UNL A   1      31.368  26.190  23.086  1.00  0.00     0.093 C 
ATOM     65  C   UNL A   1      29.160  28.208  23.231  1.00  0.00     0.001 C 
ATOM     66  C   UNL A   1      31.638  27.647  22.694  1.00  0.00     0.014 C 
ATOM     67  C   UNL A   1      30.355  28.397  22.296  1.00  0.00     0.001 C 
BRANCH  64  68
ATOM     68  C   UNL A   1      32.643  25.383  23.411  1.00  0.00     0.226 C 
ATOM     69  O   UNL A   1      33.749  25.919  23.421  1.00  0.00    -0.275 OA
ATOM     70  N   UNL A   1      32.487  24.041  23.700  1.00  0.00    -0.340 N 
ATOM     71  C   UNL A   1      32.813  23.566  25.041  1.00  0.00     0.136 C 
ATOM     72  C   UNL A   1      32.930  23.067  22.705  1.00  0.00     0.136 C 
ATOM     73  C   UNL A   1      32.118  22.222  25.360  1.00  0.00     0.124 C 
ATOM     74  C   UNL A   1      32.104  21.794  22.858  1.00  0.00     0.124 C 
ATOM     75  N   UNL A   1      32.153  21.242  24.230  1.00  0.00    -0.194 NA
BRANCH  75  76
ATOM     76  S   UNL A   1      32.716  19.679  24.456  1.00  0.00     0.243 S 
ATOM     77  O   UNL A   1      32.216  19.228  25.746  1.00  0.00    -0.207 OA
ATOM     78  O   UNL A   1      32.474  18.934  23.250  1.00  0.00    -0.207 OA
BRANCH  76  79
ATOM     79  C   UNL A   1      34.500  19.785  24.626  1.00  0.00     0.082 A 
ATOM     80  C   UNL A   1      35.198  20.989  24.776  1.00  0.00     0.025 A 
ATOM     81  C   UNL A   1      35.205  18.571  24.626  1.00  0.00     0.025 A 
ATOM     82  C   UNL A   1      36.588  20.971  24.960  1.00  0.00     0.040 A 
ATOM     83  C   UNL A   1      36.590  18.562  24.818  1.00  0.00     0.040 A 
ATOM     84  C   UNL A   1      37.267  19.760  25.001  1.00  0.00     0.123 A 
ATOM     85  F   UNL A   1      38.584  19.747  25.241  1.00  0.00    -0.207 F 
ENDBRANCH  76  79
ENDBRANCH  75  76
ENDBRANCH  64  68
ENDBRANCH  60  62
ENDBRANCH  59  60
ENDBRANCH  58  59
ENDBRANCH   1  58
TORSDOF 17
ENDMDL
MODEL 3
REMARK VINA RESULT:     -11.0      3.455      6.487
REMARK SMILES O=C(OCCOCCOC(=O)[C@H]1CCCC[C@H]1C(=O)N1CCN(S(=O)(=O)c2ccc(F)cc2)CC1)c1ccc(-c2c3nc(c(-c4ccccc4)c4ccc([nH]4)c(-c4ccccc4)c4nc(c(-c5ccccc5)c5ccc2[nH]5)C=C4)C=C3)cc1
REMARK SMILES IDX 7 1 6 2 5 3 4 4 3 5 2 6 1 7 36 8 37 9 83 10 38 11 82 12
REMARK SMILES IDX 39 13 40 14 41 15 76 16 42 17 81 18 75 19 77 20 43 21 80 22
REMARK SMILES IDX 74 23 73 24 44 26 66 27 51 28 65 29 52 30 55 31 64 32 78 33
REMARK SMILES IDX 53 34 54 35 63 37 79 38 56 39 45 40 46 41 50 42 47 43 49 44
REMARK SMILES IDX 48 45 67 46 68 47 72 48 69 49 71 50 70 51 57 52 58 53 62 54
REMARK SMILES IDX 59 55 61 56 60 57 8 58 9 59 10 60 11 61 12 62 13 63 17 64
REMARK SMILES IDX 14 65 16 66 15 67 18 68 19 69 20 70 21 71 35 72 22 73 34 74
REMARK SMILES IDX 23 75 24 76 25 77 26 78 27 79 28 80 33 81 29 82 32 83 30 84
REMARK SMILES IDX 31 85
REMARK H PARENT 77 25 55 36
REMARK Flexibility Score: inf
ROOT
ATOM      1  C   UNL A   1      32.900  35.771  29.288  1.00  0.00     0.202 C 
ENDROOT
BRANCH   1   2
ATOM      2  O   UNL A   1      33.096  37.051  29.875  1.00  0.00    -0.374 OA
BRANCH   2   3
ATOM      3  C   UNL A   1      33.228  37.074  31.299  1.00  0.00     0.202 C 
BRANCH   3   4
ATOM      4  C   UNL A   1      32.722  35.782  31.944  1.00  0.00     0.261 C 
BRANCH   4   5
ATOM      5  O   UNL A   1      33.669  35.277  32.898  1.00  0.00    -0.460 OA
BRANCH   5   6
ATOM      6  C   UNL A   1      34.067  33.986  33.043  1.00  0.00     0.338 C 
ATOM      7  O   UNL A   1      33.203  33.119  33.166  1.00  0.00    -0.246 OA
BRANCH   6   8
ATOM      8  C   UNL A   1      35.501  33.545  33.008  1.00  0.00     0.060 A 
ATOM      9  C   UNL A   1      36.606  34.337  33.327  1.00  0.00     0.016 A 
ATOM     10  C   UNL A   1      35.743  32.203  32.666  1.00  0.00     0.016 A 
ATOM     11  C   UNL A   1      37.899  33.870  33.240  1.00  0.00     0.010 A 
ATOM     12  C   UNL A   1      37.048  31.702  32.614  1.00  0.00     0.010 A 
ATOM     13  C   UNL A   1      38.127  32.555  32.880  1.00  0.00    -0.014 A 
BRANCH  13  14
ATOM     14  C   UNL A   1      39.519  32.178  32.624  1.00  0.00     0.031 A 
ATOM     15  C   UNL A   1      40.248  32.920  31.554  1.00  0.00     0.074 A 
ATOM     16  C   UNL A   1      40.155  31.339  33.458  1.00  0.00     0.049 A 
ATOM     17  N   UNL A   1      41.466  32.751  31.127  1.00  0.00    -0.248 NA
ATOM     18  C   UNL A   1      39.533  34.053  30.934  1.00  0.00     0.031 C 
ATOM     19  C   UNL A   1      39.604  30.786  34.695  1.00  0.00     0.029 A 
ATOM     20  N   UNL A   1      41.400  30.784  33.384  1.00  0.00    -0.354 N 
ATOM     21  C   UNL A   1      41.685  33.790  30.236  1.00  0.00     0.074 A 
ATOM     22  C   UNL A   1      40.454  34.536  30.117  1.00  0.00     0.031 C 
ATOM     23  C   UNL A   1      40.437  29.854  35.181  1.00  0.00     0.029 A 
ATOM     24  C   UNL A   1      41.573  29.760  34.284  1.00  0.00     0.049 A 
ATOM     25  H   UNL A   1      42.096  31.084  32.755  1.00  0.00     0.167 HD
ATOM     26  C   UNL A   1      42.839  34.110  29.614  1.00  0.00     0.031 A 
ATOM     27  C   UNL A   1      42.521  28.812  34.321  1.00  0.00     0.031 A 
ATOM     28  C   UNL A   1      44.023  33.307  29.721  1.00  0.00     0.049 A 
ATOM     29  C   UNL A   1      43.666  28.969  33.373  1.00  0.00     0.074 A 
ATOM     30  C   UNL A   1      45.237  33.454  29.080  1.00  0.00     0.029 A 
ATOM     31  N   UNL A   1      44.123  32.178  30.527  1.00  0.00    -0.354 N 
ATOM     32  N   UNL A   1      43.861  29.907  32.477  1.00  0.00    -0.248 NA
ATOM     33  C   UNL A   1      44.746  27.989  33.483  1.00  0.00     0.031 C 
ATOM     34  C   UNL A   1      46.050  32.377  29.453  1.00  0.00     0.029 A 
ATOM     35  C   UNL A   1      45.365  31.595  30.374  1.00  0.00     0.049 A 
ATOM     36  H   UNL A   1      43.412  31.842  31.118  1.00  0.00     0.167 HD
ATOM     37  C   UNL A   1      45.125  29.680  31.965  1.00  0.00     0.074 A 
ATOM     38  C   UNL A   1      45.634  28.497  32.638  1.00  0.00     0.031 C 
ATOM     39  C   UNL A   1      45.820  30.405  31.053  1.00  0.00     0.031 A 
BRANCH  26  40
ATOM     40  C   UNL A   1      42.818  35.339  28.755  1.00  0.00    -0.014 A 
ATOM     41  C   UNL A   1      42.521  35.259  27.384  1.00  0.00     0.009 A 
ATOM     42  C   UNL A   1      43.168  36.580  29.304  1.00  0.00     0.009 A 
ATOM     43  C   UNL A   1      42.611  36.393  26.573  1.00  0.00     0.001 A 
ATOM     44  C   UNL A   1      43.234  37.716  28.495  1.00  0.00     0.001 A 
ATOM     45  C   UNL A   1      42.967  37.620  27.129  1.00  0.00     0.000 A 
ENDBRANCH  26  40
BRANCH  27  46
ATOM     46  C   UNL A   1      42.387  27.641  35.218  1.00  0.00    -0.014 A 
ATOM     47  C   UNL A   1      42.971  27.618  36.489  1.00  0.00     0.009 A 
ATOM     48  C   UNL A   1      41.677  26.511  34.776  1.00  0.00     0.009 A 
ATOM     49  C   UNL A   1      42.884  26.471  37.285  1.00  0.00     0.001 A 
ATOM     50  C   UNL A   1      41.575  25.374  35.580  1.00  0.00     0.001 A 
ATOM     51  C   UNL A   1      42.189  25.351  36.831  1.00  0.00     0.000 A 
ENDBRANCH  27  46
BRANCH  39  52
ATOM     52  C   UNL A   1      47.224  29.953  30.795  1.00  0.00    -0.014 A 
ATOM     53  C   UNL A   1      48.277  30.318  31.645  1.00  0.00     0.009 A 
ATOM     54  C   UNL A   1      47.484  29.149  29.676  1.00  0.00     0.009 A 
ATOM     55  C   UNL A   1      49.580  29.922  31.349  1.00  0.00     0.001 A 
ATOM     56  C   UNL A   1      48.782  28.722  29.405  1.00  0.00     0.001 A 
ATOM     57  C   UNL A   1      49.829  29.120  30.234  1.00  0.00     0.000 A 
ENDBRANCH  39  52
ENDBRANCH  13  14
ENDBRANCH   6   8
ENDBRANCH   5   6
ENDBRANCH   4   5
ENDBRANCH   3   4
ENDBRANCH   2   3
ENDBRANCH   1   2
BRANCH   1  58
ATOM     58  C   UNL A   1      34.184  35.337  28.597  1.00  0.00     0.261 C 
BRANCH  58  59
ATOM     59  O   UNL A   1      34.932  34.403  29.394  1.00  0.00    -0.463 OA
BRANCH  59  60
ATOM     60  C   UNL A   1      34.787  33.065  29.239  1.00  0.00     0.309 C 
ATOM     61  O   UNL A   1      34.150  32.316  29.968  1.00  0.00    -0.252 OA
BRANCH  60  62
ATOM     62  C   UNL A   1      35.492  32.568  27.997  1.00  0.00     0.111 C 
ATOM     63  C   UNL A   1      37.015  32.599  28.213  1.00  0.00     0.016 C 
ATOM     64  C   UNL A   1      35.024  31.187  27.524  1.00  0.00     0.093 C 
ATOM     65  C   UNL A   1      37.521  31.500  29.147  1.00  0.00     0.001 C 
ATOM     66  C   UNL A   1      35.461  30.070  28.478  1.00  0.00     0.014 C 
ATOM     67  C   UNL A   1      36.964  30.121  28.795  1.00  0.00     0.001 C 
BRANCH  64  68
ATOM     68  C   UNL A   1      33.537  31.118  27.117  1.00  0.00     0.226 C 
ATOM     69  O   UNL A   1      32.809  32.104  27.199  1.00  0.00    -0.275 OA
ATOM     70  N   UNL A   1      33.065  29.908  26.645  1.00  0.00    -0.340 N 
ATOM     71  C   UNL A   1      32.619  29.816  25.258  1.00  0.00     0.136 C 
ATOM     72  C   UNL A   1      32.174  29.134  27.507  1.00  0.00     0.136 C 
ATOM     73  C   UNL A   1      32.624  28.358  24.747  1.00  0.00     0.124 C 
ATOM     74  C   UNL A   1      32.320  27.654  27.167  1.00  0.00     0.124 C 
ATOM     75  N   UNL A   1      32.085  27.371  25.734  1.00  0.00    -0.194 NA
BRANCH  75  76
ATOM     76  S   UNL A   1      30.872  26.295  25.309  1.00  0.00     0.243 S 
ATOM     77  O   UNL A   1      30.136  25.979  26.524  1.00  0.00    -0.207 OA
ATOM     78  O   UNL A   1      30.211  26.801  24.136  1.00  0.00    -0.207 OA
BRANCH  76  79
ATOM     79  C   UNL A   1      31.677  24.771  24.807  1.00  0.00     0.082 A 
ATOM     80  C   UNL A   1      32.799  24.234  25.449  1.00  0.00     0.025 A 
ATOM     81  C   UNL A   1      31.113  24.090  23.717  1.00  0.00     0.025 A 
ATOM     82  C   UNL A   1      33.327  23.008  25.023  1.00  0.00     0.040 A 
ATOM     83  C   UNL A   1      31.640  22.863  23.303  1.00  0.00     0.040 A 
ATOM     84  C   UNL A   1      32.731  22.324  23.971  1.00  0.00     0.123 A 
ATOM     85  F   UNL A   1      33.201  21.123  23.610  1.00  0.00    -0.207 F 
ENDBRANCH  76  79
ENDBRANCH  75  76
ENDBRANCH  64  68
ENDBRANCH  60  62
ENDBRANCH  59  60
ENDBRANCH  58  59
ENDBRANCH   1  58
TORSDOF 17
ENDMDL
