MODEL 1
REMARK VINA RESULT:     -11.8      0.000      0.000
REMARK SMILES Cc1cc(C(=O)OCCOCCOC(=O)c2ccc(-c3c4nc(c(-c5ccccc5)c5ccc([nH]5)c(-c5ccccc5)c5nc(c(-c6ccccc6)c6ccc3[nH]6)C=C5)C=C4)cc2)ccc1NC(=O)N1C[C@@H](C)[C@H](C)C1
REMARK SMILES IDX 11 1 10 2 9 3 8 4 7 5 5 6 6 7 4 8 1 9 2 10 3 11 66 12 65 13
REMARK SMILES IDX 64 14 67 15 68 16 69 18 70 19 71 20 76 21 72 22 74 23 73 24
REMARK SMILES IDX 75 25 12 26 13 27 14 28 15 29 16 30 17 31 63 32 18 33 62 34
REMARK SMILES IDX 19 35 20 36 21 37 56 38 22 39 61 40 55 41 57 42 23 43 60 44
REMARK SMILES IDX 54 45 53 46 24 48 46 49 31 50 45 51 32 52 35 53 44 54 58 55
REMARK SMILES IDX 33 56 34 57 43 59 59 60 36 61 25 62 26 63 30 64 27 65 29 66
REMARK SMILES IDX 28 67 47 68 48 69 52 70 49 71 51 72 50 73 37 74 38 75 42 76
REMARK SMILES IDX 39 77 41 78 40 79
REMARK H PARENT 67 17 57 47 35 58
REMARK Flexibility Score: inf
ROOT
ATOM      1  C   UNL A   1      43.876  18.346  25.740  1.00  0.00     0.202 C 
ENDROOT
BRANCH   1   2
ATOM      2  O   UNL A   1      42.524  18.646  25.460  1.00  0.00    -0.374 OA
BRANCH   2   3
ATOM      3  C   UNL A   1      41.803  19.271  26.507  1.00  0.00     0.202 C 
BRANCH   3   4
ATOM      4  C   UNL A   1      41.352  20.593  25.961  1.00  0.00     0.261 C 
BRANCH   4   5
ATOM      5  O   UNL A   1      39.945  20.838  26.148  1.00  0.00    -0.460 OA
BRANCH   5   6
ATOM      6  C   UNL A   1      39.538  22.078  26.538  1.00  0.00     0.338 C 
ATOM      7  O   UNL A   1      40.100  22.855  27.277  1.00  0.00    -0.246 OA
BRANCH   6   8
ATOM      8  C   UNL A   1      38.211  22.272  25.922  1.00  0.00     0.060 A 
ATOM      9  C   UNL A   1      35.142  20.309  24.938  1.00  0.00     0.046 C 
ATOM     10  C   UNL A   1      36.151  21.421  24.973  1.00  0.00    -0.027 A 
ATOM     11  C   UNL A   1      37.332  21.211  25.713  1.00  0.00     0.021 A 
ATOM     12  C   UNL A   1      35.949  22.684  24.390  1.00  0.00     0.045 A 
ATOM     13  C   UNL A   1      36.672  23.768  24.868  1.00  0.00     0.027 A 
ATOM     14  C   UNL A   1      37.824  23.565  25.581  1.00  0.00     0.018 A 
BRANCH  12  15
ATOM     15  N   UNL A   1      35.082  22.888  23.302  1.00  0.00    -0.308 N 
ATOM     16  C   UNL A   1      33.708  22.958  23.320  1.00  0.00     0.321 C 
ATOM     17  H   UNL A   1      35.509  22.996  22.421  1.00  0.00     0.171 HD
ATOM     18  O   UNL A   1      33.083  22.649  22.305  1.00  0.00    -0.248 OA
ATOM     19  N   UNL A   1      33.072  23.355  24.476  1.00  0.00    -0.324 N 
ATOM     20  C   UNL A   1      31.800  22.781  24.870  1.00  0.00     0.125 C 
ATOM     21  C   UNL A   1      33.341  24.597  25.206  1.00  0.00     0.125 C 
ATOM     22  C   UNL A   1      31.066  23.896  25.606  1.00  0.00     0.010 C 
ATOM     23  C   UNL A   1      32.207  24.717  26.237  1.00  0.00     0.010 C 
ATOM     24  C   UNL A   1      30.068  23.364  26.625  1.00  0.00     0.010 C 
ATOM     25  C   UNL A   1      31.801  26.160  26.533  1.00  0.00     0.010 C 
ENDBRANCH  12  15
ENDBRANCH   6   8
ENDBRANCH   5   6
ENDBRANCH   4   5
ENDBRANCH   3   4
ENDBRANCH   2   3
ENDBRANCH   1   2
BRANCH   1  26
ATOM     26  C   UNL A   1      44.828  18.874  24.659  1.00  0.00     0.261 C 
BRANCH  26  27
ATOM     27  O   UNL A   1      44.494  20.246  24.355  1.00  0.00    -0.460 OA
BRANCH  27  28
ATOM     28  C   UNL A   1      45.220  21.205  24.995  1.00  0.00     0.338 C 
ATOM     29  O   UNL A   1      46.366  21.077  25.394  1.00  0.00    -0.246 OA
BRANCH  28  30
ATOM     30  C   UNL A   1      44.322  22.326  25.409  1.00  0.00     0.060 A 
ATOM     31  C   UNL A   1      44.017  23.361  24.500  1.00  0.00     0.016 A 
ATOM     32  C   UNL A   1      44.092  22.515  26.769  1.00  0.00     0.016 A 
ATOM     33  C   UNL A   1      43.640  24.630  24.971  1.00  0.00     0.010 A 
ATOM     34  C   UNL A   1      43.823  23.787  27.227  1.00  0.00     0.010 A 
ATOM     35  C   UNL A   1      43.631  24.865  26.345  1.00  0.00    -0.014 A 
BRANCH  35  36
ATOM     36  C   UNL A   1      43.584  26.176  27.008  1.00  0.00     0.031 A 
ATOM     37  C   UNL A   1      42.273  26.842  27.163  1.00  0.00     0.074 A 
ATOM     38  C   UNL A   1      44.633  26.617  27.749  1.00  0.00     0.049 A 
ATOM     39  N   UNL A   1      42.137  28.037  27.616  1.00  0.00    -0.248 NA
ATOM     40  C   UNL A   1      40.993  26.242  26.785  1.00  0.00     0.031 C 
ATOM     41  C   UNL A   1      44.627  27.526  28.900  1.00  0.00     0.029 A 
ATOM     42  N   UNL A   1      45.986  26.305  27.621  1.00  0.00    -0.354 N 
ATOM     43  C   UNL A   1      40.816  28.209  27.940  1.00  0.00     0.074 A 
ATOM     44  C   UNL A   1      40.126  27.133  27.276  1.00  0.00     0.031 C 
ATOM     45  C   UNL A   1      45.886  27.905  29.187  1.00  0.00     0.029 A 
ATOM     46  C   UNL A   1      46.751  27.346  28.163  1.00  0.00     0.049 A 
ATOM     47  H   UNL A   1      46.346  25.483  27.216  1.00  0.00     0.167 HD
ATOM     48  C   UNL A   1      40.498  29.168  28.852  1.00  0.00     0.031 A 
ATOM     49  C   UNL A   1      47.670  27.992  27.397  1.00  0.00     0.031 A 
ATOM     50  C   UNL A   1      41.678  29.978  29.198  1.00  0.00     0.049 A 
ATOM     51  C   UNL A   1      47.164  29.391  27.192  1.00  0.00     0.074 A 
ATOM     52  C   UNL A   1      42.460  30.092  30.335  1.00  0.00     0.029 A 
ATOM     53  N   UNL A   1      42.401  30.587  28.168  1.00  0.00    -0.354 N 
ATOM     54  N   UNL A   1      45.898  29.691  27.317  1.00  0.00    -0.248 NA
ATOM     55  C   UNL A   1      48.000  30.566  26.976  1.00  0.00     0.031 C 
ATOM     56  C   UNL A   1      43.705  30.676  29.948  1.00  0.00     0.029 A 
ATOM     57  C   UNL A   1      43.663  30.962  28.590  1.00  0.00     0.049 A 
ATOM     58  H   UNL A   1      42.057  30.730  27.257  1.00  0.00     0.167 HD
ATOM     59  C   UNL A   1      45.757  31.038  27.360  1.00  0.00     0.074 A 
ATOM     60  C   UNL A   1      47.085  31.552  27.063  1.00  0.00     0.031 C 
ATOM     61  C   UNL A   1      44.581  31.645  27.679  1.00  0.00     0.031 A 
BRANCH  48  62
ATOM     62  C   UNL A   1      39.168  29.267  29.568  1.00  0.00    -0.014 A 
ATOM     63  C   UNL A   1      38.189  30.156  29.088  1.00  0.00     0.009 A 
ATOM     64  C   UNL A   1      38.831  28.575  30.748  1.00  0.00     0.009 A 
ATOM     65  C   UNL A   1      36.953  30.326  29.734  1.00  0.00     0.001 A 
ATOM     66  C   UNL A   1      37.590  28.718  31.385  1.00  0.00     0.001 A 
ATOM     67  C   UNL A   1      36.649  29.598  30.878  1.00  0.00     0.000 A 
ENDBRANCH  48  62
BRANCH  49  68
ATOM     68  C   UNL A   1      48.360  27.059  26.452  1.00  0.00    -0.014 A 
ATOM     69  C   UNL A   1      48.257  27.364  25.072  1.00  0.00     0.009 A 
ATOM     70  C   UNL A   1      49.450  26.275  26.864  1.00  0.00     0.009 A 
ATOM     71  C   UNL A   1      49.270  27.013  24.168  1.00  0.00     0.001 A 
ATOM     72  C   UNL A   1      50.468  25.936  25.955  1.00  0.00     0.001 A 
ATOM     73  C   UNL A   1      50.396  26.334  24.620  1.00  0.00     0.000 A 
ENDBRANCH  49  68
BRANCH  61  74
ATOM     74  C   UNL A   1      44.221  32.998  27.146  1.00  0.00    -0.014 A 
ATOM     75  C   UNL A   1      44.080  33.255  25.775  1.00  0.00     0.009 A 
ATOM     76  C   UNL A   1      43.799  34.000  28.040  1.00  0.00     0.009 A 
ATOM     77  C   UNL A   1      43.589  34.478  25.316  1.00  0.00     0.001 A 
ATOM     78  C   UNL A   1      43.251  35.198  27.586  1.00  0.00     0.001 A 
ATOM     79  C   UNL A   1      43.162  35.442  26.222  1.00  0.00     0.000 A 
ENDBRANCH  61  74
ENDBRANCH  35  36
ENDBRANCH  28  30
ENDBRANCH  27  28
ENDBRANCH  26  27
ENDBRANCH   1  26
TORSDOF 15
ENDMDL
MODEL 2
REMARK VINA RESULT:     -11.0      1.490      2.233
REMARK SMILES Cc1cc(C(=O)OCCOCCOC(=O)c2ccc(-c3c4nc(c(-c5ccccc5)c5ccc([nH]5)c(-c5ccccc5)c5nc(c(-c6ccccc6)c6ccc3[nH]6)C=C5)C=C4)cc2)ccc1NC(=O)N1C[C@@H](C)[C@H](C)C1
REMARK SMILES IDX 11 1 10 2 9 3 8 4 7 5 5 6 6 7 4 8 1 9 2 10 3 11 66 12 65 13
REMARK SMILES IDX 64 14 67 15 68 16 69 18 70 19 71 20 76 21 72 22 74 23 73 24
REMARK SMILES IDX 75 25 12 26 13 27 14 28 15 29 16 30 17 31 63 32 18 33 62 34
REMARK SMILES IDX 19 35 20 36 21 37 56 38 22 39 61 40 55 41 57 42 23 43 60 44
REMARK SMILES IDX 54 45 53 46 24 48 46 49 31 50 45 51 32 52 35 53 44 54 58 55
REMARK SMILES IDX 33 56 34 57 43 59 59 60 36 61 25 62 26 63 30 64 27 65 29 66
REMARK SMILES IDX 28 67 47 68 48 69 52 70 49 71 51 72 50 73 37 74 38 75 42 76
REMARK SMILES IDX 39 77 41 78 40 79
REMARK H PARENT 67 17 57 47 35 58
REMARK Flexibility Score: inf
ROOT
ATOM      1  C   UNL A   1      40.915  19.937  26.687  1.00  0.00     0.202 C 
ENDROOT
BRANCH   1   2
ATOM      2  O   UNL A   1      39.967  20.814  26.113  1.00  0.00    -0.374 OA
BRANCH   2   3
ATOM      3  C   UNL A   1      39.881  22.099  26.702  1.00  0.00     0.202 C 
BRANCH   3   4
ATOM      4  C   UNL A   1      38.599  22.693  26.199  1.00  0.00     0.261 C 
BRANCH   4   5
ATOM      5  O   UNL A   1      37.836  21.791  25.376  1.00  0.00    -0.460 OA
BRANCH   5   6
ATOM      6  C   UNL A   1      36.859  22.297  24.572  1.00  0.00     0.338 C 
ATOM      7  O   UNL A   1      36.984  22.920  23.541  1.00  0.00    -0.246 OA
BRANCH   6   8
ATOM      8  C   UNL A   1      35.586  21.988  25.251  1.00  0.00     0.060 A 
ATOM      9  C   UNL A   1      32.662  19.614  25.017  1.00  0.00     0.046 C 
ATOM     10  C   UNL A   1      33.462  20.831  25.385  1.00  0.00    -0.027 A 
ATOM     11  C   UNL A   1      34.739  20.975  24.805  1.00  0.00     0.021 A 
ATOM     12  C   UNL A   1      33.054  21.782  26.336  1.00  0.00     0.045 A 
ATOM     13  C   UNL A   1      34.015  22.566  26.958  1.00  0.00     0.027 A 
ATOM     14  C   UNL A   1      35.254  22.712  26.393  1.00  0.00     0.018 A 
BRANCH  12  15
ATOM     15  N   UNL A   1      31.702  22.014  26.646  1.00  0.00    -0.308 N 
ATOM     16  C   UNL A   1      31.033  23.215  26.658  1.00  0.00     0.321 C 
ATOM     17  H   UNL A   1      31.169  21.220  26.881  1.00  0.00     0.171 HD
ATOM     18  O   UNL A   1      30.052  23.344  27.391  1.00  0.00    -0.248 OA
ATOM     19  N   UNL A   1      31.490  24.245  25.863  1.00  0.00    -0.324 N 
ATOM     20  C   UNL A   1      31.414  25.625  26.302  1.00  0.00     0.125 C 
ATOM     21  C   UNL A   1      31.716  24.161  24.417  1.00  0.00     0.125 C 
ATOM     22  C   UNL A   1      31.215  26.442  25.030  1.00  0.00     0.010 C 
ATOM     23  C   UNL A   1      31.942  25.610  23.956  1.00  0.00     0.010 C 
ATOM     24  C   UNL A   1      31.749  27.862  25.159  1.00  0.00     0.010 C 
ATOM     25  C   UNL A   1      31.427  25.889  22.546  1.00  0.00     0.010 C 
ENDBRANCH  12  15
ENDBRANCH   6   8
ENDBRANCH   5   6
ENDBRANCH   4   5
ENDBRANCH   3   4
ENDBRANCH   2   3
ENDBRANCH   1   2
BRANCH   1  26
ATOM     26  C   UNL A   1      42.167  19.777  25.815  1.00  0.00     0.261 C 
BRANCH  26  27
ATOM     27  O   UNL A   1      42.645  21.082  25.420  1.00  0.00    -0.460 OA
BRANCH  27  28
ATOM     28  C   UNL A   1      43.929  21.148  24.969  1.00  0.00     0.338 C 
ATOM     29  O   UNL A   1      44.529  20.246  24.406  1.00  0.00    -0.246 OA
BRANCH  28  30
ATOM     30  C   UNL A   1      44.598  22.364  25.524  1.00  0.00     0.060 A 
ATOM     31  C   UNL A   1      44.917  22.432  26.896  1.00  0.00     0.016 A 
ATOM     32  C   UNL A   1      44.574  23.531  24.764  1.00  0.00     0.016 A 
ATOM     33  C   UNL A   1      45.048  23.678  27.532  1.00  0.00     0.010 A 
ATOM     34  C   UNL A   1      44.602  24.746  25.412  1.00  0.00     0.010 A 
ATOM     35  C   UNL A   1      44.801  24.839  26.801  1.00  0.00    -0.014 A 
BRANCH  35  36
ATOM     36  C   UNL A   1      44.572  26.184  27.347  1.00  0.00     0.031 A 
ATOM     37  C   UNL A   1      43.184  26.693  27.410  1.00  0.00     0.074 A 
ATOM     38  C   UNL A   1      45.531  26.811  28.074  1.00  0.00     0.049 A 
ATOM     39  N   UNL A   1      42.887  27.895  27.755  1.00  0.00    -0.248 NA
ATOM     40  C   UNL A   1      42.001  25.909  27.051  1.00  0.00     0.031 C 
ATOM     41  C   UNL A   1      45.373  27.803  29.142  1.00  0.00     0.029 A 
ATOM     42  N   UNL A   1      46.915  26.660  28.010  1.00  0.00    -0.354 N 
ATOM     43  C   UNL A   1      41.544  27.927  28.028  1.00  0.00     0.074 A 
ATOM     44  C   UNL A   1      41.015  26.723  27.440  1.00  0.00     0.031 C 
ATOM     45  C   UNL A   1      46.564  28.359  29.429  1.00  0.00     0.029 A 
ATOM     46  C   UNL A   1      47.528  27.829  28.480  1.00  0.00     0.049 A 
ATOM     47  H   UNL A   1      47.388  25.859  27.686  1.00  0.00     0.167 HD
ATOM     48  C   UNL A   1      41.079  28.911  28.846  1.00  0.00     0.031 A 
ATOM     49  C   UNL A   1      48.389  28.519  27.686  1.00  0.00     0.031 A 
ATOM     50  C   UNL A   1      42.138  29.887  29.152  1.00  0.00     0.049 A 
ATOM     51  C   UNL A   1      47.725  29.823  27.348  1.00  0.00     0.074 A 
ATOM     52  C   UNL A   1      42.858  30.190  30.294  1.00  0.00     0.029 A 
ATOM     53  N   UNL A   1      42.820  30.494  28.093  1.00  0.00    -0.354 N 
ATOM     54  N   UNL A   1      46.428  29.972  27.413  1.00  0.00    -0.248 NA
ATOM     55  C   UNL A   1      48.419  31.071  27.054  1.00  0.00     0.031 C 
ATOM     56  C   UNL A   1      44.037  30.890  29.892  1.00  0.00     0.029 A 
ATOM     57  C   UNL A   1      44.010  31.056  28.514  1.00  0.00     0.049 A 
ATOM     58  H   UNL A   1      42.494  30.519  27.164  1.00  0.00     0.167 HD
ATOM     59  C   UNL A   1      46.124  31.291  27.337  1.00  0.00     0.074 A 
ATOM     60  C   UNL A   1      47.389  31.940  27.033  1.00  0.00     0.031 C 
ATOM     61  C   UNL A   1      44.871  31.771  27.572  1.00  0.00     0.031 A 
BRANCH  48  62
ATOM     62  C   UNL A   1      39.722  28.903  29.515  1.00  0.00    -0.014 A 
ATOM     63  C   UNL A   1      38.614  29.446  28.839  1.00  0.00     0.009 A 
ATOM     64  C   UNL A   1      39.467  28.443  30.822  1.00  0.00     0.009 A 
ATOM     65  C   UNL A   1      37.339  29.508  29.425  1.00  0.00     0.001 A 
ATOM     66  C   UNL A   1      38.193  28.476  31.405  1.00  0.00     0.001 A 
ATOM     67  C   UNL A   1      37.125  29.013  30.705  1.00  0.00     0.000 A 
ENDBRANCH  48  62
BRANCH  49  68
ATOM     68  C   UNL A   1      49.222  27.605  26.843  1.00  0.00    -0.014 A 
ATOM     69  C   UNL A   1      49.095  27.747  25.439  1.00  0.00     0.009 A 
ATOM     70  C   UNL A   1      50.408  27.036  27.334  1.00  0.00     0.009 A 
ATOM     71  C   UNL A   1      50.161  27.457  24.575  1.00  0.00     0.001 A 
ATOM     72  C   UNL A   1      51.478  26.758  26.464  1.00  0.00     0.001 A 
ATOM     73  C   UNL A   1      51.368  27.000  25.095  1.00  0.00     0.000 A 
ENDBRANCH  49  68
BRANCH  61  74
ATOM     74  C   UNL A   1      44.369  33.021  26.916  1.00  0.00    -0.014 A 
ATOM     75  C   UNL A   1      44.130  33.105  25.537  1.00  0.00     0.009 A 
ATOM     76  C   UNL A   1      43.915  34.085  27.717  1.00  0.00     0.009 A 
ATOM     77  C   UNL A   1      43.513  34.223  24.977  1.00  0.00     0.001 A 
ATOM     78  C   UNL A   1      43.244  35.175  27.169  1.00  0.00     0.001 A 
ATOM     79  C   UNL A   1      43.058  35.251  25.795  1.00  0.00     0.000 A 
ENDBRANCH  61  74
ENDBRANCH  35  36
ENDBRANCH  28  30
ENDBRANCH  27  28
ENDBRANCH  26  27
ENDBRANCH   1  26
TORSDOF 15
ENDMDL
MODEL 3
REMARK VINA RESULT:     -10.9      5.953     11.165
REMARK SMILES Cc1cc(C(=O)OCCOCCOC(=O)c2ccc(-c3c4nc(c(-c5ccccc5)c5ccc([nH]5)c(-c5ccccc5)c5nc(c(-c6ccccc6)c6ccc3[nH]6)C=C5)C=C4)cc2)ccc1NC(=O)N1C[C@@H](C)[C@H](C)C1
REMARK SMILES IDX 11 1 10 2 9 3 8 4 7 5 5 6 6 7 4 8 1 9 2 10 3 11 66 12 65 13
REMARK SMILES IDX 64 14 67 15 68 16 69 18 70 19 71 20 76 21 72 22 74 23 73 24
REMARK SMILES IDX 75 25 12 26 13 27 14 28 15 29 16 30 17 31 63 32 18 33 62 34
REMARK SMILES IDX 19 35 20 36 21 37 56 38 22 39 61 40 55 41 57 42 23 43 60 44
REMARK SMILES IDX 54 45 53 46 24 48 46 49 31 50 45 51 32 52 35 53 44 54 58 55
REMARK SMILES IDX 33 56 34 57 43 59 59 60 36 61 25 62 26 63 30 64 27 65 29 66
REMARK SMILES IDX 28 67 47 68 48 69 52 70 49 71 51 72 50 73 37 74 38 75 42 76
REMARK SMILES IDX 39 77 41 78 40 79
REMARK H PARENT 67 17 57 47 35 58
REMARK Flexibility Score: inf
ROOT
ATOM      1  C   UNL A   1      35.241  33.821  29.106  1.00  0.00     0.202 C 
ENDROOT
BRANCH   1   2
ATOM      2  O   UNL A   1      34.859  32.466  29.225  1.00  0.00    -0.374 OA
BRANCH   2   3
ATOM      3  C   UNL A   1      35.038  31.672  28.066  1.00  0.00     0.202 C 
BRANCH   3   4
ATOM      4  C   UNL A   1      33.664  31.230  27.658  1.00  0.00     0.261 C 
BRANCH   4   5
ATOM      5  O   UNL A   1      33.667  30.300  26.558  1.00  0.00    -0.460 OA
BRANCH   5   6
ATOM      6  C   UNL A   1      32.781  29.264  26.567  1.00  0.00     0.338 C 
ATOM      7  O   UNL A   1      32.295  28.701  27.523  1.00  0.00    -0.246 OA
BRANCH   6   8
ATOM      8  C   UNL A   1      32.573  28.907  25.151  1.00  0.00     0.060 A 
ATOM      9  C   UNL A   1      29.784  28.278  22.688  1.00  0.00     0.046 C 
ATOM     10  C   UNL A   1      31.155  28.247  23.301  1.00  0.00    -0.027 A 
ATOM     11  C   UNL A   1      31.298  28.750  24.610  1.00  0.00     0.021 A 
ATOM     12  C   UNL A   1      32.312  27.834  22.619  1.00  0.00     0.045 A 
ATOM     13  C   UNL A   1      33.549  28.284  23.059  1.00  0.00     0.027 A 
ATOM     14  C   UNL A   1      33.691  28.766  24.334  1.00  0.00     0.018 A 
BRANCH  12  15
ATOM     15  N   UNL A   1      32.276  26.936  21.537  1.00  0.00    -0.308 N 
ATOM     16  C   UNL A   1      32.770  25.653  21.489  1.00  0.00     0.321 C 
ATOM     17  H   UNL A   1      31.844  27.264  20.716  1.00  0.00     0.171 HD
ATOM     18  O   UNL A   1      33.110  25.186  20.402  1.00  0.00    -0.248 OA
ATOM     19  N   UNL A   1      32.887  24.935  22.660  1.00  0.00    -0.324 N 
ATOM     20  C   UNL A   1      33.986  24.014  22.872  1.00  0.00     0.125 C 
ATOM     21  C   UNL A   1      31.801  24.691  23.614  1.00  0.00     0.125 C 
ATOM     22  C   UNL A   1      33.420  22.906  23.752  1.00  0.00     0.010 C 
ATOM     23  C   UNL A   1      32.342  23.627  24.583  1.00  0.00     0.010 C 
ATOM     24  C   UNL A   1      34.488  22.232  24.601  1.00  0.00     0.010 C 
ATOM     25  C   UNL A   1      31.268  22.678  25.108  1.00  0.00     0.010 C 
ENDBRANCH  12  15
ENDBRANCH   6   8
ENDBRANCH   5   6
ENDBRANCH   4   5
ENDBRANCH   3   4
ENDBRANCH   2   3
ENDBRANCH   1   2
BRANCH   1  26
ATOM     26  C   UNL A   1      34.077  34.783  29.378  1.00  0.00     0.261 C 
BRANCH  26  27
ATOM     27  O   UNL A   1      33.288  34.281  30.478  1.00  0.00    -0.460 OA
BRANCH  27  28
ATOM     28  C   UNL A   1      33.358  34.981  31.645  1.00  0.00     0.338 C 
ATOM     29  O   UNL A   1      32.747  36.008  31.893  1.00  0.00    -0.246 OA
BRANCH  28  30
ATOM     30  C   UNL A   1      34.508  34.487  32.462  1.00  0.00     0.060 A 
ATOM     31  C   UNL A   1      35.692  35.248  32.551  1.00  0.00     0.016 A 
ATOM     32  C   UNL A   1      34.525  33.142  32.826  1.00  0.00     0.016 A 
ATOM     33  C   UNL A   1      36.916  34.624  32.845  1.00  0.00     0.010 A 
ATOM     34  C   UNL A   1      35.741  32.520  33.012  1.00  0.00     0.010 A 
ATOM     35  C   UNL A   1      36.950  33.237  32.988  1.00  0.00    -0.014 A 
BRANCH  35  36
ATOM     36  C   UNL A   1      38.148  32.386  32.973  1.00  0.00     0.031 A 
ATOM     37  C   UNL A   1      38.086  31.095  32.254  1.00  0.00     0.074 A 
ATOM     38  C   UNL A   1      39.363  32.890  33.305  1.00  0.00     0.049 A 
ATOM     39  N   UNL A   1      39.032  30.225  32.280  1.00  0.00    -0.248 NA
ATOM     40  C   UNL A   1      36.937  30.642  31.469  1.00  0.00     0.031 C 
ATOM     41  C   UNL A   1      40.690  32.471  32.844  1.00  0.00     0.029 A 
ATOM     42  N   UNL A   1      39.665  33.952  34.157  1.00  0.00    -0.354 N 
ATOM     43  C   UNL A   1      38.801  29.331  31.267  1.00  0.00     0.074 A 
ATOM     44  C   UNL A   1      37.426  29.540  30.890  1.00  0.00     0.031 C 
ATOM     45  C   UNL A   1      41.640  33.053  33.598  1.00  0.00     0.029 A 
ATOM     46  C   UNL A   1      40.965  33.788  34.653  1.00  0.00     0.049 A 
ATOM     47  H   UNL A   1      39.060  34.699  34.375  1.00  0.00     0.167 HD
ATOM     48  C   UNL A   1      39.858  28.622  30.784  1.00  0.00     0.031 A 
ATOM     49  C   UNL A   1      41.184  33.724  35.994  1.00  0.00     0.031 A 
ATOM     50  C   UNL A   1      41.063  28.850  31.599  1.00  0.00     0.049 A 
ATOM     51  C   UNL A   1      41.629  32.322  36.298  1.00  0.00     0.074 A 
ATOM     52  C   UNL A   1      42.256  29.515  31.376  1.00  0.00     0.029 A 
ATOM     53  N   UNL A   1      40.993  28.630  32.977  1.00  0.00    -0.354 N 
ATOM     54  N   UNL A   1      41.355  31.324  35.500  1.00  0.00    -0.248 NA
ATOM     55  C   UNL A   1      42.503  31.936  37.399  1.00  0.00     0.031 C 
ATOM     56  C   UNL A   1      42.844  29.788  32.650  1.00  0.00     0.029 A 
ATOM     57  C   UNL A   1      42.036  29.248  33.641  1.00  0.00     0.049 A 
ATOM     58  H   UNL A   1      40.290  28.102  33.421  1.00  0.00     0.167 HD
ATOM     59  C   UNL A   1      42.098  30.248  35.855  1.00  0.00     0.074 A 
ATOM     60  C   UNL A   1      42.744  30.646  37.096  1.00  0.00     0.031 C 
ATOM     61  C   UNL A   1      42.175  29.123  35.092  1.00  0.00     0.031 A 
BRANCH  48  62
ATOM     62  C   UNL A   1      39.857  27.863  29.474  1.00  0.00    -0.014 A 
ATOM     63  C   UNL A   1      39.507  26.501  29.464  1.00  0.00     0.009 A 
ATOM     64  C   UNL A   1      40.247  28.397  28.229  1.00  0.00     0.009 A 
ATOM     65  C   UNL A   1      39.531  25.732  28.289  1.00  0.00     0.001 A 
ATOM     66  C   UNL A   1      40.249  27.644  27.047  1.00  0.00     0.001 A 
ATOM     67  C   UNL A   1      39.892  26.306  27.076  1.00  0.00     0.000 A 
ENDBRANCH  48  62
BRANCH  49  68
ATOM     68  C   UNL A   1      40.276  34.642  36.750  1.00  0.00    -0.014 A 
ATOM     69  C   UNL A   1      39.334  34.032  37.614  1.00  0.00     0.009 A 
ATOM     70  C   UNL A   1      40.642  35.971  37.022  1.00  0.00     0.009 A 
ATOM     71  C   UNL A   1      38.881  34.676  38.774  1.00  0.00     0.001 A 
ATOM     72  C   UNL A   1      40.192  36.608  38.194  1.00  0.00     0.001 A 
ATOM     73  C   UNL A   1      39.344  35.950  39.085  1.00  0.00     0.000 A 
ENDBRANCH  49  68
BRANCH  61  74
ATOM     74  C   UNL A   1      42.424  27.775  35.696  1.00  0.00    -0.014 A 
ATOM     75  C   UNL A   1      43.690  27.173  35.700  1.00  0.00     0.009 A 
ATOM     76  C   UNL A   1      41.419  27.174  36.476  1.00  0.00     0.009 A 
ATOM     77  C   UNL A   1      43.928  25.994  36.407  1.00  0.00     0.001 A 
ATOM     78  C   UNL A   1      41.669  26.032  37.234  1.00  0.00     0.001 A 
ATOM     79  C   UNL A   1      42.921  25.433  37.185  1.00  0.00     0.000 A 
ENDBRANCH  61  74
ENDBRANCH  35  36
ENDBRANCH  28  30
ENDBRANCH  27  28
ENDBRANCH  26  27
ENDBRANCH   1  26
TORSDOF 15
ENDMDL
