MODEL 1
REMARK VINA RESULT:     -10.2      0.000      0.000
REMARK SMILES COC(=O)CNC(=O)N1[C@@H](C(=O)OCCOCCOC(=O)c2ccc(-c3c4nc(c(-c5ccccc5)c5ccc([nH]5)c(-c5ccccc5)c5nc(c(-c6ccccc6)c6ccc3[nH]6)C=C5)C=C4)cc2)CC[C@@H]2CCCC[C@H]21
REMARK SMILES IDX 15 1 14 2 13 3 11 4 12 5 10 6 9 7 77 8 70 9 72 10 76 11
REMARK SMILES IDX 71 12 73 13 75 14 74 15 7 16 6 17 8 19 5 20 3 21 4 22 2 23
REMARK SMILES IDX 1 24 16 25 17 26 18 27 19 28 20 29 21 30 22 31 23 32 69 33
REMARK SMILES IDX 24 34 68 35 25 36 26 37 27 38 62 39 28 40 67 41 61 42 63 43
REMARK SMILES IDX 29 44 66 45 60 46 59 47 30 49 52 50 37 51 51 52 38 53 41 54
REMARK SMILES IDX 50 55 64 56 39 57 40 58 49 60 65 61 42 62 31 63 32 64 36 65
REMARK SMILES IDX 33 66 35 67 34 68 53 69 54 70 58 71 55 72 57 73 56 74 43 75
REMARK SMILES IDX 44 76 48 77 45 78 47 79 46 80
REMARK H PARENT 6 18 63 48 41 59
REMARK Flexibility Score: inf
ROOT
ATOM      1  C   UNL A   1      36.337  23.295  23.787  1.00  0.00     0.202 C 
ENDROOT
BRANCH   1   2
ATOM      2  C   UNL A   1      34.960  23.918  24.000  1.00  0.00     0.261 C 
BRANCH   2   3
ATOM      3  O   UNL A   1      34.101  23.762  22.859  1.00  0.00    -0.462 OA
BRANCH   3   4
ATOM      4  C   UNL A   1      33.522  24.905  22.400  1.00  0.00     0.329 C 
ATOM      5  O   UNL A   1      33.134  25.082  21.249  1.00  0.00    -0.250 OA
BRANCH   4   6
ATOM      6  C   UNL A   1      33.460  25.991  23.479  1.00  0.00     0.197 C 
ATOM      7  N   UNL A   1      32.344  25.980  24.453  1.00  0.00    -0.308 N 
ATOM      8  C   UNL A   1      32.475  27.008  25.516  1.00  0.00     0.091 C 
ATOM      9  C   UNL A   1      33.693  27.380  22.874  1.00  0.00     0.038 C 
ATOM     10  C   UNL A   1      32.813  28.419  24.968  1.00  0.00     0.012 C 
ATOM     11  C   UNL A   1      31.284  27.114  26.492  1.00  0.00     0.025 C 
ATOM     12  C   UNL A   1      33.984  28.378  23.985  1.00  0.00     0.008 C 
ATOM     13  C   UNL A   1      33.140  29.376  26.124  1.00  0.00     0.006 C 
ATOM     14  C   UNL A   1      31.576  28.090  27.633  1.00  0.00     0.002 C 
ATOM     15  C   UNL A   1      31.988  29.466  27.118  1.00  0.00     0.000 C 
BRANCH   7  16
ATOM     16  C   UNL A   1      31.088  25.593  24.040  1.00  0.00     0.318 C 
ATOM     17  N   UNL A   1      30.603  24.417  24.536  1.00  0.00    -0.327 N 
ATOM     18  H   UNL A   1      29.653  24.246  24.342  1.00  0.00     0.166 HD
ATOM     19  O   UNL A   1      30.354  26.288  23.344  1.00  0.00    -0.249 OA
BRANCH  17  20
ATOM     20  C   UNL A   1      31.270  23.378  25.307  1.00  0.00     0.240 C 
BRANCH  20  21
ATOM     21  C   UNL A   1      31.101  23.288  26.811  1.00  0.00     0.325 C 
ATOM     22  O   UNL A   1      32.039  23.122  27.584  1.00  0.00    -0.250 OA
BRANCH  21  23
ATOM     23  O   UNL A   1      29.846  23.658  27.186  1.00  0.00    -0.468 OA
ATOM     24  C   UNL A   1      29.020  22.536  27.502  1.00  0.00     0.282 C 
ENDBRANCH  21  23
ENDBRANCH  20  21
ENDBRANCH  17  20
ENDBRANCH   7  16
ENDBRANCH   4   6
ENDBRANCH   3   4
ENDBRANCH   2   3
ENDBRANCH   1   2
BRANCH   1  25
ATOM     25  O   UNL A   1      37.296  23.519  24.817  1.00  0.00    -0.374 OA
BRANCH  25  26
ATOM     26  C   UNL A   1      37.537  22.446  25.728  1.00  0.00     0.202 C 
BRANCH  26  27
ATOM     27  C   UNL A   1      38.423  21.312  25.203  1.00  0.00     0.261 C 
BRANCH  27  28
ATOM     28  O   UNL A   1      38.937  20.516  26.287  1.00  0.00    -0.460 OA
BRANCH  28  29
ATOM     29  C   UNL A   1      40.252  20.213  26.193  1.00  0.00     0.338 C 
ATOM     30  O   UNL A   1      40.751  19.237  25.647  1.00  0.00    -0.246 OA
BRANCH  29  31
ATOM     31  C   UNL A   1      41.067  21.341  26.682  1.00  0.00     0.060 A 
ATOM     32  C   UNL A   1      41.107  21.552  28.067  1.00  0.00     0.016 A 
ATOM     33  C   UNL A   1      41.726  22.213  25.812  1.00  0.00     0.016 A 
ATOM     34  C   UNL A   1      41.751  22.671  28.586  1.00  0.00     0.010 A 
ATOM     35  C   UNL A   1      42.360  23.345  26.334  1.00  0.00     0.010 A 
ATOM     36  C   UNL A   1      42.337  23.599  27.717  1.00  0.00    -0.014 A 
BRANCH  36  37
ATOM     37  C   UNL A   1      42.755  24.921  28.239  1.00  0.00     0.031 A 
ATOM     38  C   UNL A   1      41.707  25.989  28.404  1.00  0.00     0.074 A 
ATOM     39  C   UNL A   1      44.027  25.156  28.601  1.00  0.00     0.049 A 
ATOM     40  N   UNL A   1      41.845  27.233  28.788  1.00  0.00    -0.248 NA
ATOM     41  C   UNL A   1      40.319  25.601  28.103  1.00  0.00     0.031 C 
ATOM     42  C   UNL A   1      45.116  24.182  28.558  1.00  0.00     0.029 A 
ATOM     43  N   UNL A   1      44.616  26.301  29.076  1.00  0.00    -0.354 N 
ATOM     44  C   UNL A   1      40.564  27.772  28.776  1.00  0.00     0.074 A 
ATOM     45  C   UNL A   1      39.667  26.733  28.321  1.00  0.00     0.031 C 
ATOM     46  C   UNL A   1      46.247  24.775  28.981  1.00  0.00     0.029 A 
ATOM     47  C   UNL A   1      45.968  26.176  29.285  1.00  0.00     0.049 A 
ATOM     48  H   UNL A   1      44.118  27.132  29.249  1.00  0.00     0.167 HD
ATOM     49  C   UNL A   1      40.169  29.020  29.120  1.00  0.00     0.031 A 
ATOM     50  C   UNL A   1      46.878  27.099  29.652  1.00  0.00     0.031 A 
ATOM     51  C   UNL A   1      41.062  30.059  29.552  1.00  0.00     0.049 A 
ATOM     52  C   UNL A   1      46.429  28.515  29.904  1.00  0.00     0.074 A 
ATOM     53  C   UNL A   1      40.762  31.363  29.907  1.00  0.00     0.029 A 
ATOM     54  N   UNL A   1      42.433  29.910  29.686  1.00  0.00    -0.354 N 
ATOM     55  N   UNL A   1      45.216  29.016  29.887  1.00  0.00    -0.248 NA
ATOM     56  C   UNL A   1      47.478  29.496  30.223  1.00  0.00     0.031 C 
ATOM     57  C   UNL A   1      41.959  32.018  30.210  1.00  0.00     0.029 A 
ATOM     58  C   UNL A   1      42.997  31.107  30.093  1.00  0.00     0.049 A 
ATOM     59  H   UNL A   1      42.931  29.079  29.517  1.00  0.00     0.167 HD
ATOM     60  C   UNL A   1      45.356  30.358  30.218  1.00  0.00     0.074 A 
ATOM     61  C   UNL A   1      46.766  30.591  30.446  1.00  0.00     0.031 C 
ATOM     62  C   UNL A   1      44.402  31.315  30.323  1.00  0.00     0.031 A 
BRANCH  49  63
ATOM     63  C   UNL A   1      38.705  29.337  29.018  1.00  0.00    -0.014 A 
ATOM     64  C   UNL A   1      38.136  29.747  27.802  1.00  0.00     0.009 A 
ATOM     65  C   UNL A   1      37.876  29.178  30.139  1.00  0.00     0.009 A 
ATOM     66  C   UNL A   1      36.768  30.013  27.717  1.00  0.00     0.001 A 
ATOM     67  C   UNL A   1      36.505  29.423  30.045  1.00  0.00     0.001 A 
ATOM     68  C   UNL A   1      35.953  29.844  28.836  1.00  0.00     0.000 A 
ENDBRANCH  49  63
BRANCH  50  69
ATOM     69  C   UNL A   1      48.316  26.740  29.759  1.00  0.00    -0.014 A 
ATOM     70  C   UNL A   1      49.167  26.850  28.648  1.00  0.00     0.009 A 
ATOM     71  C   UNL A   1      48.835  26.233  30.961  1.00  0.00     0.009 A 
ATOM     72  C   UNL A   1      50.497  26.432  28.731  1.00  0.00     0.001 A 
ATOM     73  C   UNL A   1      50.172  25.842  31.050  1.00  0.00     0.001 A 
ATOM     74  C   UNL A   1      50.999  25.930  29.931  1.00  0.00     0.000 A 
ENDBRANCH  50  69
BRANCH  62  75
ATOM     75  C   UNL A   1      44.845  32.689  30.735  1.00  0.00    -0.014 A 
ATOM     76  C   UNL A   1      45.092  33.688  29.782  1.00  0.00     0.009 A 
ATOM     77  C   UNL A   1      44.964  33.001  32.099  1.00  0.00     0.009 A 
ATOM     78  C   UNL A   1      45.476  34.968  30.188  1.00  0.00     0.001 A 
ATOM     79  C   UNL A   1      45.322  34.288  32.501  1.00  0.00     0.001 A 
ATOM     80  C   UNL A   1      45.585  35.268  31.546  1.00  0.00     0.000 A 
ENDBRANCH  62  75
ENDBRANCH  36  37
ENDBRANCH  29  31
ENDBRANCH  28  29
ENDBRANCH  27  28
ENDBRANCH  26  27
ENDBRANCH  25  26
ENDBRANCH   1  25
TORSDOF 18
ENDMDL
MODEL 2
REMARK VINA RESULT:     -10.1      1.883      7.340
REMARK SMILES COC(=O)CNC(=O)N1[C@@H](C(=O)OCCOCCOC(=O)c2ccc(-c3c4nc(c(-c5ccccc5)c5ccc([nH]5)c(-c5ccccc5)c5nc(c(-c6ccccc6)c6ccc3[nH]6)C=C5)C=C4)cc2)CC[C@@H]2CCCC[C@H]21
REMARK SMILES IDX 15 1 14 2 13 3 11 4 12 5 10 6 9 7 77 8 70 9 72 10 76 11
REMARK SMILES IDX 71 12 73 13 75 14 74 15 7 16 6 17 8 19 5 20 3 21 4 22 2 23
REMARK SMILES IDX 1 24 16 25 17 26 18 27 19 28 20 29 21 30 22 31 23 32 69 33
REMARK SMILES IDX 24 34 68 35 25 36 26 37 27 38 62 39 28 40 67 41 61 42 63 43
REMARK SMILES IDX 29 44 66 45 60 46 59 47 30 49 52 50 37 51 51 52 38 53 41 54
REMARK SMILES IDX 50 55 64 56 39 57 40 58 49 60 65 61 42 62 31 63 32 64 36 65
REMARK SMILES IDX 33 66 35 67 34 68 53 69 54 70 58 71 55 72 57 73 56 74 43 75
REMARK SMILES IDX 44 76 48 77 45 78 47 79 46 80
REMARK H PARENT 6 18 63 48 41 59
REMARK Flexibility Score: inf
ROOT
ATOM      1  C   UNL A   1      31.590  26.643  25.886  1.00  0.00     0.202 C 
ENDROOT
BRANCH   1   2
ATOM      2  C   UNL A   1      30.469  25.607  25.865  1.00  0.00     0.261 C 
BRANCH   2   3
ATOM      3  O   UNL A   1      30.680  24.547  26.812  1.00  0.00    -0.462 OA
BRANCH   3   4
ATOM      4  C   UNL A   1      30.966  23.329  26.276  1.00  0.00     0.329 C 
ATOM      5  O   UNL A   1      30.135  22.466  26.014  1.00  0.00    -0.250 OA
BRANCH   4   6
ATOM      6  C   UNL A   1      32.473  23.123  26.089  1.00  0.00     0.197 C 
ATOM      7  N   UNL A   1      33.037  23.115  24.719  1.00  0.00    -0.308 N 
ATOM      8  C   UNL A   1      34.518  23.034  24.688  1.00  0.00     0.091 C 
ATOM      9  C   UNL A   1      32.976  21.949  26.935  1.00  0.00     0.038 C 
ATOM     10  C   UNL A   1      35.092  21.925  25.607  1.00  0.00     0.012 C 
ATOM     11  C   UNL A   1      35.151  22.908  23.286  1.00  0.00     0.025 C 
ATOM     12  C   UNL A   1      34.495  21.991  27.014  1.00  0.00     0.008 C 
ATOM     13  C   UNL A   1      36.622  22.036  25.689  1.00  0.00     0.006 C 
ATOM     14  C   UNL A   1      36.677  22.982  23.348  1.00  0.00     0.002 C 
ATOM     15  C   UNL A   1      37.262  21.951  24.308  1.00  0.00     0.000 C 
BRANCH   7  16
ATOM     16  C   UNL A   1      32.309  22.557  23.691  1.00  0.00     0.318 C 
ATOM     17  N   UNL A   1      32.003  23.364  22.633  1.00  0.00    -0.327 N 
ATOM     18  H   UNL A   1      31.617  22.899  21.855  1.00  0.00     0.166 HD
ATOM     19  O   UNL A   1      32.017  21.366  23.629  1.00  0.00    -0.249 OA
BRANCH  17  20
ATOM     20  C   UNL A   1      32.159  24.802  22.475  1.00  0.00     0.240 C 
BRANCH  20  21
ATOM     21  C   UNL A   1      33.077  25.379  21.415  1.00  0.00     0.325 C 
ATOM     22  O   UNL A   1      32.858  25.283  20.212  1.00  0.00    -0.250 OA
BRANCH  21  23
ATOM     23  O   UNL A   1      34.005  26.206  21.969  1.00  0.00    -0.468 OA
ATOM     24  C   UNL A   1      33.734  26.484  23.344  1.00  0.00     0.282 C 
ENDBRANCH  21  23
ENDBRANCH  20  21
ENDBRANCH  17  20
ENDBRANCH   7  16
ENDBRANCH   4   6
ENDBRANCH   3   4
ENDBRANCH   2   3
ENDBRANCH   1   2
BRANCH   1  25
ATOM     25  O   UNL A   1      31.243  27.953  25.445  1.00  0.00    -0.374 OA
BRANCH  25  26
ATOM     26  C   UNL A   1      32.053  29.033  25.911  1.00  0.00     0.202 C 
BRANCH  26  27
ATOM     27  C   UNL A   1      32.572  28.907  27.346  1.00  0.00     0.261 C 
BRANCH  27  28
ATOM     28  O   UNL A   1      34.010  28.983  27.382  1.00  0.00    -0.460 OA
BRANCH  28  29
ATOM     29  C   UNL A   1      34.505  30.166  27.811  1.00  0.00     0.338 C 
ATOM     30  O   UNL A   1      33.889  31.212  27.970  1.00  0.00    -0.246 OA
BRANCH  29  31
ATOM     31  C   UNL A   1      35.898  29.997  28.266  1.00  0.00     0.060 A 
ATOM     32  C   UNL A   1      36.911  30.174  27.314  1.00  0.00     0.016 A 
ATOM     33  C   UNL A   1      36.210  29.614  29.572  1.00  0.00     0.016 A 
ATOM     34  C   UNL A   1      38.236  29.905  27.645  1.00  0.00     0.010 A 
ATOM     35  C   UNL A   1      37.540  29.331  29.899  1.00  0.00     0.010 A 
ATOM     36  C   UNL A   1      38.549  29.434  28.925  1.00  0.00    -0.014 A 
BRANCH  36  37
ATOM     37  C   UNL A   1      39.894  28.872  29.183  1.00  0.00     0.031 A 
ATOM     38  C   UNL A   1      40.907  29.731  29.893  1.00  0.00     0.074 A 
ATOM     39  C   UNL A   1      40.200  27.609  28.838  1.00  0.00     0.049 A 
ATOM     40  N   UNL A   1      42.158  29.475  30.178  1.00  0.00    -0.248 NA
ATOM     41  C   UNL A   1      40.443  31.053  30.347  1.00  0.00     0.031 C 
ATOM     42  C   UNL A   1      39.285  26.655  28.214  1.00  0.00     0.029 A 
ATOM     43  N   UNL A   1      41.377  26.916  28.964  1.00  0.00    -0.354 N 
ATOM     44  C   UNL A   1      42.628  30.601  30.844  1.00  0.00     0.074 A 
ATOM     45  C   UNL A   1      41.540  31.551  30.897  1.00  0.00     0.031 C 
ATOM     46  C   UNL A   1      39.939  25.500  28.002  1.00  0.00     0.029 A 
ATOM     47  C   UNL A   1      41.326  25.648  28.439  1.00  0.00     0.049 A 
ATOM     48  H   UNL A   1      42.181  27.291  29.390  1.00  0.00     0.167 HD
ATOM     49  C   UNL A   1      43.854  30.820  31.372  1.00  0.00     0.031 A 
ATOM     50  C   UNL A   1      42.298  24.726  28.301  1.00  0.00     0.031 A 
ATOM     51  C   UNL A   1      44.943  29.883  31.301  1.00  0.00     0.049 A 
ATOM     52  C   UNL A   1      43.690  25.047  28.782  1.00  0.00     0.074 A 
ATOM     53  C   UNL A   1      46.230  30.019  31.789  1.00  0.00     0.029 A 
ATOM     54  N   UNL A   1      44.868  28.637  30.701  1.00  0.00    -0.354 N 
ATOM     55  N   UNL A   1      44.125  26.115  29.408  1.00  0.00    -0.248 NA
ATOM     56  C   UNL A   1      44.727  24.034  28.533  1.00  0.00     0.031 C 
ATOM     57  C   UNL A   1      46.950  28.872  31.442  1.00  0.00     0.029 A 
ATOM     58  C   UNL A   1      46.095  28.003  30.783  1.00  0.00     0.049 A 
ATOM     59  H   UNL A   1      44.064  28.260  30.279  1.00  0.00     0.167 HD
ATOM     60  C   UNL A   1      45.474  25.889  29.649  1.00  0.00     0.074 A 
ATOM     61  C   UNL A   1      45.784  24.578  29.117  1.00  0.00     0.031 C 
ATOM     62  C   UNL A   1      46.380  26.695  30.255  1.00  0.00     0.031 A 
BRANCH  49  63
ATOM     63  C   UNL A   1      44.093  32.137  32.052  1.00  0.00    -0.014 A 
ATOM     64  C   UNL A   1      44.543  33.253  31.329  1.00  0.00     0.009 A 
ATOM     65  C   UNL A   1      43.819  32.276  33.421  1.00  0.00     0.009 A 
ATOM     66  C   UNL A   1      44.734  34.479  31.971  1.00  0.00     0.001 A 
ATOM     67  C   UNL A   1      43.989  33.508  34.054  1.00  0.00     0.001 A 
ATOM     68  C   UNL A   1      44.451  34.607  33.331  1.00  0.00     0.000 A 
ENDBRANCH  49  63
BRANCH  50  69
ATOM     69  C   UNL A   1      42.017  23.426  27.638  1.00  0.00    -0.014 A 
ATOM     70  C   UNL A   1      41.481  22.351  28.364  1.00  0.00     0.009 A 
ATOM     71  C   UNL A   1      42.335  23.236  26.283  1.00  0.00     0.009 A 
ATOM     72  C   UNL A   1      41.298  21.107  27.757  1.00  0.00     0.001 A 
ATOM     73  C   UNL A   1      42.124  22.000  25.670  1.00  0.00     0.001 A 
ATOM     74  C   UNL A   1      41.617  20.932  26.410  1.00  0.00     0.000 A 
ENDBRANCH  50  69
BRANCH  62  75
ATOM     75  C   UNL A   1      47.778  26.170  30.409  1.00  0.00    -0.014 A 
ATOM     76  C   UNL A   1      48.689  26.210  29.344  1.00  0.00     0.009 A 
ATOM     77  C   UNL A   1      48.202  25.677  31.653  1.00  0.00     0.009 A 
ATOM     78  C   UNL A   1      49.994  25.743  29.515  1.00  0.00     0.001 A 
ATOM     79  C   UNL A   1      49.514  25.236  31.828  1.00  0.00     0.001 A 
ATOM     80  C   UNL A   1      50.406  25.261  30.758  1.00  0.00     0.000 A 
ENDBRANCH  62  75
ENDBRANCH  36  37
ENDBRANCH  29  31
ENDBRANCH  28  29
ENDBRANCH  27  28
ENDBRANCH  26  27
ENDBRANCH  25  26
ENDBRANCH   1  25
TORSDOF 18
ENDMDL
MODEL 3
REMARK VINA RESULT:     -10.1      3.008      8.250
REMARK SMILES COC(=O)CNC(=O)N1[C@@H](C(=O)OCCOCCOC(=O)c2ccc(-c3c4nc(c(-c5ccccc5)c5ccc([nH]5)c(-c5ccccc5)c5nc(c(-c6ccccc6)c6ccc3[nH]6)C=C5)C=C4)cc2)CC[C@@H]2CCCC[C@H]21
REMARK SMILES IDX 15 1 14 2 13 3 11 4 12 5 10 6 9 7 77 8 70 9 72 10 76 11
REMARK SMILES IDX 71 12 73 13 75 14 74 15 7 16 6 17 8 19 5 20 3 21 4 22 2 23
REMARK SMILES IDX 1 24 16 25 17 26 18 27 19 28 20 29 21 30 22 31 23 32 69 33
REMARK SMILES IDX 24 34 68 35 25 36 26 37 27 38 62 39 28 40 67 41 61 42 63 43
REMARK SMILES IDX 29 44 66 45 60 46 59 47 30 49 52 50 37 51 51 52 38 53 41 54
REMARK SMILES IDX 50 55 64 56 39 57 40 58 49 60 65 61 42 62 31 63 32 64 36 65
REMARK SMILES IDX 33 66 35 67 34 68 53 69 54 70 58 71 55 72 57 73 56 74 43 75
REMARK SMILES IDX 44 76 48 77 45 78 47 79 46 80
REMARK H PARENT 6 18 63 48 41 59
REMARK Flexibility Score: inf
ROOT
ATOM      1  C   UNL A   1      32.042  28.069  25.660  1.00  0.00     0.202 C 
ENDROOT
BRANCH   1   2
ATOM      2  C   UNL A   1      31.007  26.947  25.644  1.00  0.00     0.261 C 
BRANCH   2   3
ATOM      3  O   UNL A   1      31.187  26.016  26.724  1.00  0.00    -0.462 OA
BRANCH   3   4
ATOM      4  C   UNL A   1      31.231  24.703  26.365  1.00  0.00     0.329 C 
ATOM      5  O   UNL A   1      30.254  23.965  26.288  1.00  0.00    -0.250 OA
BRANCH   4   6
ATOM      6  C   UNL A   1      32.665  24.221  26.124  1.00  0.00     0.197 C 
ATOM      7  N   UNL A   1      33.095  23.889  24.746  1.00  0.00    -0.308 N 
ATOM      8  C   UNL A   1      34.538  23.559  24.639  1.00  0.00     0.091 C 
ATOM      9  C   UNL A   1      33.057  23.138  27.136  1.00  0.00     0.038 C 
ATOM     10  C   UNL A   1      35.016  22.540  25.705  1.00  0.00     0.012 C 
ATOM     11  C   UNL A   1      35.014  23.096  23.245  1.00  0.00     0.025 C 
ATOM     12  C   UNL A   1      34.566  22.940  27.112  1.00  0.00     0.008 C 
ATOM     13  C   UNL A   1      36.546  22.408  25.670  1.00  0.00     0.006 C 
ATOM     14  C   UNL A   1      36.533  22.925  23.199  1.00  0.00     0.002 C 
ATOM     15  C   UNL A   1      37.038  21.986  24.291  1.00  0.00     0.000 C 
BRANCH   7  16
ATOM     16  C   UNL A   1      32.200  23.295  23.883  1.00  0.00     0.318 C 
ATOM     17  N   UNL A   1      31.831  24.009  22.780  1.00  0.00    -0.327 N 
ATOM     18  H   UNL A   1      31.313  23.502  22.112  1.00  0.00     0.166 HD
ATOM     19  O   UNL A   1      31.806  22.138  23.997  1.00  0.00    -0.249 OA
BRANCH  17  20
ATOM     20  C   UNL A   1      32.083  25.400  22.434  1.00  0.00     0.240 C 
BRANCH  20  21
ATOM     21  C   UNL A   1      33.035  25.770  21.314  1.00  0.00     0.325 C 
ATOM     22  O   UNL A   1      32.865  25.430  20.148  1.00  0.00    -0.250 OA
BRANCH  21  23
ATOM     23  O   UNL A   1      33.932  26.709  21.724  1.00  0.00    -0.468 OA
ATOM     24  C   UNL A   1      33.304  27.806  22.391  1.00  0.00     0.282 C 
ENDBRANCH  21  23
ENDBRANCH  20  21
ENDBRANCH  17  20
ENDBRANCH   7  16
ENDBRANCH   4   6
ENDBRANCH   3   4
ENDBRANCH   2   3
ENDBRANCH   1   2
BRANCH   1  25
ATOM     25  O   UNL A   1      31.766  29.168  26.524  1.00  0.00    -0.374 OA
BRANCH  25  26
ATOM     26  C   UNL A   1      31.523  30.434  25.912  1.00  0.00     0.202 C 
BRANCH  26  27
ATOM     27  C   UNL A   1      31.601  31.650  26.841  1.00  0.00     0.261 C 
BRANCH  27  28
ATOM     28  O   UNL A   1      32.950  32.145  26.930  1.00  0.00    -0.460 OA
BRANCH  28  29
ATOM     29  C   UNL A   1      33.120  33.177  27.787  1.00  0.00     0.338 C 
ATOM     30  O   UNL A   1      32.304  34.043  28.074  1.00  0.00    -0.246 OA
BRANCH  29  31
ATOM     31  C   UNL A   1      34.395  33.027  28.513  1.00  0.00     0.060 A 
ATOM     32  C   UNL A   1      35.562  33.441  27.855  1.00  0.00     0.016 A 
ATOM     33  C   UNL A   1      34.464  32.441  29.779  1.00  0.00     0.016 A 
ATOM     34  C   UNL A   1      36.808  33.211  28.431  1.00  0.00     0.010 A 
ATOM     35  C   UNL A   1      35.717  32.197  30.349  1.00  0.00     0.010 A 
ATOM     36  C   UNL A   1      36.893  32.542  29.657  1.00  0.00    -0.014 A 
BRANCH  36  37
ATOM     37  C   UNL A   1      38.205  32.038  30.121  1.00  0.00     0.031 A 
ATOM     38  C   UNL A   1      38.685  30.707  29.605  1.00  0.00     0.074 A 
ATOM     39  C   UNL A   1      38.978  32.764  30.948  1.00  0.00     0.049 A 
ATOM     40  N   UNL A   1      39.768  30.041  29.911  1.00  0.00    -0.248 NA
ATOM     41  C   UNL A   1      37.831  30.044  28.605  1.00  0.00     0.031 C 
ATOM     42  C   UNL A   1      38.659  34.096  31.457  1.00  0.00     0.029 A 
ATOM     43  N   UNL A   1      40.197  32.471  31.506  1.00  0.00    -0.354 N 
ATOM     44  C   UNL A   1      39.726  28.884  29.142  1.00  0.00     0.074 A 
ATOM     45  C   UNL A   1      38.500  28.924  28.378  1.00  0.00     0.031 C 
ATOM     46  C   UNL A   1      39.654  34.503  32.263  1.00  0.00     0.029 A 
ATOM     47  C   UNL A   1      40.658  33.446  32.357  1.00  0.00     0.049 A 
ATOM     48  H   UNL A   1      40.692  31.642  31.316  1.00  0.00     0.167 HD
ATOM     49  C   UNL A   1      40.632  27.881  29.074  1.00  0.00     0.031 A 
ATOM     50  C   UNL A   1      41.753  33.465  33.142  1.00  0.00     0.031 A 
ATOM     51  C   UNL A   1      41.841  27.831  29.849  1.00  0.00     0.049 A 
ATOM     52  C   UNL A   1      42.679  32.276  33.142  1.00  0.00     0.074 A 
ATOM     53  C   UNL A   1      42.816  26.849  29.864  1.00  0.00     0.029 A 
ATOM     54  N   UNL A   1      42.238  28.807  30.749  1.00  0.00    -0.354 N 
ATOM     55  N   UNL A   1      42.628  31.186  32.415  1.00  0.00    -0.248 NA
ATOM     56  C   UNL A   1      43.812  32.320  34.079  1.00  0.00     0.031 C 
ATOM     57  C   UNL A   1      43.781  27.208  30.810  1.00  0.00     0.029 A 
ATOM     58  C   UNL A   1      43.431  28.438  31.345  1.00  0.00     0.049 A 
ATOM     59  H   UNL A   1      41.745  29.638  30.936  1.00  0.00     0.167 HD
ATOM     60  C   UNL A   1      43.734  30.431  32.786  1.00  0.00     0.074 A 
ATOM     61  C   UNL A   1      44.446  31.192  33.791  1.00  0.00     0.031 C 
ATOM     62  C   UNL A   1      44.127  29.214  32.337  1.00  0.00     0.031 A 
BRANCH  49  63
ATOM     63  C   UNL A   1      40.336  26.741  28.143  1.00  0.00    -0.014 A 
ATOM     64  C   UNL A   1      40.894  26.694  26.856  1.00  0.00     0.009 A 
ATOM     65  C   UNL A   1      39.528  25.678  28.575  1.00  0.00     0.009 A 
ATOM     66  C   UNL A   1      40.631  25.613  26.012  1.00  0.00     0.001 A 
ATOM     67  C   UNL A   1      39.285  24.589  27.738  1.00  0.00     0.001 A 
ATOM     68  C   UNL A   1      39.832  24.559  26.455  1.00  0.00     0.000 A 
ENDBRANCH  49  63
BRANCH  50  69
ATOM     69  C   UNL A   1      42.020  34.621  34.036  1.00  0.00    -0.014 A 
ATOM     70  C   UNL A   1      41.414  34.706  35.300  1.00  0.00     0.009 A 
ATOM     71  C   UNL A   1      42.841  35.676  33.608  1.00  0.00     0.009 A 
ATOM     72  C   UNL A   1      41.602  35.835  36.101  1.00  0.00     0.001 A 
ATOM     73  C   UNL A   1      43.050  36.791  34.422  1.00  0.00     0.001 A 
ATOM     74  C   UNL A   1      42.421  36.875  35.663  1.00  0.00     0.000 A 
ENDBRANCH  50  69
BRANCH  62  75
ATOM     75  C   UNL A   1      45.399  28.648  32.899  1.00  0.00    -0.014 A 
ATOM     76  C   UNL A   1      45.383  27.805  34.020  1.00  0.00     0.009 A 
ATOM     77  C   UNL A   1      46.621  28.921  32.265  1.00  0.00     0.009 A 
ATOM     78  C   UNL A   1      46.574  27.266  34.511  1.00  0.00     0.001 A 
ATOM     79  C   UNL A   1      47.805  28.359  32.743  1.00  0.00     0.001 A 
ATOM     80  C   UNL A   1      47.782  27.539  33.869  1.00  0.00     0.000 A 
ENDBRANCH  62  75
ENDBRANCH  36  37
ENDBRANCH  29  31
ENDBRANCH  28  29
ENDBRANCH  27  28
ENDBRANCH  26  27
ENDBRANCH  25  26
ENDBRANCH   1  25
TORSDOF 18
ENDMDL
