MODEL 1
REMARK VINA RESULT:      -9.1      0.000      0.000
REMARK SMILES CN(CC1CCC1)C(=O)N(CC(=O)OCCOCCOC(=O)c1ccc(-c2c3nc(c(-c4ccccc4)c4ccc([nH]4)c(-c4ccccc4)c4nc(c(-c5ccccc5)c5ccc2[nH]5)C=C4)C=C3)cc1)C(C)(C)C
REMARK SMILES IDX 15 1 14 2 12 3 13 4 11 5 10 6 8 7 9 8 2 9 1 10 3 11 4 12
REMARK SMILES IDX 5 13 7 14 6 15 71 16 72 17 73 18 74 19 16 20 17 21 18 22
REMARK SMILES IDX 19 23 20 24 21 25 22 26 23 27 24 28 70 29 25 30 69 31 26 32
REMARK SMILES IDX 27 33 28 34 63 35 29 36 68 37 62 38 64 39 30 40 67 41 61 42
REMARK SMILES IDX 60 43 31 45 53 46 38 47 52 48 39 49 42 50 51 51 65 52 40 53
REMARK SMILES IDX 41 54 50 56 66 57 43 58 32 59 33 60 37 61 34 62 36 63 35 64
REMARK SMILES IDX 54 65 55 66 59 67 56 68 58 69 57 70 44 71 45 72 49 73 46 74
REMARK SMILES IDX 48 75 47 76
REMARK H PARENT 64 44 42 55
REMARK Flexibility Score: inf
ROOT
ATOM      1  C   UNL A   1      35.325  23.153  24.727  1.00  0.00     0.261 C 
ENDROOT
BRANCH   1   2
ATOM      2  O   UNL A   1      34.035  23.810  24.610  1.00  0.00    -0.462 OA
BRANCH   2   3
ATOM      3  C   UNL A   1      34.023  24.869  23.750  1.00  0.00     0.325 C 
ATOM      4  O   UNL A   1      34.017  24.743  22.527  1.00  0.00    -0.250 OA
BRANCH   3   5
ATOM      5  C   UNL A   1      33.927  26.256  24.414  1.00  0.00     0.244 C 
BRANCH   5   6
ATOM      6  N   UNL A   1      32.630  26.841  24.788  1.00  0.00    -0.309 N 
BRANCH   6   7
ATOM      7  C   UNL A   1      31.395  26.303  24.426  1.00  0.00     0.320 C 
ATOM      8  O   UNL A   1      31.023  25.233  24.923  1.00  0.00    -0.248 OA
BRANCH   7   9
ATOM      9  N   UNL A   1      30.544  26.904  23.513  1.00  0.00    -0.327 N 
ATOM     10  C   UNL A   1      31.121  27.089  22.179  1.00  0.00     0.148 C 
BRANCH   9  11
ATOM     11  C   UNL A   1      29.099  27.127  23.566  1.00  0.00     0.124 C 
BRANCH  11  12
ATOM     12  C   UNL A   1      28.715  28.439  22.903  1.00  0.00     0.008 C 
ATOM     13  C   UNL A   1      27.255  28.937  23.115  1.00  0.00     0.005 C 
ATOM     14  C   UNL A   1      29.139  29.858  23.407  1.00  0.00     0.005 C 
ATOM     15  C   UNL A   1      27.798  30.356  22.829  1.00  0.00     0.001 C 
ENDBRANCH  11  12
ENDBRANCH   9  11
ENDBRANCH   7   9
ENDBRANCH   6   7
BRANCH   6  16
ATOM     16  C   UNL A   1      32.618  27.947  25.838  1.00  0.00     0.037 C 
ATOM     17  C   UNL A   1      31.546  27.649  26.912  1.00  0.00     0.034 C 
ATOM     18  C   UNL A   1      34.009  28.105  26.506  1.00  0.00     0.034 C 
ATOM     19  C   UNL A   1      32.306  29.355  25.275  1.00  0.00     0.034 C 
ENDBRANCH   6  16
ENDBRANCH   5   6
ENDBRANCH   3   5
ENDBRANCH   2   3
ENDBRANCH   1   2
BRANCH   1  20
ATOM     20  C   UNL A   1      35.278  21.958  25.690  1.00  0.00     0.202 C 
BRANCH  20  21
ATOM     21  O   UNL A   1      36.230  20.919  25.422  1.00  0.00    -0.374 OA
BRANCH  21  22
ATOM     22  C   UNL A   1      37.419  21.327  24.755  1.00  0.00     0.202 C 
BRANCH  22  23
ATOM     23  C   UNL A   1      38.654  21.501  25.647  1.00  0.00     0.261 C 
BRANCH  23  24
ATOM     24  O   UNL A   1      39.098  20.272  26.240  1.00  0.00    -0.460 OA
BRANCH  24  25
ATOM     25  C   UNL A   1      40.422  20.047  26.098  1.00  0.00     0.338 C 
ATOM     26  O   UNL A   1      40.953  19.095  25.531  1.00  0.00    -0.246 OA
BRANCH  25  27
ATOM     27  C   UNL A   1      41.223  21.162  26.628  1.00  0.00     0.060 A 
ATOM     28  C   UNL A   1      41.218  21.330  28.016  1.00  0.00     0.016 A 
ATOM     29  C   UNL A   1      41.837  22.108  25.801  1.00  0.00     0.016 A 
ATOM     30  C   UNL A   1      41.737  22.490  28.579  1.00  0.00     0.010 A 
ATOM     31  C   UNL A   1      42.364  23.276  26.371  1.00  0.00     0.010 A 
ATOM     32  C   UNL A   1      42.262  23.496  27.756  1.00  0.00    -0.014 A 
BRANCH  32  33
ATOM     33  C   UNL A   1      42.537  24.822  28.363  1.00  0.00     0.031 A 
ATOM     34  C   UNL A   1      43.950  25.181  28.742  1.00  0.00     0.074 A 
ATOM     35  C   UNL A   1      41.559  25.736  28.479  1.00  0.00     0.049 A 
ATOM     36  N   UNL A   1      44.431  26.327  29.154  1.00  0.00    -0.248 NA
ATOM     37  C   UNL A   1      44.953  24.109  28.640  1.00  0.00     0.031 C 
ATOM     38  C   UNL A   1      40.156  25.521  28.129  1.00  0.00     0.029 A 
ATOM     39  N   UNL A   1      41.606  27.037  28.911  1.00  0.00    -0.354 N 
ATOM     40  C   UNL A   1      45.789  26.115  29.359  1.00  0.00     0.074 A 
ATOM     41  C   UNL A   1      46.049  24.723  29.060  1.00  0.00     0.031 C 
ATOM     42  C   UNL A   1      39.475  26.657  28.354  1.00  0.00     0.029 A 
ATOM     43  C   UNL A   1      40.391  27.672  28.874  1.00  0.00     0.049 A 
ATOM     44  H   UNL A   1      42.434  27.474  29.219  1.00  0.00     0.167 HD
ATOM     45  C   UNL A   1      46.739  26.998  29.749  1.00  0.00     0.031 A 
ATOM     46  C   UNL A   1      40.051  28.929  29.218  1.00  0.00     0.031 A 
ATOM     47  C   UNL A   1      46.486  28.380  30.057  1.00  0.00     0.049 A 
ATOM     48  C   UNL A   1      41.115  29.885  29.682  1.00  0.00     0.074 A 
ATOM     49  C   UNL A   1      47.388  29.362  30.429  1.00  0.00     0.029 A 
ATOM     50  N   UNL A   1      45.233  28.972  30.042  1.00  0.00    -0.354 N 
ATOM     51  N   UNL A   1      42.404  29.686  29.811  1.00  0.00    -0.248 NA
ATOM     52  C   UNL A   1      40.677  31.245  30.030  1.00  0.00     0.031 C 
ATOM     53  C   UNL A   1      46.672  30.536  30.691  1.00  0.00     0.029 A 
ATOM     54  C   UNL A   1      45.332  30.297  30.430  1.00  0.00     0.049 A 
ATOM     55  H   UNL A   1      44.396  28.518  29.793  1.00  0.00     0.167 HD
ATOM     56  C   UNL A   1      42.934  30.897  30.240  1.00  0.00     0.074 A 
ATOM     57  C   UNL A   1      41.829  31.830  30.330  1.00  0.00     0.031 C 
ATOM     58  C   UNL A   1      44.221  31.209  30.531  1.00  0.00     0.031 A 
BRANCH  45  59
ATOM     59  C   UNL A   1      48.142  26.477  29.897  1.00  0.00    -0.014 A 
ATOM     60  C   UNL A   1      48.591  25.918  31.104  1.00  0.00     0.009 A 
ATOM     61  C   UNL A   1      49.023  26.538  28.806  1.00  0.00     0.009 A 
ATOM     62  C   UNL A   1      49.907  25.466  31.227  1.00  0.00     0.001 A 
ATOM     63  C   UNL A   1      50.330  26.061  28.924  1.00  0.00     0.001 A 
ATOM     64  C   UNL A   1      50.774  25.536  30.137  1.00  0.00     0.000 A 
ENDBRANCH  45  59
BRANCH  46  65
ATOM     65  C   UNL A   1      38.629  29.349  29.137  1.00  0.00    -0.014 A 
ATOM     66  C   UNL A   1      37.786  29.265  30.254  1.00  0.00     0.009 A 
ATOM     67  C   UNL A   1      38.116  29.858  27.934  1.00  0.00     0.009 A 
ATOM     68  C   UNL A   1      36.452  29.669  30.164  1.00  0.00     0.001 A 
ATOM     69  C   UNL A   1      36.789  30.284  27.852  1.00  0.00     0.001 A 
ATOM     70  C   UNL A   1      35.957  30.184  28.966  1.00  0.00     0.000 A 
ENDBRANCH  46  65
BRANCH  58  71
ATOM     71  C   UNL A   1      44.504  32.619  30.965  1.00  0.00    -0.014 A 
ATOM     72  C   UNL A   1      44.564  32.963  32.325  1.00  0.00     0.009 A 
ATOM     73  C   UNL A   1      44.753  33.610  30.002  1.00  0.00     0.009 A 
ATOM     74  C   UNL A   1      44.836  34.277  32.710  1.00  0.00     0.001 A 
ATOM     75  C   UNL A   1      45.050  34.917  30.390  1.00  0.00     0.001 A 
ATOM     76  C   UNL A   1      45.082  35.251  31.744  1.00  0.00     0.000 A 
ENDBRANCH  58  71
ENDBRANCH  32  33
ENDBRANCH  25  27
ENDBRANCH  24  25
ENDBRANCH  23  24
ENDBRANCH  22  23
ENDBRANCH  21  22
ENDBRANCH  20  21
ENDBRANCH   1  20
TORSDOF 20
ENDMDL
MODEL 2
REMARK VINA RESULT:      -9.1      0.794      6.043
REMARK SMILES CN(CC1CCC1)C(=O)N(CC(=O)OCCOCCOC(=O)c1ccc(-c2c3nc(c(-c4ccccc4)c4ccc([nH]4)c(-c4ccccc4)c4nc(c(-c5ccccc5)c5ccc2[nH]5)C=C4)C=C3)cc1)C(C)(C)C
REMARK SMILES IDX 15 1 14 2 12 3 13 4 11 5 10 6 8 7 9 8 2 9 1 10 3 11 4 12
REMARK SMILES IDX 5 13 7 14 6 15 71 16 72 17 73 18 74 19 16 20 17 21 18 22
REMARK SMILES IDX 19 23 20 24 21 25 22 26 23 27 24 28 70 29 25 30 69 31 26 32
REMARK SMILES IDX 27 33 28 34 63 35 29 36 68 37 62 38 64 39 30 40 67 41 61 42
REMARK SMILES IDX 60 43 31 45 53 46 38 47 52 48 39 49 42 50 51 51 65 52 40 53
REMARK SMILES IDX 41 54 50 56 66 57 43 58 32 59 33 60 37 61 34 62 36 63 35 64
REMARK SMILES IDX 54 65 55 66 59 67 56 68 58 69 57 70 44 71 45 72 49 73 46 74
REMARK SMILES IDX 48 75 47 76
REMARK H PARENT 64 44 42 55
REMARK Flexibility Score: inf
ROOT
ATOM      1  C   UNL A   1      35.456  23.689  25.836  1.00  0.00     0.261 C 
ENDROOT
BRANCH   1   2
ATOM      2  O   UNL A   1      35.415  24.233  24.490  1.00  0.00    -0.462 OA
BRANCH   2   3
ATOM      3  C   UNL A   1      34.264  24.900  24.192  1.00  0.00     0.325 C 
ATOM      4  O   UNL A   1      33.887  25.112  23.041  1.00  0.00    -0.250 OA
BRANCH   3   5
ATOM      5  C   UNL A   1      33.403  25.304  25.405  1.00  0.00     0.244 C 
BRANCH   5   6
ATOM      6  N   UNL A   1      32.369  26.346  25.301  1.00  0.00    -0.309 N 
BRANCH   6   7
ATOM      7  C   UNL A   1      30.998  26.095  25.350  1.00  0.00     0.320 C 
ATOM      8  O   UNL A   1      30.437  25.961  26.445  1.00  0.00    -0.248 OA
BRANCH   7   9
ATOM      9  N   UNL A   1      30.207  25.974  24.218  1.00  0.00    -0.327 N 
ATOM     10  C   UNL A   1      30.462  24.765  23.430  1.00  0.00     0.148 C 
BRANCH   9  11
ATOM     11  C   UNL A   1      28.991  26.686  23.830  1.00  0.00     0.124 C 
BRANCH  11  12
ATOM     12  C   UNL A   1      29.287  28.131  23.462  1.00  0.00     0.008 C 
ATOM     13  C   UNL A   1      30.243  28.371  22.257  1.00  0.00     0.005 C 
ATOM     14  C   UNL A   1      28.303  29.086  22.709  1.00  0.00     0.005 C 
ATOM     15  C   UNL A   1      29.560  29.750  22.110  1.00  0.00     0.001 C 
ENDBRANCH  11  12
ENDBRANCH   9  11
ENDBRANCH   7   9
ENDBRANCH   6   7
BRANCH   6  16
ATOM     16  C   UNL A   1      32.807  27.802  25.402  1.00  0.00     0.037 C 
ATOM     17  C   UNL A   1      33.967  27.940  26.415  1.00  0.00     0.034 C 
ATOM     18  C   UNL A   1      33.240  28.359  24.021  1.00  0.00     0.034 C 
ATOM     19  C   UNL A   1      31.692  28.771  25.867  1.00  0.00     0.034 C 
ENDBRANCH   6  16
ENDBRANCH   5   6
ENDBRANCH   3   5
ENDBRANCH   2   3
ENDBRANCH   1   2
BRANCH   1  20
ATOM     20  C   UNL A   1      35.477  22.154  25.838  1.00  0.00     0.202 C 
BRANCH  20  21
ATOM     21  O   UNL A   1      36.204  21.551  24.758  1.00  0.00    -0.374 OA
BRANCH  21  22
ATOM     22  C   UNL A   1      36.664  20.224  24.987  1.00  0.00     0.202 C 
BRANCH  22  23
ATOM     23  C   UNL A   1      38.178  20.017  24.869  1.00  0.00     0.261 C 
BRANCH  23  24
ATOM     24  O   UNL A   1      38.922  20.714  25.880  1.00  0.00    -0.460 OA
BRANCH  24  25
ATOM     25  C   UNL A   1      40.174  20.240  26.058  1.00  0.00     0.338 C 
ATOM     26  O   UNL A   1      40.584  19.114  25.786  1.00  0.00    -0.246 OA
BRANCH  25  27
ATOM     27  C   UNL A   1      41.088  21.287  26.544  1.00  0.00     0.060 A 
ATOM     28  C   UNL A   1      41.043  21.567  27.914  1.00  0.00     0.016 A 
ATOM     29  C   UNL A   1      41.853  22.078  25.682  1.00  0.00     0.016 A 
ATOM     30  C   UNL A   1      41.682  22.696  28.414  1.00  0.00     0.010 A 
ATOM     31  C   UNL A   1      42.500  23.214  26.189  1.00  0.00     0.010 A 
ATOM     32  C   UNL A   1      42.368  23.558  27.547  1.00  0.00    -0.014 A 
BRANCH  32  33
ATOM     33  C   UNL A   1      42.784  24.884  28.064  1.00  0.00     0.031 A 
ATOM     34  C   UNL A   1      41.739  25.942  28.309  1.00  0.00     0.074 A 
ATOM     35  C   UNL A   1      44.061  25.112  28.412  1.00  0.00     0.049 A 
ATOM     36  N   UNL A   1      41.864  27.112  28.883  1.00  0.00    -0.248 NA
ATOM     37  C   UNL A   1      40.374  25.639  27.849  1.00  0.00     0.031 C 
ATOM     38  C   UNL A   1      45.163  24.165  28.247  1.00  0.00     0.029 A 
ATOM     39  N   UNL A   1      44.642  26.211  28.994  1.00  0.00    -0.354 N 
ATOM     40  C   UNL A   1      40.597  27.683  28.855  1.00  0.00     0.074 A 
ATOM     41  C   UNL A   1      39.727  26.747  28.176  1.00  0.00     0.031 C 
ATOM     42  C   UNL A   1      46.289  24.723  28.724  1.00  0.00     0.029 A 
ATOM     43  C   UNL A   1      45.988  26.067  29.216  1.00  0.00     0.049 A 
ATOM     44  H   UNL A   1      44.140  27.025  29.229  1.00  0.00     0.167 HD
ATOM     45  C   UNL A   1      40.189  28.873  29.356  1.00  0.00     0.031 A 
ATOM     46  C   UNL A   1      46.879  26.920  29.756  1.00  0.00     0.031 A 
ATOM     47  C   UNL A   1      41.051  29.812  30.023  1.00  0.00     0.049 A 
ATOM     48  C   UNL A   1      46.413  28.251  30.277  1.00  0.00     0.074 A 
ATOM     49  C   UNL A   1      40.724  31.029  30.595  1.00  0.00     0.029 A 
ATOM     50  N   UNL A   1      42.416  29.643  30.193  1.00  0.00    -0.354 N 
ATOM     51  N   UNL A   1      45.201  28.751  30.298  1.00  0.00    -0.248 NA
ATOM     52  C   UNL A   1      47.436  29.128  30.865  1.00  0.00     0.031 C 
ATOM     53  C   UNL A   1      41.903  31.621  31.066  1.00  0.00     0.029 A 
ATOM     54  C   UNL A   1      42.952  30.748  30.832  1.00  0.00     0.049 A 
ATOM     55  H   UNL A   1      42.928  28.854  29.903  1.00  0.00     0.167 HD
ATOM     56  C   UNL A   1      45.312  29.991  30.913  1.00  0.00     0.074 A 
ATOM     57  C   UNL A   1      46.707  30.160  31.268  1.00  0.00     0.031 C 
ATOM     58  C   UNL A   1      44.345  30.908  31.164  1.00  0.00     0.031 A 
BRANCH  45  59
ATOM     59  C   UNL A   1      38.742  29.238  29.168  1.00  0.00    -0.014 A 
ATOM     60  C   UNL A   1      37.815  29.112  30.214  1.00  0.00     0.009 A 
ATOM     61  C   UNL A   1      38.305  29.727  27.927  1.00  0.00     0.009 A 
ATOM     62  C   UNL A   1      36.470  29.430  30.008  1.00  0.00     0.001 A 
ATOM     63  C   UNL A   1      36.966  30.069  27.732  1.00  0.00     0.001 A 
ATOM     64  C   UNL A   1      36.048  29.910  28.768  1.00  0.00     0.000 A 
ENDBRANCH  45  59
BRANCH  46  65
ATOM     65  C   UNL A   1      48.311  26.532  29.825  1.00  0.00    -0.014 A 
ATOM     66  C   UNL A   1      49.201  26.870  28.796  1.00  0.00     0.009 A 
ATOM     67  C   UNL A   1      48.795  25.833  30.942  1.00  0.00     0.009 A 
ATOM     68  C   UNL A   1      50.547  26.503  28.878  1.00  0.00     0.001 A 
ATOM     69  C   UNL A   1      50.145  25.488  31.033  1.00  0.00     0.001 A 
ATOM     70  C   UNL A   1      51.018  25.819  29.998  1.00  0.00     0.000 A 
ENDBRANCH  46  65
BRANCH  58  71
ATOM     71  C   UNL A   1      44.761  32.171  31.863  1.00  0.00    -0.014 A 
ATOM     72  C   UNL A   1      45.176  33.300  31.139  1.00  0.00     0.009 A 
ATOM     73  C   UNL A   1      44.702  32.246  33.264  1.00  0.00     0.009 A 
ATOM     74  C   UNL A   1      45.551  34.468  31.805  1.00  0.00     0.001 A 
ATOM     75  C   UNL A   1      45.054  33.423  33.926  1.00  0.00     0.001 A 
ATOM     76  C   UNL A   1      45.488  34.530  33.196  1.00  0.00     0.000 A 
ENDBRANCH  58  71
ENDBRANCH  32  33
ENDBRANCH  25  27
ENDBRANCH  24  25
ENDBRANCH  23  24
ENDBRANCH  22  23
ENDBRANCH  21  22
ENDBRANCH  20  21
ENDBRANCH   1  20
TORSDOF 20
ENDMDL
MODEL 3
REMARK VINA RESULT:      -8.6      1.229      2.293
REMARK SMILES CN(CC1CCC1)C(=O)N(CC(=O)OCCOCCOC(=O)c1ccc(-c2c3nc(c(-c4ccccc4)c4ccc([nH]4)c(-c4ccccc4)c4nc(c(-c5ccccc5)c5ccc2[nH]5)C=C4)C=C3)cc1)C(C)(C)C
REMARK SMILES IDX 15 1 14 2 12 3 13 4 11 5 10 6 8 7 9 8 2 9 1 10 3 11 4 12
REMARK SMILES IDX 5 13 7 14 6 15 71 16 72 17 73 18 74 19 16 20 17 21 18 22
REMARK SMILES IDX 19 23 20 24 21 25 22 26 23 27 24 28 70 29 25 30 69 31 26 32
REMARK SMILES IDX 27 33 28 34 63 35 29 36 68 37 62 38 64 39 30 40 67 41 61 42
REMARK SMILES IDX 60 43 31 45 53 46 38 47 52 48 39 49 42 50 51 51 65 52 40 53
REMARK SMILES IDX 41 54 50 56 66 57 43 58 32 59 33 60 37 61 34 62 36 63 35 64
REMARK SMILES IDX 54 65 55 66 59 67 56 68 58 69 57 70 44 71 45 72 49 73 46 74
REMARK SMILES IDX 48 75 47 76
REMARK H PARENT 64 44 42 55
REMARK Flexibility Score: inf
ROOT
ATOM      1  C   UNL A   1      34.714  22.117  25.093  1.00  0.00     0.261 C 
ENDROOT
BRANCH   1   2
ATOM      2  O   UNL A   1      35.243  23.247  24.350  1.00  0.00    -0.462 OA
BRANCH   2   3
ATOM      3  C   UNL A   1      34.292  23.996  23.721  1.00  0.00     0.325 C 
ATOM      4  O   UNL A   1      34.369  24.329  22.540  1.00  0.00    -0.250 OA
BRANCH   3   5
ATOM      5  C   UNL A   1      33.050  24.331  24.569  1.00  0.00     0.244 C 
BRANCH   5   6
ATOM      6  N   UNL A   1      32.214  25.507  24.277  1.00  0.00    -0.309 N 
BRANCH   6   7
ATOM      7  C   UNL A   1      32.556  26.814  24.622  1.00  0.00     0.320 C 
ATOM      8  O   UNL A   1      33.560  27.338  24.123  1.00  0.00    -0.248 OA
BRANCH   7   9
ATOM      9  N   UNL A   1      31.826  27.578  25.519  1.00  0.00    -0.327 N 
ATOM     10  C   UNL A   1      31.686  26.979  26.849  1.00  0.00     0.148 C 
BRANCH   9  11
ATOM     11  C   UNL A   1      31.417  28.981  25.458  1.00  0.00     0.124 C 
BRANCH  11  12
ATOM     12  C   UNL A   1      32.028  29.787  26.593  1.00  0.00     0.008 C 
ATOM     13  C   UNL A   1      33.576  29.943  26.595  1.00  0.00     0.005 C 
ATOM     14  C   UNL A   1      31.996  31.347  26.705  1.00  0.00     0.005 C 
ATOM     15  C   UNL A   1      33.352  31.224  27.430  1.00  0.00     0.001 C 
ENDBRANCH  11  12
ENDBRANCH   9  11
ENDBRANCH   7   9
ENDBRANCH   6   7
BRANCH   6  16
ATOM     16  C   UNL A   1      31.036  25.330  23.326  1.00  0.00     0.037 C 
ATOM     17  C   UNL A   1      31.360  25.968  21.955  1.00  0.00     0.034 C 
ATOM     18  C   UNL A   1      30.677  23.833  23.144  1.00  0.00     0.034 C 
ATOM     19  C   UNL A   1      29.718  25.978  23.819  1.00  0.00     0.034 C 
ENDBRANCH   6  16
ENDBRANCH   5   6
ENDBRANCH   3   5
ENDBRANCH   2   3
ENDBRANCH   1   2
BRANCH   1  20
ATOM     20  C   UNL A   1      35.583  20.861  24.930  1.00  0.00     0.202 C 
BRANCH  20  21
ATOM     21  O   UNL A   1      36.968  21.109  24.654  1.00  0.00    -0.374 OA
BRANCH  21  22
ATOM     22  C   UNL A   1      37.764  21.489  25.770  1.00  0.00     0.202 C 
BRANCH  22  23
ATOM     23  C   UNL A   1      39.280  21.356  25.583  1.00  0.00     0.261 C 
BRANCH  23  24
ATOM     24  O   UNL A   1      39.821  20.178  26.200  1.00  0.00    -0.460 OA
BRANCH  24  25
ATOM     25  C   UNL A   1      41.150  20.028  26.012  1.00  0.00     0.338 C 
ATOM     26  O   UNL A   1      41.714  19.113  25.416  1.00  0.00    -0.246 OA
BRANCH  25  27
ATOM     27  C   UNL A   1      41.906  21.181  26.527  1.00  0.00     0.060 A 
ATOM     28  C   UNL A   1      41.917  21.349  27.916  1.00  0.00     0.016 A 
ATOM     29  C   UNL A   1      42.460  22.154  25.690  1.00  0.00     0.016 A 
ATOM     30  C   UNL A   1      42.390  22.533  28.470  1.00  0.00     0.010 A 
ATOM     31  C   UNL A   1      42.939  23.346  26.251  1.00  0.00     0.010 A 
ATOM     32  C   UNL A   1      42.852  23.562  27.638  1.00  0.00    -0.014 A 
BRANCH  32  33
ATOM     33  C   UNL A   1      43.073  24.900  28.239  1.00  0.00     0.031 A 
ATOM     34  C   UNL A   1      44.478  25.341  28.563  1.00  0.00     0.074 A 
ATOM     35  C   UNL A   1      42.049  25.755  28.401  1.00  0.00     0.049 A 
ATOM     36  N   UNL A   1      44.907  26.512  28.960  1.00  0.00    -0.248 NA
ATOM     37  C   UNL A   1      45.536  24.330  28.414  1.00  0.00     0.031 C 
ATOM     38  C   UNL A   1      40.648  25.459  28.107  1.00  0.00     0.029 A 
ATOM     39  N   UNL A   1      42.038  27.056  28.837  1.00  0.00    -0.354 N 
ATOM     40  C   UNL A   1      46.282  26.380  29.108  1.00  0.00     0.074 A 
ATOM     41  C   UNL A   1      46.611  25.006  28.792  1.00  0.00     0.031 C 
ATOM     42  C   UNL A   1      39.911  26.553  28.366  1.00  0.00     0.029 A 
ATOM     43  C   UNL A   1      40.787  27.618  28.853  1.00  0.00     0.049 A 
ATOM     44  H   UNL A   1      42.850  27.539  29.113  1.00  0.00     0.167 HD
ATOM     45  C   UNL A   1      47.194  27.316  29.464  1.00  0.00     0.031 A 
ATOM     46  C   UNL A   1      40.389  28.852  29.217  1.00  0.00     0.031 A 
ATOM     47  C   UNL A   1      46.873  28.679  29.789  1.00  0.00     0.049 A 
ATOM     48  C   UNL A   1      41.413  29.868  29.643  1.00  0.00     0.074 A 
ATOM     49  C   UNL A   1      47.731  29.711  30.129  1.00  0.00     0.029 A 
ATOM     50  N   UNL A   1      45.588  29.197  29.829  1.00  0.00    -0.354 N 
ATOM     51  N   UNL A   1      42.716  29.744  29.718  1.00  0.00    -0.248 NA
ATOM     52  C   UNL A   1      40.911  31.198  30.015  1.00  0.00     0.031 C 
ATOM     53  C   UNL A   1      46.959  30.841  30.426  1.00  0.00     0.029 A 
ATOM     54  C   UNL A   1      45.626  30.525  30.220  1.00  0.00     0.049 A 
ATOM     55  H   UNL A   1      44.770  28.695  29.612  1.00  0.00     0.167 HD
ATOM     56  C   UNL A   1      43.191  30.983  30.131  1.00  0.00     0.074 A 
ATOM     57  C   UNL A   1      42.038  31.849  30.271  1.00  0.00     0.031 C 
ATOM     58  C   UNL A   1      44.469  31.369  30.370  1.00  0.00     0.031 A 
BRANCH  45  59
ATOM     59  C   UNL A   1      48.630  26.878  29.552  1.00  0.00    -0.014 A 
ATOM     60  C   UNL A   1      49.154  26.321  30.729  1.00  0.00     0.009 A 
ATOM     61  C   UNL A   1      49.467  27.015  28.433  1.00  0.00     0.009 A 
ATOM     62  C   UNL A   1      50.499  25.947  30.796  1.00  0.00     0.001 A 
ATOM     63  C   UNL A   1      50.804  26.616  28.495  1.00  0.00     0.001 A 
ATOM     64  C   UNL A   1      51.321  26.093  29.679  1.00  0.00     0.000 A 
ENDBRANCH  45  59
BRANCH  46  65
ATOM     65  C   UNL A   1      38.943  29.189  29.197  1.00  0.00    -0.014 A 
ATOM     66  C   UNL A   1      38.328  29.667  28.032  1.00  0.00     0.009 A 
ATOM     67  C   UNL A   1      38.166  29.011  30.353  1.00  0.00     0.009 A 
ATOM     68  C   UNL A   1      36.965  29.975  28.028  1.00  0.00     0.001 A 
ATOM     69  C   UNL A   1      36.799  29.296  30.340  1.00  0.00     0.001 A 
ATOM     70  C   UNL A   1      36.201  29.783  29.179  1.00  0.00     0.000 A 
ENDBRANCH  46  65
BRANCH  58  71
ATOM     71  C   UNL A   1      44.687  32.793  30.800  1.00  0.00    -0.014 A 
ATOM     72  C   UNL A   1      44.971  33.798  29.863  1.00  0.00     0.009 A 
ATOM     73  C   UNL A   1      44.568  33.139  32.155  1.00  0.00     0.009 A 
ATOM     74  C   UNL A   1      45.162  35.117  30.279  1.00  0.00     0.001 A 
ATOM     75  C   UNL A   1      44.735  34.463  32.566  1.00  0.00     0.001 A 
ATOM     76  C   UNL A   1      45.041  35.449  31.628  1.00  0.00     0.000 A 
ENDBRANCH  58  71
ENDBRANCH  32  33
ENDBRANCH  25  27
ENDBRANCH  24  25
ENDBRANCH  23  24
ENDBRANCH  22  23
ENDBRANCH  21  22
ENDBRANCH  20  21
ENDBRANCH   1  20
TORSDOF 20
ENDMDL
