MODEL 1
REMARK VINA RESULT:     -12.4      0.000      0.000
REMARK SMILES CS(=O)(=O)c1ccc(C2=NN(c3ccc(C(=O)OCCOCCOC(=O)c4ccc(-c5c6nc(c(-c7ccccc7)c7ccc([nH]7)c(-c7ccccc7)c7nc(c(-c8ccccc8)c8ccc5[nH]8)C=C7)C=C6)cc4)cc3)[C@H](c3ccccc3)C2)cc1
REMARK SMILES IDX 20 1 19 2 18 3 16 4 17 5 15 6 12 7 13 8 76 9 14 10 75 11
REMARK SMILES IDX 11 12 9 13 10 14 84 15 77 16 8 17 5 18 6 19 86 20 7 21 85 22
REMARK SMILES IDX 2 23 1 24 3 25 4 26 78 27 79 28 83 29 80 30 82 31 81 32
REMARK SMILES IDX 21 33 22 34 23 35 24 36 25 37 26 38 27 39 28 40 74 41 29 42
REMARK SMILES IDX 73 43 30 44 31 45 32 46 67 47 33 48 72 49 66 50 68 51 34 52
REMARK SMILES IDX 71 53 65 54 64 55 35 57 57 58 42 59 56 60 43 61 46 62 55 63
REMARK SMILES IDX 69 64 44 65 45 66 54 68 70 69 47 70 36 71 37 72 41 73 38 74
REMARK SMILES IDX 40 75 39 76 58 77 59 78 63 79 60 80 62 81 61 82 48 83 49 84
REMARK SMILES IDX 53 85 50 86 52 87 51 88
REMARK H PARENT 68 56 46 67
REMARK Flexibility Score: inf
ROOT
ATOM      1  C   UNL A   1      41.956  19.518  26.327  1.00  0.00     0.202 C 
ENDROOT
BRANCH   1   2
ATOM      2  C   UNL A   1      40.453  19.716  26.536  1.00  0.00     0.261 C 
BRANCH   2   3
ATOM      3  O   UNL A   1      39.949  20.750  25.676  1.00  0.00    -0.460 OA
BRANCH   3   4
ATOM      4  C   UNL A   1      39.448  21.837  26.311  1.00  0.00     0.338 C 
ATOM      5  O   UNL A   1      39.995  22.479  27.197  1.00  0.00    -0.246 OA
BRANCH   4   6
ATOM      6  C   UNL A   1      38.148  22.233  25.717  1.00  0.00     0.060 A 
ATOM      7  C   UNL A   1      35.601  23.006  24.822  1.00  0.00     0.060 A 
ATOM      8  C   UNL A   1      36.348  23.857  25.640  1.00  0.00     0.029 A 
ATOM      9  C   UNL A   1      36.191  21.817  24.366  1.00  0.00     0.029 A 
ATOM     10  C   UNL A   1      37.611  23.471  26.092  1.00  0.00     0.018 A 
ATOM     11  C   UNL A   1      37.453  21.422  24.814  1.00  0.00     0.018 A 
BRANCH   7  12
ATOM     12  N   UNL A   1      34.245  23.236  24.580  1.00  0.00    -0.257 N 
ATOM     13  C   UNL A   1      32.623  24.618  24.523  1.00  0.00     0.071 C 
ATOM     14  N   UNL A   1      33.834  24.435  24.094  1.00  0.00    -0.176 NA
ATOM     15  C   UNL A   1      32.120  23.600  25.510  1.00  0.00     0.091 C 
ATOM     16  C   UNL A   1      33.259  22.574  25.451  1.00  0.00     0.144 C 
BRANCH  13  17
ATOM     17  C   UNL A   1      31.789  25.753  24.082  1.00  0.00    -0.002 A 
ATOM     18  C   UNL A   1      30.262  27.889  23.150  1.00  0.00     0.067 A 
ATOM     19  C   UNL A   1      30.994  27.119  22.243  1.00  0.00     0.021 A 
ATOM     20  C   UNL A   1      30.294  27.604  24.520  1.00  0.00     0.021 A 
ATOM     21  C   UNL A   1      31.762  26.054  22.714  1.00  0.00     0.011 A 
ATOM     22  C   UNL A   1      31.050  26.522  24.987  1.00  0.00     0.011 A 
BRANCH  18  23
ATOM     23  S   UNL A   1      29.341  29.298  22.572  1.00  0.00     0.175 S 
ATOM     24  C   UNL A   1      29.679  30.553  23.777  1.00  0.00     0.163 C 
ATOM     25  O   UNL A   1      27.927  28.969  22.667  1.00  0.00    -0.224 OA
ATOM     26  O   UNL A   1      29.929  29.702  21.314  1.00  0.00    -0.224 OA
ENDBRANCH  18  23
ENDBRANCH  13  17
BRANCH  16  27
ATOM     27  C   UNL A   1      32.948  21.185  24.910  1.00  0.00    -0.023 A 
ATOM     28  C   UNL A   1      32.553  20.937  23.588  1.00  0.00     0.006 A 
ATOM     29  C   UNL A   1      33.163  20.075  25.753  1.00  0.00     0.006 A 
ATOM     30  C   UNL A   1      32.386  19.626  23.128  1.00  0.00     0.000 A 
ATOM     31  C   UNL A   1      33.034  18.768  25.282  1.00  0.00     0.000 A 
ATOM     32  C   UNL A   1      32.642  18.544  23.968  1.00  0.00     0.000 A 
ENDBRANCH  16  27
ENDBRANCH   7  12
ENDBRANCH   4   6
ENDBRANCH   3   4
ENDBRANCH   2   3
ENDBRANCH   1   2
BRANCH   1  33
ATOM     33  O   UNL A   1      42.578  20.368  25.363  1.00  0.00    -0.374 OA
BRANCH  33  34
ATOM     34  C   UNL A   1      43.489  21.355  25.848  1.00  0.00     0.202 C 
BRANCH  34  35
ATOM     35  C   UNL A   1      44.253  22.160  24.791  1.00  0.00     0.261 C 
BRANCH  35  36
ATOM     36  O   UNL A   1      43.656  23.447  24.548  1.00  0.00    -0.460 OA
BRANCH  36  37
ATOM     37  C   UNL A   1      44.394  24.502  24.964  1.00  0.00     0.338 C 
ATOM     38  O   UNL A   1      45.502  24.838  24.566  1.00  0.00    -0.246 OA
BRANCH  37  39
ATOM     39  C   UNL A   1      43.604  25.341  25.882  1.00  0.00     0.060 A 
ATOM     40  C   UNL A   1      44.024  26.663  26.075  1.00  0.00     0.016 A 
ATOM     41  C   UNL A   1      42.521  24.828  26.600  1.00  0.00     0.016 A 
ATOM     42  C   UNL A   1      43.395  27.464  27.024  1.00  0.00     0.010 A 
ATOM     43  C   UNL A   1      41.895  25.632  27.558  1.00  0.00     0.010 A 
ATOM     44  C   UNL A   1      42.352  26.940  27.799  1.00  0.00    -0.014 A 
BRANCH  44  45
ATOM     45  C   UNL A   1      41.837  27.716  28.953  1.00  0.00     0.031 A 
ATOM     46  C   UNL A   1      42.542  27.610  30.278  1.00  0.00     0.074 A 
ATOM     47  C   UNL A   1      40.774  28.528  28.819  1.00  0.00     0.049 A 
ATOM     48  N   UNL A   1      42.242  28.170  31.423  1.00  0.00    -0.248 NA
ATOM     49  C   UNL A   1      43.744  26.761  30.317  1.00  0.00     0.031 C 
ATOM     50  C   UNL A   1      40.031  28.752  27.580  1.00  0.00     0.029 A 
ATOM     51  N   UNL A   1      40.132  29.312  29.744  1.00  0.00    -0.354 N 
ATOM     52  C   UNL A   1      43.217  27.742  32.316  1.00  0.00     0.074 A 
ATOM     53  C   UNL A   1      44.096  26.850  31.592  1.00  0.00     0.031 C 
ATOM     54  C   UNL A   1      39.024  29.609  27.826  1.00  0.00     0.029 A 
ATOM     55  C   UNL A   1      39.033  29.965  29.242  1.00  0.00     0.049 A 
ATOM     56  H   UNL A   1      40.431  29.398  30.678  1.00  0.00     0.167 HD
ATOM     57  C   UNL A   1      43.375  28.070  33.621  1.00  0.00     0.031 A 
ATOM     58  C   UNL A   1      38.124  30.742  29.862  1.00  0.00     0.031 A 
ATOM     59  C   UNL A   1      42.491  28.940  34.351  1.00  0.00     0.049 A 
ATOM     60  C   UNL A   1      38.271  31.024  31.334  1.00  0.00     0.074 A 
ATOM     61  C   UNL A   1      42.563  29.327  35.678  1.00  0.00     0.029 A 
ATOM     62  N   UNL A   1      41.372  29.555  33.815  1.00  0.00    -0.354 N 
ATOM     63  N   UNL A   1      39.205  30.626  32.164  1.00  0.00    -0.248 NA
ATOM     64  C   UNL A   1      37.242  31.872  31.952  1.00  0.00     0.031 C 
ATOM     65  C   UNL A   1      41.458  30.137  35.957  1.00  0.00     0.029 A 
ATOM     66  C   UNL A   1      40.732  30.302  34.789  1.00  0.00     0.049 A 
ATOM     67  H   UNL A   1      41.075  29.474  32.879  1.00  0.00     0.167 HD
ATOM     68  C   UNL A   1      38.891  31.195  33.392  1.00  0.00     0.074 A 
ATOM     69  C   UNL A   1      37.691  31.981  33.194  1.00  0.00     0.031 C 
ATOM     70  C   UNL A   1      39.539  31.080  34.576  1.00  0.00     0.031 A 
BRANCH  57  71
ATOM     71  C   UNL A   1      44.538  27.460  34.350  1.00  0.00    -0.014 A 
ATOM     72  C   UNL A   1      44.425  26.213  34.984  1.00  0.00     0.009 A 
ATOM     73  C   UNL A   1      45.775  28.123  34.374  1.00  0.00     0.009 A 
ATOM     74  C   UNL A   1      45.517  25.657  35.654  1.00  0.00     0.001 A 
ATOM     75  C   UNL A   1      46.873  27.553  35.020  1.00  0.00     0.001 A 
ATOM     76  C   UNL A   1      46.740  26.325  35.666  1.00  0.00     0.000 A 
ENDBRANCH  57  71
BRANCH  58  77
ATOM     77  C   UNL A   1      36.968  31.286  29.103  1.00  0.00    -0.014 A 
ATOM     78  C   UNL A   1      36.958  32.618  28.662  1.00  0.00     0.009 A 
ATOM     79  C   UNL A   1      35.850  30.478  28.844  1.00  0.00     0.009 A 
ATOM     80  C   UNL A   1      35.840  33.137  28.004  1.00  0.00     0.001 A 
ATOM     81  C   UNL A   1      34.747  30.990  28.159  1.00  0.00     0.001 A 
ATOM     82  C   UNL A   1      34.738  32.322  27.750  1.00  0.00     0.000 A 
ENDBRANCH  58  77
BRANCH  70  83
ATOM     83  C   UNL A   1      38.987  31.852  35.743  1.00  0.00    -0.014 A 
ATOM     84  C   UNL A   1      39.271  33.216  35.916  1.00  0.00     0.009 A 
ATOM     85  C   UNL A   1      38.134  31.213  36.657  1.00  0.00     0.009 A 
ATOM     86  C   UNL A   1      38.739  33.914  37.002  1.00  0.00     0.001 A 
ATOM     87  C   UNL A   1      37.581  31.920  37.725  1.00  0.00     0.001 A 
ATOM     88  C   UNL A   1      37.891  33.268  37.901  1.00  0.00     0.000 A 
ENDBRANCH  70  83
ENDBRANCH  44  45
ENDBRANCH  37  39
ENDBRANCH  36  37
ENDBRANCH  35  36
ENDBRANCH  34  35
ENDBRANCH  33  34
ENDBRANCH   1  33
TORSDOF 18
ENDMDL
MODEL 2
REMARK VINA RESULT:     -11.7      0.974      5.642
REMARK SMILES CS(=O)(=O)c1ccc(C2=NN(c3ccc(C(=O)OCCOCCOC(=O)c4ccc(-c5c6nc(c(-c7ccccc7)c7ccc([nH]7)c(-c7ccccc7)c7nc(c(-c8ccccc8)c8ccc5[nH]8)C=C7)C=C6)cc4)cc3)[C@H](c3ccccc3)C2)cc1
REMARK SMILES IDX 20 1 19 2 18 3 16 4 17 5 15 6 12 7 13 8 76 9 14 10 75 11
REMARK SMILES IDX 11 12 9 13 10 14 84 15 77 16 8 17 5 18 6 19 86 20 7 21 85 22
REMARK SMILES IDX 2 23 1 24 3 25 4 26 78 27 79 28 83 29 80 30 82 31 81 32
REMARK SMILES IDX 21 33 22 34 23 35 24 36 25 37 26 38 27 39 28 40 74 41 29 42
REMARK SMILES IDX 73 43 30 44 31 45 32 46 67 47 33 48 72 49 66 50 68 51 34 52
REMARK SMILES IDX 71 53 65 54 64 55 35 57 57 58 42 59 56 60 43 61 46 62 55 63
REMARK SMILES IDX 69 64 44 65 45 66 54 68 70 69 47 70 36 71 37 72 41 73 38 74
REMARK SMILES IDX 40 75 39 76 58 77 59 78 63 79 60 80 62 81 61 82 48 83 49 84
REMARK SMILES IDX 53 85 50 86 52 87 51 88
REMARK H PARENT 68 56 46 67
REMARK Flexibility Score: inf
ROOT
ATOM      1  C   UNL A   1      42.001  19.912  26.285  1.00  0.00     0.202 C 
ENDROOT
BRANCH   1   2
ATOM      2  C   UNL A   1      40.505  19.991  26.597  1.00  0.00     0.261 C 
BRANCH   2   3
ATOM      3  O   UNL A   1      39.851  20.931  25.731  1.00  0.00    -0.460 OA
BRANCH   3   4
ATOM      4  C   UNL A   1      39.386  22.050  26.337  1.00  0.00     0.338 C 
ATOM      5  O   UNL A   1      39.940  22.678  27.229  1.00  0.00    -0.246 OA
BRANCH   4   6
ATOM      6  C   UNL A   1      38.123  22.500  25.702  1.00  0.00     0.060 A 
ATOM      7  C   UNL A   1      35.633  23.355  24.725  1.00  0.00     0.060 A 
ATOM      8  C   UNL A   1      36.327  24.129  25.659  1.00  0.00     0.029 A 
ATOM      9  C   UNL A   1      36.253  22.209  24.203  1.00  0.00     0.029 A 
ATOM     10  C   UNL A   1      37.561  23.702  26.151  1.00  0.00     0.018 A 
ATOM     11  C   UNL A   1      37.487  21.773  24.691  1.00  0.00     0.018 A 
BRANCH   7  12
ATOM     12  N   UNL A   1      34.294  23.609  24.422  1.00  0.00    -0.257 N 
ATOM     13  C   UNL A   1      32.675  24.995  24.388  1.00  0.00     0.071 C 
ATOM     14  N   UNL A   1      33.911  24.846  24.019  1.00  0.00    -0.176 NA
ATOM     15  C   UNL A   1      32.116  23.896  25.250  1.00  0.00     0.091 C 
ATOM     16  C   UNL A   1      33.259  22.876  25.170  1.00  0.00     0.144 C 
BRANCH  13  17
ATOM     17  C   UNL A   1      31.866  26.166  23.998  1.00  0.00    -0.002 A 
ATOM     18  C   UNL A   1      30.248  28.314  23.270  1.00  0.00     0.067 A 
ATOM     19  C   UNL A   1      29.663  27.154  23.779  1.00  0.00     0.021 A 
ATOM     20  C   UNL A   1      31.637  28.406  23.114  1.00  0.00     0.021 A 
ATOM     21  C   UNL A   1      30.475  26.078  24.137  1.00  0.00     0.011 A 
ATOM     22  C   UNL A   1      32.450  27.332  23.494  1.00  0.00     0.011 A 
BRANCH  18  23
ATOM     23  S   UNL A   1      29.219  29.665  22.736  1.00  0.00     0.175 S 
ATOM     24  C   UNL A   1      27.570  29.038  22.905  1.00  0.00     0.163 C 
ATOM     25  O   UNL A   1      29.465  29.872  21.317  1.00  0.00    -0.224 OA
ATOM     26  O   UNL A   1      29.400  30.737  23.689  1.00  0.00    -0.224 OA
ENDBRANCH  18  23
ENDBRANCH  13  17
BRANCH  16  27
ATOM     27  C   UNL A   1      32.985  21.540  24.492  1.00  0.00    -0.023 A 
ATOM     28  C   UNL A   1      33.022  20.308  25.159  1.00  0.00     0.006 A 
ATOM     29  C   UNL A   1      32.576  21.547  23.142  1.00  0.00     0.006 A 
ATOM     30  C   UNL A   1      32.657  19.129  24.500  1.00  0.00     0.000 A 
ATOM     31  C   UNL A   1      32.174  20.376  22.498  1.00  0.00     0.000 A 
ATOM     32  C   UNL A   1      32.218  19.165  23.178  1.00  0.00     0.000 A 
ENDBRANCH  16  27
ENDBRANCH   7  12
ENDBRANCH   4   6
ENDBRANCH   3   4
ENDBRANCH   2   3
ENDBRANCH   1   2
BRANCH   1  33
ATOM     33  O   UNL A   1      42.479  20.777  25.254  1.00  0.00    -0.374 OA
BRANCH  33  34
ATOM     34  C   UNL A   1      43.001  22.046  25.650  1.00  0.00     0.202 C 
BRANCH  34  35
ATOM     35  C   UNL A   1      43.760  22.838  24.580  1.00  0.00     0.261 C 
BRANCH  35  36
ATOM     36  O   UNL A   1      43.794  24.248  24.865  1.00  0.00    -0.460 OA
BRANCH  36  37
ATOM     37  C   UNL A   1      44.558  24.594  25.926  1.00  0.00     0.338 C 
ATOM     38  O   UNL A   1      45.755  24.387  26.080  1.00  0.00    -0.246 OA
BRANCH  37  39
ATOM     39  C   UNL A   1      43.785  25.437  26.855  1.00  0.00     0.060 A 
ATOM     40  C   UNL A   1      44.106  26.799  26.914  1.00  0.00     0.016 A 
ATOM     41  C   UNL A   1      42.816  24.897  27.706  1.00  0.00     0.016 A 
ATOM     42  C   UNL A   1      43.498  27.619  27.860  1.00  0.00     0.010 A 
ATOM     43  C   UNL A   1      42.213  25.721  28.661  1.00  0.00     0.010 A 
ATOM     44  C   UNL A   1      42.576  27.076  28.766  1.00  0.00    -0.014 A 
BRANCH  44  45
ATOM     45  C   UNL A   1      42.101  27.896  29.906  1.00  0.00     0.031 A 
ATOM     46  C   UNL A   1      40.857  28.727  29.741  1.00  0.00     0.074 A 
ATOM     47  C   UNL A   1      42.748  27.878  31.085  1.00  0.00     0.049 A 
ATOM     48  N   UNL A   1      40.287  29.541  30.592  1.00  0.00    -0.248 NA
ATOM     49  C   UNL A   1      40.166  28.625  28.446  1.00  0.00     0.031 C 
ATOM     50  C   UNL A   1      43.937  27.084  31.386  1.00  0.00     0.029 A 
ATOM     51  N   UNL A   1      42.494  28.561  32.248  1.00  0.00    -0.354 N 
ATOM     52  C   UNL A   1      39.171  30.047  29.937  1.00  0.00     0.074 A 
ATOM     53  C   UNL A   1      39.164  29.477  28.607  1.00  0.00     0.031 C 
ATOM     54  C   UNL A   1      44.318  27.333  32.651  1.00  0.00     0.029 A 
ATOM     55  C   UNL A   1      43.421  28.328  33.234  1.00  0.00     0.049 A 
ATOM     56  H   UNL A   1      41.722  29.160  32.365  1.00  0.00     0.167 HD
ATOM     57  C   UNL A   1      38.229  30.903  30.402  1.00  0.00     0.031 A 
ATOM     58  C   UNL A   1      43.545  28.874  34.458  1.00  0.00     0.031 A 
ATOM     59  C   UNL A   1      38.244  31.489  31.715  1.00  0.00     0.049 A 
ATOM     60  C   UNL A   1      42.533  29.889  34.923  1.00  0.00     0.074 A 
ATOM     61  C   UNL A   1      37.338  32.373  32.277  1.00  0.00     0.029 A 
ATOM     62  N   UNL A   1      39.217  31.252  32.673  1.00  0.00    -0.354 N 
ATOM     63  N   UNL A   1      41.475  30.348  34.299  1.00  0.00    -0.248 NA
ATOM     64  C   UNL A   1      42.730  30.453  36.266  1.00  0.00     0.031 C 
ATOM     65  C   UNL A   1      37.791  32.709  33.556  1.00  0.00     0.029 A 
ATOM     66  C   UNL A   1      38.947  31.989  33.813  1.00  0.00     0.049 A 
ATOM     67  H   UNL A   1      39.987  30.649  32.559  1.00  0.00     0.167 HD
ATOM     68  C   UNL A   1      40.867  31.232  35.182  1.00  0.00     0.074 A 
ATOM     69  C   UNL A   1      41.664  31.231  36.391  1.00  0.00     0.031 C 
ATOM     70  C   UNL A   1      39.748  31.976  35.009  1.00  0.00     0.031 A 
BRANCH  57  71
ATOM     71  C   UNL A   1      37.114  31.276  29.467  1.00  0.00    -0.014 A 
ATOM     72  C   UNL A   1      36.990  32.582  28.968  1.00  0.00     0.009 A 
ATOM     73  C   UNL A   1      36.195  30.301  29.050  1.00  0.00     0.009 A 
ATOM     74  C   UNL A   1      35.951  32.912  28.096  1.00  0.00     0.001 A 
ATOM     75  C   UNL A   1      35.173  30.625  28.156  1.00  0.00     0.001 A 
ATOM     76  C   UNL A   1      35.047  31.932  27.687  1.00  0.00     0.000 A 
ENDBRANCH  57  71
BRANCH  58  77
ATOM     77  C   UNL A   1      44.692  28.502  35.328  1.00  0.00    -0.014 A 
ATOM     78  C   UNL A   1      45.900  29.213  35.273  1.00  0.00     0.009 A 
ATOM     79  C   UNL A   1      44.589  27.407  36.201  1.00  0.00     0.009 A 
ATOM     80  C   UNL A   1      46.991  28.815  36.050  1.00  0.00     0.001 A 
ATOM     81  C   UNL A   1      45.670  27.031  36.999  1.00  0.00     0.001 A 
ATOM     82  C   UNL A   1      46.874  27.728  36.915  1.00  0.00     0.000 A 
ENDBRANCH  58  77
BRANCH  70  83
ATOM     83  C   UNL A   1      39.296  32.822  36.167  1.00  0.00    -0.014 A 
ATOM     84  C   UNL A   1      38.387  32.332  37.118  1.00  0.00     0.009 A 
ATOM     85  C   UNL A   1      39.822  34.113  36.331  1.00  0.00     0.009 A 
ATOM     86  C   UNL A   1      37.988  33.133  38.190  1.00  0.00     0.001 A 
ATOM     87  C   UNL A   1      39.445  34.900  37.419  1.00  0.00     0.001 A 
ATOM     88  C   UNL A   1      38.521  34.413  38.342  1.00  0.00     0.000 A 
ENDBRANCH  70  83
ENDBRANCH  44  45
ENDBRANCH  37  39
ENDBRANCH  36  37
ENDBRANCH  35  36
ENDBRANCH  34  35
ENDBRANCH  33  34
ENDBRANCH   1  33
TORSDOF 18
ENDMDL
MODEL 3
REMARK VINA RESULT:     -11.7      0.957      5.595
REMARK SMILES CS(=O)(=O)c1ccc(C2=NN(c3ccc(C(=O)OCCOCCOC(=O)c4ccc(-c5c6nc(c(-c7ccccc7)c7ccc([nH]7)c(-c7ccccc7)c7nc(c(-c8ccccc8)c8ccc5[nH]8)C=C7)C=C6)cc4)cc3)[C@H](c3ccccc3)C2)cc1
REMARK SMILES IDX 20 1 19 2 18 3 16 4 17 5 15 6 12 7 13 8 76 9 14 10 75 11
REMARK SMILES IDX 11 12 9 13 10 14 84 15 77 16 8 17 5 18 6 19 86 20 7 21 85 22
REMARK SMILES IDX 2 23 1 24 3 25 4 26 78 27 79 28 83 29 80 30 82 31 81 32
REMARK SMILES IDX 21 33 22 34 23 35 24 36 25 37 26 38 27 39 28 40 74 41 29 42
REMARK SMILES IDX 73 43 30 44 31 45 32 46 67 47 33 48 72 49 66 50 68 51 34 52
REMARK SMILES IDX 71 53 65 54 64 55 35 57 57 58 42 59 56 60 43 61 46 62 55 63
REMARK SMILES IDX 69 64 44 65 45 66 54 68 70 69 47 70 36 71 37 72 41 73 38 74
REMARK SMILES IDX 40 75 39 76 58 77 59 78 63 79 60 80 62 81 61 82 48 83 49 84
REMARK SMILES IDX 53 85 50 86 52 87 51 88
REMARK H PARENT 68 56 46 67
REMARK Flexibility Score: inf
ROOT
ATOM      1  C   UNL A   1      41.918  19.863  26.371  1.00  0.00     0.202 C 
ENDROOT
BRANCH   1   2
ATOM      2  C   UNL A   1      40.506  19.870  25.780  1.00  0.00     0.261 C 
BRANCH   2   3
ATOM      3  O   UNL A   1      39.600  20.590  26.629  1.00  0.00    -0.460 OA
BRANCH   3   4
ATOM      4  C   UNL A   1      39.492  21.916  26.368  1.00  0.00     0.338 C 
ATOM      5  O   UNL A   1      40.363  22.761  26.520  1.00  0.00    -0.246 OA
BRANCH   4   6
ATOM      6  C   UNL A   1      38.174  22.220  25.760  1.00  0.00     0.060 A 
ATOM      7  C   UNL A   1      35.614  22.896  24.824  1.00  0.00     0.060 A 
ATOM      8  C   UNL A   1      36.479  23.891  25.291  1.00  0.00     0.029 A 
ATOM      9  C   UNL A   1      36.089  21.580  24.726  1.00  0.00     0.029 A 
ATOM     10  C   UNL A   1      37.748  23.555  25.763  1.00  0.00     0.018 A 
ATOM     11  C   UNL A   1      37.357  21.235  25.197  1.00  0.00     0.018 A 
BRANCH   7  12
ATOM     12  N   UNL A   1      34.260  23.156  24.605  1.00  0.00    -0.257 N 
ATOM     13  C   UNL A   1      32.669  24.575  24.570  1.00  0.00     0.071 C 
ATOM     14  N   UNL A   1      33.868  24.362  24.121  1.00  0.00    -0.176 NA
ATOM     15  C   UNL A   1      32.161  23.573  25.571  1.00  0.00     0.091 C 
ATOM     16  C   UNL A   1      33.274  22.521  25.496  1.00  0.00     0.144 C 
BRANCH  13  17
ATOM     17  C   UNL A   1      31.853  25.726  24.137  1.00  0.00    -0.002 A 
ATOM     18  C   UNL A   1      30.404  27.945  23.279  1.00  0.00     0.067 A 
ATOM     19  C   UNL A   1      31.714  27.764  22.832  1.00  0.00     0.021 A 
ATOM     20  C   UNL A   1      29.815  27.029  24.159  1.00  0.00     0.021 A 
ATOM     21  C   UNL A   1      32.439  26.655  23.268  1.00  0.00     0.011 A 
ATOM     22  C   UNL A   1      30.538  25.907  24.578  1.00  0.00     0.011 A 
BRANCH  18  23
ATOM     23  S   UNL A   1      29.495  29.397  22.792  1.00  0.00     0.175 S 
ATOM     24  C   UNL A   1      27.803  28.872  22.821  1.00  0.00     0.163 C 
ATOM     25  O   UNL A   1      29.840  29.689  21.409  1.00  0.00    -0.224 OA
ATOM     26  O   UNL A   1      29.685  30.383  23.832  1.00  0.00    -0.224 OA
ENDBRANCH  18  23
ENDBRANCH  13  17
BRANCH  16  27
ATOM     27  C   UNL A   1      32.923  21.137  24.968  1.00  0.00    -0.023 A 
ATOM     28  C   UNL A   1      32.577  20.879  23.635  1.00  0.00     0.006 A 
ATOM     29  C   UNL A   1      33.046  20.036  25.842  1.00  0.00     0.006 A 
ATOM     30  C   UNL A   1      32.369  19.568  23.193  1.00  0.00     0.000 A 
ATOM     31  C   UNL A   1      32.877  18.727  25.390  1.00  0.00     0.000 A 
ATOM     32  C   UNL A   1      32.535  18.494  24.064  1.00  0.00     0.000 A 
ENDBRANCH  16  27
ENDBRANCH   7  12
ENDBRANCH   4   6
ENDBRANCH   3   4
ENDBRANCH   2   3
ENDBRANCH   1   2
BRANCH   1  33
ATOM     33  O   UNL A   1      42.965  20.317  25.514  1.00  0.00    -0.374 OA
BRANCH  33  34
ATOM     34  C   UNL A   1      43.506  21.615  25.768  1.00  0.00     0.202 C 
BRANCH  34  35
ATOM     35  C   UNL A   1      43.444  22.621  24.613  1.00  0.00     0.261 C 
BRANCH  35  36
ATOM     36  O   UNL A   1      43.089  23.942  25.059  1.00  0.00    -0.460 OA
BRANCH  36  37
ATOM     37  C   UNL A   1      44.138  24.742  25.357  1.00  0.00     0.338 C 
ATOM     38  O   UNL A   1      45.119  24.973  24.661  1.00  0.00    -0.246 OA
BRANCH  37  39
ATOM     39  C   UNL A   1      43.879  25.472  26.610  1.00  0.00     0.060 A 
ATOM     40  C   UNL A   1      43.161  24.805  27.611  1.00  0.00     0.016 A 
ATOM     41  C   UNL A   1      44.262  26.805  26.779  1.00  0.00     0.016 A 
ATOM     42  C   UNL A   1      42.777  25.483  28.764  1.00  0.00     0.010 A 
ATOM     43  C   UNL A   1      43.868  27.487  27.934  1.00  0.00     0.010 A 
ATOM     44  C   UNL A   1      43.094  26.840  28.915  1.00  0.00    -0.014 A 
BRANCH  44  45
ATOM     45  C   UNL A   1      42.497  27.612  30.031  1.00  0.00     0.031 A 
ATOM     46  C   UNL A   1      41.184  28.314  29.814  1.00  0.00     0.074 A 
ATOM     47  C   UNL A   1      43.098  27.664  31.233  1.00  0.00     0.049 A 
ATOM     48  N   UNL A   1      40.503  29.071  30.637  1.00  0.00    -0.248 NA
ATOM     49  C   UNL A   1      40.556  28.139  28.495  1.00  0.00     0.031 C 
ATOM     50  C   UNL A   1      44.348  26.993  31.584  1.00  0.00     0.029 A 
ATOM     51  N   UNL A   1      42.734  28.322  32.381  1.00  0.00    -0.354 N 
ATOM     52  C   UNL A   1      39.368  29.461  29.937  1.00  0.00     0.074 A 
ATOM     53  C   UNL A   1      39.469  28.887  28.612  1.00  0.00     0.031 C 
ATOM     54  C   UNL A   1      44.655  27.284  32.860  1.00  0.00     0.029 A 
ATOM     55  C   UNL A   1      43.642  28.186  33.402  1.00  0.00     0.049 A 
ATOM     56  H   UNL A   1      41.902  28.841  32.464  1.00  0.00     0.167 HD
ATOM     57  C   UNL A   1      38.329  30.220  30.360  1.00  0.00     0.031 A 
ATOM     58  C   UNL A   1      43.664  28.747  34.627  1.00  0.00     0.031 A 
ATOM     59  C   UNL A   1      38.236  30.809  31.669  1.00  0.00     0.049 A 
ATOM     60  C   UNL A   1      42.539  29.657  35.046  1.00  0.00     0.074 A 
ATOM     61  C   UNL A   1      37.226  31.600  32.190  1.00  0.00     0.029 A 
ATOM     62  N   UNL A   1      39.191  30.674  32.663  1.00  0.00    -0.354 N 
ATOM     63  N   UNL A   1      41.465  30.006  34.379  1.00  0.00    -0.248 NA
ATOM     64  C   UNL A   1      42.628  30.243  36.391  1.00  0.00     0.031 C 
ATOM     65  C   UNL A   1      37.595  31.984  33.483  1.00  0.00     0.029 A 
ATOM     66  C   UNL A   1      38.806  31.384  33.787  1.00  0.00     0.049 A 
ATOM     67  H   UNL A   1      40.021  30.151  32.583  1.00  0.00     0.167 HD
ATOM     68  C   UNL A   1      40.739  30.828  35.233  1.00  0.00     0.074 A 
ATOM     69  C   UNL A   1      41.486  30.911  36.471  1.00  0.00     0.031 C 
ATOM     70  C   UNL A   1      39.559  31.456  35.012  1.00  0.00     0.031 A 
BRANCH  57  71
ATOM     71  C   UNL A   1      37.218  30.476  29.382  1.00  0.00    -0.014 A 
ATOM     72  C   UNL A   1      36.310  29.464  29.033  1.00  0.00     0.009 A 
ATOM     73  C   UNL A   1      37.054  31.755  28.828  1.00  0.00     0.009 A 
ATOM     74  C   UNL A   1      35.280  29.719  28.126  1.00  0.00     0.001 A 
ATOM     75  C   UNL A   1      36.007  32.015  27.943  1.00  0.00     0.001 A 
ATOM     76  C   UNL A   1      35.126  30.995  27.586  1.00  0.00     0.000 A 
ENDBRANCH  57  71
BRANCH  58  77
ATOM     77  C   UNL A   1      44.808  28.494  35.541  1.00  0.00    -0.014 A 
ATOM     78  C   UNL A   1      44.819  27.377  36.391  1.00  0.00     0.009 A 
ATOM     79  C   UNL A   1      45.885  29.392  35.589  1.00  0.00     0.009 A 
ATOM     80  C   UNL A   1      45.870  27.183  37.291  1.00  0.00     0.001 A 
ATOM     81  C   UNL A   1      46.949  29.179  36.467  1.00  0.00     0.001 A 
ATOM     82  C   UNL A   1      46.936  28.082  37.326  1.00  0.00     0.000 A 
ENDBRANCH  58  77
BRANCH  70  83
ATOM     83  C   UNL A   1      38.981  32.257  36.147  1.00  0.00    -0.014 A 
ATOM     84  C   UNL A   1      38.076  31.687  37.056  1.00  0.00     0.009 A 
ATOM     85  C   UNL A   1      39.383  33.589  36.331  1.00  0.00     0.009 A 
ATOM     86  C   UNL A   1      37.560  32.448  38.107  1.00  0.00     0.001 A 
ATOM     87  C   UNL A   1      38.889  34.338  37.399  1.00  0.00     0.001 A 
ATOM     88  C   UNL A   1      37.971  33.770  38.280  1.00  0.00     0.000 A 
ENDBRANCH  70  83
ENDBRANCH  44  45
ENDBRANCH  37  39
ENDBRANCH  36  37
ENDBRANCH  35  36
ENDBRANCH  34  35
ENDBRANCH  33  34
ENDBRANCH   1  33
TORSDOF 18
ENDMDL
