MODEL 1
REMARK VINA RESULT:     -11.7      0.000      0.000
REMARK SMILES CO[C@H]1C[C@@H](C(=O)OCCOCCOC(=O)c2ccc(-c3c4nc(c(-c5ccccc5)c5ccc([nH]5)c(-c5ccccc5)c5nc(c(-c6ccccc6)c6ccc3[nH]6)C=C5)C=C4)cc2)N(C(=O)Nc2cc(C)cc(F)c2)C1
REMARK SMILES IDX 11 1 10 2 9 3 8 4 6 5 7 6 5 7 3 8 4 9 77 10 65 11 2 12 1 13
REMARK SMILES IDX 66 14 67 15 68 16 69 18 70 19 76 20 71 21 74 22 72 23 73 24
REMARK SMILES IDX 75 25 12 26 13 27 14 28 15 29 16 30 17 31 18 32 64 33 19 34
REMARK SMILES IDX 63 35 20 36 21 37 22 38 57 39 23 40 62 41 56 42 58 43 24 44
REMARK SMILES IDX 61 45 55 46 54 47 25 49 47 50 32 51 46 52 33 53 36 54 45 55
REMARK SMILES IDX 59 56 34 57 35 58 44 60 60 61 37 62 26 63 27 64 31 65 28 66
REMARK SMILES IDX 30 67 29 68 48 69 49 70 53 71 50 72 52 73 51 74 38 75 39 76
REMARK SMILES IDX 43 77 40 78 42 79 41 80
REMARK H PARENT 68 17 58 48 36 59
REMARK Flexibility Score: inf
ROOT
ATOM      1  O   UNL A   1      37.360  21.946  24.514  1.00  0.00    -0.374 OA
ENDROOT
BRANCH   1   2
ATOM      2  C   UNL A   1      37.271  23.364  25.299  1.00  0.00     0.202 C 
BRANCH   2   3
ATOM      3  C   UNL A   1      35.955  23.722  26.050  1.00  0.00     0.261 C 
BRANCH   3   4
ATOM      4  O   UNL A   1      35.211  24.784  25.413  1.00  0.00    -0.462 OA
BRANCH   4   5
ATOM      5  C   UNL A   1      34.184  24.389  24.618  1.00  0.00     0.329 C 
ATOM      6  O   UNL A   1      33.884  24.946  23.566  1.00  0.00    -0.250 OA
BRANCH   5   7
ATOM      7  C   UNL A   1      33.602  23.019  25.024  1.00  0.00     0.199 C 
ATOM      8  C   UNL A   1      32.775  20.924  24.289  1.00  0.00     0.140 C 
ATOM      9  C   UNL A   1      33.576  22.121  23.806  1.00  0.00     0.071 C 
ATOM     10  C   UNL A   1      31.734  21.581  25.224  1.00  0.00     0.154 C 
ATOM     11  N   UNL A   1      32.341  22.834  25.718  1.00  0.00    -0.308 N 
BRANCH   8  12
ATOM     12  O   UNL A   1      32.207  20.217  23.193  1.00  0.00    -0.380 OA
ATOM     13  C   UNL A   1      31.869  21.075  22.100  1.00  0.00     0.195 C 
ENDBRANCH   8  12
BRANCH  11  14
ATOM     14  C   UNL A   1      31.777  23.457  26.792  1.00  0.00     0.322 C 
ATOM     15  O   UNL A   1      31.880  22.928  27.910  1.00  0.00    -0.248 OA
ATOM     16  N   UNL A   1      31.051  24.605  26.783  1.00  0.00    -0.308 N 
ATOM     17  H   UNL A   1      30.362  24.592  27.485  1.00  0.00     0.171 HD
BRANCH  16  18
ATOM     18  C   UNL A   1      31.007  25.818  26.044  1.00  0.00     0.046 A 
ATOM     19  C   UNL A   1      31.471  27.465  26.806  1.00  0.00     0.029 A 
ATOM     20  C   UNL A   1      30.684  25.813  24.273  1.00  0.00     0.065 A 
ATOM     21  C   UNL A   1      31.641  28.926  25.745  1.00  0.00    -0.046 A 
ATOM     22  C   UNL A   1      30.836  27.278  23.313  1.00  0.00     0.125 A 
ATOM     23  C   UNL A   1      32.357  30.190  26.109  1.00  0.00     0.044 C 
ATOM     24  C   UNL A   1      31.300  28.793  24.010  1.00  0.00     0.042 A 
ATOM     25  F   UNL A   1      30.454  27.225  22.029  1.00  0.00    -0.207 F 
ENDBRANCH  16  18
ENDBRANCH  11  14
ENDBRANCH   5   7
ENDBRANCH   4   5
ENDBRANCH   3   4
ENDBRANCH   2   3
ENDBRANCH   1   2
BRANCH   1  26
ATOM     26  C   UNL A   1      37.781  19.999  24.789  1.00  0.00     0.202 C 
BRANCH  26  27
ATOM     27  C   UNL A   1      39.229  19.218  25.595  1.00  0.00     0.261 C 
BRANCH  27  28
ATOM     28  O   UNL A   1      39.987  19.860  26.720  1.00  0.00    -0.460 OA
BRANCH  28  29
ATOM     29  C   UNL A   1      41.204  20.460  26.501  1.00  0.00     0.338 C 
ATOM     30  O   UNL A   1      42.044  20.071  25.706  1.00  0.00    -0.246 OA
BRANCH  29  31
ATOM     31  C   UNL A   1      41.249  21.870  27.071  1.00  0.00     0.060 A 
ATOM     32  C   UNL A   1      40.517  22.900  26.436  1.00  0.00     0.016 A 
ATOM     33  C   UNL A   1      42.055  22.225  28.151  1.00  0.00     0.016 A 
ATOM     34  C   UNL A   1      40.574  24.240  26.863  1.00  0.00     0.010 A 
ATOM     35  C   UNL A   1      42.155  23.586  28.547  1.00  0.00     0.010 A 
ATOM     36  C   UNL A   1      41.443  24.612  27.888  1.00  0.00    -0.014 A 
BRANCH  36  37
ATOM     37  C   UNL A   1      41.807  26.059  28.059  1.00  0.00     0.031 A 
ATOM     38  C   UNL A   1      43.077  26.556  27.403  1.00  0.00     0.074 A 
ATOM     39  C   UNL A   1      41.047  26.956  28.722  1.00  0.00     0.049 A 
ATOM     40  N   UNL A   1      43.636  27.742  27.442  1.00  0.00    -0.248 NA
ATOM     41  C   UNL A   1      43.814  25.572  26.597  1.00  0.00     0.031 C 
ATOM     42  C   UNL A   1      39.761  26.685  29.355  1.00  0.00     0.029 A 
ATOM     43  N   UNL A   1      41.272  28.295  28.982  1.00  0.00    -0.354 N 
ATOM     44  C   UNL A   1      44.806  27.633  26.697  1.00  0.00     0.074 A 
ATOM     45  C   UNL A   1      44.883  26.263  26.237  1.00  0.00     0.031 C 
ATOM     46  C   UNL A   1      39.322  27.810  29.952  1.00  0.00     0.029 A 
ATOM     47  C   UNL A   1      40.309  28.878  29.772  1.00  0.00     0.049 A 
ATOM     48  H   UNL A   1      42.050  28.785  28.632  1.00  0.00     0.167 HD
ATOM     49  C   UNL A   1      45.740  28.574  26.415  1.00  0.00     0.031 A 
ATOM     50  C   UNL A   1      40.235  30.113  30.316  1.00  0.00     0.031 A 
ATOM     51  C   UNL A   1      45.693  29.941  26.865  1.00  0.00     0.049 A 
ATOM     52  C   UNL A   1      41.322  31.132  30.057  1.00  0.00     0.074 A 
ATOM     53  C   UNL A   1      46.584  30.966  26.593  1.00  0.00     0.029 A 
ATOM     54  N   UNL A   1      44.718  30.470  27.692  1.00  0.00    -0.354 N 
ATOM     55  N   UNL A   1      42.405  31.023  29.327  1.00  0.00    -0.248 NA
ATOM     56  C   UNL A   1      41.167  32.451  30.695  1.00  0.00     0.031 C 
ATOM     57  C   UNL A   1      46.190  32.094  27.318  1.00  0.00     0.029 A 
ATOM     58  C   UNL A   1      45.008  31.796  27.975  1.00  0.00     0.049 A 
ATOM     59  H   UNL A   1      43.935  29.979  28.030  1.00  0.00     0.167 HD
ATOM     60  C   UNL A   1      43.039  32.260  29.392  1.00  0.00     0.074 A 
ATOM     61  C   UNL A   1      42.217  33.112  30.223  1.00  0.00     0.031 C 
ATOM     62  C   UNL A   1      44.199  32.652  28.806  1.00  0.00     0.031 A 
BRANCH  49  63
ATOM     63  C   UNL A   1      46.942  28.133  25.621  1.00  0.00    -0.014 A 
ATOM     64  C   UNL A   1      46.900  28.002  24.224  1.00  0.00     0.009 A 
ATOM     65  C   UNL A   1      48.145  27.855  26.291  1.00  0.00     0.009 A 
ATOM     66  C   UNL A   1      48.020  27.550  23.522  1.00  0.00     0.001 A 
ATOM     67  C   UNL A   1      49.273  27.441  25.584  1.00  0.00     0.001 A 
ATOM     68  C   UNL A   1      49.206  27.275  24.202  1.00  0.00     0.000 A 
ENDBRANCH  49  63
BRANCH  50  69
ATOM     69  C   UNL A   1      39.091  30.465  31.206  1.00  0.00    -0.014 A 
ATOM     70  C   UNL A   1      39.103  30.127  32.569  1.00  0.00     0.009 A 
ATOM     71  C   UNL A   1      37.966  31.125  30.685  1.00  0.00     0.009 A 
ATOM     72  C   UNL A   1      38.010  30.435  33.386  1.00  0.00     0.001 A 
ATOM     73  C   UNL A   1      36.889  31.459  31.510  1.00  0.00     0.001 A 
ATOM     74  C   UNL A   1      36.909  31.108  32.859  1.00  0.00     0.000 A 
ENDBRANCH  50  69
BRANCH  62  75
ATOM     75  C   UNL A   1      44.642  34.080  28.996  1.00  0.00    -0.014 A 
ATOM     76  C   UNL A   1      45.510  34.454  30.036  1.00  0.00     0.009 A 
ATOM     77  C   UNL A   1      44.227  35.063  28.081  1.00  0.00     0.009 A 
ATOM     78  C   UNL A   1      45.921  35.784  30.173  1.00  0.00     0.001 A 
ATOM     79  C   UNL A   1      44.666  36.383  28.201  1.00  0.00     0.001 A 
ATOM     80  C   UNL A   1      45.505  36.744  29.252  1.00  0.00     0.000 A 
ENDBRANCH  62  75
ENDBRANCH  36  37
ENDBRANCH  29  31
ENDBRANCH  28  29
ENDBRANCH  27  28
ENDBRANCH  26  27
ENDBRANCH   1  26
TORSDOF 17
ENDMDL
MODEL 2
REMARK VINA RESULT:     -11.6      2.234      2.911
REMARK SMILES CO[C@H]1C[C@@H](C(=O)OCCOCCOC(=O)c2ccc(-c3c4nc(c(-c5ccccc5)c5ccc([nH]5)c(-c5ccccc5)c5nc(c(-c6ccccc6)c6ccc3[nH]6)C=C5)C=C4)cc2)N(C(=O)Nc2cc(C)cc(F)c2)C1
REMARK SMILES IDX 11 1 10 2 9 3 8 4 6 5 7 6 5 7 3 8 4 9 77 10 65 11 2 12 1 13
REMARK SMILES IDX 66 14 67 15 68 16 69 18 70 19 76 20 71 21 74 22 72 23 73 24
REMARK SMILES IDX 75 25 12 26 13 27 14 28 15 29 16 30 17 31 18 32 64 33 19 34
REMARK SMILES IDX 63 35 20 36 21 37 22 38 57 39 23 40 62 41 56 42 58 43 24 44
REMARK SMILES IDX 61 45 55 46 54 47 25 49 47 50 32 51 46 52 33 53 36 54 45 55
REMARK SMILES IDX 59 56 34 57 35 58 44 60 60 61 37 62 26 63 27 64 31 65 28 66
REMARK SMILES IDX 30 67 29 68 48 69 49 70 53 71 50 72 52 73 51 74 38 75 39 76
REMARK SMILES IDX 43 77 40 78 42 79 41 80
REMARK H PARENT 68 17 58 48 36 59
REMARK Flexibility Score: inf
ROOT
ATOM      1  O   UNL A   1      37.675  23.634  25.693  1.00  0.00    -0.374 OA
ENDROOT
BRANCH   1   2
ATOM      2  C   UNL A   1      36.105  23.680  25.286  1.00  0.00     0.202 C 
BRANCH   2   3
ATOM      3  C   UNL A   1      35.037  23.620  26.418  1.00  0.00     0.261 C 
BRANCH   3   4
ATOM      4  O   UNL A   1      34.591  22.275  26.704  1.00  0.00    -0.462 OA
BRANCH   4   5
ATOM      5  C   UNL A   1      33.308  22.160  27.131  1.00  0.00     0.329 C 
ATOM      6  O   UNL A   1      32.957  22.339  28.293  1.00  0.00    -0.250 OA
BRANCH   5   7
ATOM      7  C   UNL A   1      32.296  22.044  25.971  1.00  0.00     0.199 C 
ATOM      8  C   UNL A   1      31.976  21.971  23.625  1.00  0.00     0.140 C 
ATOM      9  C   UNL A   1      33.058  21.826  24.681  1.00  0.00     0.071 C 
ATOM     10  C   UNL A   1      31.076  23.075  24.226  1.00  0.00     0.154 C 
ATOM     11  N   UNL A   1      31.251  23.012  25.691  1.00  0.00    -0.308 N 
BRANCH   8  12
ATOM     12  O   UNL A   1      32.541  22.305  22.362  1.00  0.00    -0.380 OA
ATOM     13  C   UNL A   1      33.335  23.494  22.412  1.00  0.00     0.195 C 
ENDBRANCH   8  12
BRANCH  11  14
ATOM     14  C   UNL A   1      30.352  23.658  26.488  1.00  0.00     0.322 C 
ATOM     15  O   UNL A   1      29.888  23.057  27.470  1.00  0.00    -0.248 OA
ATOM     16  N   UNL A   1      29.850  24.906  26.309  1.00  0.00    -0.308 N 
ATOM     17  H   UNL A   1      28.927  24.967  26.643  1.00  0.00     0.171 HD
BRANCH  16  18
ATOM     18  C   UNL A   1      30.283  26.150  25.774  1.00  0.00     0.046 A 
ATOM     19  C   UNL A   1      31.462  27.275  26.699  1.00  0.00     0.029 A 
ATOM     20  C   UNL A   1      29.871  26.627  24.088  1.00  0.00     0.065 A 
ATOM     21  C   UNL A   1      32.173  28.714  25.855  1.00  0.00    -0.046 A 
ATOM     22  C   UNL A   1      30.574  28.058  23.347  1.00  0.00     0.125 A 
ATOM     23  C   UNL A   1      33.386  29.474  26.296  1.00  0.00     0.044 C 
ATOM     24  C   UNL A   1      31.692  29.078  24.188  1.00  0.00     0.042 A 
ATOM     25  F   UNL A   1      30.121  28.421  22.138  1.00  0.00    -0.207 F 
ENDBRANCH  16  18
ENDBRANCH  11  14
ENDBRANCH   5   7
ENDBRANCH   4   5
ENDBRANCH   3   4
ENDBRANCH   2   3
ENDBRANCH   1   2
BRANCH   1  26
ATOM     26  C   UNL A   1      39.168  22.361  26.135  1.00  0.00     0.202 C 
BRANCH  26  27
ATOM     27  C   UNL A   1      39.201  20.530  26.073  1.00  0.00     0.261 C 
BRANCH  27  28
ATOM     28  O   UNL A   1      40.303  19.752  25.418  1.00  0.00    -0.460 OA
BRANCH  28  29
ATOM     29  C   UNL A   1      41.492  19.525  26.069  1.00  0.00     0.338 C 
ATOM     30  O   UNL A   1      42.127  18.483  26.026  1.00  0.00    -0.246 OA
BRANCH  29  31
ATOM     31  C   UNL A   1      42.131  20.821  26.546  1.00  0.00     0.060 A 
ATOM     32  C   UNL A   1      42.062  21.167  27.915  1.00  0.00     0.016 A 
ATOM     33  C   UNL A   1      42.714  21.743  25.678  1.00  0.00     0.016 A 
ATOM     34  C   UNL A   1      42.562  22.384  28.413  1.00  0.00     0.010 A 
ATOM     35  C   UNL A   1      43.169  22.995  26.171  1.00  0.00     0.010 A 
ATOM     36  C   UNL A   1      43.068  23.344  27.536  1.00  0.00    -0.014 A 
BRANCH  36  37
ATOM     37  C   UNL A   1      43.211  24.765  27.998  1.00  0.00     0.031 A 
ATOM     38  C   UNL A   1      44.595  25.264  28.351  1.00  0.00     0.074 A 
ATOM     39  C   UNL A   1      42.187  25.642  28.075  1.00  0.00     0.049 A 
ATOM     40  N   UNL A   1      44.977  26.427  28.821  1.00  0.00    -0.248 NA
ATOM     41  C   UNL A   1      45.695  24.310  28.144  1.00  0.00     0.031 C 
ATOM     42  C   UNL A   1      40.800  25.371  27.710  1.00  0.00     0.029 A 
ATOM     43  N   UNL A   1      42.168  26.954  28.508  1.00  0.00    -0.354 N 
ATOM     44  C   UNL A   1      46.354  26.330  28.999  1.00  0.00     0.074 A 
ATOM     45  C   UNL A   1      46.732  24.990  28.605  1.00  0.00     0.031 C 
ATOM     46  C   UNL A   1      40.061  26.469  27.959  1.00  0.00     0.029 A 
ATOM     47  C   UNL A   1      40.913  27.516  28.530  1.00  0.00     0.049 A 
ATOM     48  H   UNL A   1      42.980  27.442  28.776  1.00  0.00     0.167 HD
ATOM     49  C   UNL A   1      47.232  27.258  29.450  1.00  0.00     0.031 A 
ATOM     50  C   UNL A   1      40.484  28.716  28.980  1.00  0.00     0.031 A 
ATOM     51  C   UNL A   1      46.883  28.595  29.855  1.00  0.00     0.049 A 
ATOM     52  C   UNL A   1      41.464  29.715  29.552  1.00  0.00     0.074 A 
ATOM     53  C   UNL A   1      47.721  29.607  30.291  1.00  0.00     0.029 A 
ATOM     54  N   UNL A   1      45.595  29.100  29.893  1.00  0.00    -0.354 N 
ATOM     55  N   UNL A   1      42.764  29.619  29.686  1.00  0.00    -0.248 NA
ATOM     56  C   UNL A   1      40.912  30.996  30.027  1.00  0.00     0.031 C 
ATOM     57  C   UNL A   1      46.933  30.699  30.666  1.00  0.00     0.029 A 
ATOM     58  C   UNL A   1      45.612  30.397  30.385  1.00  0.00     0.049 A 
ATOM     59  H   UNL A   1      44.787  28.613  29.613  1.00  0.00     0.167 HD
ATOM     60  C   UNL A   1      43.186  30.830  30.227  1.00  0.00     0.074 A 
ATOM     61  C   UNL A   1      42.007  31.652  30.388  1.00  0.00     0.031 C 
ATOM     62  C   UNL A   1      44.443  31.222  30.555  1.00  0.00     0.031 A 
BRANCH  49  63
ATOM     63  C   UNL A   1      48.671  26.832  29.590  1.00  0.00    -0.014 A 
ATOM     64  C   UNL A   1      49.605  27.027  28.560  1.00  0.00     0.009 A 
ATOM     65  C   UNL A   1      49.097  26.231  30.786  1.00  0.00     0.009 A 
ATOM     66  C   UNL A   1      50.921  26.582  28.706  1.00  0.00     0.001 A 
ATOM     67  C   UNL A   1      50.421  25.822  30.943  1.00  0.00     0.001 A 
ATOM     68  C   UNL A   1      51.329  25.984  29.898  1.00  0.00     0.000 A 
ENDBRANCH  49  63
BRANCH  50  69
ATOM     69  C   UNL A   1      39.030  29.046  28.944  1.00  0.00    -0.014 A 
ATOM     70  C   UNL A   1      38.433  29.565  27.785  1.00  0.00     0.009 A 
ATOM     71  C   UNL A   1      38.235  28.860  30.087  1.00  0.00     0.009 A 
ATOM     72  C   UNL A   1      37.075  29.900  27.775  1.00  0.00     0.001 A 
ATOM     73  C   UNL A   1      36.871  29.166  30.065  1.00  0.00     0.001 A 
ATOM     74  C   UNL A   1      36.294  29.692  28.910  1.00  0.00     0.000 A 
ENDBRANCH  50  69
BRANCH  62  75
ATOM     75  C   UNL A   1      44.634  32.621  31.082  1.00  0.00    -0.014 A 
ATOM     76  C   UNL A   1      44.833  33.716  30.223  1.00  0.00     0.009 A 
ATOM     77  C   UNL A   1      44.559  32.859  32.465  1.00  0.00     0.009 A 
ATOM     78  C   UNL A   1      44.985  35.006  30.740  1.00  0.00     0.001 A 
ATOM     79  C   UNL A   1      44.678  34.153  32.977  1.00  0.00     0.001 A 
ATOM     80  C   UNL A   1      44.900  35.224  32.115  1.00  0.00     0.000 A 
ENDBRANCH  62  75
ENDBRANCH  36  37
ENDBRANCH  29  31
ENDBRANCH  28  29
ENDBRANCH  27  28
ENDBRANCH  26  27
ENDBRANCH   1  26
TORSDOF 17
ENDMDL
MODEL 3
REMARK VINA RESULT:     -11.5      4.473      8.317
REMARK SMILES CO[C@H]1C[C@@H](C(=O)OCCOCCOC(=O)c2ccc(-c3c4nc(c(-c5ccccc5)c5ccc([nH]5)c(-c5ccccc5)c5nc(c(-c6ccccc6)c6ccc3[nH]6)C=C5)C=C4)cc2)N(C(=O)Nc2cc(C)cc(F)c2)C1
REMARK SMILES IDX 11 1 10 2 9 3 8 4 6 5 7 6 5 7 3 8 4 9 77 10 65 11 2 12 1 13
REMARK SMILES IDX 66 14 67 15 68 16 69 18 70 19 76 20 71 21 74 22 72 23 73 24
REMARK SMILES IDX 75 25 12 26 13 27 14 28 15 29 16 30 17 31 18 32 64 33 19 34
REMARK SMILES IDX 63 35 20 36 21 37 22 38 57 39 23 40 62 41 56 42 58 43 24 44
REMARK SMILES IDX 61 45 55 46 54 47 25 49 47 50 32 51 46 52 33 53 36 54 45 55
REMARK SMILES IDX 59 56 34 57 35 58 44 60 60 61 37 62 26 63 27 64 31 65 28 66
REMARK SMILES IDX 30 67 29 68 48 69 49 70 53 71 50 72 52 73 51 74 38 75 39 76
REMARK SMILES IDX 43 77 40 78 42 79 41 80
REMARK H PARENT 68 17 58 48 36 59
REMARK Flexibility Score: inf
ROOT
ATOM      1  O   UNL A   1      32.340  30.594  25.840  1.00  0.00    -0.374 OA
ENDROOT
BRANCH   1   2
ATOM      2  C   UNL A   1      33.567  29.553  25.626  1.00  0.00     0.202 C 
BRANCH   2   3
ATOM      3  C   UNL A   1      34.024  28.679  26.832  1.00  0.00     0.261 C 
BRANCH   3   4
ATOM      4  O   UNL A   1      33.530  27.323  26.767  1.00  0.00    -0.462 OA
BRANCH   4   5
ATOM      5  C   UNL A   1      32.185  27.181  26.888  1.00  0.00     0.329 C 
ATOM      6  O   UNL A   1      31.512  27.764  27.733  1.00  0.00    -0.250 OA
BRANCH   5   7
ATOM      7  C   UNL A   1      31.550  26.431  25.699  1.00  0.00     0.199 C 
ATOM      8  C   UNL A   1      30.136  26.563  23.803  1.00  0.00     0.140 C 
ATOM      9  C   UNL A   1      30.908  27.441  24.772  1.00  0.00     0.071 C 
ATOM     10  C   UNL A   1      29.655  25.411  24.715  1.00  0.00     0.154 C 
ATOM     11  N   UNL A   1      30.623  25.320  25.827  1.00  0.00    -0.308 N 
BRANCH   8  12
ATOM     12  O   UNL A   1      29.082  27.293  23.186  1.00  0.00    -0.380 OA
ATOM     13  C   UNL A   1      29.307  28.706  23.205  1.00  0.00     0.195 C 
ENDBRANCH   8  12
BRANCH  11  14
ATOM     14  C   UNL A   1      30.622  24.203  26.609  1.00  0.00     0.322 C 
ATOM     15  O   UNL A   1      29.588  23.912  27.230  1.00  0.00    -0.248 OA
ATOM     16  N   UNL A   1      31.664  23.363  26.835  1.00  0.00    -0.308 N 
ATOM     17  H   UNL A   1      31.619  22.981  27.741  1.00  0.00     0.171 HD
BRANCH  16  18
ATOM     18  C   UNL A   1      32.802  22.880  26.133  1.00  0.00     0.046 A 
ATOM     19  C   UNL A   1      34.344  23.918  25.901  1.00  0.00     0.029 A 
ATOM     20  C   UNL A   1      32.896  21.166  25.591  1.00  0.00     0.065 A 
ATOM     21  C   UNL A   1      35.844  23.154  25.228  1.00  0.00    -0.046 A 
ATOM     22  C   UNL A   1      34.377  20.503  24.913  1.00  0.00     0.125 A 
ATOM     23  C   UNL A   1      37.230  23.711  25.332  1.00  0.00     0.044 C 
ATOM     24  C   UNL A   1      35.813  21.452  24.732  1.00  0.00     0.042 A 
ATOM     25  F   UNL A   1      34.332  19.260  24.412  1.00  0.00    -0.207 F 
ENDBRANCH  16  18
ENDBRANCH  11  14
ENDBRANCH   5   7
ENDBRANCH   4   5
ENDBRANCH   3   4
ENDBRANCH   2   3
ENDBRANCH   1   2
BRANCH   1  26
ATOM     26  C   UNL A   1      31.723  32.106  27.014  1.00  0.00     0.202 C 
BRANCH  26  27
ATOM     27  C   UNL A   1      32.586  33.655  27.476  1.00  0.00     0.261 C 
BRANCH  27  28
ATOM     28  O   UNL A   1      32.381  34.346  28.792  1.00  0.00    -0.460 OA
BRANCH  28  29
ATOM     29  C   UNL A   1      33.414  35.011  29.409  1.00  0.00     0.338 C 
ATOM     30  O   UNL A   1      33.312  36.080  29.990  1.00  0.00    -0.246 OA
BRANCH  29  31
ATOM     31  C   UNL A   1      34.619  34.107  29.623  1.00  0.00     0.060 A 
ATOM     32  C   UNL A   1      34.517  33.012  30.512  1.00  0.00     0.016 A 
ATOM     33  C   UNL A   1      35.865  34.356  29.049  1.00  0.00     0.016 A 
ATOM     34  C   UNL A   1      35.612  32.182  30.816  1.00  0.00     0.010 A 
ATOM     35  C   UNL A   1      36.983  33.552  29.399  1.00  0.00     0.010 A 
ATOM     36  C   UNL A   1      36.877  32.479  30.310  1.00  0.00    -0.014 A 
BRANCH  36  37
ATOM     37  C   UNL A   1      38.090  31.864  30.947  1.00  0.00     0.031 A 
ATOM     38  C   UNL A   1      38.800  30.754  30.203  1.00  0.00     0.074 A 
ATOM     39  C   UNL A   1      38.617  32.271  32.122  1.00  0.00     0.049 A 
ATOM     40  N   UNL A   1      39.833  30.028  30.558  1.00  0.00    -0.248 NA
ATOM     41  C   UNL A   1      38.260  30.419  28.877  1.00  0.00     0.031 C 
ATOM     42  C   UNL A   1      38.120  33.369  32.946  1.00  0.00     0.029 A 
ATOM     43  N   UNL A   1      39.696  31.782  32.832  1.00  0.00    -0.354 N 
ATOM     44  C   UNL A   1      40.041  29.130  29.515  1.00  0.00     0.074 A 
ATOM     45  C   UNL A   1      39.016  29.391  28.528  1.00  0.00     0.031 C 
ATOM     46  C   UNL A   1      38.872  33.453  34.059  1.00  0.00     0.029 A 
ATOM     47  C   UNL A   1      39.889  32.397  34.047  1.00  0.00     0.049 A 
ATOM     48  H   UNL A   1      40.274  31.059  32.498  1.00  0.00     0.167 HD
ATOM     49  C   UNL A   1      40.990  28.172  29.380  1.00  0.00     0.031 A 
ATOM     50  C   UNL A   1      40.756  32.132  35.049  1.00  0.00     0.031 A 
ATOM     51  C   UNL A   1      42.016  27.885  30.348  1.00  0.00     0.049 A 
ATOM     52  C   UNL A   1      41.761  31.010  34.918  1.00  0.00     0.074 A 
ATOM     53  C   UNL A   1      43.036  26.952  30.268  1.00  0.00     0.029 A 
ATOM     54  N   UNL A   1      42.144  28.511  31.576  1.00  0.00    -0.354 N 
ATOM     55  N   UNL A   1      41.963  30.191  33.915  1.00  0.00    -0.248 NA
ATOM     56  C   UNL A   1      42.663  30.784  36.060  1.00  0.00     0.031 C 
ATOM     57  C   UNL A   1      43.734  26.959  31.479  1.00  0.00     0.029 A 
ATOM     58  C   UNL A   1      43.201  27.955  32.280  1.00  0.00     0.049 A 
ATOM     59  H   UNL A   1      41.571  29.242  31.901  1.00  0.00     0.167 HD
ATOM     60  C   UNL A   1      43.030  29.379  34.291  1.00  0.00     0.074 A 
ATOM     61  C   UNL A   1      43.442  29.809  35.609  1.00  0.00     0.031 C 
ATOM     62  C   UNL A   1      43.616  28.372  33.596  1.00  0.00     0.031 A 
BRANCH  49  63
ATOM     63  C   UNL A   1      40.921  27.307  28.147  1.00  0.00    -0.014 A 
ATOM     64  C   UNL A   1      40.179  26.116  28.118  1.00  0.00     0.009 A 
ATOM     65  C   UNL A   1      41.608  27.706  26.989  1.00  0.00     0.009 A 
ATOM     66  C   UNL A   1      40.171  25.316  26.972  1.00  0.00     0.001 A 
ATOM     67  C   UNL A   1      41.567  26.925  25.834  1.00  0.00     0.001 A 
ATOM     68  C   UNL A   1      40.860  25.723  25.831  1.00  0.00     0.000 A 
ENDBRANCH  49  63
BRANCH  50  69
ATOM     69  C   UNL A   1      40.701  32.929  36.309  1.00  0.00    -0.014 A 
ATOM     70  C   UNL A   1      39.843  32.566  37.359  1.00  0.00     0.009 A 
ATOM     71  C   UNL A   1      41.496  34.077  36.455  1.00  0.00     0.009 A 
ATOM     72  C   UNL A   1      39.777  33.340  38.522  1.00  0.00     0.001 A 
ATOM     73  C   UNL A   1      41.452  34.831  37.631  1.00  0.00     0.001 A 
ATOM     74  C   UNL A   1      40.588  34.465  38.661  1.00  0.00     0.000 A 
ENDBRANCH  50  69
BRANCH  62  75
ATOM     75  C   UNL A   1      44.802  27.679  34.217  1.00  0.00    -0.014 A 
ATOM     76  C   UNL A   1      46.111  28.161  34.051  1.00  0.00     0.009 A 
ATOM     77  C   UNL A   1      44.599  26.552  35.032  1.00  0.00     0.009 A 
ATOM     78  C   UNL A   1      47.189  27.509  34.658  1.00  0.00     0.001 A 
ATOM     79  C   UNL A   1      45.674  25.923  35.664  1.00  0.00     0.001 A 
ATOM     80  C   UNL A   1      46.970  26.397  35.469  1.00  0.00     0.000 A 
ENDBRANCH  62  75
ENDBRANCH  36  37
ENDBRANCH  29  31
ENDBRANCH  28  29
ENDBRANCH  27  28
ENDBRANCH  26  27
ENDBRANCH   1  26
TORSDOF 17
ENDMDL
