MODEL 1
REMARK VINA RESULT:     -10.6      0.000      0.000
REMARK SMILES CC1(C)C[C@@H]([NH2+]C[C@@H]2CCCC[C@@H]2C(=O)OCCOCCOC(=O)c2ccc(-c3c4nc(c(-c5ccccc5)c5ccc([nH]5)c(-c5ccccc5)c5nc(c(-c6ccccc6)c6ccc3[nH]6)C=C5)C=C4)cc2)C(C)(C)O1
REMARK SMILES IDX 18 1 17 2 16 3 14 4 15 5 13 6 8 7 9 8 10 9 12 10 11 11 7 12
REMARK SMILES IDX 6 13 5 16 1 17 2 18 3 19 4 20 76 21 73 22 74 23 75 24 19 25
REMARK SMILES IDX 20 26 21 27 22 28 23 29 24 30 25 31 26 32 72 33 27 34 71 35
REMARK SMILES IDX 28 36 29 37 30 38 65 39 31 40 70 41 64 42 66 43 32 44 69 45
REMARK SMILES IDX 63 46 62 47 33 49 55 50 40 51 54 52 41 53 44 54 53 55 67 56
REMARK SMILES IDX 42 57 43 58 52 60 68 61 45 62 34 63 35 64 39 65 36 66 38 67
REMARK SMILES IDX 37 68 56 69 57 70 61 71 58 72 60 73 59 74 46 75 47 76 51 77
REMARK SMILES IDX 48 78 50 79 49 80
REMARK H PARENT 6 14 6 15 66 48 44 59
REMARK Flexibility Score: inf
ROOT
ATOM      1  C   UNL A   1      30.953  29.243  23.098  1.00  0.00     0.202 C 
ENDROOT
BRANCH   1   2
ATOM      2  C   UNL A   1      30.220  27.969  22.672  1.00  0.00     0.261 C 
BRANCH   2   3
ATOM      3  O   UNL A   1      31.138  26.943  22.252  1.00  0.00    -0.463 OA
BRANCH   3   4
ATOM      4  C   UNL A   1      31.243  25.820  23.024  1.00  0.00     0.309 C 
ATOM      5  O   UNL A   1      30.309  25.243  23.552  1.00  0.00    -0.252 OA
BRANCH   4   6
ATOM      6  C   UNL A   1      32.722  25.465  23.170  1.00  0.00     0.108 C 
ATOM      7  C   UNL A   1      33.090  24.080  23.741  1.00  0.00     0.058 C 
ATOM      8  C   UNL A   1      32.561  23.973  25.182  1.00  0.00     0.010 C 
ATOM      9  C   UNL A   1      33.111  25.098  26.068  1.00  0.00     0.001 C 
ATOM     10  C   UNL A   1      33.487  26.518  23.965  1.00  0.00     0.016 C 
ATOM     11  C   UNL A   1      33.113  26.498  25.441  1.00  0.00     0.001 C 
BRANCH   7  12
ATOM     12  C   UNL A   1      32.735  22.858  22.877  1.00  0.00     0.265 C 
BRANCH  12  13
ATOM     13  N   UNL A   1      32.338  21.668  23.603  1.00  0.00    -0.341 N 
ATOM     14  H   UNL A   1      32.322  21.937  24.587  1.00  0.00     0.346 HD
ATOM     15  H   UNL A   1      31.478  21.421  23.113  1.00  0.00     0.346 HD
BRANCH  13  16
ATOM     16  C   UNL A   1      33.062  20.392  23.553  1.00  0.00     0.217 C 
ATOM     17  C   UNL A   1      32.515  17.307  25.384  1.00  0.00     0.042 C 
ATOM     18  C   UNL A   1      33.287  18.078  24.302  1.00  0.00     0.069 C 
ATOM     19  C   UNL A   1      34.030  17.104  23.401  1.00  0.00     0.042 C 
ATOM     20  C   UNL A   1      32.366  19.034  23.518  1.00  0.00     0.103 C 
ATOM     21  O   UNL A   1      34.301  18.867  24.938  1.00  0.00    -0.363 OA
ATOM     22  C   UNL A   1      33.960  20.254  24.816  1.00  0.00     0.115 C 
ATOM     23  C   UNL A   1      33.246  20.596  26.131  1.00  0.00     0.048 C 
ATOM     24  C   UNL A   1      35.244  21.061  24.641  1.00  0.00     0.048 C 
ENDBRANCH  13  16
ENDBRANCH  12  13
ENDBRANCH   7  12
ENDBRANCH   4   6
ENDBRANCH   3   4
ENDBRANCH   2   3
ENDBRANCH   1   2
BRANCH   1  25
ATOM     25  O   UNL A   1      30.669  29.670  24.430  1.00  0.00    -0.374 OA
BRANCH  25  26
ATOM     26  C   UNL A   1      31.805  29.874  25.269  1.00  0.00     0.202 C 
BRANCH  26  27
ATOM     27  C   UNL A   1      31.707  31.094  26.200  1.00  0.00     0.261 C 
BRANCH  27  28
ATOM     28  O   UNL A   1      32.601  31.011  27.330  1.00  0.00    -0.460 OA
BRANCH  28  29
ATOM     29  C   UNL A   1      33.389  32.088  27.553  1.00  0.00     0.338 C 
ATOM     30  O   UNL A   1      33.031  33.254  27.622  1.00  0.00    -0.246 OA
BRANCH  29  31
ATOM     31  C   UNL A   1      34.764  31.652  27.896  1.00  0.00     0.060 A 
ATOM     32  C   UNL A   1      35.003  30.278  27.991  1.00  0.00     0.016 A 
ATOM     33  C   UNL A   1      35.802  32.548  28.155  1.00  0.00     0.016 A 
ATOM     34  C   UNL A   1      36.255  29.806  28.395  1.00  0.00     0.010 A 
ATOM     35  C   UNL A   1      37.079  32.073  28.488  1.00  0.00     0.010 A 
ATOM     36  C   UNL A   1      37.298  30.700  28.683  1.00  0.00    -0.014 A 
BRANCH  36  37
ATOM     37  C   UNL A   1      38.515  30.203  29.390  1.00  0.00     0.031 A 
ATOM     38  C   UNL A   1      38.678  30.512  30.863  1.00  0.00     0.074 A 
ATOM     39  C   UNL A   1      39.425  29.420  28.775  1.00  0.00     0.049 A 
ATOM     40  N   UNL A   1      39.602  30.107  31.700  1.00  0.00    -0.248 NA
ATOM     41  C   UNL A   1      37.670  31.394  31.476  1.00  0.00     0.031 C 
ATOM     42  C   UNL A   1      39.400  29.032  27.365  1.00  0.00     0.029 A 
ATOM     43  N   UNL A   1      40.546  28.795  29.271  1.00  0.00    -0.354 N 
ATOM     44  C   UNL A   1      39.291  30.696  32.921  1.00  0.00     0.074 A 
ATOM     45  C   UNL A   1      38.127  31.524  32.711  1.00  0.00     0.031 C 
ATOM     46  C   UNL A   1      40.441  28.216  27.116  1.00  0.00     0.029 A 
ATOM     47  C   UNL A   1      41.223  28.044  28.338  1.00  0.00     0.049 A 
ATOM     48  H   UNL A   1      40.836  28.877  30.207  1.00  0.00     0.167 HD
ATOM     49  C   UNL A   1      39.897  30.548  34.122  1.00  0.00     0.031 A 
ATOM     50  C   UNL A   1      42.344  27.302  28.456  1.00  0.00     0.031 A 
ATOM     51  C   UNL A   1      41.040  29.709  34.355  1.00  0.00     0.049 A 
ATOM     52  C   UNL A   1      43.025  27.189  29.798  1.00  0.00     0.074 A 
ATOM     53  C   UNL A   1      41.688  29.456  35.552  1.00  0.00     0.029 A 
ATOM     54  N   UNL A   1      41.705  28.994  33.375  1.00  0.00    -0.354 N 
ATOM     55  N   UNL A   1      42.667  27.691  30.955  1.00  0.00    -0.248 NA
ATOM     56  C   UNL A   1      44.261  26.392  29.852  1.00  0.00     0.031 C 
ATOM     57  C   UNL A   1      42.789  28.638  35.284  1.00  0.00     0.029 A 
ATOM     58  C   UNL A   1      42.781  28.327  33.935  1.00  0.00     0.049 A 
ATOM     59  H   UNL A   1      41.452  28.965  32.425  1.00  0.00     0.167 HD
ATOM     60  C   UNL A   1      43.608  27.238  31.875  1.00  0.00     0.074 A 
ATOM     61  C   UNL A   1      44.541  26.406  31.147  1.00  0.00     0.031 C 
ATOM     62  C   UNL A   1      43.693  27.489  33.204  1.00  0.00     0.031 A 
BRANCH  49  63
ATOM     63  C   UNL A   1      39.345  31.320  35.289  1.00  0.00    -0.014 A 
ATOM     64  C   UNL A   1      38.347  30.784  36.116  1.00  0.00     0.009 A 
ATOM     65  C   UNL A   1      39.887  32.577  35.603  1.00  0.00     0.009 A 
ATOM     66  C   UNL A   1      37.886  31.500  37.222  1.00  0.00     0.001 A 
ATOM     67  C   UNL A   1      39.445  33.278  36.726  1.00  0.00     0.001 A 
ATOM     68  C   UNL A   1      38.442  32.741  37.531  1.00  0.00     0.000 A 
ENDBRANCH  49  63
BRANCH  50  69
ATOM     69  C   UNL A   1      42.927  26.606  27.272  1.00  0.00    -0.014 A 
ATOM     70  C   UNL A   1      42.597  25.272  26.982  1.00  0.00     0.009 A 
ATOM     71  C   UNL A   1      43.883  27.252  26.471  1.00  0.00     0.009 A 
ATOM     72  C   UNL A   1      43.244  24.588  25.949  1.00  0.00     0.001 A 
ATOM     73  C   UNL A   1      44.501  26.577  25.416  1.00  0.00     0.001 A 
ATOM     74  C   UNL A   1      44.194  25.241  25.165  1.00  0.00     0.000 A 
ENDBRANCH  50  69
BRANCH  62  75
ATOM     75  C   UNL A   1      44.798  26.819  33.973  1.00  0.00    -0.014 A 
ATOM     76  C   UNL A   1      44.624  25.553  34.555  1.00  0.00     0.009 A 
ATOM     77  C   UNL A   1      46.052  27.444  34.070  1.00  0.00     0.009 A 
ATOM     78  C   UNL A   1      45.673  24.945  35.249  1.00  0.00     0.001 A 
ATOM     79  C   UNL A   1      47.108  26.819  34.734  1.00  0.00     0.001 A 
ATOM     80  C   UNL A   1      46.915  25.576  35.332  1.00  0.00     0.000 A 
ENDBRANCH  62  75
ENDBRANCH  36  37
ENDBRANCH  29  31
ENDBRANCH  28  29
ENDBRANCH  27  28
ENDBRANCH  26  27
ENDBRANCH  25  26
ENDBRANCH   1  25
TORSDOF 17
ENDMDL
MODEL 2
REMARK VINA RESULT:     -10.3      3.538      8.843
REMARK SMILES CC1(C)C[C@@H]([NH2+]C[C@@H]2CCCC[C@@H]2C(=O)OCCOCCOC(=O)c2ccc(-c3c4nc(c(-c5ccccc5)c5ccc([nH]5)c(-c5ccccc5)c5nc(c(-c6ccccc6)c6ccc3[nH]6)C=C5)C=C4)cc2)C(C)(C)O1
REMARK SMILES IDX 18 1 17 2 16 3 14 4 15 5 13 6 8 7 9 8 10 9 12 10 11 11 7 12
REMARK SMILES IDX 6 13 5 16 1 17 2 18 3 19 4 20 76 21 73 22 74 23 75 24 19 25
REMARK SMILES IDX 20 26 21 27 22 28 23 29 24 30 25 31 26 32 72 33 27 34 71 35
REMARK SMILES IDX 28 36 29 37 30 38 65 39 31 40 70 41 64 42 66 43 32 44 69 45
REMARK SMILES IDX 63 46 62 47 33 49 55 50 40 51 54 52 41 53 44 54 53 55 67 56
REMARK SMILES IDX 42 57 43 58 52 60 68 61 45 62 34 63 35 64 39 65 36 66 38 67
REMARK SMILES IDX 37 68 56 69 57 70 61 71 58 72 60 73 59 74 46 75 47 76 51 77
REMARK SMILES IDX 48 78 50 79 49 80
REMARK H PARENT 6 14 6 15 66 48 44 59
REMARK Flexibility Score: inf
ROOT
ATOM      1  C   UNL A   1      37.494  23.486  25.924  1.00  0.00     0.202 C 
ENDROOT
BRANCH   1   2
ATOM      2  C   UNL A   1      36.021  23.108  26.092  1.00  0.00     0.261 C 
BRANCH   2   3
ATOM      3  O   UNL A   1      35.174  23.874  25.216  1.00  0.00    -0.463 OA
BRANCH   3   4
ATOM      4  C   UNL A   1      34.693  23.262  24.092  1.00  0.00     0.309 C 
ATOM      5  O   UNL A   1      35.377  22.736  23.233  1.00  0.00    -0.252 OA
BRANCH   4   6
ATOM      6  C   UNL A   1      33.173  23.419  24.064  1.00  0.00     0.108 C 
ATOM      7  C   UNL A   1      32.391  23.217  25.378  1.00  0.00     0.058 C 
ATOM      8  C   UNL A   1      32.585  21.770  25.863  1.00  0.00     0.010 C 
ATOM      9  C   UNL A   1      32.143  20.757  24.799  1.00  0.00     0.001 C 
ATOM     10  C   UNL A   1      32.527  22.540  22.996  1.00  0.00     0.016 C 
ATOM     11  C   UNL A   1      32.586  21.064  23.364  1.00  0.00     0.001 C 
BRANCH   7  12
ATOM     12  C   UNL A   1      32.620  24.259  26.487  1.00  0.00     0.265 C 
BRANCH  12  13
ATOM     13  N   UNL A   1      32.917  25.604  26.035  1.00  0.00    -0.341 N 
ATOM     14  H   UNL A   1      33.314  26.086  26.841  1.00  0.00     0.346 HD
ATOM     15  H   UNL A   1      33.483  25.409  25.209  1.00  0.00     0.346 HD
BRANCH  13  16
ATOM     16  C   UNL A   1      31.919  26.524  25.475  1.00  0.00     0.217 C 
ATOM     17  C   UNL A   1      32.210  28.960  22.801  1.00  0.00     0.042 C 
ATOM     18  C   UNL A   1      31.332  28.231  23.830  1.00  0.00     0.069 C 
ATOM     19  C   UNL A   1      29.863  28.410  23.478  1.00  0.00     0.042 C 
ATOM     20  C   UNL A   1      31.736  26.751  23.976  1.00  0.00     0.103 C 
ATOM     21  O   UNL A   1      31.504  28.862  25.106  1.00  0.00    -0.363 OA
ATOM     22  C   UNL A   1      32.203  27.968  25.980  1.00  0.00     0.115 C 
ATOM     23  C   UNL A   1      33.674  28.390  25.873  1.00  0.00     0.048 C 
ATOM     24  C   UNL A   1      31.663  28.145  27.398  1.00  0.00     0.048 C 
ENDBRANCH  13  16
ENDBRANCH  12  13
ENDBRANCH   7  12
ENDBRANCH   4   6
ENDBRANCH   3   4
ENDBRANCH   2   3
ENDBRANCH   1   2
BRANCH   1  25
ATOM     25  O   UNL A   1      38.376  22.371  25.784  1.00  0.00    -0.374 OA
BRANCH  25  26
ATOM     26  C   UNL A   1      37.819  21.218  25.156  1.00  0.00     0.202 C 
BRANCH  26  27
ATOM     27  C   UNL A   1      38.793  20.038  24.996  1.00  0.00     0.261 C 
BRANCH  27  28
ATOM     28  O   UNL A   1      39.529  19.751  26.204  1.00  0.00    -0.460 OA
BRANCH  28  29
ATOM     29  C   UNL A   1      40.876  19.713  26.092  1.00  0.00     0.338 C 
ATOM     30  O   UNL A   1      41.540  18.861  25.522  1.00  0.00    -0.246 OA
BRANCH  29  31
ATOM     31  C   UNL A   1      41.466  20.972  26.608  1.00  0.00     0.060 A 
ATOM     32  C   UNL A   1      41.484  21.159  27.993  1.00  0.00     0.016 A 
ATOM     33  C   UNL A   1      41.963  21.976  25.774  1.00  0.00     0.016 A 
ATOM     34  C   UNL A   1      41.947  22.360  28.537  1.00  0.00     0.010 A 
ATOM     35  C   UNL A   1      42.496  23.151  26.323  1.00  0.00     0.010 A 
ATOM     36  C   UNL A   1      42.425  23.386  27.706  1.00  0.00    -0.014 A 
BRANCH  36  37
ATOM     37  C   UNL A   1      42.630  24.752  28.271  1.00  0.00     0.031 A 
ATOM     38  C   UNL A   1      44.035  25.188  28.628  1.00  0.00     0.074 A 
ATOM     39  C   UNL A   1      41.614  25.631  28.393  1.00  0.00     0.049 A 
ATOM     40  N   UNL A   1      44.462  26.354  29.045  1.00  0.00    -0.248 NA
ATOM     41  C   UNL A   1      45.100  24.178  28.502  1.00  0.00     0.031 C 
ATOM     42  C   UNL A   1      40.211  25.360  28.085  1.00  0.00     0.029 A 
ATOM     43  N   UNL A   1      41.616  26.947  28.797  1.00  0.00    -0.354 N 
ATOM     44  C   UNL A   1      45.832  26.207  29.241  1.00  0.00     0.074 A 
ATOM     45  C   UNL A   1      46.160  24.833  28.948  1.00  0.00     0.031 C 
ATOM     46  C   UNL A   1      39.492  26.480  28.287  1.00  0.00     0.029 A 
ATOM     47  C   UNL A   1      40.376  27.541  28.765  1.00  0.00     0.049 A 
ATOM     48  H   UNL A   1      42.431  27.419  29.083  1.00  0.00     0.167 HD
ATOM     49  C   UNL A   1      46.749  27.134  29.605  1.00  0.00     0.031 A 
ATOM     50  C   UNL A   1      39.996  28.796  29.083  1.00  0.00     0.031 A 
ATOM     51  C   UNL A   1      46.445  28.512  29.875  1.00  0.00     0.049 A 
ATOM     52  C   UNL A   1      41.033  29.797  29.529  1.00  0.00     0.074 A 
ATOM     53  C   UNL A   1      47.319  29.536  30.199  1.00  0.00     0.029 A 
ATOM     54  N   UNL A   1      45.173  29.057  29.858  1.00  0.00    -0.354 N 
ATOM     55  N   UNL A   1      42.333  29.657  29.629  1.00  0.00    -0.248 NA
ATOM     56  C   UNL A   1      40.549  31.139  29.892  1.00  0.00     0.031 C 
ATOM     57  C   UNL A   1      46.568  30.687  30.444  1.00  0.00     0.029 A 
ATOM     58  C   UNL A   1      45.235  30.396  30.201  1.00  0.00     0.049 A 
ATOM     59  H   UNL A   1      44.350  28.567  29.635  1.00  0.00     0.167 HD
ATOM     60  C   UNL A   1      42.821  30.899  30.027  1.00  0.00     0.074 A 
ATOM     61  C   UNL A   1      41.682  31.785  30.131  1.00  0.00     0.031 C 
ATOM     62  C   UNL A   1      44.097  31.272  30.285  1.00  0.00     0.031 A 
BRANCH  49  63
ATOM     63  C   UNL A   1      48.178  26.691  29.750  1.00  0.00    -0.014 A 
ATOM     64  C   UNL A   1      49.096  26.824  28.696  1.00  0.00     0.009 A 
ATOM     65  C   UNL A   1      48.627  26.196  30.984  1.00  0.00     0.009 A 
ATOM     66  C   UNL A   1      50.430  26.451  28.870  1.00  0.00     0.001 A 
ATOM     67  C   UNL A   1      49.968  25.852  31.164  1.00  0.00     0.001 A 
ATOM     68  C   UNL A   1      50.866  25.974  30.106  1.00  0.00     0.000 A 
ENDBRANCH  49  63
BRANCH  50  69
ATOM     69  C   UNL A   1      38.562  29.200  29.014  1.00  0.00    -0.014 A 
ATOM     70  C   UNL A   1      38.017  29.735  27.835  1.00  0.00     0.009 A 
ATOM     71  C   UNL A   1      37.750  29.128  30.157  1.00  0.00     0.009 A 
ATOM     72  C   UNL A   1      36.710  30.230  27.816  1.00  0.00     0.001 A 
ATOM     73  C   UNL A   1      36.433  29.590  30.125  1.00  0.00     0.001 A 
ATOM     74  C   UNL A   1      35.918  30.155  28.960  1.00  0.00     0.000 A 
ENDBRANCH  50  69
BRANCH  62  75
ATOM     75  C   UNL A   1      44.346  32.709  30.651  1.00  0.00    -0.014 A 
ATOM     76  C   UNL A   1      44.373  33.132  31.990  1.00  0.00     0.009 A 
ATOM     77  C   UNL A   1      44.612  33.645  29.639  1.00  0.00     0.009 A 
ATOM     78  C   UNL A   1      44.625  34.469  32.303  1.00  0.00     0.001 A 
ATOM     79  C   UNL A   1      44.897  34.974  29.956  1.00  0.00     0.001 A 
ATOM     80  C   UNL A   1      44.893  35.387  31.286  1.00  0.00     0.000 A 
ENDBRANCH  62  75
ENDBRANCH  36  37
ENDBRANCH  29  31
ENDBRANCH  28  29
ENDBRANCH  27  28
ENDBRANCH  26  27
ENDBRANCH  25  26
ENDBRANCH   1  25
TORSDOF 17
ENDMDL
MODEL 3
REMARK VINA RESULT:     -10.3      3.548      6.774
REMARK SMILES CC1(C)C[C@@H]([NH2+]C[C@@H]2CCCC[C@@H]2C(=O)OCCOCCOC(=O)c2ccc(-c3c4nc(c(-c5ccccc5)c5ccc([nH]5)c(-c5ccccc5)c5nc(c(-c6ccccc6)c6ccc3[nH]6)C=C5)C=C4)cc2)C(C)(C)O1
REMARK SMILES IDX 18 1 17 2 16 3 14 4 15 5 13 6 8 7 9 8 10 9 12 10 11 11 7 12
REMARK SMILES IDX 6 13 5 16 1 17 2 18 3 19 4 20 76 21 73 22 74 23 75 24 19 25
REMARK SMILES IDX 20 26 21 27 22 28 23 29 24 30 25 31 26 32 72 33 27 34 71 35
REMARK SMILES IDX 28 36 29 37 30 38 65 39 31 40 70 41 64 42 66 43 32 44 69 45
REMARK SMILES IDX 63 46 62 47 33 49 55 50 40 51 54 52 41 53 44 54 53 55 67 56
REMARK SMILES IDX 42 57 43 58 52 60 68 61 45 62 34 63 35 64 39 65 36 66 38 67
REMARK SMILES IDX 37 68 56 69 57 70 61 71 58 72 60 73 59 74 46 75 47 76 51 77
REMARK SMILES IDX 48 78 50 79 49 80
REMARK H PARENT 6 14 6 15 66 48 44 59
REMARK Flexibility Score: inf
ROOT
ATOM      1  C   UNL A   1      32.171  29.004  26.978  1.00  0.00     0.202 C 
ENDROOT
BRANCH   1   2
ATOM      2  C   UNL A   1      33.408  28.177  26.620  1.00  0.00     0.261 C 
BRANCH   2   3
ATOM      3  O   UNL A   1      33.050  26.877  26.117  1.00  0.00    -0.463 OA
BRANCH   3   4
ATOM      4  C   UNL A   1      33.124  26.668  24.768  1.00  0.00     0.309 C 
ATOM      5  O   UNL A   1      33.959  27.156  24.027  1.00  0.00    -0.252 OA
BRANCH   4   6
ATOM      6  C   UNL A   1      31.947  25.789  24.346  1.00  0.00     0.108 C 
ATOM      7  C   UNL A   1      31.761  25.485  22.845  1.00  0.00     0.058 C 
ATOM      8  C   UNL A   1      31.501  26.802  22.093  1.00  0.00     0.010 C 
ATOM      9  C   UNL A   1      30.283  27.543  22.660  1.00  0.00     0.001 C 
ATOM     10  C   UNL A   1      30.619  26.313  24.886  1.00  0.00     0.016 C 
ATOM     11  C   UNL A   1      30.191  27.597  24.190  1.00  0.00     0.001 C 
BRANCH   7  12
ATOM     12  C   UNL A   1      32.837  24.612  22.177  1.00  0.00     0.265 C 
BRANCH  12  13
ATOM     13  N   UNL A   1      33.954  24.235  23.019  1.00  0.00    -0.341 N 
ATOM     14  H   UNL A   1      34.791  24.541  22.523  1.00  0.00     0.346 HD
ATOM     15  H   UNL A   1      33.682  24.664  23.903  1.00  0.00     0.346 HD
BRANCH  13  16
ATOM     16  C   UNL A   1      34.231  22.860  23.453  1.00  0.00     0.217 C 
ATOM     17  C   UNL A   1      33.792  21.286  26.693  1.00  0.00     0.042 C 
ATOM     18  C   UNL A   1      34.171  21.163  25.209  1.00  0.00     0.069 C 
ATOM     19  C   UNL A   1      34.164  19.701  24.790  1.00  0.00     0.042 C 
ATOM     20  C   UNL A   1      33.274  22.044  24.318  1.00  0.00     0.103 C 
ATOM     21  O   UNL A   1      35.525  21.606  25.044  1.00  0.00    -0.363 OA
ATOM     22  C   UNL A   1      35.529  22.838  24.311  1.00  0.00     0.115 C 
ATOM     23  C   UNL A   1      35.585  23.930  25.388  1.00  0.00     0.048 C 
ATOM     24  C   UNL A   1      36.759  22.868  23.408  1.00  0.00     0.048 C 
ENDBRANCH  13  16
ENDBRANCH  12  13
ENDBRANCH   7  12
ENDBRANCH   4   6
ENDBRANCH   3   4
ENDBRANCH   2   3
ENDBRANCH   1   2
BRANCH   1  25
ATOM     25  O   UNL A   1      32.418  30.403  27.123  1.00  0.00    -0.374 OA
BRANCH  25  26
ATOM     26  C   UNL A   1      33.768  30.765  27.410  1.00  0.00     0.202 C 
BRANCH  26  27
ATOM     27  C   UNL A   1      33.924  31.972  28.350  1.00  0.00     0.261 C 
BRANCH  27  28
ATOM     28  O   UNL A   1      35.301  32.247  28.685  1.00  0.00    -0.460 OA
BRANCH  28  29
ATOM     29  C   UNL A   1      35.751  31.729  29.851  1.00  0.00     0.338 C 
ATOM     30  O   UNL A   1      35.190  31.771  30.936  1.00  0.00    -0.246 OA
BRANCH  29  31
ATOM     31  C   UNL A   1      36.967  30.915  29.610  1.00  0.00     0.060 A 
ATOM     32  C   UNL A   1      37.678  30.468  30.727  1.00  0.00     0.016 A 
ATOM     33  C   UNL A   1      37.439  30.614  28.331  1.00  0.00     0.016 A 
ATOM     34  C   UNL A   1      38.879  29.771  30.567  1.00  0.00     0.010 A 
ATOM     35  C   UNL A   1      38.604  29.851  28.169  1.00  0.00     0.010 A 
ATOM     36  C   UNL A   1      39.375  29.486  29.285  1.00  0.00    -0.014 A 
BRANCH  36  37
ATOM     37  C   UNL A   1      40.783  29.014  29.132  1.00  0.00     0.031 A 
ATOM     38  C   UNL A   1      41.029  27.581  28.711  1.00  0.00     0.074 A 
ATOM     39  C   UNL A   1      41.833  29.849  29.277  1.00  0.00     0.049 A 
ATOM     40  N   UNL A   1      42.158  26.980  28.427  1.00  0.00    -0.248 NA
ATOM     41  C   UNL A   1      39.848  26.707  28.595  1.00  0.00     0.031 C 
ATOM     42  C   UNL A   1      41.754  31.255  29.673  1.00  0.00     0.029 A 
ATOM     43  N   UNL A   1      43.178  29.632  29.089  1.00  0.00    -0.354 N 
ATOM     44  C   UNL A   1      41.820  25.667  28.118  1.00  0.00     0.074 A 
ATOM     45  C   UNL A   1      40.393  25.540  28.294  1.00  0.00     0.031 C 
ATOM     46  C   UNL A   1      42.994  31.781  29.674  1.00  0.00     0.029 A 
ATOM     47  C   UNL A   1      43.957  30.745  29.306  1.00  0.00     0.049 A 
ATOM     48  H   UNL A   1      43.550  28.761  28.824  1.00  0.00     0.167 HD
ATOM     49  C   UNL A   1      42.615  24.655  27.697  1.00  0.00     0.031 A 
ATOM     50  C   UNL A   1      45.293  30.912  29.219  1.00  0.00     0.031 A 
ATOM     51  C   UNL A   1      44.032  24.769  27.492  1.00  0.00     0.049 A 
ATOM     52  C   UNL A   1      46.161  29.754  28.790  1.00  0.00     0.074 A 
ATOM     53  C   UNL A   1      44.910  23.811  27.015  1.00  0.00     0.029 A 
ATOM     54  N   UNL A   1      44.777  25.906  27.753  1.00  0.00    -0.354 N 
ATOM     55  N   UNL A   1      45.810  28.544  28.425  1.00  0.00    -0.248 NA
ATOM     56  C   UNL A   1      47.613  29.992  28.745  1.00  0.00     0.031 C 
ATOM     57  C   UNL A   1      46.200  24.347  27.052  1.00  0.00     0.029 A 
ATOM     58  C   UNL A   1      46.112  25.661  27.482  1.00  0.00     0.049 A 
ATOM     59  H   UNL A   1      44.413  26.758  28.082  1.00  0.00     0.167 HD
ATOM     60  C   UNL A   1      46.990  27.895  28.073  1.00  0.00     0.074 A 
ATOM     61  C   UNL A   1      48.064  28.849  28.248  1.00  0.00     0.031 C 
ATOM     62  C   UNL A   1      47.170  26.622  27.644  1.00  0.00     0.031 A 
BRANCH  49  63
ATOM     63  C   UNL A   1      41.976  23.318  27.439  1.00  0.00    -0.014 A 
ATOM     64  C   UNL A   1      41.498  22.969  26.167  1.00  0.00     0.009 A 
ATOM     65  C   UNL A   1      41.916  22.370  28.473  1.00  0.00     0.009 A 
ATOM     66  C   UNL A   1      40.953  21.704  25.941  1.00  0.00     0.001 A 
ATOM     67  C   UNL A   1      41.398  21.096  28.236  1.00  0.00     0.001 A 
ATOM     68  C   UNL A   1      40.912  20.766  26.972  1.00  0.00     0.000 A 
ENDBRANCH  49  63
BRANCH  50  69
ATOM     69  C   UNL A   1      45.924  32.220  29.557  1.00  0.00    -0.014 A 
ATOM     70  C   UNL A   1      46.167  33.184  28.564  1.00  0.00     0.009 A 
ATOM     71  C   UNL A   1      46.360  32.479  30.866  1.00  0.00     0.009 A 
ATOM     72  C   UNL A   1      46.873  34.352  28.864  1.00  0.00     0.001 A 
ATOM     73  C   UNL A   1      47.034  33.664  31.171  1.00  0.00     0.001 A 
ATOM     74  C   UNL A   1      47.304  34.593  30.168  1.00  0.00     0.000 A 
ENDBRANCH  50  69
BRANCH  62  75
ATOM     75  C   UNL A   1      48.565  26.196  27.281  1.00  0.00    -0.014 A 
ATOM     76  C   UNL A   1      49.407  25.567  28.212  1.00  0.00     0.009 A 
ATOM     77  C   UNL A   1      49.024  26.378  25.966  1.00  0.00     0.009 A 
ATOM     78  C   UNL A   1      50.692  25.165  27.843  1.00  0.00     0.001 A 
ATOM     79  C   UNL A   1      50.296  25.944  25.591  1.00  0.00     0.001 A 
ATOM     80  C   UNL A   1      51.132  25.347  26.531  1.00  0.00     0.000 A 
ENDBRANCH  62  75
ENDBRANCH  36  37
ENDBRANCH  29  31
ENDBRANCH  28  29
ENDBRANCH  27  28
ENDBRANCH  26  27
ENDBRANCH  25  26
ENDBRANCH   1  25
TORSDOF 17
ENDMDL
