MODEL 1
REMARK VINA RESULT:     -11.3      0.000      0.000
REMARK SMILES Cc1ccn2c([C@@H]3CCCC[C@@H]3C(=O)OCCOCCOC(=O)c3ccc(-c4c5nc(c(-c6ccccc6)c6ccc([nH]6)c(-c6ccccc6)c6nc(c(-c7ccccc7)c7ccc4[nH]7)C=C6)C=C5)cc3)nnc2c1
REMARK SMILES IDX 19 1 18 2 17 3 16 4 15 5 13 6 14 7 12 8 7 9 8 10 9 11 11 12
REMARK SMILES IDX 10 13 6 14 1 15 2 16 3 17 75 18 4 19 74 20 5 21 73 22 72 23
REMARK SMILES IDX 20 24 21 25 22 26 23 27 24 28 25 29 71 30 26 31 70 32 27 33
REMARK SMILES IDX 28 34 29 35 64 36 30 37 69 38 63 39 65 40 31 41 68 42 62 43
REMARK SMILES IDX 61 44 32 46 54 47 39 48 53 49 40 50 43 51 52 52 66 53 41 54
REMARK SMILES IDX 42 55 51 57 67 58 44 59 33 60 34 61 38 62 35 63 37 64 36 65
REMARK SMILES IDX 55 66 56 67 60 68 57 69 59 70 58 71 45 72 46 73 50 74 47 75
REMARK SMILES IDX 49 76 48 77
REMARK H PARENT 65 45 43 56
REMARK Flexibility Score: inf
ROOT
ATOM      1  C   UNL A   1      33.114  30.519  26.894  1.00  0.00     0.202 C 
ENDROOT
BRANCH   1   2
ATOM      2  O   UNL A   1      33.259  29.258  27.545  1.00  0.00    -0.374 OA
BRANCH   2   3
ATOM      3  C   UNL A   1      33.775  28.181  26.778  1.00  0.00     0.202 C 
BRANCH   3   4
ATOM      4  C   UNL A   1      33.790  28.297  25.248  1.00  0.00     0.261 C 
BRANCH   4   5
ATOM      5  O   UNL A   1      33.518  27.073  24.529  1.00  0.00    -0.463 OA
BRANCH   5   6
ATOM      6  C   UNL A   1      32.383  27.094  23.772  1.00  0.00     0.309 C 
ATOM      7  O   UNL A   1      32.335  26.727  22.604  1.00  0.00    -0.252 OA
BRANCH   6   8
ATOM      8  C   UNL A   1      31.156  27.652  24.489  1.00  0.00     0.110 C 
ATOM      9  C   UNL A   1      30.110  26.626  24.970  1.00  0.00     0.072 C 
ATOM     10  C   UNL A   1      28.973  26.330  23.980  1.00  0.00     0.012 C 
ATOM     11  C   UNL A   1      28.356  27.606  23.422  1.00  0.00     0.001 C 
ATOM     12  C   UNL A   1      30.508  28.855  23.794  1.00  0.00     0.016 C 
ATOM     13  C   UNL A   1      29.426  28.481  22.785  1.00  0.00     0.001 C 
BRANCH   9  14
ATOM     14  C   UNL A   1      30.721  25.410  25.599  1.00  0.00     0.141 A 
ATOM     15  C   UNL A   1      32.549  20.509  23.711  1.00  0.00     0.044 C 
ATOM     16  C   UNL A   1      32.121  21.825  24.246  1.00  0.00    -0.046 A 
ATOM     17  C   UNL A   1      31.557  22.699  23.239  1.00  0.00     0.022 A 
ATOM     18  C   UNL A   1      32.205  22.199  25.540  1.00  0.00     0.053 A 
ATOM     19  C   UNL A   1      31.053  23.877  23.615  1.00  0.00     0.095 A 
ATOM     20  C   UNL A   1      31.691  23.466  25.934  1.00  0.00     0.161 A 
ATOM     21  N   UNL A   1      31.120  24.261  24.948  1.00  0.00    -0.286 N 
ATOM     22  N   UNL A   1      31.614  24.080  27.092  1.00  0.00    -0.130 NA
ATOM     23  N   UNL A   1      31.006  25.295  26.883  1.00  0.00    -0.134 NA
ENDBRANCH   9  14
ENDBRANCH   6   8
ENDBRANCH   5   6
ENDBRANCH   4   5
ENDBRANCH   3   4
ENDBRANCH   2   3
ENDBRANCH   1   2
BRANCH   1  24
ATOM     24  C   UNL A   1      33.561  31.779  27.654  1.00  0.00     0.261 C 
BRANCH  24  25
ATOM     25  O   UNL A   1      34.663  31.501  28.530  1.00  0.00    -0.460 OA
BRANCH  25  26
ATOM     26  C   UNL A   1      35.850  32.038  28.139  1.00  0.00     0.338 C 
ATOM     27  O   UNL A   1      36.049  33.147  27.678  1.00  0.00    -0.246 OA
BRANCH  26  28
ATOM     28  C   UNL A   1      36.879  31.191  28.766  1.00  0.00     0.060 A 
ATOM     29  C   UNL A   1      38.082  31.734  29.224  1.00  0.00     0.016 A 
ATOM     30  C   UNL A   1      36.726  29.807  28.598  1.00  0.00     0.016 A 
ATOM     31  C   UNL A   1      39.163  30.885  29.433  1.00  0.00     0.010 A 
ATOM     32  C   UNL A   1      37.825  28.973  28.757  1.00  0.00     0.010 A 
ATOM     33  C   UNL A   1      39.058  29.518  29.128  1.00  0.00    -0.014 A 
BRANCH  33  34
ATOM     34  C   UNL A   1      40.231  28.658  29.325  1.00  0.00     0.031 A 
ATOM     35  C   UNL A   1      40.618  28.428  30.746  1.00  0.00     0.074 A 
ATOM     36  C   UNL A   1      40.825  27.931  28.354  1.00  0.00     0.049 A 
ATOM     37  N   UNL A   1      41.787  28.535  31.290  1.00  0.00    -0.248 NA
ATOM     38  C   UNL A   1      39.545  28.066  31.686  1.00  0.00     0.031 C 
ATOM     39  C   UNL A   1      40.372  27.741  26.976  1.00  0.00     0.029 A 
ATOM     40  N   UNL A   1      41.889  27.072  28.449  1.00  0.00    -0.354 N 
ATOM     41  C   UNL A   1      41.631  28.136  32.615  1.00  0.00     0.074 A 
ATOM     42  C   UNL A   1      40.217  27.951  32.829  1.00  0.00     0.031 C 
ATOM     43  C   UNL A   1      40.975  26.647  26.458  1.00  0.00     0.029 A 
ATOM     44  C   UNL A   1      41.936  26.135  27.422  1.00  0.00     0.049 A 
ATOM     45  H   UNL A   1      42.555  27.114  29.172  1.00  0.00     0.167 HD
ATOM     46  C   UNL A   1      42.675  27.836  33.434  1.00  0.00     0.031 A 
ATOM     47  C   UNL A   1      42.618  24.962  27.412  1.00  0.00     0.031 A 
ATOM     48  C   UNL A   1      43.930  28.329  32.944  1.00  0.00     0.049 A 
ATOM     49  C   UNL A   1      43.631  24.973  28.488  1.00  0.00     0.074 A 
ATOM     50  C   UNL A   1      44.427  29.583  32.655  1.00  0.00     0.029 A 
ATOM     51  N   UNL A   1      44.826  27.447  32.390  1.00  0.00    -0.354 N 
ATOM     52  N   UNL A   1      44.738  25.650  28.448  1.00  0.00    -0.248 NA
ATOM     53  C   UNL A   1      43.228  24.514  29.805  1.00  0.00     0.031 C 
ATOM     54  C   UNL A   1      45.293  29.390  31.541  1.00  0.00     0.029 A 
ATOM     55  C   UNL A   1      45.290  28.028  31.232  1.00  0.00     0.049 A 
ATOM     56  H   UNL A   1      45.086  26.569  32.753  1.00  0.00     0.167 HD
ATOM     57  C   UNL A   1      44.921  26.105  29.742  1.00  0.00     0.074 A 
ATOM     58  C   UNL A   1      44.024  25.279  30.553  1.00  0.00     0.031 C 
ATOM     59  C   UNL A   1      45.561  27.288  30.008  1.00  0.00     0.031 A 
BRANCH  46  60
ATOM     60  C   UNL A   1      42.573  26.873  34.584  1.00  0.00    -0.014 A 
ATOM     61  C   UNL A   1      42.026  27.239  35.829  1.00  0.00     0.009 A 
ATOM     62  C   UNL A   1      42.813  25.507  34.371  1.00  0.00     0.009 A 
ATOM     63  C   UNL A   1      41.752  26.297  36.823  1.00  0.00     0.001 A 
ATOM     64  C   UNL A   1      42.500  24.554  35.349  1.00  0.00     0.001 A 
ATOM     65  C   UNL A   1      41.973  24.949  36.574  1.00  0.00     0.000 A 
ENDBRANCH  46  60
BRANCH  47  66
ATOM     66  C   UNL A   1      42.219  23.683  26.786  1.00  0.00    -0.014 A 
ATOM     67  C   UNL A   1      40.869  23.292  26.808  1.00  0.00     0.009 A 
ATOM     68  C   UNL A   1      43.181  22.716  26.457  1.00  0.00     0.009 A 
ATOM     69  C   UNL A   1      40.495  21.970  26.554  1.00  0.00     0.001 A 
ATOM     70  C   UNL A   1      42.806  21.391  26.201  1.00  0.00     0.001 A 
ATOM     71  C   UNL A   1      41.465  21.016  26.267  1.00  0.00     0.000 A 
ENDBRANCH  47  66
BRANCH  59  72
ATOM     72  C   UNL A   1      46.320  28.005  28.885  1.00  0.00    -0.014 A 
ATOM     73  C   UNL A   1      45.604  28.828  27.995  1.00  0.00     0.009 A 
ATOM     74  C   UNL A   1      47.679  27.789  28.576  1.00  0.00     0.009 A 
ATOM     75  C   UNL A   1      46.196  29.360  26.840  1.00  0.00     0.001 A 
ATOM     76  C   UNL A   1      48.288  28.355  27.445  1.00  0.00     0.001 A 
ATOM     77  C   UNL A   1      47.540  29.125  26.565  1.00  0.00     0.000 A 
ENDBRANCH  59  72
ENDBRANCH  33  34
ENDBRANCH  26  28
ENDBRANCH  25  26
ENDBRANCH  24  25
ENDBRANCH   1  24
TORSDOF 15
ENDMDL
MODEL 2
REMARK VINA RESULT:     -11.2      1.428      3.122
REMARK SMILES Cc1ccn2c([C@@H]3CCCC[C@@H]3C(=O)OCCOCCOC(=O)c3ccc(-c4c5nc(c(-c6ccccc6)c6ccc([nH]6)c(-c6ccccc6)c6nc(c(-c7ccccc7)c7ccc4[nH]7)C=C6)C=C5)cc3)nnc2c1
REMARK SMILES IDX 19 1 18 2 17 3 16 4 15 5 13 6 14 7 12 8 7 9 8 10 9 11 11 12
REMARK SMILES IDX 10 13 6 14 1 15 2 16 3 17 75 18 4 19 74 20 5 21 73 22 72 23
REMARK SMILES IDX 20 24 21 25 22 26 23 27 24 28 25 29 71 30 26 31 70 32 27 33
REMARK SMILES IDX 28 34 29 35 64 36 30 37 69 38 63 39 65 40 31 41 68 42 62 43
REMARK SMILES IDX 61 44 32 46 54 47 39 48 53 49 40 50 43 51 52 52 66 53 41 54
REMARK SMILES IDX 42 55 51 57 67 58 44 59 33 60 34 61 38 62 35 63 37 64 36 65
REMARK SMILES IDX 55 66 56 67 60 68 57 69 59 70 58 71 45 72 46 73 50 74 47 75
REMARK SMILES IDX 49 76 48 77
REMARK H PARENT 65 45 43 56
REMARK Flexibility Score: inf
ROOT
ATOM      1  C   UNL A   1      33.657  31.022  27.049  1.00  0.00     0.202 C 
ENDROOT
BRANCH   1   2
ATOM      2  O   UNL A   1      34.261  29.729  27.026  1.00  0.00    -0.374 OA
BRANCH   2   3
ATOM      3  C   UNL A   1      33.436  28.616  27.333  1.00  0.00     0.202 C 
BRANCH   3   4
ATOM      4  C   UNL A   1      31.914  28.802  27.361  1.00  0.00     0.261 C 
BRANCH   4   5
ATOM      5  O   UNL A   1      31.211  28.349  26.182  1.00  0.00    -0.463 OA
BRANCH   5   6
ATOM      6  C   UNL A   1      31.257  27.002  25.971  1.00  0.00     0.309 C 
ATOM      7  O   UNL A   1      30.904  26.169  26.796  1.00  0.00    -0.252 OA
BRANCH   6   8
ATOM      8  C   UNL A   1      31.826  26.595  24.613  1.00  0.00     0.110 C 
ATOM      9  C   UNL A   1      30.816  26.088  23.564  1.00  0.00     0.072 C 
ATOM     10  C   UNL A   1      30.594  24.567  23.544  1.00  0.00     0.012 C 
ATOM     11  C   UNL A   1      31.910  23.799  23.538  1.00  0.00     0.001 C 
ATOM     12  C   UNL A   1      33.075  25.709  24.689  1.00  0.00     0.016 C 
ATOM     13  C   UNL A   1      32.775  24.214  24.720  1.00  0.00     0.001 C 
BRANCH   9  14
ATOM     14  C   UNL A   1      29.557  26.901  23.513  1.00  0.00     0.141 A 
ATOM     15  C   UNL A   1      28.148  31.830  21.358  1.00  0.00     0.044 C 
ATOM     16  C   UNL A   1      28.471  30.487  21.900  1.00  0.00    -0.046 A 
ATOM     17  C   UNL A   1      29.861  30.117  21.730  1.00  0.00     0.022 A 
ATOM     18  C   UNL A   1      27.594  29.672  22.523  1.00  0.00     0.053 A 
ATOM     19  C   UNL A   1      30.293  28.969  22.258  1.00  0.00     0.095 A 
ATOM     20  C   UNL A   1      28.052  28.437  23.062  1.00  0.00     0.161 A 
ATOM     21  N   UNL A   1      29.399  28.134  22.916  1.00  0.00    -0.286 N 
ATOM     22  N   UNL A   1      27.453  27.472  23.721  1.00  0.00    -0.130 NA
ATOM     23  N   UNL A   1      28.395  26.512  24.005  1.00  0.00    -0.134 NA
ENDBRANCH   9  14
ENDBRANCH   6   8
ENDBRANCH   5   6
ENDBRANCH   4   5
ENDBRANCH   3   4
ENDBRANCH   2   3
ENDBRANCH   1   2
BRANCH   1  24
ATOM     24  C   UNL A   1      33.971  31.943  28.239  1.00  0.00     0.261 C 
BRANCH  24  25
ATOM     25  O   UNL A   1      35.107  31.474  28.982  1.00  0.00    -0.460 OA
BRANCH  25  26
ATOM     26  C   UNL A   1      36.287  32.061  28.648  1.00  0.00     0.338 C 
ATOM     27  O   UNL A   1      36.470  33.206  28.278  1.00  0.00    -0.246 OA
BRANCH  26  28
ATOM     28  C   UNL A   1      37.326  31.184  29.217  1.00  0.00     0.060 A 
ATOM     29  C   UNL A   1      38.583  31.684  29.563  1.00  0.00     0.016 A 
ATOM     30  C   UNL A   1      37.100  29.805  29.103  1.00  0.00     0.016 A 
ATOM     31  C   UNL A   1      39.640  30.793  29.711  1.00  0.00     0.010 A 
ATOM     32  C   UNL A   1      38.171  28.926  29.199  1.00  0.00     0.010 A 
ATOM     33  C   UNL A   1      39.452  29.425  29.456  1.00  0.00    -0.014 A 
BRANCH  33  34
ATOM     34  C   UNL A   1      40.599  28.518  29.586  1.00  0.00     0.031 A 
ATOM     35  C   UNL A   1      41.099  28.322  30.976  1.00  0.00     0.074 A 
ATOM     36  C   UNL A   1      41.073  27.729  28.598  1.00  0.00     0.049 A 
ATOM     37  N   UNL A   1      42.315  28.393  31.412  1.00  0.00    -0.248 NA
ATOM     38  C   UNL A   1      40.098  28.046  32.019  1.00  0.00     0.031 C 
ATOM     39  C   UNL A   1      40.492  27.511  27.272  1.00  0.00     0.029 A 
ATOM     40  N   UNL A   1      42.102  26.824  28.635  1.00  0.00    -0.354 N 
ATOM     41  C   UNL A   1      42.258  28.050  32.761  1.00  0.00     0.074 A 
ATOM     42  C   UNL A   1      40.862  27.940  33.103  1.00  0.00     0.031 C 
ATOM     43  C   UNL A   1      40.999  26.371  26.748  1.00  0.00     0.029 A 
ATOM     44  C   UNL A   1      42.017  25.850  27.646  1.00  0.00     0.049 A 
ATOM     45  H   UNL A   1      42.831  26.861  29.295  1.00  0.00     0.167 HD
ATOM     46  C   UNL A   1      43.357  27.732  33.499  1.00  0.00     0.031 A 
ATOM     47  C   UNL A   1      42.644  24.646  27.625  1.00  0.00     0.031 A 
ATOM     48  C   UNL A   1      44.584  28.146  32.883  1.00  0.00     0.049 A 
ATOM     49  C   UNL A   1      43.747  24.648  28.608  1.00  0.00     0.074 A 
ATOM     50  C   UNL A   1      45.108  29.364  32.501  1.00  0.00     0.029 A 
ATOM     51  N   UNL A   1      45.388  27.203  32.290  1.00  0.00    -0.354 N 
ATOM     52  N   UNL A   1      44.874  25.271  28.446  1.00  0.00    -0.248 NA
ATOM     53  C   UNL A   1      43.442  24.257  29.973  1.00  0.00     0.031 C 
ATOM     54  C   UNL A   1      45.863  29.090  31.326  1.00  0.00     0.029 A 
ATOM     55  C   UNL A   1      45.774  27.719  31.074  1.00  0.00     0.049 A 
ATOM     56  H   UNL A   1      45.640  26.327  32.664  1.00  0.00     0.167 HD
ATOM     57  C   UNL A   1      45.191  25.763  29.700  1.00  0.00     0.074 A 
ATOM     58  C   UNL A   1      44.333  25.010  30.618  1.00  0.00     0.031 C 
ATOM     59  C   UNL A   1      45.903  26.923  29.861  1.00  0.00     0.031 A 
BRANCH  46  60
ATOM     60  C   UNL A   1      43.314  26.816  34.691  1.00  0.00    -0.014 A 
ATOM     61  C   UNL A   1      43.123  27.294  36.002  1.00  0.00     0.009 A 
ATOM     62  C   UNL A   1      43.234  25.428  34.500  1.00  0.00     0.009 A 
ATOM     63  C   UNL A   1      42.887  26.432  37.076  1.00  0.00     0.001 A 
ATOM     64  C   UNL A   1      42.955  24.565  35.567  1.00  0.00     0.001 A 
ATOM     65  C   UNL A   1      42.784  25.066  36.854  1.00  0.00     0.000 A 
ENDBRANCH  46  60
BRANCH  47  66
ATOM     66  C   UNL A   1      42.136  23.366  27.088  1.00  0.00    -0.014 A 
ATOM     67  C   UNL A   1      40.834  22.946  27.411  1.00  0.00     0.009 A 
ATOM     68  C   UNL A   1      43.014  22.423  26.533  1.00  0.00     0.009 A 
ATOM     69  C   UNL A   1      40.435  21.620  27.230  1.00  0.00     0.001 A 
ATOM     70  C   UNL A   1      42.615  21.092  26.350  1.00  0.00     0.001 A 
ATOM     71  C   UNL A   1      41.331  20.689  26.715  1.00  0.00     0.000 A 
ENDBRANCH  47  66
BRANCH  59  72
ATOM     72  C   UNL A   1      46.591  27.562  28.649  1.00  0.00    -0.014 A 
ATOM     73  C   UNL A   1      47.961  27.318  28.435  1.00  0.00     0.009 A 
ATOM     74  C   UNL A   1      45.986  28.509  27.796  1.00  0.00     0.009 A 
ATOM     75  C   UNL A   1      48.693  28.016  27.463  1.00  0.00     0.001 A 
ATOM     76  C   UNL A   1      46.704  29.178  26.792  1.00  0.00     0.001 A 
ATOM     77  C   UNL A   1      48.065  28.945  26.639  1.00  0.00     0.000 A 
ENDBRANCH  59  72
ENDBRANCH  33  34
ENDBRANCH  26  28
ENDBRANCH  25  26
ENDBRANCH  24  25
ENDBRANCH   1  24
TORSDOF 15
ENDMDL
MODEL 3
REMARK VINA RESULT:     -11.1      2.996      7.391
REMARK SMILES Cc1ccn2c([C@@H]3CCCC[C@@H]3C(=O)OCCOCCOC(=O)c3ccc(-c4c5nc(c(-c6ccccc6)c6ccc([nH]6)c(-c6ccccc6)c6nc(c(-c7ccccc7)c7ccc4[nH]7)C=C6)C=C5)cc3)nnc2c1
REMARK SMILES IDX 19 1 18 2 17 3 16 4 15 5 13 6 14 7 12 8 7 9 8 10 9 11 11 12
REMARK SMILES IDX 10 13 6 14 1 15 2 16 3 17 75 18 4 19 74 20 5 21 73 22 72 23
REMARK SMILES IDX 20 24 21 25 22 26 23 27 24 28 25 29 71 30 26 31 70 32 27 33
REMARK SMILES IDX 28 34 29 35 64 36 30 37 69 38 63 39 65 40 31 41 68 42 62 43
REMARK SMILES IDX 61 44 32 46 54 47 39 48 53 49 40 50 43 51 52 52 66 53 41 54
REMARK SMILES IDX 42 55 51 57 67 58 44 59 33 60 34 61 38 62 35 63 37 64 36 65
REMARK SMILES IDX 55 66 56 67 60 68 57 69 59 70 58 71 45 72 46 73 50 74 47 75
REMARK SMILES IDX 49 76 48 77
REMARK H PARENT 65 45 43 56
REMARK Flexibility Score: inf
ROOT
ATOM      1  C   UNL A   1      37.329  22.832  25.480  1.00  0.00     0.202 C 
ENDROOT
BRANCH   1   2
ATOM      2  O   UNL A   1      35.988  22.432  25.758  1.00  0.00    -0.374 OA
BRANCH   2   3
ATOM      3  C   UNL A   1      35.069  23.444  26.137  1.00  0.00     0.202 C 
BRANCH   3   4
ATOM      4  C   UNL A   1      34.838  24.632  25.194  1.00  0.00     0.261 C 
BRANCH   4   5
ATOM      5  O   UNL A   1      33.970  25.670  25.703  1.00  0.00    -0.463 OA
BRANCH   5   6
ATOM      6  C   UNL A   1      33.233  26.315  24.754  1.00  0.00     0.309 C 
ATOM      7  O   UNL A   1      33.581  26.436  23.585  1.00  0.00    -0.252 OA
BRANCH   6   8
ATOM      8  C   UNL A   1      31.929  26.920  25.270  1.00  0.00     0.110 C 
ATOM      9  C   UNL A   1      30.700  25.989  25.302  1.00  0.00     0.072 C 
ATOM     10  C   UNL A   1      29.817  26.019  24.044  1.00  0.00     0.012 C 
ATOM     11  C   UNL A   1      29.487  27.442  23.613  1.00  0.00     0.001 C 
ATOM     12  C   UNL A   1      31.595  28.298  24.686  1.00  0.00     0.016 C 
ATOM     13  C   UNL A   1      30.763  28.247  23.409  1.00  0.00     0.001 C 
BRANCH   9  14
ATOM     14  C   UNL A   1      31.013  24.614  25.810  1.00  0.00     0.141 A 
ATOM     15  C   UNL A   1      32.544  19.810  23.461  1.00  0.00     0.044 C 
ATOM     16  C   UNL A   1      32.189  21.087  24.130  1.00  0.00    -0.046 A 
ATOM     17  C   UNL A   1      31.953  22.175  23.205  1.00  0.00     0.022 A 
ATOM     18  C   UNL A   1      32.059  21.252  25.463  1.00  0.00     0.053 A 
ATOM     19  C   UNL A   1      31.538  23.351  23.683  1.00  0.00     0.095 A 
ATOM     20  C   UNL A   1      31.642  22.514  25.972  1.00  0.00     0.161 A 
ATOM     21  N   UNL A   1      31.385  23.523  25.053  1.00  0.00    -0.286 N 
ATOM     22  N   UNL A   1      31.414  22.958  27.187  1.00  0.00    -0.130 NA
ATOM     23  N   UNL A   1      31.019  24.271  27.085  1.00  0.00    -0.134 NA
ENDBRANCH   9  14
ENDBRANCH   6   8
ENDBRANCH   5   6
ENDBRANCH   4   5
ENDBRANCH   3   4
ENDBRANCH   2   3
ENDBRANCH   1   2
BRANCH   1  24
ATOM     24  C   UNL A   1      38.456  21.822  25.756  1.00  0.00     0.261 C 
BRANCH  24  25
ATOM     25  O   UNL A   1      39.723  22.478  25.915  1.00  0.00    -0.460 OA
BRANCH  25  26
ATOM     26  C   UNL A   1      40.214  22.468  27.183  1.00  0.00     0.338 C 
ATOM     27  O   UNL A   1      40.610  21.509  27.819  1.00  0.00    -0.246 OA
BRANCH  26  28
ATOM     28  C   UNL A   1      40.560  23.871  27.472  1.00  0.00     0.060 A 
ATOM     29  C   UNL A   1      41.705  24.196  28.203  1.00  0.00     0.016 A 
ATOM     30  C   UNL A   1      39.548  24.815  27.252  1.00  0.00     0.016 A 
ATOM     31  C   UNL A   1      41.790  25.454  28.788  1.00  0.00     0.010 A 
ATOM     32  C   UNL A   1      39.615  26.050  27.884  1.00  0.00     0.010 A 
ATOM     33  C   UNL A   1      40.714  26.353  28.692  1.00  0.00    -0.014 A 
BRANCH  33  34
ATOM     34  C   UNL A   1      40.823  27.658  29.354  1.00  0.00     0.031 A 
ATOM     35  C   UNL A   1      41.751  28.626  28.702  1.00  0.00     0.074 A 
ATOM     36  C   UNL A   1      40.017  28.087  30.350  1.00  0.00     0.049 A 
ATOM     37  N   UNL A   1      42.687  29.334  29.245  1.00  0.00    -0.248 NA
ATOM     38  C   UNL A   1      41.635  28.790  27.244  1.00  0.00     0.031 C 
ATOM     39  C   UNL A   1      38.822  27.428  30.878  1.00  0.00     0.029 A 
ATOM     40  N   UNL A   1      40.013  29.296  30.996  1.00  0.00    -0.354 N 
ATOM     41  C   UNL A   1      43.203  30.131  28.225  1.00  0.00     0.074 A 
ATOM     42  C   UNL A   1      42.587  29.688  27.000  1.00  0.00     0.031 C 
ATOM     43  C   UNL A   1      38.075  28.336  31.547  1.00  0.00     0.029 A 
ATOM     44  C   UNL A   1      38.793  29.600  31.591  1.00  0.00     0.049 A 
ATOM     45  H   UNL A   1      40.796  29.890  31.036  1.00  0.00     0.167 HD
ATOM     46  C   UNL A   1      44.002  31.210  28.450  1.00  0.00     0.031 A 
ATOM     47  C   UNL A   1      38.353  30.822  31.982  1.00  0.00     0.031 A 
ATOM     48  C   UNL A   1      44.567  31.223  29.769  1.00  0.00     0.049 A 
ATOM     49  C   UNL A   1      39.495  31.757  32.052  1.00  0.00     0.074 A 
ATOM     50  C   UNL A   1      45.398  30.374  30.471  1.00  0.00     0.029 A 
ATOM     51  N   UNL A   1      44.062  32.093  30.705  1.00  0.00    -0.354 N 
ATOM     52  N   UNL A   1      40.395  31.749  32.988  1.00  0.00    -0.248 NA
ATOM     53  C   UNL A   1      39.858  32.478  30.845  1.00  0.00     0.031 C 
ATOM     54  C   UNL A   1      44.960  30.462  31.823  1.00  0.00     0.029 A 
ATOM     55  C   UNL A   1      43.904  31.375  31.869  1.00  0.00     0.049 A 
ATOM     56  H   UNL A   1      43.853  33.046  30.570  1.00  0.00     0.167 HD
ATOM     57  C   UNL A   1      41.583  32.040  32.340  1.00  0.00     0.074 A 
ATOM     58  C   UNL A   1      41.172  32.590  31.047  1.00  0.00     0.031 C 
ATOM     59  C   UNL A   1      42.785  31.551  32.783  1.00  0.00     0.031 A 
BRANCH  46  60
ATOM     60  C   UNL A   1      44.075  32.390  27.523  1.00  0.00    -0.014 A 
ATOM     61  C   UNL A   1      44.295  32.250  26.139  1.00  0.00     0.009 A 
ATOM     62  C   UNL A   1      43.695  33.661  27.982  1.00  0.00     0.009 A 
ATOM     63  C   UNL A   1      44.167  33.325  25.256  1.00  0.00     0.001 A 
ATOM     64  C   UNL A   1      43.523  34.731  27.094  1.00  0.00     0.001 A 
ATOM     65  C   UNL A   1      43.761  34.563  25.733  1.00  0.00     0.000 A 
ENDBRANCH  46  60
BRANCH  47  66
ATOM     66  C   UNL A   1      36.971  31.347  31.944  1.00  0.00    -0.014 A 
ATOM     67  C   UNL A   1      36.329  31.517  30.705  1.00  0.00     0.009 A 
ATOM     68  C   UNL A   1      36.409  31.966  33.070  1.00  0.00     0.009 A 
ATOM     69  C   UNL A   1      35.189  32.316  30.586  1.00  0.00     0.001 A 
ATOM     70  C   UNL A   1      35.265  32.767  32.951  1.00  0.00     0.001 A 
ATOM     71  C   UNL A   1      34.667  32.955  31.706  1.00  0.00     0.000 A 
ENDBRANCH  47  66
BRANCH  59  72
ATOM     72  C   UNL A   1      42.867  30.885  34.161  1.00  0.00    -0.014 A 
ATOM     73  C   UNL A   1      43.403  31.613  35.240  1.00  0.00     0.009 A 
ATOM     74  C   UNL A   1      42.579  29.526  34.410  1.00  0.00     0.009 A 
ATOM     75  C   UNL A   1      43.682  31.009  36.475  1.00  0.00     0.001 A 
ATOM     76  C   UNL A   1      42.815  28.927  35.657  1.00  0.00     0.001 A 
ATOM     77  C   UNL A   1      43.387  29.665  36.685  1.00  0.00     0.000 A 
ENDBRANCH  59  72
ENDBRANCH  33  34
ENDBRANCH  26  28
ENDBRANCH  25  26
ENDBRANCH  24  25
ENDBRANCH   1  24
TORSDOF 15
ENDMDL
