MODEL 1
REMARK VINA RESULT:     -10.2      0.000      0.000
REMARK SMILES NC(=O)c1ccc(N(CC(=O)OCCOCCOC(=O)c2ccc(-c3c4nc(c(-c5ccccc5)c5ccc([nH]5)c(-c5ccccc5)c5nc(c(-c6ccccc6)c6ccc3[nH]6)C=C5)C=C4)cc2)C2CCCC2)nn1
REMARK SMILES IDX 14 1 13 2 12 3 10 4 11 5 9 6 8 7 7 8 4 9 5 10 75 11 6 12
REMARK SMILES IDX 74 13 2 14 1 15 3 18 69 19 70 20 73 21 71 22 72 23 15 24
REMARK SMILES IDX 16 25 17 26 18 27 19 28 20 29 21 30 22 31 68 32 23 33 67 34
REMARK SMILES IDX 24 35 25 36 26 37 61 38 27 39 66 40 60 41 62 42 28 43 65 44
REMARK SMILES IDX 59 45 58 46 29 48 51 49 36 50 50 51 37 52 40 53 49 54 63 55
REMARK SMILES IDX 38 56 39 57 48 59 64 60 41 61 30 62 31 63 35 64 32 65 34 66
REMARK SMILES IDX 33 67 52 68 53 69 57 70 54 71 56 72 55 73 42 74 43 75 47 76
REMARK SMILES IDX 44 77 46 78 45 79
REMARK H PARENT 1 16 1 17 62 47 40 58
REMARK Flexibility Score: inf
ROOT
ATOM      1  C   UNL A   1      31.812  29.623  27.153  1.00  0.00     0.202 C 
ENDROOT
BRANCH   1   2
ATOM      2  C   UNL A   1      32.053  28.121  26.958  1.00  0.00     0.261 C 
BRANCH   2   3
ATOM      3  O   UNL A   1      33.153  27.827  26.076  1.00  0.00    -0.462 OA
BRANCH   3   4
ATOM      4  C   UNL A   1      33.099  26.601  25.476  1.00  0.00     0.325 C 
ATOM      5  O   UNL A   1      32.942  25.545  26.084  1.00  0.00    -0.250 OA
BRANCH   4   6
ATOM      6  C   UNL A   1      33.062  26.648  23.952  1.00  0.00     0.241 C 
BRANCH   6   7
ATOM      7  N   UNL A   1      31.846  26.126  23.280  1.00  0.00    -0.341 N 
BRANCH   7   8
ATOM      8  C   UNL A   1      30.840  27.057  23.093  1.00  0.00     0.152 A 
ATOM      9  C   UNL A   1      28.895  28.976  22.627  1.00  0.00     0.150 A 
ATOM     10  C   UNL A   1      28.579  27.888  23.413  1.00  0.00     0.040 A 
ATOM     11  N   UNL A   1      30.111  29.107  22.072  1.00  0.00    -0.143 NA
ATOM     12  C   UNL A   1      29.563  26.922  23.630  1.00  0.00     0.051 A 
ATOM     13  N   UNL A   1      31.079  28.142  22.320  1.00  0.00    -0.132 NA
BRANCH   9  14
ATOM     14  C   UNL A   1      27.903  30.050  22.368  1.00  0.00     0.269 C 
ATOM     15  N   UNL A   1      27.653  30.348  21.050  1.00  0.00    -0.364 N 
ATOM     16  H   UNL A   1      27.005  31.052  20.818  1.00  0.00     0.160 HD
ATOM     17  H   UNL A   1      28.122  29.857  20.337  1.00  0.00     0.160 HD
ATOM     18  O   UNL A   1      27.329  30.651  23.265  1.00  0.00    -0.268 OA
ENDBRANCH   9  14
ENDBRANCH   7   8
BRANCH   7  19
ATOM     19  C   UNL A   1      31.944  24.796  22.684  1.00  0.00     0.084 C 
ATOM     20  C   UNL A   1      33.347  24.237  22.485  1.00  0.00     0.025 C 
ATOM     21  C   UNL A   1      31.174  23.717  23.444  1.00  0.00     0.025 C 
ATOM     22  C   UNL A   1      33.089  22.757  22.244  1.00  0.00     0.002 C 
ATOM     23  C   UNL A   1      31.898  22.406  23.133  1.00  0.00     0.002 C 
ENDBRANCH   7  19
ENDBRANCH   6   7
ENDBRANCH   4   6
ENDBRANCH   3   4
ENDBRANCH   2   3
ENDBRANCH   1   2
BRANCH   1  24
ATOM     24  O   UNL A   1      31.674  30.399  25.962  1.00  0.00    -0.374 OA
BRANCH  24  25
ATOM     25  C   UNL A   1      31.354  31.782  26.122  1.00  0.00     0.202 C 
BRANCH  25  26
ATOM     26  C   UNL A   1      31.841  32.425  27.426  1.00  0.00     0.261 C 
BRANCH  26  27
ATOM     27  O   UNL A   1      32.431  33.717  27.183  1.00  0.00    -0.460 OA
BRANCH  27  28
ATOM     28  C   UNL A   1      33.095  34.230  28.241  1.00  0.00     0.338 C 
ATOM     29  O   UNL A   1      32.701  35.104  29.007  1.00  0.00    -0.246 OA
BRANCH  28  30
ATOM     30  C   UNL A   1      34.336  33.475  28.481  1.00  0.00     0.060 A 
ATOM     31  C   UNL A   1      34.222  32.197  29.041  1.00  0.00     0.016 A 
ATOM     32  C   UNL A   1      35.592  34.051  28.281  1.00  0.00     0.016 A 
ATOM     33  C   UNL A   1      35.365  31.514  29.457  1.00  0.00     0.010 A 
ATOM     34  C   UNL A   1      36.740  33.361  28.698  1.00  0.00     0.010 A 
ATOM     35  C   UNL A   1      36.630  32.107  29.327  1.00  0.00    -0.014 A 
BRANCH  35  36
ATOM     36  C   UNL A   1      37.802  31.463  29.974  1.00  0.00     0.031 A 
ATOM     37  C   UNL A   1      38.122  31.775  31.413  1.00  0.00     0.074 A 
ATOM     38  C   UNL A   1      38.543  30.555  29.312  1.00  0.00     0.049 A 
ATOM     39  N   UNL A   1      39.039  31.255  32.189  1.00  0.00    -0.248 NA
ATOM     40  C   UNL A   1      37.297  32.805  32.064  1.00  0.00     0.031 C 
ATOM     41  C   UNL A   1      38.335  30.142  27.927  1.00  0.00     0.029 A 
ATOM     42  N   UNL A   1      39.615  29.806  29.732  1.00  0.00    -0.354 N 
ATOM     43  C   UNL A   1      38.899  31.887  33.419  1.00  0.00     0.074 A 
ATOM     44  C   UNL A   1      37.832  32.856  33.275  1.00  0.00     0.031 C 
ATOM     45  C   UNL A   1      39.243  29.202  27.612  1.00  0.00     0.029 A 
ATOM     46  C   UNL A   1      40.105  28.961  28.768  1.00  0.00     0.049 A 
ATOM     47  H   UNL A   1      39.995  29.869  30.638  1.00  0.00     0.167 HD
ATOM     48  C   UNL A   1      39.581  31.674  34.570  1.00  0.00     0.031 A 
ATOM     49  C   UNL A   1      41.130  28.087  28.810  1.00  0.00     0.031 A 
ATOM     50  C   UNL A   1      40.649  30.724  34.725  1.00  0.00     0.049 A 
ATOM     51  C   UNL A   1      41.912  27.911  30.084  1.00  0.00     0.074 A 
ATOM     52  C   UNL A   1      41.380  30.425  35.863  1.00  0.00     0.029 A 
ATOM     53  N   UNL A   1      41.145  29.923  33.710  1.00  0.00    -0.354 N 
ATOM     54  N   UNL A   1      41.734  28.482  31.250  1.00  0.00    -0.248 NA
ATOM     55  C   UNL A   1      43.031  26.957  30.047  1.00  0.00     0.031 C 
ATOM     56  C   UNL A   1      42.351  29.477  35.523  1.00  0.00     0.029 A 
ATOM     57  C   UNL A   1      42.192  29.151  34.186  1.00  0.00     0.049 A 
ATOM     58  H   UNL A   1      40.804  29.905  32.786  1.00  0.00     0.167 HD
ATOM     59  C   UNL A   1      42.700  27.941  32.089  1.00  0.00     0.074 A 
ATOM     60  C   UNL A   1      43.452  26.985  31.303  1.00  0.00     0.031 C 
ATOM     61  C   UNL A   1      42.940  28.211  33.395  1.00  0.00     0.031 A 
BRANCH  48  62
ATOM     62  C   UNL A   1      39.200  32.510  35.759  1.00  0.00    -0.014 A 
ATOM     63  C   UNL A   1      38.132  32.139  36.592  1.00  0.00     0.009 A 
ATOM     64  C   UNL A   1      39.941  33.659  36.073  1.00  0.00     0.009 A 
ATOM     65  C   UNL A   1      37.797  32.921  37.700  1.00  0.00     0.001 A 
ATOM     66  C   UNL A   1      39.619  34.425  37.193  1.00  0.00     0.001 A 
ATOM     67  C   UNL A   1      38.541  34.061  38.001  1.00  0.00     0.000 A 
ENDBRANCH  48  62
BRANCH  49  68
ATOM     68  C   UNL A   1      41.484  27.302  27.600  1.00  0.00    -0.014 A 
ATOM     69  C   UNL A   1      40.932  26.029  27.387  1.00  0.00     0.009 A 
ATOM     70  C   UNL A   1      42.393  27.815  26.663  1.00  0.00     0.009 A 
ATOM     71  C   UNL A   1      41.300  25.279  26.268  1.00  0.00     0.001 A 
ATOM     72  C   UNL A   1      42.741  27.072  25.533  1.00  0.00     0.001 A 
ATOM     73  C   UNL A   1      42.201  25.802  25.340  1.00  0.00     0.000 A 
ENDBRANCH  49  68
BRANCH  61  74
ATOM     74  C   UNL A   1      44.049  27.448  34.063  1.00  0.00    -0.014 A 
ATOM     75  C   UNL A   1      45.342  27.986  34.163  1.00  0.00     0.009 A 
ATOM     76  C   UNL A   1      43.790  26.189  34.627  1.00  0.00     0.009 A 
ATOM     77  C   UNL A   1      46.361  27.263  34.788  1.00  0.00     0.001 A 
ATOM     78  C   UNL A   1      44.804  25.480  35.272  1.00  0.00     0.001 A 
ATOM     79  C   UNL A   1      46.090  26.012  35.343  1.00  0.00     0.000 A 
ENDBRANCH  61  74
ENDBRANCH  35  36
ENDBRANCH  28  30
ENDBRANCH  27  28
ENDBRANCH  26  27
ENDBRANCH  25  26
ENDBRANCH  24  25
ENDBRANCH   1  24
TORSDOF 18
ENDMDL
MODEL 2
REMARK VINA RESULT:     -10.2      2.432      4.265
REMARK SMILES NC(=O)c1ccc(N(CC(=O)OCCOCCOC(=O)c2ccc(-c3c4nc(c(-c5ccccc5)c5ccc([nH]5)c(-c5ccccc5)c5nc(c(-c6ccccc6)c6ccc3[nH]6)C=C5)C=C4)cc2)C2CCCC2)nn1
REMARK SMILES IDX 14 1 13 2 12 3 10 4 11 5 9 6 8 7 7 8 4 9 5 10 75 11 6 12
REMARK SMILES IDX 74 13 2 14 1 15 3 18 69 19 70 20 73 21 71 22 72 23 15 24
REMARK SMILES IDX 16 25 17 26 18 27 19 28 20 29 21 30 22 31 68 32 23 33 67 34
REMARK SMILES IDX 24 35 25 36 26 37 61 38 27 39 66 40 60 41 62 42 28 43 65 44
REMARK SMILES IDX 59 45 58 46 29 48 51 49 36 50 50 51 37 52 40 53 49 54 63 55
REMARK SMILES IDX 38 56 39 57 48 59 64 60 41 61 30 62 31 63 35 64 32 65 34 66
REMARK SMILES IDX 33 67 52 68 53 69 57 70 54 71 56 72 55 73 42 74 43 75 47 76
REMARK SMILES IDX 44 77 46 78 45 79
REMARK H PARENT 1 16 1 17 62 47 40 58
REMARK Flexibility Score: inf
ROOT
ATOM      1  C   UNL A   1      31.572  27.363  26.833  1.00  0.00     0.202 C 
ENDROOT
BRANCH   1   2
ATOM      2  C   UNL A   1      31.039  26.116  26.116  1.00  0.00     0.261 C 
BRANCH   2   3
ATOM      3  O   UNL A   1      31.032  24.937  26.945  1.00  0.00    -0.462 OA
BRANCH   3   4
ATOM      4  C   UNL A   1      31.447  23.794  26.325  1.00  0.00     0.325 C 
ATOM      5  O   UNL A   1      30.705  22.855  26.047  1.00  0.00    -0.250 OA
BRANCH   4   6
ATOM      6  C   UNL A   1      32.887  23.838  25.823  1.00  0.00     0.241 C 
BRANCH   6   7
ATOM      7  N   UNL A   1      33.154  23.305  24.463  1.00  0.00    -0.341 N 
BRANCH   7   8
ATOM      8  C   UNL A   1      33.246  21.927  24.386  1.00  0.00     0.152 A 
ATOM      9  C   UNL A   1      33.506  19.168  24.331  1.00  0.00     0.150 A 
ATOM     10  C   UNL A   1      32.521  19.757  23.567  1.00  0.00     0.040 A 
ATOM     11  N   UNL A   1      34.317  19.902  25.111  1.00  0.00    -0.143 NA
ATOM     12  C   UNL A   1      32.392  21.146  23.613  1.00  0.00     0.051 A 
ATOM     13  N   UNL A   1      34.181  21.285  25.123  1.00  0.00    -0.132 NA
BRANCH   9  14
ATOM     14  C   UNL A   1      33.712  17.698  24.319  1.00  0.00     0.269 C 
ATOM     15  N   UNL A   1      33.765  17.076  25.543  1.00  0.00    -0.364 N 
ATOM     16  H   UNL A   1      33.901  16.102  25.596  1.00  0.00     0.160 HD
ATOM     17  H   UNL A   1      33.669  17.604  26.368  1.00  0.00     0.160 HD
ATOM     18  O   UNL A   1      33.831  17.055  23.285  1.00  0.00    -0.268 OA
ENDBRANCH   9  14
ENDBRANCH   7   8
BRANCH   7  19
ATOM     19  C   UNL A   1      33.040  24.249  23.354  1.00  0.00     0.084 C 
ATOM     20  C   UNL A   1      31.636  24.519  22.828  1.00  0.00     0.025 C 
ATOM     21  C   UNL A   1      33.644  25.623  23.643  1.00  0.00     0.025 C 
ATOM     22  C   UNL A   1      31.824  25.785  22.003  1.00  0.00     0.002 C 
ATOM     23  C   UNL A   1      32.877  26.599  22.750  1.00  0.00     0.002 C 
ENDBRANCH   7  19
ENDBRANCH   6   7
ENDBRANCH   4   6
ENDBRANCH   3   4
ENDBRANCH   2   3
ENDBRANCH   1   2
BRANCH   1  24
ATOM     24  O   UNL A   1      32.367  28.251  26.048  1.00  0.00    -0.374 OA
BRANCH  24  25
ATOM     25  C   UNL A   1      31.684  29.305  25.367  1.00  0.00     0.202 C 
BRANCH  25  26
ATOM     26  C   UNL A   1      31.759  30.681  26.037  1.00  0.00     0.261 C 
BRANCH  26  27
ATOM     27  O   UNL A   1      32.552  30.635  27.238  1.00  0.00    -0.460 OA
BRANCH  27  28
ATOM     28  C   UNL A   1      33.325  31.725  27.434  1.00  0.00     0.338 C 
ATOM     29  O   UNL A   1      32.954  32.893  27.484  1.00  0.00    -0.246 OA
BRANCH  28  30
ATOM     30  C   UNL A   1      34.704  31.323  27.758  1.00  0.00     0.060 A 
ATOM     31  C   UNL A   1      34.951  29.962  27.974  1.00  0.00     0.016 A 
ATOM     32  C   UNL A   1      35.710  32.267  27.972  1.00  0.00     0.016 A 
ATOM     33  C   UNL A   1      36.191  29.547  28.461  1.00  0.00     0.010 A 
ATOM     34  C   UNL A   1      36.956  31.847  28.459  1.00  0.00     0.010 A 
ATOM     35  C   UNL A   1      37.190  30.490  28.746  1.00  0.00    -0.014 A 
BRANCH  35  36
ATOM     36  C   UNL A   1      38.414  30.053  29.467  1.00  0.00     0.031 A 
ATOM     37  C   UNL A   1      38.596  30.425  30.915  1.00  0.00     0.074 A 
ATOM     38  C   UNL A   1      39.329  29.274  28.862  1.00  0.00     0.049 A 
ATOM     39  N   UNL A   1      39.541  30.070  31.749  1.00  0.00    -0.248 NA
ATOM     40  C   UNL A   1      37.577  31.311  31.503  1.00  0.00     0.031 C 
ATOM     41  C   UNL A   1      39.271  28.822  27.475  1.00  0.00     0.029 A 
ATOM     42  N   UNL A   1      40.484  28.716  29.353  1.00  0.00    -0.354 N 
ATOM     43  C   UNL A   1      39.229  30.680  32.958  1.00  0.00     0.074 A 
ATOM     44  C   UNL A   1      38.028  31.459  32.740  1.00  0.00     0.031 C 
ATOM     45  C   UNL A   1      40.338  28.042  27.226  1.00  0.00     0.029 A 
ATOM     46  C   UNL A   1      41.161  27.955  28.432  1.00  0.00     0.049 A 
ATOM     47  H   UNL A   1      40.797  28.848  30.277  1.00  0.00     0.167 HD
ATOM     48  C   UNL A   1      39.871  30.592  34.148  1.00  0.00     0.031 A 
ATOM     49  C   UNL A   1      42.311  27.263  28.544  1.00  0.00     0.031 A 
ATOM     50  C   UNL A   1      41.070  29.832  34.378  1.00  0.00     0.049 A 
ATOM     51  C   UNL A   1      43.038  27.229  29.862  1.00  0.00     0.074 A 
ATOM     52  C   UNL A   1      41.775  29.667  35.559  1.00  0.00     0.029 A 
ATOM     53  N   UNL A   1      41.748  29.116  33.405  1.00  0.00    -0.354 N 
ATOM     54  N   UNL A   1      42.703  27.772  31.007  1.00  0.00    -0.248 NA
ATOM     55  C   UNL A   1      44.299  26.472  29.902  1.00  0.00     0.031 C 
ATOM     56  C   UNL A   1      42.906  28.890  35.289  1.00  0.00     0.029 A 
ATOM     57  C   UNL A   1      42.878  28.531  33.951  1.00  0.00     0.049 A 
ATOM     58  H   UNL A   1      41.467  29.035  32.465  1.00  0.00     0.167 HD
ATOM     59  C   UNL A   1      43.696  27.404  31.906  1.00  0.00     0.074 A 
ATOM     60  C   UNL A   1      44.638  26.579  31.179  1.00  0.00     0.031 C 
ATOM     61  C   UNL A   1      43.814  27.721  33.218  1.00  0.00     0.031 A 
BRANCH  48  62
ATOM     62  C   UNL A   1      39.291  31.363  35.301  1.00  0.00    -0.014 A 
ATOM     63  C   UNL A   1      38.329  30.787  36.145  1.00  0.00     0.009 A 
ATOM     64  C   UNL A   1      39.742  32.664  35.569  1.00  0.00     0.009 A 
ATOM     65  C   UNL A   1      37.807  31.513  37.218  1.00  0.00     0.001 A 
ATOM     66  C   UNL A   1      39.236  33.379  36.655  1.00  0.00     0.001 A 
ATOM     67  C   UNL A   1      38.262  32.807  37.474  1.00  0.00     0.000 A 
ENDBRANCH  48  62
BRANCH  49  68
ATOM     68  C   UNL A   1      42.857  26.537  27.369  1.00  0.00    -0.014 A 
ATOM     69  C   UNL A   1      42.444  25.227  27.083  1.00  0.00     0.009 A 
ATOM     70  C   UNL A   1      43.810  27.147  26.540  1.00  0.00     0.009 A 
ATOM     71  C   UNL A   1      42.991  24.535  26.001  1.00  0.00     0.001 A 
ATOM     72  C   UNL A   1      44.337  26.461  25.444  1.00  0.00     0.001 A 
ATOM     73  C   UNL A   1      43.934  25.154  25.180  1.00  0.00     0.000 A 
ENDBRANCH  49  68
BRANCH  61  74
ATOM     74  C   UNL A   1      44.994  27.156  33.959  1.00  0.00    -0.014 A 
ATOM     75  C   UNL A   1      46.192  27.880  34.073  1.00  0.00     0.009 A 
ATOM     76  C   UNL A   1      44.896  25.900  34.575  1.00  0.00     0.009 A 
ATOM     77  C   UNL A   1      47.278  27.340  34.765  1.00  0.00     0.001 A 
ATOM     78  C   UNL A   1      45.975  25.374  35.287  1.00  0.00     0.001 A 
ATOM     79  C   UNL A   1      47.168  26.089  35.374  1.00  0.00     0.000 A 
ENDBRANCH  61  74
ENDBRANCH  35  36
ENDBRANCH  28  30
ENDBRANCH  27  28
ENDBRANCH  26  27
ENDBRANCH  25  26
ENDBRANCH  24  25
ENDBRANCH   1  24
TORSDOF 18
ENDMDL
MODEL 3
REMARK VINA RESULT:     -10.1      5.333     10.457
REMARK SMILES NC(=O)c1ccc(N(CC(=O)OCCOCCOC(=O)c2ccc(-c3c4nc(c(-c5ccccc5)c5ccc([nH]5)c(-c5ccccc5)c5nc(c(-c6ccccc6)c6ccc3[nH]6)C=C5)C=C4)cc2)C2CCCC2)nn1
REMARK SMILES IDX 14 1 13 2 12 3 10 4 11 5 9 6 8 7 7 8 4 9 5 10 75 11 6 12
REMARK SMILES IDX 74 13 2 14 1 15 3 18 69 19 70 20 73 21 71 22 72 23 15 24
REMARK SMILES IDX 16 25 17 26 18 27 19 28 20 29 21 30 22 31 68 32 23 33 67 34
REMARK SMILES IDX 24 35 25 36 26 37 61 38 27 39 66 40 60 41 62 42 28 43 65 44
REMARK SMILES IDX 59 45 58 46 29 48 51 49 36 50 50 51 37 52 40 53 49 54 63 55
REMARK SMILES IDX 38 56 39 57 48 59 64 60 41 61 30 62 31 63 35 64 32 65 34 66
REMARK SMILES IDX 33 67 52 68 53 69 57 70 54 71 56 72 55 73 42 74 43 75 47 76
REMARK SMILES IDX 44 77 46 78 45 79
REMARK H PARENT 1 16 1 17 62 47 40 58
REMARK Flexibility Score: inf
ROOT
ATOM      1  C   UNL A   1      37.114  22.164  24.348  1.00  0.00     0.202 C 
ENDROOT
BRANCH   1   2
ATOM      2  C   UNL A   1      36.171  23.293  24.785  1.00  0.00     0.261 C 
BRANCH   2   3
ATOM      3  O   UNL A   1      35.549  23.057  26.064  1.00  0.00    -0.462 OA
BRANCH   3   4
ATOM      4  C   UNL A   1      34.290  23.567  26.195  1.00  0.00     0.325 C 
ATOM      5  O   UNL A   1      34.020  24.763  26.117  1.00  0.00    -0.250 OA
BRANCH   4   6
ATOM      6  C   UNL A   1      33.189  22.513  26.264  1.00  0.00     0.241 C 
BRANCH   6   7
ATOM      7  N   UNL A   1      32.825  21.820  25.003  1.00  0.00    -0.341 N 
BRANCH   7   8
ATOM      8  C   UNL A   1      33.141  20.473  24.968  1.00  0.00     0.152 A 
ATOM      9  C   UNL A   1      33.653  17.750  24.911  1.00  0.00     0.150 A 
ATOM     10  C   UNL A   1      34.657  18.620  24.546  1.00  0.00     0.040 A 
ATOM     11  N   UNL A   1      32.437  18.195  25.268  1.00  0.00    -0.143 NA
ATOM     12  C   UNL A   1      34.384  19.989  24.567  1.00  0.00     0.051 A 
ATOM     13  N   UNL A   1      32.196  19.564  25.300  1.00  0.00    -0.132 NA
BRANCH   9  14
ATOM     14  C   UNL A   1      33.877  16.282  24.929  1.00  0.00     0.269 C 
ATOM     15  N   UNL A   1      35.017  15.843  25.560  1.00  0.00    -0.364 N 
ATOM     16  H   UNL A   1      35.217  14.881  25.601  1.00  0.00     0.160 HD
ATOM     17  H   UNL A   1      35.633  16.492  25.970  1.00  0.00     0.160 HD
ATOM     18  O   UNL A   1      33.103  15.488  24.413  1.00  0.00    -0.268 OA
ENDBRANCH   9  14
ENDBRANCH   7   8
BRANCH   7  19
ATOM     19  C   UNL A   1      31.973  22.554  24.071  1.00  0.00     0.084 C 
ATOM     20  C   UNL A   1      30.990  23.546  24.680  1.00  0.00     0.025 C 
ATOM     21  C   UNL A   1      32.744  23.336  23.009  1.00  0.00     0.025 C 
ATOM     22  C   UNL A   1      30.576  24.388  23.482  1.00  0.00     0.002 C 
ATOM     23  C   UNL A   1      31.829  24.496  22.614  1.00  0.00     0.002 C 
ENDBRANCH   7  19
ENDBRANCH   6   7
ENDBRANCH   4   6
ENDBRANCH   3   4
ENDBRANCH   2   3
ENDBRANCH   1   2
BRANCH   1  24
ATOM     24  O   UNL A   1      37.513  21.246  25.366  1.00  0.00    -0.374 OA
BRANCH  24  25
ATOM     25  C   UNL A   1      38.895  21.239  25.728  1.00  0.00     0.202 C 
BRANCH  25  26
ATOM     26  C   UNL A   1      39.483  19.862  26.057  1.00  0.00     0.261 C 
BRANCH  26  27
ATOM     27  O   UNL A   1      40.631  19.575  25.237  1.00  0.00    -0.460 OA
BRANCH  27  28
ATOM     28  C   UNL A   1      41.744  19.255  25.932  1.00  0.00     0.338 C 
ATOM     29  O   UNL A   1      42.228  18.138  26.078  1.00  0.00    -0.246 OA
BRANCH  28  30
ATOM     30  C   UNL A   1      42.434  20.476  26.382  1.00  0.00     0.060 A 
ATOM     31  C   UNL A   1      42.227  20.891  27.702  1.00  0.00     0.016 A 
ATOM     32  C   UNL A   1      43.166  21.270  25.497  1.00  0.00     0.016 A 
ATOM     33  C   UNL A   1      42.705  22.132  28.126  1.00  0.00     0.010 A 
ATOM     34  C   UNL A   1      43.647  22.515  25.926  1.00  0.00     0.010 A 
ATOM     35  C   UNL A   1      43.384  22.971  27.230  1.00  0.00    -0.014 A 
BRANCH  35  36
ATOM     36  C   UNL A   1      43.686  24.369  27.635  1.00  0.00     0.031 A 
ATOM     37  C   UNL A   1      45.106  24.869  27.577  1.00  0.00     0.074 A 
ATOM     38  C   UNL A   1      42.700  25.213  27.990  1.00  0.00     0.049 A 
ATOM     39  N   UNL A   1      45.569  26.074  27.799  1.00  0.00    -0.248 NA
ATOM     40  C   UNL A   1      46.139  23.884  27.219  1.00  0.00     0.031 C 
ATOM     41  C   UNL A   1      41.282  24.871  28.070  1.00  0.00     0.029 A 
ATOM     42  N   UNL A   1      42.748  26.541  28.337  1.00  0.00    -0.354 N 
ATOM     43  C   UNL A   1      46.943  25.994  27.601  1.00  0.00     0.074 A 
ATOM     44  C   UNL A   1      47.243  24.614  27.278  1.00  0.00     0.031 C 
ATOM     45  C   UNL A   1      40.590  25.965  28.430  1.00  0.00     0.029 A 
ATOM     46  C   UNL A   1      41.518  27.079  28.622  1.00  0.00     0.049 A 
ATOM     47  H   UNL A   1      43.585  27.057  28.377  1.00  0.00     0.167 HD
ATOM     48  C   UNL A   1      47.872  26.978  27.665  1.00  0.00     0.031 A 
ATOM     49  C   UNL A   1      41.174  28.328  28.993  1.00  0.00     0.031 A 
ATOM     50  C   UNL A   1      47.591  28.349  27.995  1.00  0.00     0.049 A 
ATOM     51  C   UNL A   1      42.233  29.391  29.115  1.00  0.00     0.074 A 
ATOM     52  C   UNL A   1      48.469  29.419  28.059  1.00  0.00     0.029 A 
ATOM     53  N   UNL A   1      46.338  28.840  28.323  1.00  0.00    -0.354 N 
ATOM     54  N   UNL A   1      43.520  29.309  28.877  1.00  0.00    -0.248 NA
ATOM     55  C   UNL A   1      41.786  30.724  29.546  1.00  0.00     0.031 C 
ATOM     56  C   UNL A   1      47.754  30.547  28.473  1.00  0.00     0.029 A 
ATOM     57  C   UNL A   1      46.424  30.191  28.620  1.00  0.00     0.049 A 
ATOM     58  H   UNL A   1      45.510  28.308  28.343  1.00  0.00     0.167 HD
ATOM     59  C   UNL A   1      44.030  30.581  29.106  1.00  0.00     0.074 A 
ATOM     60  C   UNL A   1      42.912  31.420  29.487  1.00  0.00     0.031 C 
ATOM     61  C   UNL A   1      45.310  31.015  29.007  1.00  0.00     0.031 A 
BRANCH  48  62
ATOM     62  C   UNL A   1      49.298  26.595  27.389  1.00  0.00    -0.014 A 
ATOM     63  C   UNL A   1      49.803  26.578  26.079  1.00  0.00     0.009 A 
ATOM     64  C   UNL A   1      50.158  26.287  28.454  1.00  0.00     0.009 A 
ATOM     65  C   UNL A   1      51.134  26.229  25.840  1.00  0.00     0.001 A 
ATOM     66  C   UNL A   1      51.494  25.962  28.214  1.00  0.00     0.001 A 
ATOM     67  C   UNL A   1      51.979  25.925  26.907  1.00  0.00     0.000 A 
ENDBRANCH  48  62
BRANCH  49  68
ATOM     68  C   UNL A   1      39.753  28.652  29.279  1.00  0.00    -0.014 A 
ATOM     69  C   UNL A   1      39.217  28.448  30.560  1.00  0.00     0.009 A 
ATOM     70  C   UNL A   1      38.922  29.148  28.264  1.00  0.00     0.009 A 
ATOM     71  C   UNL A   1      37.870  28.715  30.812  1.00  0.00     0.001 A 
ATOM     72  C   UNL A   1      37.581  29.438  28.525  1.00  0.00     0.001 A 
ATOM     73  C   UNL A   1      37.054  29.214  29.796  1.00  0.00     0.000 A 
ENDBRANCH  49  68
BRANCH  61  74
ATOM     74  C   UNL A   1      45.568  32.466  29.295  1.00  0.00    -0.014 A 
ATOM     75  C   UNL A   1      45.475  33.435  28.283  1.00  0.00     0.009 A 
ATOM     76  C   UNL A   1      45.879  32.874  30.602  1.00  0.00     0.009 A 
ATOM     77  C   UNL A   1      45.719  34.780  28.570  1.00  0.00     0.001 A 
ATOM     78  C   UNL A   1      46.097  34.222  30.889  1.00  0.00     0.001 A 
ATOM     79  C   UNL A   1      46.027  35.172  29.872  1.00  0.00     0.000 A 
ENDBRANCH  61  74
ENDBRANCH  35  36
ENDBRANCH  28  30
ENDBRANCH  27  28
ENDBRANCH  26  27
ENDBRANCH  25  26
ENDBRANCH  24  25
ENDBRANCH   1  24
TORSDOF 18
ENDMDL
