MODEL 1
REMARK VINA RESULT:     -12.2      0.000      0.000
REMARK SMILES C[C@H](C(=O)Nc1ccc(C(F)(F)F)cc1)n1nc(C(=O)OCCOCCOC(=O)c2ccc(-c3c4nc(c(-c5ccccc5)c5ccc([nH]5)c(-c5ccccc5)c5nc(c(-c6ccccc6)c6ccc3[nH]6)C=C5)C=C4)cc2)c2ccccc2c1=O
REMARK SMILES IDX 23 1 22 2 21 3 19 4 20 5 18 6 16 7 17 8 84 9 83 10 85 11
REMARK SMILES IDX 78 12 82 13 79 14 81 15 80 16 2 17 1 18 3 19 4 20 5 21 6 23
REMARK SMILES IDX 7 24 15 25 8 26 14 27 9 28 10 29 11 30 12 31 13 32 24 33
REMARK SMILES IDX 25 34 26 35 27 36 28 37 29 38 30 39 31 40 77 41 32 42 76 43
REMARK SMILES IDX 33 44 34 45 35 46 70 47 36 48 75 49 69 50 71 51 37 52 74 53
REMARK SMILES IDX 68 54 67 55 38 57 60 58 45 59 59 60 46 61 49 62 58 63 72 64
REMARK SMILES IDX 47 65 48 66 57 68 73 69 50 70 39 71 40 72 44 73 41 74 43 75
REMARK SMILES IDX 42 76 61 77 62 78 66 79 63 80 65 81 64 82 51 83 52 84 56 85
REMARK SMILES IDX 53 86 55 87 54 88
REMARK H PARENT 5 22 71 56 49 67
REMARK Flexibility Score: inf
ROOT
ATOM      1  C   UNL A   1      33.793  32.115  27.709  1.00  0.00     0.202 C 
ENDROOT
BRANCH   1   2
ATOM      2  C   UNL A   1      33.658  30.759  27.015  1.00  0.00     0.261 C 
BRANCH   2   3
ATOM      3  O   UNL A   1      32.305  30.273  26.999  1.00  0.00    -0.458 OA
BRANCH   3   4
ATOM      4  C   UNL A   1      31.551  30.754  25.994  1.00  0.00     0.359 C 
ATOM      5  O   UNL A   1      31.028  31.853  25.927  1.00  0.00    -0.244 OA
BRANCH   4   6
ATOM      6  C   UNL A   1      31.324  29.727  24.891  1.00  0.00     0.176 A 
ATOM      7  N   UNL A   1      31.702  27.564  24.187  1.00  0.00    -0.216 N 
ATOM      8  N   UNL A   1      32.112  28.698  24.863  1.00  0.00    -0.161 NA
ATOM      9  C   UNL A   1      30.453  27.440  23.580  1.00  0.00     0.275 A 
ATOM     10  C   UNL A   1      29.620  28.661  23.535  1.00  0.00     0.051 A 
ATOM     11  O   UNL A   1      30.024  26.411  23.070  1.00  0.00    -0.267 OA
ATOM     12  C   UNL A   1      30.120  29.843  24.064  1.00  0.00     0.022 A 
ATOM     13  C   UNL A   1      28.360  28.655  22.930  1.00  0.00     0.014 A 
ATOM     14  C   UNL A   1      29.448  31.053  23.857  1.00  0.00     0.011 A 
ATOM     15  C   UNL A   1      27.651  29.850  22.783  1.00  0.00     0.001 A 
ATOM     16  C   UNL A   1      28.215  31.053  23.208  1.00  0.00     0.001 A 
BRANCH   7  17
ATOM     17  C   UNL A   1      32.681  26.462  24.163  1.00  0.00     0.197 C 
ATOM     18  C   UNL A   1      33.712  26.638  25.283  1.00  0.00     0.044 C 
BRANCH  17  19
ATOM     19  C   UNL A   1      33.375  26.207  22.800  1.00  0.00     0.249 C 
ATOM     20  O   UNL A   1      33.676  27.138  22.041  1.00  0.00    -0.272 OA
ATOM     21  N   UNL A   1      33.833  24.966  22.429  1.00  0.00    -0.324 N 
ATOM     22  H   UNL A   1      34.375  24.968  21.607  1.00  0.00     0.170 HD
BRANCH  21  23
ATOM     23  C   UNL A   1      33.672  23.701  23.004  1.00  0.00     0.041 A 
ATOM     24  C   UNL A   1      32.498  22.998  22.734  1.00  0.00     0.027 A 
ATOM     25  C   UNL A   1      34.589  23.147  23.886  1.00  0.00     0.027 A 
ATOM     26  C   UNL A   1      32.323  21.696  23.222  1.00  0.00     0.015 A 
ATOM     27  C   UNL A   1      34.430  21.847  24.372  1.00  0.00     0.015 A 
ATOM     28  C   UNL A   1      33.310  21.091  24.011  1.00  0.00     0.056 A 
BRANCH  28  29
ATOM     29  C   UNL A   1      33.154  19.675  24.506  1.00  0.00     0.416 C 
ATOM     30  F   UNL A   1      32.529  19.609  25.713  1.00  0.00    -0.166 F 
ATOM     31  F   UNL A   1      32.426  18.895  23.660  1.00  0.00    -0.166 F 
ATOM     32  F   UNL A   1      34.347  19.033  24.664  1.00  0.00    -0.166 F 
ENDBRANCH  28  29
ENDBRANCH  21  23
ENDBRANCH  17  19
ENDBRANCH   7  17
ENDBRANCH   4   6
ENDBRANCH   3   4
ENDBRANCH   2   3
ENDBRANCH   1   2
BRANCH   1  33
ATOM     33  O   UNL A   1      34.364  32.130  29.014  1.00  0.00    -0.374 OA
BRANCH  33  34
ATOM     34  C   UNL A   1      34.435  33.365  29.718  1.00  0.00     0.202 C 
BRANCH  34  35
ATOM     35  C   UNL A   1      34.866  33.346  31.191  1.00  0.00     0.261 C 
BRANCH  35  36
ATOM     36  O   UNL A   1      35.023  32.024  31.735  1.00  0.00    -0.460 OA
BRANCH  36  37
ATOM     37  C   UNL A   1      36.136  31.861  32.492  1.00  0.00     0.338 C 
ATOM     38  O   UNL A   1      36.320  32.246  33.633  1.00  0.00    -0.246 OA
BRANCH  37  39
ATOM     39  C   UNL A   1      37.123  31.012  31.803  1.00  0.00     0.060 A 
ATOM     40  C   UNL A   1      38.279  30.654  32.506  1.00  0.00     0.016 A 
ATOM     41  C   UNL A   1      37.006  30.749  30.437  1.00  0.00     0.016 A 
ATOM     42  C   UNL A   1      39.350  30.073  31.831  1.00  0.00     0.010 A 
ATOM     43  C   UNL A   1      38.089  30.179  29.759  1.00  0.00     0.010 A 
ATOM     44  C   UNL A   1      39.279  29.879  30.446  1.00  0.00    -0.014 A 
BRANCH  44  45
ATOM     45  C   UNL A   1      40.512  29.516  29.708  1.00  0.00     0.031 A 
ATOM     46  C   UNL A   1      40.644  28.130  29.137  1.00  0.00     0.074 A 
ATOM     47  C   UNL A   1      41.475  30.429  29.495  1.00  0.00     0.049 A 
ATOM     48  N   UNL A   1      41.616  27.616  28.426  1.00  0.00    -0.248 NA
ATOM     49  C   UNL A   1      39.530  27.202  29.394  1.00  0.00     0.031 C 
ATOM     50  C   UNL A   1      41.441  31.817  29.951  1.00  0.00     0.029 A 
ATOM     51  N   UNL A   1      42.668  30.318  28.828  1.00  0.00    -0.354 N 
ATOM     52  C   UNL A   1      41.232  26.310  28.150  1.00  0.00     0.074 A 
ATOM     53  C   UNL A   1      39.951  26.101  28.791  1.00  0.00     0.031 C 
ATOM     54  C   UNL A   1      42.566  32.432  29.549  1.00  0.00     0.029 A 
ATOM     55  C   UNL A   1      43.405  31.474  28.831  1.00  0.00     0.049 A 
ATOM     56  H   UNL A   1      42.967  29.489  28.390  1.00  0.00     0.167 HD
ATOM     57  C   UNL A   1      41.882  25.371  27.423  1.00  0.00     0.031 A 
ATOM     58  C   UNL A   1      44.625  31.728  28.320  1.00  0.00     0.031 A 
ATOM     59  C   UNL A   1      43.162  25.567  26.799  1.00  0.00     0.049 A 
ATOM     60  C   UNL A   1      45.365  30.643  27.589  1.00  0.00     0.074 A 
ATOM     61  C   UNL A   1      43.896  24.677  26.033  1.00  0.00     0.029 A 
ATOM     62  N   UNL A   1      43.904  26.735  26.878  1.00  0.00    -0.354 N 
ATOM     63  N   UNL A   1      44.980  29.420  27.316  1.00  0.00    -0.248 NA
ATOM     64  C   UNL A   1      46.707  30.978  27.090  1.00  0.00     0.031 C 
ATOM     65  C   UNL A   1      45.104  25.292  25.689  1.00  0.00     0.029 A 
ATOM     66  C   UNL A   1      45.101  26.579  26.201  1.00  0.00     0.049 A 
ATOM     67  H   UNL A   1      43.622  27.552  27.347  1.00  0.00     0.167 HD
ATOM     68  C   UNL A   1      46.022  28.846  26.597  1.00  0.00     0.074 A 
ATOM     69  C   UNL A   1      47.048  29.859  26.466  1.00  0.00     0.031 C 
ATOM     70  C   UNL A   1      46.117  27.593  26.088  1.00  0.00     0.031 A 
BRANCH  57  71
ATOM     71  C   UNL A   1      41.224  24.026  27.294  1.00  0.00    -0.014 A 
ATOM     72  C   UNL A   1      40.080  23.849  26.501  1.00  0.00     0.009 A 
ATOM     73  C   UNL A   1      41.771  22.917  27.959  1.00  0.00     0.009 A 
ATOM     74  C   UNL A   1      39.479  22.592  26.401  1.00  0.00     0.001 A 
ATOM     75  C   UNL A   1      41.181  21.658  27.838  1.00  0.00     0.001 A 
ATOM     76  C   UNL A   1      40.031  21.498  27.066  1.00  0.00     0.000 A 
ENDBRANCH  57  71
BRANCH  58  77
ATOM     77  C   UNL A   1      45.234  33.071  28.500  1.00  0.00    -0.014 A 
ATOM     78  C   UNL A   1      46.028  33.352  29.621  1.00  0.00     0.009 A 
ATOM     79  C   UNL A   1      45.014  34.080  27.549  1.00  0.00     0.009 A 
ATOM     80  C   UNL A   1      46.577  34.624  29.795  1.00  0.00     0.001 A 
ATOM     81  C   UNL A   1      45.583  35.344  27.715  1.00  0.00     0.001 A 
ATOM     82  C   UNL A   1      46.358  35.617  28.840  1.00  0.00     0.000 A 
ENDBRANCH  58  77
BRANCH  70  83
ATOM     83  C   UNL A   1      47.366  27.255  25.327  1.00  0.00    -0.014 A 
ATOM     84  C   UNL A   1      48.474  26.683  25.970  1.00  0.00     0.009 A 
ATOM     85  C   UNL A   1      47.420  27.477  23.943  1.00  0.00     0.009 A 
ATOM     86  C   UNL A   1      49.625  26.366  25.244  1.00  0.00     0.001 A 
ATOM     87  C   UNL A   1      48.563  27.138  23.216  1.00  0.00     0.001 A 
ATOM     88  C   UNL A   1      49.666  26.591  23.869  1.00  0.00     0.000 A 
ENDBRANCH  70  83
ENDBRANCH  44  45
ENDBRANCH  37  39
ENDBRANCH  36  37
ENDBRANCH  35  36
ENDBRANCH  34  35
ENDBRANCH  33  34
ENDBRANCH   1  33
TORSDOF 18
ENDMDL
MODEL 2
REMARK VINA RESULT:     -12.0      4.109      9.006
REMARK SMILES C[C@H](C(=O)Nc1ccc(C(F)(F)F)cc1)n1nc(C(=O)OCCOCCOC(=O)c2ccc(-c3c4nc(c(-c5ccccc5)c5ccc([nH]5)c(-c5ccccc5)c5nc(c(-c6ccccc6)c6ccc3[nH]6)C=C5)C=C4)cc2)c2ccccc2c1=O
REMARK SMILES IDX 23 1 22 2 21 3 19 4 20 5 18 6 16 7 17 8 84 9 83 10 85 11
REMARK SMILES IDX 78 12 82 13 79 14 81 15 80 16 2 17 1 18 3 19 4 20 5 21 6 23
REMARK SMILES IDX 7 24 15 25 8 26 14 27 9 28 10 29 11 30 12 31 13 32 24 33
REMARK SMILES IDX 25 34 26 35 27 36 28 37 29 38 30 39 31 40 77 41 32 42 76 43
REMARK SMILES IDX 33 44 34 45 35 46 70 47 36 48 75 49 69 50 71 51 37 52 74 53
REMARK SMILES IDX 68 54 67 55 38 57 60 58 45 59 59 60 46 61 49 62 58 63 72 64
REMARK SMILES IDX 47 65 48 66 57 68 73 69 50 70 39 71 40 72 44 73 41 74 43 75
REMARK SMILES IDX 42 76 61 77 62 78 66 79 63 80 65 81 64 82 51 83 52 84 56 85
REMARK SMILES IDX 53 86 55 87 54 88
REMARK H PARENT 5 22 71 56 49 67
REMARK Flexibility Score: inf
ROOT
ATOM      1  C   UNL A   1      36.949  22.101  24.665  1.00  0.00     0.202 C 
ENDROOT
BRANCH   1   2
ATOM      2  C   UNL A   1      36.090  22.538  25.853  1.00  0.00     0.261 C 
BRANCH   2   3
ATOM      3  O   UNL A   1      35.472  21.432  26.532  1.00  0.00    -0.458 OA
BRANCH   3   4
ATOM      4  C   UNL A   1      34.204  21.652  26.920  1.00  0.00     0.359 C 
ATOM      5  O   UNL A   1      33.798  21.801  28.060  1.00  0.00    -0.244 OA
BRANCH   4   6
ATOM      6  C   UNL A   1      33.224  21.639  25.753  1.00  0.00     0.176 A 
ATOM      7  N   UNL A   1      32.394  22.803  23.943  1.00  0.00    -0.216 N 
ATOM      8  N   UNL A   1      32.912  22.782  25.225  1.00  0.00    -0.161 NA
ATOM      9  C   UNL A   1      32.245  21.662  23.155  1.00  0.00     0.275 A 
ATOM     10  C   UNL A   1      32.508  20.367  23.817  1.00  0.00     0.051 A 
ATOM     11  O   UNL A   1      31.892  21.667  21.981  1.00  0.00    -0.267 OA
ATOM     12  C   UNL A   1      32.858  20.350  25.160  1.00  0.00     0.022 A 
ATOM     13  C   UNL A   1      32.368  19.160  23.126  1.00  0.00     0.014 A 
ATOM     14  C   UNL A   1      32.913  19.142  25.864  1.00  0.00     0.011 A 
ATOM     15  C   UNL A   1      32.492  17.947  23.809  1.00  0.00     0.001 A 
ATOM     16  C   UNL A   1      32.722  17.940  25.185  1.00  0.00     0.001 A 
BRANCH   7  17
ATOM     17  C   UNL A   1      32.018  24.137  23.442  1.00  0.00     0.197 C 
ATOM     18  C   UNL A   1      30.568  24.133  22.946  1.00  0.00     0.044 C 
BRANCH  17  19
ATOM     19  C   UNL A   1      32.970  24.751  22.382  1.00  0.00     0.249 C 
ATOM     20  O   UNL A   1      33.210  24.172  21.314  1.00  0.00    -0.272 OA
ATOM     21  N   UNL A   1      33.468  26.027  22.493  1.00  0.00    -0.324 N 
ATOM     22  H   UNL A   1      33.943  26.343  21.690  1.00  0.00     0.170 HD
BRANCH  21  23
ATOM     23  C   UNL A   1      33.426  26.959  23.535  1.00  0.00     0.041 A 
ATOM     24  C   UNL A   1      33.111  28.282  23.224  1.00  0.00     0.027 A 
ATOM     25  C   UNL A   1      33.753  26.645  24.846  1.00  0.00     0.027 A 
ATOM     26  C   UNL A   1      32.979  29.237  24.241  1.00  0.00     0.015 A 
ATOM     27  C   UNL A   1      33.617  27.585  25.870  1.00  0.00     0.015 A 
ATOM     28  C   UNL A   1      33.189  28.885  25.582  1.00  0.00     0.056 A 
BRANCH  28  29
ATOM     29  C   UNL A   1      33.007  29.892  26.689  1.00  0.00     0.416 C 
ATOM     30  F   UNL A   1      33.968  30.855  26.683  1.00  0.00    -0.166 F 
ATOM     31  F   UNL A   1      31.815  30.547  26.621  1.00  0.00    -0.166 F 
ATOM     32  F   UNL A   1      33.047  29.329  27.932  1.00  0.00    -0.166 F 
ENDBRANCH  28  29
ENDBRANCH  21  23
ENDBRANCH  17  19
ENDBRANCH   7  17
ENDBRANCH   4   6
ENDBRANCH   3   4
ENDBRANCH   2   3
ENDBRANCH   1   2
BRANCH   1  33
ATOM     33  O   UNL A   1      38.145  21.382  24.950  1.00  0.00    -0.374 OA
BRANCH  33  34
ATOM     34  C   UNL A   1      38.107  19.959  24.946  1.00  0.00     0.202 C 
BRANCH  34  35
ATOM     35  C   UNL A   1      39.299  19.192  25.536  1.00  0.00     0.261 C 
BRANCH  35  36
ATOM     36  O   UNL A   1      40.141  19.989  26.387  1.00  0.00    -0.460 OA
BRANCH  36  37
ATOM     37  C   UNL A   1      41.456  19.958  26.056  1.00  0.00     0.338 C 
ATOM     38  O   UNL A   1      42.023  19.145  25.348  1.00  0.00    -0.246 OA
BRANCH  37  39
ATOM     39  C   UNL A   1      42.157  21.147  26.568  1.00  0.00     0.060 A 
ATOM     40  C   UNL A   1      42.173  21.350  27.953  1.00  0.00     0.016 A 
ATOM     41  C   UNL A   1      42.608  22.139  25.695  1.00  0.00     0.016 A 
ATOM     42  C   UNL A   1      42.595  22.572  28.472  1.00  0.00     0.010 A 
ATOM     43  C   UNL A   1      43.018  23.371  26.218  1.00  0.00     0.010 A 
ATOM     44  C   UNL A   1      42.972  23.605  27.604  1.00  0.00    -0.014 A 
BRANCH  44  45
ATOM     45  C   UNL A   1      43.157  24.969  28.151  1.00  0.00     0.031 A 
ATOM     46  C   UNL A   1      44.543  25.436  28.508  1.00  0.00     0.074 A 
ATOM     47  C   UNL A   1      42.112  25.806  28.270  1.00  0.00     0.049 A 
ATOM     48  N   UNL A   1      44.934  26.599  28.962  1.00  0.00    -0.248 NA
ATOM     49  C   UNL A   1      45.633  24.464  28.320  1.00  0.00     0.031 C 
ATOM     50  C   UNL A   1      40.731  25.491  27.910  1.00  0.00     0.029 A 
ATOM     51  N   UNL A   1      42.060  27.100  28.722  1.00  0.00    -0.354 N 
ATOM     52  C   UNL A   1      46.312  26.502  29.113  1.00  0.00     0.074 A 
ATOM     53  C   UNL A   1      46.686  25.158  28.728  1.00  0.00     0.031 C 
ATOM     54  C   UNL A   1      39.964  26.567  28.155  1.00  0.00     0.029 A 
ATOM     55  C   UNL A   1      40.796  27.632  28.711  1.00  0.00     0.049 A 
ATOM     56  H   UNL A   1      42.853  27.598  29.025  1.00  0.00     0.167 HD
ATOM     57  C   UNL A   1      47.188  27.446  29.529  1.00  0.00     0.031 A 
ATOM     58  C   UNL A   1      40.359  28.840  29.114  1.00  0.00     0.031 A 
ATOM     59  C   UNL A   1      46.820  28.777  29.930  1.00  0.00     0.049 A 
ATOM     60  C   UNL A   1      41.341  29.844  29.651  1.00  0.00     0.074 A 
ATOM     61  C   UNL A   1      47.639  29.809  30.356  1.00  0.00     0.029 A 
ATOM     62  N   UNL A   1      45.521  29.257  29.963  1.00  0.00    -0.354 N 
ATOM     63  N   UNL A   1      42.643  29.747  29.767  1.00  0.00    -0.248 NA
ATOM     64  C   UNL A   1      40.790  31.129  30.108  1.00  0.00     0.031 C 
ATOM     65  C   UNL A   1      46.828  30.898  30.693  1.00  0.00     0.029 A 
ATOM     66  C   UNL A   1      45.511  30.560  30.430  1.00  0.00     0.049 A 
ATOM     67  H   UNL A   1      44.723  28.747  29.693  1.00  0.00     0.167 HD
ATOM     68  C   UNL A   1      43.069  30.962  30.289  1.00  0.00     0.074 A 
ATOM     69  C   UNL A   1      41.889  31.784  30.456  1.00  0.00     0.031 C 
ATOM     70  C   UNL A   1      44.327  31.361  30.600  1.00  0.00     0.031 A 
BRANCH  57  71
ATOM     71  C   UNL A   1      48.636  27.055  29.601  1.00  0.00    -0.014 A 
ATOM     72  C   UNL A   1      49.499  27.252  28.511  1.00  0.00     0.009 A 
ATOM     73  C   UNL A   1      49.150  26.500  30.784  1.00  0.00     0.009 A 
ATOM     74  C   UNL A   1      50.841  26.874  28.596  1.00  0.00     0.001 A 
ATOM     75  C   UNL A   1      50.496  26.144  30.872  1.00  0.00     0.001 A 
ATOM     76  C   UNL A   1      51.338  26.323  29.776  1.00  0.00     0.000 A 
ENDBRANCH  57  71
BRANCH  58  77
ATOM     77  C   UNL A   1      38.911  29.162  29.040  1.00  0.00    -0.014 A 
ATOM     78  C   UNL A   1      38.088  29.013  30.165  1.00  0.00     0.009 A 
ATOM     79  C   UNL A   1      38.347  29.612  27.836  1.00  0.00     0.009 A 
ATOM     80  C   UNL A   1      36.722  29.294  30.081  1.00  0.00     0.001 A 
ATOM     81  C   UNL A   1      36.986  29.915  27.762  1.00  0.00     0.001 A 
ATOM     82  C   UNL A   1      36.174  29.749  28.882  1.00  0.00     0.000 A 
ENDBRANCH  58  77
BRANCH  70  83
ATOM     83  C   UNL A   1      44.492  32.755  31.133  1.00  0.00    -0.014 A 
ATOM     84  C   UNL A   1      44.479  33.009  32.513  1.00  0.00     0.009 A 
ATOM     85  C   UNL A   1      44.700  33.821  30.245  1.00  0.00     0.009 A 
ATOM     86  C   UNL A   1      44.644  34.311  32.992  1.00  0.00     0.001 A 
ATOM     87  C   UNL A   1      44.888  35.117  30.727  1.00  0.00     0.001 A 
ATOM     88  C   UNL A   1      44.851  35.362  32.099  1.00  0.00     0.000 A 
ENDBRANCH  70  83
ENDBRANCH  44  45
ENDBRANCH  37  39
ENDBRANCH  36  37
ENDBRANCH  35  36
ENDBRANCH  34  35
ENDBRANCH  33  34
ENDBRANCH   1  33
TORSDOF 18
ENDMDL
MODEL 3
REMARK VINA RESULT:     -11.9      4.689      9.291
REMARK SMILES C[C@H](C(=O)Nc1ccc(C(F)(F)F)cc1)n1nc(C(=O)OCCOCCOC(=O)c2ccc(-c3c4nc(c(-c5ccccc5)c5ccc([nH]5)c(-c5ccccc5)c5nc(c(-c6ccccc6)c6ccc3[nH]6)C=C5)C=C4)cc2)c2ccccc2c1=O
REMARK SMILES IDX 23 1 22 2 21 3 19 4 20 5 18 6 16 7 17 8 84 9 83 10 85 11
REMARK SMILES IDX 78 12 82 13 79 14 81 15 80 16 2 17 1 18 3 19 4 20 5 21 6 23
REMARK SMILES IDX 7 24 15 25 8 26 14 27 9 28 10 29 11 30 12 31 13 32 24 33
REMARK SMILES IDX 25 34 26 35 27 36 28 37 29 38 30 39 31 40 77 41 32 42 76 43
REMARK SMILES IDX 33 44 34 45 35 46 70 47 36 48 75 49 69 50 71 51 37 52 74 53
REMARK SMILES IDX 68 54 67 55 38 57 60 58 45 59 59 60 46 61 49 62 58 63 72 64
REMARK SMILES IDX 47 65 48 66 57 68 73 69 50 70 39 71 40 72 44 73 41 74 43 75
REMARK SMILES IDX 42 76 61 77 62 78 66 79 63 80 65 81 64 82 51 83 52 84 56 85
REMARK SMILES IDX 53 86 55 87 54 88
REMARK H PARENT 5 22 71 56 49 67
REMARK Flexibility Score: inf
ROOT
ATOM      1  C   UNL A   1      39.595  22.098  26.898  1.00  0.00     0.202 C 
ENDROOT
BRANCH   1   2
ATOM      2  C   UNL A   1      38.866  21.482  25.703  1.00  0.00     0.261 C 
BRANCH   2   3
ATOM      3  O   UNL A   1      37.439  21.621  25.787  1.00  0.00    -0.458 OA
BRANCH   3   4
ATOM      4  C   UNL A   1      36.745  20.607  25.238  1.00  0.00     0.359 C 
ATOM      5  O   UNL A   1      37.197  19.587  24.745  1.00  0.00    -0.244 OA
BRANCH   4   6
ATOM      6  C   UNL A   1      35.244  20.870  25.215  1.00  0.00     0.176 A 
ATOM      7  N   UNL A   1      33.587  22.469  25.084  1.00  0.00    -0.216 N 
ATOM      8  N   UNL A   1      34.846  22.072  25.496  1.00  0.00    -0.161 NA
ATOM      9  C   UNL A   1      32.737  21.665  24.324  1.00  0.00     0.275 A 
ATOM     10  C   UNL A   1      33.172  20.268  24.111  1.00  0.00     0.051 A 
ATOM     11  O   UNL A   1      31.665  22.031  23.856  1.00  0.00    -0.267 OA
ATOM     12  C   UNL A   1      34.359  19.832  24.682  1.00  0.00     0.022 A 
ATOM     13  C   UNL A   1      32.385  19.370  23.383  1.00  0.00     0.014 A 
ATOM     14  C   UNL A   1      34.694  18.473  24.671  1.00  0.00     0.011 A 
ATOM     15  C   UNL A   1      32.753  18.024  23.309  1.00  0.00     0.001 A 
ATOM     16  C   UNL A   1      33.882  17.569  23.988  1.00  0.00     0.001 A 
BRANCH   7  17
ATOM     17  C   UNL A   1      33.197  23.831  25.490  1.00  0.00     0.197 C 
ATOM     18  C   UNL A   1      34.439  24.674  25.799  1.00  0.00     0.044 C 
BRANCH  17  19
ATOM     19  C   UNL A   1      32.161  23.920  26.641  1.00  0.00     0.249 C 
ATOM     20  O   UNL A   1      32.200  23.149  27.609  1.00  0.00    -0.272 OA
ATOM     21  N   UNL A   1      31.251  24.945  26.734  1.00  0.00    -0.324 N 
ATOM     22  H   UNL A   1      30.749  24.960  27.581  1.00  0.00     0.170 HD
BRANCH  21  23
ATOM     23  C   UNL A   1      30.908  25.972  25.848  1.00  0.00     0.041 A 
ATOM     24  C   UNL A   1      31.446  27.240  26.067  1.00  0.00     0.027 A 
ATOM     25  C   UNL A   1      30.003  25.806  24.810  1.00  0.00     0.027 A 
ATOM     26  C   UNL A   1      31.196  28.283  25.165  1.00  0.00     0.015 A 
ATOM     27  C   UNL A   1      29.752  26.834  23.898  1.00  0.00     0.015 A 
ATOM     28  C   UNL A   1      30.379  28.076  24.045  1.00  0.00     0.056 A 
BRANCH  28  29
ATOM     29  C   UNL A   1      30.137  29.176  23.043  1.00  0.00     0.416 C 
ATOM     30  F   UNL A   1      31.188  29.356  22.198  1.00  0.00    -0.166 F 
ATOM     31  F   UNL A   1      29.052  28.945  22.253  1.00  0.00    -0.166 F 
ATOM     32  F   UNL A   1      29.913  30.388  23.629  1.00  0.00    -0.166 F 
ENDBRANCH  28  29
ENDBRANCH  21  23
ENDBRANCH  17  19
ENDBRANCH   7  17
ENDBRANCH   4   6
ENDBRANCH   3   4
ENDBRANCH   2   3
ENDBRANCH   1   2
BRANCH   1  33
ATOM     33  O   UNL A   1      40.530  21.277  27.591  1.00  0.00    -0.374 OA
BRANCH  33  34
ATOM     34  C   UNL A   1      41.728  20.892  26.926  1.00  0.00     0.202 C 
BRANCH  34  35
ATOM     35  C   UNL A   1      42.714  21.987  26.494  1.00  0.00     0.261 C 
BRANCH  35  36
ATOM     36  O   UNL A   1      43.184  22.807  27.579  1.00  0.00    -0.460 OA
BRANCH  36  37
ATOM     37  C   UNL A   1      42.828  24.113  27.485  1.00  0.00     0.338 C 
ATOM     38  O   UNL A   1      41.729  24.598  27.684  1.00  0.00    -0.246 OA
BRANCH  37  39
ATOM     39  C   UNL A   1      44.002  24.961  27.220  1.00  0.00     0.060 A 
ATOM     40  C   UNL A   1      44.680  25.499  28.319  1.00  0.00     0.016 A 
ATOM     41  C   UNL A   1      44.299  25.381  25.921  1.00  0.00     0.016 A 
ATOM     42  C   UNL A   1      45.630  26.500  28.129  1.00  0.00     0.010 A 
ATOM     43  C   UNL A   1      45.243  26.397  25.734  1.00  0.00     0.010 A 
ATOM     44  C   UNL A   1      45.879  26.989  26.840  1.00  0.00    -0.014 A 
BRANCH  44  45
ATOM     45  C   UNL A   1      46.682  28.224  26.684  1.00  0.00     0.031 A 
ATOM     46  C   UNL A   1      48.163  28.111  26.441  1.00  0.00     0.074 A 
ATOM     47  C   UNL A   1      46.090  29.430  26.696  1.00  0.00     0.049 A 
ATOM     48  N   UNL A   1      49.043  29.058  26.237  1.00  0.00    -0.248 NA
ATOM     49  C   UNL A   1      48.724  26.751  26.415  1.00  0.00     0.031 C 
ATOM     50  C   UNL A   1      44.658  29.669  26.870  1.00  0.00     0.029 A 
ATOM     51  N   UNL A   1      46.628  30.683  26.548  1.00  0.00    -0.354 N 
ATOM     52  C   UNL A   1      50.260  28.411  26.059  1.00  0.00     0.074 A 
ATOM     53  C   UNL A   1      50.009  26.993  26.204  1.00  0.00     0.031 C 
ATOM     54  C   UNL A   1      44.431  30.992  26.818  1.00  0.00     0.029 A 
ATOM     55  C   UNL A   1      45.701  31.690  26.633  1.00  0.00     0.049 A 
ATOM     56  H   UNL A   1      47.588  30.844  26.396  1.00  0.00     0.167 HD
ATOM     57  C   UNL A   1      51.474  28.946  25.792  1.00  0.00     0.031 A 
ATOM     58  C   UNL A   1      45.862  33.026  26.577  1.00  0.00     0.031 A 
ATOM     59  C   UNL A   1      51.731  30.355  25.665  1.00  0.00     0.049 A 
ATOM     60  C   UNL A   1      47.235  33.600  26.363  1.00  0.00     0.074 A 
ATOM     61  C   UNL A   1      52.928  30.993  25.384  1.00  0.00     0.029 A 
ATOM     62  N   UNL A   1      50.776  31.346  25.819  1.00  0.00    -0.354 N 
ATOM     63  N   UNL A   1      48.372  32.976  26.173  1.00  0.00    -0.248 NA
ATOM     64  C   UNL A   1      47.344  35.067  26.350  1.00  0.00     0.031 C 
ATOM     65  C   UNL A   1      52.704  32.373  25.418  1.00  0.00     0.029 A 
ATOM     66  C   UNL A   1      51.360  32.592  25.670  1.00  0.00     0.049 A 
ATOM     67  H   UNL A   1      49.823  31.187  26.007  1.00  0.00     0.167 HD
ATOM     68  C   UNL A   1      49.326  33.971  25.999  1.00  0.00     0.074 A 
ATOM     69  C   UNL A   1      48.633  35.238  26.093  1.00  0.00     0.031 C 
ATOM     70  C   UNL A   1      50.657  33.844  25.777  1.00  0.00     0.031 A 
BRANCH  57  71
ATOM     71  C   UNL A   1      52.628  27.995  25.653  1.00  0.00    -0.014 A 
ATOM     72  C   UNL A   1      53.412  27.636  26.761  1.00  0.00     0.009 A 
ATOM     73  C   UNL A   1      52.921  27.433  24.401  1.00  0.00     0.009 A 
ATOM     74  C   UNL A   1      54.486  26.755  26.609  1.00  0.00     0.001 A 
ATOM     75  C   UNL A   1      53.980  26.536  24.257  1.00  0.00     0.001 A 
ATOM     76  C   UNL A   1      54.767  26.204  25.359  1.00  0.00     0.000 A 
ENDBRANCH  57  71
BRANCH  58  77
ATOM     77  C   UNL A   1      44.686  33.917  26.745  1.00  0.00    -0.014 A 
ATOM     78  C   UNL A   1      44.288  34.342  28.020  1.00  0.00     0.009 A 
ATOM     79  C   UNL A   1      43.953  34.338  25.624  1.00  0.00     0.009 A 
ATOM     80  C   UNL A   1      43.166  35.161  28.171  1.00  0.00     0.001 A 
ATOM     81  C   UNL A   1      42.846  35.175  25.777  1.00  0.00     0.001 A 
ATOM     82  C   UNL A   1      42.449  35.579  27.050  1.00  0.00     0.000 A 
ENDBRANCH  58  77
BRANCH  70  83
ATOM     83  C   UNL A   1      51.447  35.110  25.602  1.00  0.00    -0.014 A 
ATOM     84  C   UNL A   1      51.624  35.684  24.334  1.00  0.00     0.009 A 
ATOM     85  C   UNL A   1      51.987  35.755  26.725  1.00  0.00     0.009 A 
ATOM     86  C   UNL A   1      52.353  36.867  24.191  1.00  0.00     0.001 A 
ATOM     87  C   UNL A   1      52.695  36.948  26.581  1.00  0.00     0.001 A 
ATOM     88  C   UNL A   1      52.884  37.499  25.315  1.00  0.00     0.000 A 
ENDBRANCH  70  83
ENDBRANCH  44  45
ENDBRANCH  37  39
ENDBRANCH  36  37
ENDBRANCH  35  36
ENDBRANCH  34  35
ENDBRANCH  33  34
ENDBRANCH   1  33
TORSDOF 18
ENDMDL
