MODEL 1
REMARK VINA RESULT:     -11.9      0.000      0.000
REMARK SMILES Cc1ccc(C(=O)OCCOCCOC(=O)c2ccc(-c3c4nc(c(-c5ccccc5)c5ccc([nH]5)c(-c5ccccc5)c5nc(c(-c6ccccc6)c6ccc3[nH]6)C=C5)C=C4)cc2)cc1N[C@@H]1CC(=O)N(c2ccccc2C)C1=O
REMARK SMILES IDX 10 1 9 2 8 3 6 4 7 5 5 6 1 7 2 8 3 9 66 10 4 11 65 12 67 13
REMARK SMILES IDX 68 15 69 16 80 17 70 18 72 19 81 20 71 21 73 22 74 23 78 24
REMARK SMILES IDX 75 25 77 26 79 27 76 28 11 29 12 30 13 31 14 32 15 33 16 34
REMARK SMILES IDX 17 35 18 36 64 37 19 38 63 39 20 40 21 41 22 42 57 43 23 44
REMARK SMILES IDX 62 45 56 46 58 47 24 48 61 49 55 50 54 51 25 53 47 54 32 55
REMARK SMILES IDX 46 56 33 57 36 58 45 59 59 60 34 61 35 62 44 64 60 65 37 66
REMARK SMILES IDX 26 67 27 68 31 69 28 70 30 71 29 72 48 73 49 74 53 75 50 76
REMARK SMILES IDX 52 77 51 78 38 79 39 80 43 81 40 82 42 83 41 84
REMARK H PARENT 67 14 58 52 36 63
REMARK Flexibility Score: inf
ROOT
ATOM      1  C   UNL A   1      40.865  20.149  26.508  1.00  0.00     0.202 C 
ENDROOT
BRANCH   1   2
ATOM      2  C   UNL A   1      40.141  21.242  25.790  1.00  0.00     0.261 C 
BRANCH   2   3
ATOM      3  O   UNL A   1      38.720  21.112  25.892  1.00  0.00    -0.460 OA
BRANCH   3   4
ATOM      4  C   UNL A   1      38.111  20.081  25.242  1.00  0.00     0.338 C 
ATOM      5  O   UNL A   1      38.533  18.965  25.050  1.00  0.00    -0.246 OA
BRANCH   4   6
ATOM      6  C   UNL A   1      36.761  20.573  24.881  1.00  0.00     0.062 A 
ATOM      7  C   UNL A   1      32.863  22.090  23.939  1.00  0.00     0.046 C 
ATOM      8  C   UNL A   1      34.263  21.637  24.252  1.00  0.00    -0.028 A 
ATOM      9  C   UNL A   1      34.390  20.342  24.821  1.00  0.00     0.006 A 
ATOM     10  C   UNL A   1      35.403  22.433  24.020  1.00  0.00     0.038 A 
ATOM     11  C   UNL A   1      35.636  19.799  25.119  1.00  0.00     0.016 A 
ATOM     12  C   UNL A   1      36.621  21.870  24.366  1.00  0.00     0.041 A 
BRANCH  10  13
ATOM     13  N   UNL A   1      35.360  23.669  23.402  1.00  0.00    -0.373 N 
ATOM     14  H   UNL A   1      35.766  23.713  22.506  1.00  0.00     0.161 HD
BRANCH  13  15
ATOM     15  C   UNL A   1      34.783  24.935  23.910  1.00  0.00     0.179 C 
ATOM     16  C   UNL A   1      34.272  24.893  25.327  1.00  0.00     0.136 C 
ATOM     17  C   UNL A   1      33.626  25.548  23.128  1.00  0.00     0.256 C 
ATOM     18  C   UNL A   1      33.146  25.886  25.322  1.00  0.00     0.236 C 
ATOM     19  N   UNL A   1      32.823  26.246  24.029  1.00  0.00    -0.248 N 
ATOM     20  O   UNL A   1      33.529  25.471  21.909  1.00  0.00    -0.272 OA
ATOM     21  O   UNL A   1      32.583  26.165  26.373  1.00  0.00    -0.274 OA
BRANCH  19  22
ATOM     22  C   UNL A   1      31.722  27.116  23.652  1.00  0.00     0.055 A 
ATOM     23  C   UNL A   1      32.010  28.403  23.139  1.00  0.00     0.027 A 
ATOM     24  C   UNL A   1      30.343  26.773  23.731  1.00  0.00    -0.027 A 
ATOM     25  C   UNL A   1      31.019  29.274  22.655  1.00  0.00     0.002 A 
ATOM     26  C   UNL A   1      29.359  27.650  23.196  1.00  0.00     0.005 A 
ATOM     27  C   UNL A   1      29.765  25.534  24.364  1.00  0.00     0.046 C 
ATOM     28  C   UNL A   1      29.691  28.886  22.660  1.00  0.00     0.000 A 
ENDBRANCH  19  22
ENDBRANCH  13  15
ENDBRANCH  10  13
ENDBRANCH   4   6
ENDBRANCH   3   4
ENDBRANCH   2   3
ENDBRANCH   1   2
BRANCH   1  29
ATOM     29  O   UNL A   1      41.755  19.591  25.555  1.00  0.00    -0.374 OA
BRANCH  29  30
ATOM     30  C   UNL A   1      42.745  18.729  26.080  1.00  0.00     0.202 C 
BRANCH  30  31
ATOM     31  C   UNL A   1      44.099  18.872  25.370  1.00  0.00     0.261 C 
BRANCH  31  32
ATOM     32  O   UNL A   1      44.132  20.120  24.642  1.00  0.00    -0.460 OA
BRANCH  32  33
ATOM     33  C   UNL A   1      44.883  21.123  25.179  1.00  0.00     0.338 C 
ATOM     34  O   UNL A   1      46.038  21.019  25.560  1.00  0.00    -0.246 OA
BRANCH  33  35
ATOM     35  C   UNL A   1      44.004  22.286  25.508  1.00  0.00     0.060 A 
ATOM     36  C   UNL A   1      43.841  23.332  24.579  1.00  0.00     0.016 A 
ATOM     37  C   UNL A   1      43.656  22.488  26.841  1.00  0.00     0.016 A 
ATOM     38  C   UNL A   1      43.500  24.621  25.019  1.00  0.00     0.010 A 
ATOM     39  C   UNL A   1      43.431  23.777  27.279  1.00  0.00     0.010 A 
ATOM     40  C   UNL A   1      43.393  24.861  26.386  1.00  0.00    -0.014 A 
BRANCH  40  41
ATOM     41  C   UNL A   1      43.404  26.181  27.035  1.00  0.00     0.031 A 
ATOM     42  C   UNL A   1      42.115  26.859  27.264  1.00  0.00     0.074 A 
ATOM     43  C   UNL A   1      44.502  26.612  27.706  1.00  0.00     0.049 A 
ATOM     44  N   UNL A   1      42.001  28.066  27.695  1.00  0.00    -0.248 NA
ATOM     45  C   UNL A   1      40.819  26.239  26.991  1.00  0.00     0.031 C 
ATOM     46  C   UNL A   1      44.588  27.519  28.853  1.00  0.00     0.029 A 
ATOM     47  N   UNL A   1      45.842  26.308  27.473  1.00  0.00    -0.354 N 
ATOM     48  C   UNL A   1      40.715  28.197  28.160  1.00  0.00     0.074 A 
ATOM     49  C   UNL A   1      39.984  27.124  27.539  1.00  0.00     0.031 C 
ATOM     50  C   UNL A   1      45.862  27.929  29.014  1.00  0.00     0.029 A 
ATOM     51  C   UNL A   1      46.616  27.398  27.891  1.00  0.00     0.049 A 
ATOM     52  H   UNL A   1      46.185  25.472  27.084  1.00  0.00     0.167 HD
ATOM     53  C   UNL A   1      40.479  29.079  29.173  1.00  0.00     0.031 A 
ATOM     54  C   UNL A   1      47.422  28.057  27.016  1.00  0.00     0.031 A 
ATOM     55  C   UNL A   1      41.687  29.862  29.489  1.00  0.00     0.049 A 
ATOM     56  C   UNL A   1      46.936  29.467  26.976  1.00  0.00     0.074 A 
ATOM     57  C   UNL A   1      42.539  29.896  30.581  1.00  0.00     0.029 A 
ATOM     58  N   UNL A   1      42.347  30.544  28.464  1.00  0.00    -0.354 N 
ATOM     59  N   UNL A   1      45.675  29.765  27.147  1.00  0.00    -0.248 NA
ATOM     60  C   UNL A   1      47.807  30.637  26.935  1.00  0.00     0.031 C 
ATOM     61  C   UNL A   1      43.749  30.533  30.173  1.00  0.00     0.029 A 
ATOM     62  C   UNL A   1      43.623  30.908  28.843  1.00  0.00     0.049 A 
ATOM     63  H   UNL A   1      41.952  30.739  27.583  1.00  0.00     0.167 HD
ATOM     64  C   UNL A   1      45.589  31.090  27.431  1.00  0.00     0.074 A 
ATOM     65  C   UNL A   1      46.924  31.618  27.189  1.00  0.00     0.031 C 
ATOM     66  C   UNL A   1      44.475  31.675  27.944  1.00  0.00     0.031 A 
BRANCH  53  67
ATOM     67  C   UNL A   1      39.244  29.054  30.054  1.00  0.00    -0.014 A 
ATOM     68  C   UNL A   1      38.098  29.767  29.656  1.00  0.00     0.009 A 
ATOM     69  C   UNL A   1      39.146  28.410  31.302  1.00  0.00     0.009 A 
ATOM     70  C   UNL A   1      36.951  29.854  30.462  1.00  0.00     0.001 A 
ATOM     71  C   UNL A   1      38.004  28.487  32.113  1.00  0.00     0.001 A 
ATOM     72  C   UNL A   1      36.905  29.215  31.693  1.00  0.00     0.000 A 
ENDBRANCH  53  67
BRANCH  54  73
ATOM     73  C   UNL A   1      47.866  27.168  25.900  1.00  0.00    -0.014 A 
ATOM     74  C   UNL A   1      47.333  27.471  24.629  1.00  0.00     0.009 A 
ATOM     75  C   UNL A   1      49.067  26.448  25.945  1.00  0.00     0.009 A 
ATOM     76  C   UNL A   1      48.070  27.248  23.464  1.00  0.00     0.001 A 
ATOM     77  C   UNL A   1      49.772  26.170  24.758  1.00  0.00     0.001 A 
ATOM     78  C   UNL A   1      49.301  26.619  23.526  1.00  0.00     0.000 A 
ENDBRANCH  54  73
BRANCH  66  79
ATOM     79  C   UNL A   1      44.119  33.088  27.612  1.00  0.00    -0.014 A 
ATOM     80  C   UNL A   1      44.029  33.549  26.290  1.00  0.00     0.009 A 
ATOM     81  C   UNL A   1      43.631  33.929  28.630  1.00  0.00     0.009 A 
ATOM     82  C   UNL A   1      43.512  34.810  26.000  1.00  0.00     0.001 A 
ATOM     83  C   UNL A   1      43.063  35.166  28.338  1.00  0.00     0.001 A 
ATOM     84  C   UNL A   1      43.016  35.611  27.023  1.00  0.00     0.000 A 
ENDBRANCH  66  79
ENDBRANCH  40  41
ENDBRANCH  33  35
ENDBRANCH  32  33
ENDBRANCH  31  32
ENDBRANCH  30  31
ENDBRANCH  29  30
ENDBRANCH   1  29
TORSDOF 17
ENDMDL
MODEL 2
REMARK VINA RESULT:     -11.8      3.362      9.284
REMARK SMILES Cc1ccc(C(=O)OCCOCCOC(=O)c2ccc(-c3c4nc(c(-c5ccccc5)c5ccc([nH]5)c(-c5ccccc5)c5nc(c(-c6ccccc6)c6ccc3[nH]6)C=C5)C=C4)cc2)cc1N[C@@H]1CC(=O)N(c2ccccc2C)C1=O
REMARK SMILES IDX 10 1 9 2 8 3 6 4 7 5 5 6 1 7 2 8 3 9 66 10 4 11 65 12 67 13
REMARK SMILES IDX 68 15 69 16 80 17 70 18 72 19 81 20 71 21 73 22 74 23 78 24
REMARK SMILES IDX 75 25 77 26 79 27 76 28 11 29 12 30 13 31 14 32 15 33 16 34
REMARK SMILES IDX 17 35 18 36 64 37 19 38 63 39 20 40 21 41 22 42 57 43 23 44
REMARK SMILES IDX 62 45 56 46 58 47 24 48 61 49 55 50 54 51 25 53 47 54 32 55
REMARK SMILES IDX 46 56 33 57 36 58 45 59 59 60 34 61 35 62 44 64 60 65 37 66
REMARK SMILES IDX 26 67 27 68 31 69 28 70 30 71 29 72 48 73 49 74 53 75 50 76
REMARK SMILES IDX 52 77 51 78 38 79 39 80 43 81 40 82 42 83 41 84
REMARK H PARENT 67 14 58 52 36 63
REMARK Flexibility Score: inf
ROOT
ATOM      1  C   UNL A   1      36.840  21.740  25.782  1.00  0.00     0.202 C 
ENDROOT
BRANCH   1   2
ATOM      2  C   UNL A   1      38.217  22.292  25.600  1.00  0.00     0.261 C 
BRANCH   2   3
ATOM      3  O   UNL A   1      39.233  21.314  25.846  1.00  0.00    -0.460 OA
BRANCH   3   4
ATOM      4  C   UNL A   1      40.164  21.569  26.807  1.00  0.00     0.338 C 
ATOM      5  O   UNL A   1      40.010  22.125  27.870  1.00  0.00    -0.246 OA
BRANCH   4   6
ATOM      6  C   UNL A   1      41.419  20.941  26.331  1.00  0.00     0.062 A 
ATOM      7  C   UNL A   1      45.001  19.135  24.819  1.00  0.00     0.046 C 
ATOM      8  C   UNL A   1      43.764  19.841  25.303  1.00  0.00    -0.028 A 
ATOM      9  C   UNL A   1      42.846  19.054  26.048  1.00  0.00     0.006 A 
ATOM     10  C   UNL A   1      43.493  21.198  25.036  1.00  0.00     0.038 A 
ATOM     11  C   UNL A   1      41.683  19.604  26.579  1.00  0.00     0.016 A 
ATOM     12  C   UNL A   1      42.307  21.696  25.552  1.00  0.00     0.041 A 
BRANCH  10  13
ATOM     13  N   UNL A   1      44.375  22.040  24.384  1.00  0.00    -0.373 N 
ATOM     14  H   UNL A   1      44.480  21.882  23.418  1.00  0.00     0.161 HD
BRANCH  13  15
ATOM     15  C   UNL A   1      45.180  23.147  24.948  1.00  0.00     0.179 C 
ATOM     16  C   UNL A   1      45.973  22.810  26.184  1.00  0.00     0.136 C 
ATOM     17  C   UNL A   1      44.450  24.431  25.326  1.00  0.00     0.256 C 
ATOM     18  C   UNL A   1      46.025  24.111  26.931  1.00  0.00     0.236 C 
ATOM     19  N   UNL A   1      45.142  25.020  26.385  1.00  0.00    -0.248 N 
ATOM     20  O   UNL A   1      43.481  24.854  24.710  1.00  0.00    -0.272 OA
ATOM     21  O   UNL A   1      46.701  24.196  27.948  1.00  0.00    -0.274 OA
BRANCH  19  22
ATOM     22  C   UNL A   1      44.868  26.345  26.915  1.00  0.00     0.055 A 
ATOM     23  C   UNL A   1      45.485  27.465  26.312  1.00  0.00     0.027 A 
ATOM     24  C   UNL A   1      43.991  26.628  28.001  1.00  0.00    -0.027 A 
ATOM     25  C   UNL A   1      45.205  28.790  26.689  1.00  0.00     0.002 A 
ATOM     26  C   UNL A   1      43.687  27.975  28.337  1.00  0.00     0.005 A 
ATOM     27  C   UNL A   1      43.323  25.617  28.897  1.00  0.00     0.046 C 
ATOM     28  C   UNL A   1      44.283  29.047  27.688  1.00  0.00     0.000 A 
ENDBRANCH  19  22
ENDBRANCH  13  15
ENDBRANCH  10  13
ENDBRANCH   4   6
ENDBRANCH   3   4
ENDBRANCH   2   3
ENDBRANCH   1   2
BRANCH   1  29
ATOM     29  O   UNL A   1      36.028  22.848  26.135  1.00  0.00    -0.374 OA
BRANCH  29  30
ATOM     30  C   UNL A   1      35.874  23.832  25.132  1.00  0.00     0.202 C 
BRANCH  30  31
ATOM     31  C   UNL A   1      34.417  24.282  24.955  1.00  0.00     0.261 C 
BRANCH  31  32
ATOM     32  O   UNL A   1      34.349  25.725  25.007  1.00  0.00    -0.460 OA
BRANCH  32  33
ATOM     33  C   UNL A   1      33.293  26.265  25.678  1.00  0.00     0.338 C 
ATOM     34  O   UNL A   1      32.165  25.801  25.719  1.00  0.00    -0.246 OA
BRANCH  33  35
ATOM     35  C   UNL A   1      33.632  27.655  26.110  1.00  0.00     0.060 A 
ATOM     36  C   UNL A   1      34.716  28.333  25.519  1.00  0.00     0.016 A 
ATOM     37  C   UNL A   1      33.109  28.113  27.317  1.00  0.00     0.016 A 
ATOM     38  C   UNL A   1      35.380  29.351  26.221  1.00  0.00     0.010 A 
ATOM     39  C   UNL A   1      33.832  29.035  28.045  1.00  0.00     0.010 A 
ATOM     40  C   UNL A   1      34.995  29.631  27.529  1.00  0.00    -0.014 A 
BRANCH  40  41
ATOM     41  C   UNL A   1      35.780  30.383  28.519  1.00  0.00     0.031 A 
ATOM     42  C   UNL A   1      35.434  31.796  28.761  1.00  0.00     0.074 A 
ATOM     43  C   UNL A   1      36.559  29.734  29.421  1.00  0.00     0.049 A 
ATOM     44  N   UNL A   1      36.126  32.594  29.496  1.00  0.00    -0.248 NA
ATOM     45  C   UNL A   1      34.276  32.456  28.158  1.00  0.00     0.031 C 
ATOM     46  C   UNL A   1      36.935  30.137  30.778  1.00  0.00     0.029 A 
ATOM     47  N   UNL A   1      37.214  28.511  29.288  1.00  0.00    -0.354 N 
ATOM     48  C   UNL A   1      35.307  33.650  29.808  1.00  0.00     0.074 A 
ATOM     49  C   UNL A   1      34.260  33.615  28.821  1.00  0.00     0.031 C 
ATOM     50  C   UNL A   1      37.959  29.375  31.212  1.00  0.00     0.029 A 
ATOM     51  C   UNL A   1      38.359  28.539  30.093  1.00  0.00     0.049 A 
ATOM     52  H   UNL A   1      36.921  27.758  28.727  1.00  0.00     0.167 HD
ATOM     53  C   UNL A   1      35.511  34.301  30.989  1.00  0.00     0.031 A 
ATOM     54  C   UNL A   1      39.596  28.374  29.551  1.00  0.00     0.031 A 
ATOM     55  C   UNL A   1      36.723  33.808  31.667  1.00  0.00     0.049 A 
ATOM     56  C   UNL A   1      40.356  29.623  29.847  1.00  0.00     0.074 A 
ATOM     57  C   UNL A   1      36.933  33.078  32.825  1.00  0.00     0.029 A 
ATOM     58  N   UNL A   1      37.933  33.783  30.970  1.00  0.00    -0.354 N 
ATOM     59  N   UNL A   1      39.763  30.785  29.930  1.00  0.00    -0.248 NA
ATOM     60  C   UNL A   1      41.757  29.658  30.251  1.00  0.00     0.031 C 
ATOM     61  C   UNL A   1      38.256  32.546  32.773  1.00  0.00     0.029 A 
ATOM     62  C   UNL A   1      38.858  32.974  31.599  1.00  0.00     0.049 A 
ATOM     63  H   UNL A   1      38.104  34.279  30.136  1.00  0.00     0.167 HD
ATOM     64  C   UNL A   1      40.604  31.643  30.562  1.00  0.00     0.074 A 
ATOM     65  C   UNL A   1      41.872  30.935  30.655  1.00  0.00     0.031 C 
ATOM     66  C   UNL A   1      40.210  32.840  31.070  1.00  0.00     0.031 A 
BRANCH  53  67
ATOM     67  C   UNL A   1      34.481  35.193  31.659  1.00  0.00    -0.014 A 
ATOM     68  C   UNL A   1      34.828  35.884  32.835  1.00  0.00     0.009 A 
ATOM     69  C   UNL A   1      33.149  35.360  31.237  1.00  0.00     0.009 A 
ATOM     70  C   UNL A   1      33.901  36.659  33.551  1.00  0.00     0.001 A 
ATOM     71  C   UNL A   1      32.216  36.135  31.942  1.00  0.00     0.001 A 
ATOM     72  C   UNL A   1      32.593  36.783  33.105  1.00  0.00     0.000 A 
ENDBRANCH  53  67
BRANCH  54  73
ATOM     73  C   UNL A   1      39.544  27.562  28.297  1.00  0.00    -0.014 A 
ATOM     74  C   UNL A   1      40.178  28.134  27.173  1.00  0.00     0.009 A 
ATOM     75  C   UNL A   1      39.372  26.172  28.308  1.00  0.00     0.009 A 
ATOM     76  C   UNL A   1      40.795  27.335  26.208  1.00  0.00     0.001 A 
ATOM     77  C   UNL A   1      39.944  25.379  27.295  1.00  0.00     0.001 A 
ATOM     78  C   UNL A   1      40.701  25.956  26.277  1.00  0.00     0.000 A 
ENDBRANCH  54  73
BRANCH  66  79
ATOM     79  C   UNL A   1      41.137  34.011  31.107  1.00  0.00    -0.014 A 
ATOM     80  C   UNL A   1      41.783  34.421  32.283  1.00  0.00     0.009 A 
ATOM     81  C   UNL A   1      41.568  34.583  29.895  1.00  0.00     0.009 A 
ATOM     82  C   UNL A   1      42.784  35.390  32.256  1.00  0.00     0.001 A 
ATOM     83  C   UNL A   1      42.607  35.509  29.858  1.00  0.00     0.001 A 
ATOM     84  C   UNL A   1      43.205  35.922  31.042  1.00  0.00     0.000 A 
ENDBRANCH  66  79
ENDBRANCH  40  41
ENDBRANCH  33  35
ENDBRANCH  32  33
ENDBRANCH  31  32
ENDBRANCH  30  31
ENDBRANCH  29  30
ENDBRANCH   1  29
TORSDOF 17
ENDMDL
MODEL 3
REMARK VINA RESULT:     -11.7      4.942     11.116
REMARK SMILES Cc1ccc(C(=O)OCCOCCOC(=O)c2ccc(-c3c4nc(c(-c5ccccc5)c5ccc([nH]5)c(-c5ccccc5)c5nc(c(-c6ccccc6)c6ccc3[nH]6)C=C5)C=C4)cc2)cc1N[C@@H]1CC(=O)N(c2ccccc2C)C1=O
REMARK SMILES IDX 10 1 9 2 8 3 6 4 7 5 5 6 1 7 2 8 3 9 66 10 4 11 65 12 67 13
REMARK SMILES IDX 68 15 69 16 80 17 70 18 72 19 81 20 71 21 73 22 74 23 78 24
REMARK SMILES IDX 75 25 77 26 79 27 76 28 11 29 12 30 13 31 14 32 15 33 16 34
REMARK SMILES IDX 17 35 18 36 64 37 19 38 63 39 20 40 21 41 22 42 57 43 23 44
REMARK SMILES IDX 62 45 56 46 58 47 24 48 61 49 55 50 54 51 25 53 47 54 32 55
REMARK SMILES IDX 46 56 33 57 36 58 45 59 59 60 34 61 35 62 44 64 60 65 37 66
REMARK SMILES IDX 26 67 27 68 31 69 28 70 30 71 29 72 48 73 49 74 53 75 50 76
REMARK SMILES IDX 52 77 51 78 38 79 39 80 43 81 40 82 42 83 41 84
REMARK H PARENT 67 14 58 52 36 63
REMARK Flexibility Score: inf
ROOT
ATOM      1  C   UNL A   1      33.744  34.170  28.322  1.00  0.00     0.202 C 
ENDROOT
BRANCH   1   2
ATOM      2  C   UNL A   1      34.149  32.760  28.605  1.00  0.00     0.261 C 
BRANCH   2   3
ATOM      3  O   UNL A   1      33.736  31.856  27.575  1.00  0.00    -0.460 OA
BRANCH   3   4
ATOM      4  C   UNL A   1      34.172  30.567  27.625  1.00  0.00     0.338 C 
ATOM      5  O   UNL A   1      35.088  30.111  28.269  1.00  0.00    -0.246 OA
BRANCH   4   6
ATOM      6  C   UNL A   1      33.229  29.789  26.787  1.00  0.00     0.062 A 
ATOM      7  C   UNL A   1      30.607  27.512  24.272  1.00  0.00     0.046 C 
ATOM      8  C   UNL A   1      31.575  28.238  25.167  1.00  0.00    -0.028 A 
ATOM      9  C   UNL A   1      31.416  29.647  25.247  1.00  0.00     0.006 A 
ATOM     10  C   UNL A   1      32.601  27.590  25.884  1.00  0.00     0.038 A 
ATOM     11  C   UNL A   1      32.227  30.423  26.070  1.00  0.00     0.016 A 
ATOM     12  C   UNL A   1      33.410  28.404  26.661  1.00  0.00     0.041 A 
BRANCH  10  13
ATOM     13  N   UNL A   1      32.766  26.218  25.911  1.00  0.00    -0.373 N 
ATOM     14  H   UNL A   1      32.132  25.723  26.478  1.00  0.00     0.161 HD
BRANCH  13  15
ATOM     15  C   UNL A   1      33.770  25.396  25.198  1.00  0.00     0.179 C 
ATOM     16  C   UNL A   1      33.516  25.191  23.727  1.00  0.00     0.136 C 
ATOM     17  C   UNL A   1      34.029  23.987  25.719  1.00  0.00     0.256 C 
ATOM     18  C   UNL A   1      34.113  23.841  23.454  1.00  0.00     0.236 C 
ATOM     19  N   UNL A   1      34.409  23.194  24.636  1.00  0.00    -0.248 N 
ATOM     20  O   UNL A   1      33.976  23.694  26.907  1.00  0.00    -0.272 OA
ATOM     21  O   UNL A   1      34.162  23.424  22.304  1.00  0.00    -0.274 OA
BRANCH  19  22
ATOM     22  C   UNL A   1      34.913  21.835  24.745  1.00  0.00     0.055 A 
ATOM     23  C   UNL A   1      34.002  20.757  24.646  1.00  0.00     0.027 A 
ATOM     24  C   UNL A   1      36.279  21.479  24.923  1.00  0.00    -0.027 A 
ATOM     25  C   UNL A   1      34.406  19.411  24.639  1.00  0.00     0.002 A 
ATOM     26  C   UNL A   1      36.673  20.114  24.868  1.00  0.00     0.005 A 
ATOM     27  C   UNL A   1      37.421  22.425  25.194  1.00  0.00     0.046 C 
ATOM     28  C   UNL A   1      35.749  19.089  24.724  1.00  0.00     0.000 A 
ENDBRANCH  19  22
ENDBRANCH  13  15
ENDBRANCH  10  13
ENDBRANCH   4   6
ENDBRANCH   3   4
ENDBRANCH   2   3
ENDBRANCH   1   2
BRANCH   1  29
ATOM     29  O   UNL A   1      32.869  34.535  29.376  1.00  0.00    -0.374 OA
BRANCH  29  30
ATOM     30  C   UNL A   1      32.988  35.868  29.831  1.00  0.00     0.202 C 
BRANCH  30  31
ATOM     31  C   UNL A   1      32.532  36.046  31.286  1.00  0.00     0.261 C 
BRANCH  31  32
ATOM     32  O   UNL A   1      33.654  35.836  32.172  1.00  0.00    -0.460 OA
BRANCH  32  33
ATOM     33  C   UNL A   1      33.878  34.557  32.585  1.00  0.00     0.338 C 
ATOM     34  O   UNL A   1      33.017  33.753  32.902  1.00  0.00    -0.246 OA
BRANCH  33  35
ATOM     35  C   UNL A   1      35.331  34.373  32.882  1.00  0.00     0.060 A 
ATOM     36  C   UNL A   1      36.291  34.607  31.878  1.00  0.00     0.016 A 
ATOM     37  C   UNL A   1      35.683  33.641  34.013  1.00  0.00     0.016 A 
ATOM     38  C   UNL A   1      37.537  33.961  31.927  1.00  0.00     0.010 A 
ATOM     39  C   UNL A   1      36.862  32.925  34.000  1.00  0.00     0.010 A 
ATOM     40  C   UNL A   1      37.780  33.040  32.942  1.00  0.00    -0.014 A 
BRANCH  40  41
ATOM     41  C   UNL A   1      38.846  32.028  32.953  1.00  0.00     0.031 A 
ATOM     42  C   UNL A   1      38.625  30.771  32.213  1.00  0.00     0.074 A 
ATOM     43  C   UNL A   1      40.108  32.356  33.327  1.00  0.00     0.049 A 
ATOM     44  N   UNL A   1      39.418  29.758  32.258  1.00  0.00    -0.248 NA
ATOM     45  C   UNL A   1      37.454  30.526  31.371  1.00  0.00     0.031 C 
ATOM     46  C   UNL A   1      41.382  31.775  32.897  1.00  0.00     0.029 A 
ATOM     47  N   UNL A   1      40.523  33.334  34.230  1.00  0.00    -0.354 N 
ATOM     48  C   UNL A   1      39.119  28.977  31.168  1.00  0.00     0.074 A 
ATOM     49  C   UNL A   1      37.798  29.386  30.768  1.00  0.00     0.031 C 
ATOM     50  C   UNL A   1      42.366  32.168  33.731  1.00  0.00     0.029 A 
ATOM     51  C   UNL A   1      41.730  32.914  34.803  1.00  0.00     0.049 A 
ATOM     52  H   UNL A   1      40.051  34.173  34.429  1.00  0.00     0.167 HD
ATOM     53  C   UNL A   1      40.113  28.223  30.620  1.00  0.00     0.031 A 
ATOM     54  C   UNL A   1      41.838  32.735  36.148  1.00  0.00     0.031 A 
ATOM     55  C   UNL A   1      41.341  28.287  31.432  1.00  0.00     0.049 A 
ATOM     56  C   UNL A   1      42.188  31.300  36.354  1.00  0.00     0.074 A 
ATOM     57  C   UNL A   1      42.591  28.848  31.222  1.00  0.00     0.029 A 
ATOM     58  N   UNL A   1      41.274  27.993  32.796  1.00  0.00    -0.354 N 
ATOM     59  N   UNL A   1      41.769  30.366  35.543  1.00  0.00    -0.248 NA
ATOM     60  C   UNL A   1      43.157  30.822  37.336  1.00  0.00     0.031 C 
ATOM     61  C   UNL A   1      43.238  28.961  32.489  1.00  0.00     0.029 A 
ATOM     62  C   UNL A   1      42.394  28.448  33.463  1.00  0.00     0.049 A 
ATOM     63  H   UNL A   1      40.524  27.522  33.226  1.00  0.00     0.167 HD
ATOM     64  C   UNL A   1      42.526  29.257  35.748  1.00  0.00     0.074 A 
ATOM     65  C   UNL A   1      43.309  29.546  36.940  1.00  0.00     0.031 C 
ATOM     66  C   UNL A   1      42.559  28.204  34.890  1.00  0.00     0.031 A 
BRANCH  53  67
ATOM     67  C   UNL A   1      40.067  27.640  29.219  1.00  0.00    -0.014 A 
ATOM     68  C   UNL A   1      39.595  26.328  29.032  1.00  0.00     0.009 A 
ATOM     69  C   UNL A   1      40.517  28.286  28.052  1.00  0.00     0.009 A 
ATOM     70  C   UNL A   1      39.602  25.698  27.777  1.00  0.00     0.001 A 
ATOM     71  C   UNL A   1      40.524  27.669  26.792  1.00  0.00     0.001 A 
ATOM     72  C   UNL A   1      40.070  26.370  26.655  1.00  0.00     0.000 A 
ENDBRANCH  53  67
BRANCH  54  73
ATOM     73  C   UNL A   1      40.878  33.602  36.897  1.00  0.00    -0.014 A 
ATOM     74  C   UNL A   1      39.838  32.924  37.566  1.00  0.00     0.009 A 
ATOM     75  C   UNL A   1      41.222  34.880  37.358  1.00  0.00     0.009 A 
ATOM     76  C   UNL A   1      39.310  33.410  38.764  1.00  0.00     0.001 A 
ATOM     77  C   UNL A   1      40.637  35.391  38.532  1.00  0.00     0.001 A 
ATOM     78  C   UNL A   1      39.724  34.633  39.264  1.00  0.00     0.000 A 
ENDBRANCH  54  73
BRANCH  66  79
ATOM     79  C   UNL A   1      42.773  26.809  35.383  1.00  0.00    -0.014 A 
ATOM     80  C   UNL A   1      41.707  25.945  35.675  1.00  0.00     0.009 A 
ATOM     81  C   UNL A   1      44.065  26.255  35.334  1.00  0.00     0.009 A 
ATOM     82  C   UNL A   1      41.927  24.596  35.948  1.00  0.00     0.001 A 
ATOM     83  C   UNL A   1      44.282  24.897  35.551  1.00  0.00     0.001 A 
ATOM     84  C   UNL A   1      43.212  24.071  35.871  1.00  0.00     0.000 A 
ENDBRANCH  66  79
ENDBRANCH  40  41
ENDBRANCH  33  35
ENDBRANCH  32  33
ENDBRANCH  31  32
ENDBRANCH  30  31
ENDBRANCH  29  30
ENDBRANCH   1  29
TORSDOF 17
ENDMDL
