MODEL 1
REMARK VINA RESULT:     -12.0      0.000      0.000
REMARK SMILES Cc1ccc(S(=O)(=O)N2c3ccc(C(=O)OCCOCCOC(=O)c4ccc(-c5c6nc(c(-c7ccccc7)c7ccc([nH]7)c(-c7ccccc7)c7nc(c(-c8ccccc8)c8ccc5[nH]8)C=C7)C=C6)cc4)cc3C[C@H]2C)cc1
REMARK SMILES IDX 19 1 18 2 17 3 16 4 14 5 15 6 13 7 9 8 10 9 76 10 11 11
REMARK SMILES IDX 74 12 75 13 77 14 12 15 73 16 6 17 7 18 8 19 5 20 1 21 2 22
REMARK SMILES IDX 3 23 79 24 4 25 78 26 20 27 21 28 22 29 23 30 24 31 25 32
REMARK SMILES IDX 26 33 72 34 27 35 71 36 28 37 29 38 30 39 65 40 31 41 70 42
REMARK SMILES IDX 64 43 66 44 32 45 69 46 63 47 62 48 33 50 55 51 40 52 54 53
REMARK SMILES IDX 41 54 44 55 53 56 67 57 42 58 43 59 52 61 68 62 45 63 34 64
REMARK SMILES IDX 35 65 39 66 36 67 38 68 37 69 56 70 57 71 61 72 58 73 60 74
REMARK SMILES IDX 59 75 46 76 47 77 51 78 48 79 50 80 49 81
REMARK H PARENT 66 49 44 60
REMARK Flexibility Score: inf
ROOT
ATOM      1  O   UNL A   1      42.614  19.387  26.452  1.00  0.00    -0.374 OA
ENDROOT
BRANCH   1   2
ATOM      2  C   UNL A   1      41.240  19.501  26.122  1.00  0.00     0.202 C 
BRANCH   2   3
ATOM      3  C   UNL A   1      40.841  20.818  26.672  1.00  0.00     0.261 C 
BRANCH   3   4
ATOM      4  O   UNL A   1      39.611  21.234  26.099  1.00  0.00    -0.460 OA
BRANCH   4   5
ATOM      5  C   UNL A   1      39.088  22.432  26.488  1.00  0.00     0.338 C 
ATOM      6  O   UNL A   1      39.589  23.327  27.120  1.00  0.00    -0.246 OA
BRANCH   5   7
ATOM      7  C   UNL A   1      37.830  22.498  25.734  1.00  0.00     0.060 A 
ATOM      8  N   UNL A   1      33.861  22.361  24.605  1.00  0.00    -0.263 N 
ATOM      9  C   UNL A   1      35.216  22.539  25.037  1.00  0.00     0.055 A 
ATOM     10  C   UNL A   1      33.653  20.859  24.721  1.00  0.00     0.101 C 
ATOM     11  C   UNL A   1      35.808  23.751  25.316  1.00  0.00     0.028 A 
ATOM     12  C   UNL A   1      35.912  21.328  25.054  1.00  0.00    -0.021 A 
ATOM     13  C   UNL A   1      35.040  20.197  24.644  1.00  0.00     0.063 C 
ATOM     14  C   UNL A   1      33.006  20.610  26.098  1.00  0.00     0.032 C 
ATOM     15  C   UNL A   1      37.148  23.732  25.625  1.00  0.00     0.018 A 
ATOM     16  C   UNL A   1      37.242  21.284  25.393  1.00  0.00     0.021 A 
BRANCH   8  17
ATOM     17  S   UNL A   1      33.702  23.097  23.053  1.00  0.00     0.264 S 
ATOM     18  O   UNL A   1      32.722  22.337  22.301  1.00  0.00    -0.201 OA
ATOM     19  O   UNL A   1      35.037  23.318  22.526  1.00  0.00    -0.201 OA
BRANCH  17  20
ATOM     20  C   UNL A   1      33.026  24.710  23.260  1.00  0.00     0.088 A 
ATOM     21  C   UNL A   1      31.106  28.521  23.064  1.00  0.00     0.044 C 
ATOM     22  C   UNL A   1      31.814  27.207  23.173  1.00  0.00    -0.051 A 
ATOM     23  C   UNL A   1      32.925  26.945  22.363  1.00  0.00     0.005 A 
ATOM     24  C   UNL A   1      31.383  26.245  24.092  1.00  0.00     0.005 A 
ATOM     25  C   UNL A   1      33.523  25.692  22.396  1.00  0.00     0.022 A 
ATOM     26  C   UNL A   1      32.013  25.008  24.161  1.00  0.00     0.022 A 
ENDBRANCH  17  20
ENDBRANCH   8  17
ENDBRANCH   5   7
ENDBRANCH   4   5
ENDBRANCH   3   4
ENDBRANCH   2   3
ENDBRANCH   1   2
BRANCH   1  27
ATOM     27  C   UNL A   1      43.311  18.374  25.765  1.00  0.00     0.202 C 
BRANCH  27  28
ATOM     28  C   UNL A   1      44.410  18.932  24.848  1.00  0.00     0.261 C 
BRANCH  28  29
ATOM     29  O   UNL A   1      45.235  19.858  25.595  1.00  0.00    -0.460 OA
BRANCH  29  30
ATOM     30  C   UNL A   1      45.676  20.973  24.943  1.00  0.00     0.338 C 
ATOM     31  O   UNL A   1      46.782  21.111  24.446  1.00  0.00    -0.246 OA
BRANCH  30  32
ATOM     32  C   UNL A   1      44.739  22.113  25.206  1.00  0.00     0.060 A 
ATOM     33  C   UNL A   1      44.635  23.175  24.279  1.00  0.00     0.016 A 
ATOM     34  C   UNL A   1      44.274  22.290  26.504  1.00  0.00     0.016 A 
ATOM     35  C   UNL A   1      44.231  24.457  24.703  1.00  0.00     0.010 A 
ATOM     36  C   UNL A   1      43.981  23.568  26.934  1.00  0.00     0.010 A 
ATOM     37  C   UNL A   1      43.991  24.675  26.058  1.00  0.00    -0.014 A 
BRANCH  37  38
ATOM     38  C   UNL A   1      43.898  25.981  26.742  1.00  0.00     0.031 A 
ATOM     39  C   UNL A   1      42.571  26.627  26.792  1.00  0.00     0.074 A 
ATOM     40  C   UNL A   1      44.876  26.439  27.568  1.00  0.00     0.049 A 
ATOM     41  N   UNL A   1      42.366  27.819  27.223  1.00  0.00    -0.248 NA
ATOM     42  C   UNL A   1      41.342  25.980  26.336  1.00  0.00     0.031 C 
ATOM     43  C   UNL A   1      44.776  27.350  28.716  1.00  0.00     0.029 A 
ATOM     44  N   UNL A   1      46.236  26.156  27.538  1.00  0.00    -0.354 N 
ATOM     45  C   UNL A   1      41.017  27.959  27.435  1.00  0.00     0.074 A 
ATOM     46  C   UNL A   1      40.414  26.815  26.802  1.00  0.00     0.031 C 
ATOM     47  C   UNL A   1      46.006  27.737  29.109  1.00  0.00     0.029 A 
ATOM     48  C   UNL A   1      46.961  27.170  28.173  1.00  0.00     0.049 A 
ATOM     49  H   UNL A   1      46.633  25.355  27.126  1.00  0.00     0.167 HD
ATOM     50  C   UNL A   1      40.590  28.967  28.244  1.00  0.00     0.031 A 
ATOM     51  C   UNL A   1      47.960  27.780  27.486  1.00  0.00     0.031 A 
ATOM     52  C   UNL A   1      41.724  29.801  28.679  1.00  0.00     0.049 A 
ATOM     53  C   UNL A   1      47.437  29.149  27.151  1.00  0.00     0.074 A 
ATOM     54  C   UNL A   1      42.433  29.895  29.866  1.00  0.00     0.029 A 
ATOM     55  N   UNL A   1      42.528  30.404  27.705  1.00  0.00    -0.354 N 
ATOM     56  N   UNL A   1      46.158  29.426  27.161  1.00  0.00    -0.248 NA
ATOM     57  C   UNL A   1      48.265  30.330  26.944  1.00  0.00     0.031 C 
ATOM     58  C   UNL A   1      43.718  30.448  29.565  1.00  0.00     0.029 A 
ATOM     59  C   UNL A   1      43.781  30.724  28.206  1.00  0.00     0.049 A 
ATOM     60  H   UNL A   1      42.241  30.578  26.780  1.00  0.00     0.167 HD
ATOM     61  C   UNL A   1      45.988  30.768  27.147  1.00  0.00     0.074 A 
ATOM     62  C   UNL A   1      47.327  31.297  26.930  1.00  0.00     0.031 C 
ATOM     63  C   UNL A   1      44.785  31.372  27.356  1.00  0.00     0.031 A 
BRANCH  50  64
ATOM     64  C   UNL A   1      39.192  29.018  28.818  1.00  0.00    -0.014 A 
ATOM     65  C   UNL A   1      38.117  29.446  28.021  1.00  0.00     0.009 A 
ATOM     66  C   UNL A   1      38.865  28.690  30.149  1.00  0.00     0.009 A 
ATOM     67  C   UNL A   1      36.818  29.589  28.538  1.00  0.00     0.001 A 
ATOM     68  C   UNL A   1      37.582  28.871  30.685  1.00  0.00     0.001 A 
ATOM     69  C   UNL A   1      36.554  29.322  29.876  1.00  0.00     0.000 A 
ENDBRANCH  50  64
BRANCH  51  70
ATOM     70  C   UNL A   1      48.713  26.777  26.653  1.00  0.00    -0.014 A 
ATOM     71  C   UNL A   1      48.752  27.032  25.256  1.00  0.00     0.009 A 
ATOM     72  C   UNL A   1      49.745  25.994  27.194  1.00  0.00     0.009 A 
ATOM     73  C   UNL A   1      49.849  26.648  24.468  1.00  0.00     0.001 A 
ATOM     74  C   UNL A   1      50.843  25.610  26.399  1.00  0.00     0.001 A 
ATOM     75  C   UNL A   1      50.912  25.966  25.050  1.00  0.00     0.000 A 
ENDBRANCH  51  70
BRANCH  63  76
ATOM     76  C   UNL A   1      44.496  32.718  26.774  1.00  0.00    -0.014 A 
ATOM     77  C   UNL A   1      44.158  32.889  25.423  1.00  0.00     0.009 A 
ATOM     78  C   UNL A   1      44.366  33.829  27.624  1.00  0.00     0.009 A 
ATOM     79  C   UNL A   1      43.789  34.135  24.924  1.00  0.00     0.001 A 
ATOM     80  C   UNL A   1      43.930  35.061  27.142  1.00  0.00     0.001 A 
ATOM     81  C   UNL A   1      43.665  35.218  25.786  1.00  0.00     0.000 A 
ENDBRANCH  63  76
ENDBRANCH  37  38
ENDBRANCH  30  32
ENDBRANCH  29  30
ENDBRANCH  28  29
ENDBRANCH  27  28
ENDBRANCH   1  27
TORSDOF 16
ENDMDL
MODEL 2
REMARK VINA RESULT:     -11.5      1.152      2.814
REMARK SMILES Cc1ccc(S(=O)(=O)N2c3ccc(C(=O)OCCOCCOC(=O)c4ccc(-c5c6nc(c(-c7ccccc7)c7ccc([nH]7)c(-c7ccccc7)c7nc(c(-c8ccccc8)c8ccc5[nH]8)C=C7)C=C6)cc4)cc3C[C@H]2C)cc1
REMARK SMILES IDX 19 1 18 2 17 3 16 4 14 5 15 6 13 7 9 8 10 9 76 10 11 11
REMARK SMILES IDX 74 12 75 13 77 14 12 15 73 16 6 17 7 18 8 19 5 20 1 21 2 22
REMARK SMILES IDX 3 23 79 24 4 25 78 26 20 27 21 28 22 29 23 30 24 31 25 32
REMARK SMILES IDX 26 33 72 34 27 35 71 36 28 37 29 38 30 39 65 40 31 41 70 42
REMARK SMILES IDX 64 43 66 44 32 45 69 46 63 47 62 48 33 50 55 51 40 52 54 53
REMARK SMILES IDX 41 54 44 55 53 56 67 57 42 58 43 59 52 61 68 62 45 63 34 64
REMARK SMILES IDX 35 65 39 66 36 67 38 68 37 69 56 70 57 71 61 72 58 73 60 74
REMARK SMILES IDX 59 75 46 76 47 77 51 78 48 79 50 80 49 81
REMARK H PARENT 66 49 44 60
REMARK Flexibility Score: inf
ROOT
ATOM      1  O   UNL A   1      42.231  20.115  26.507  1.00  0.00    -0.374 OA
ENDROOT
BRANCH   1   2
ATOM      2  C   UNL A   1      41.321  20.912  25.767  1.00  0.00     0.202 C 
BRANCH   2   3
ATOM      3  C   UNL A   1      40.057  20.829  26.537  1.00  0.00     0.261 C 
BRANCH   3   4
ATOM      4  O   UNL A   1      39.004  21.450  25.815  1.00  0.00    -0.460 OA
BRANCH   4   5
ATOM      5  C   UNL A   1      38.627  22.710  26.175  1.00  0.00     0.338 C 
ATOM      6  O   UNL A   1      39.300  23.673  26.441  1.00  0.00    -0.246 OA
BRANCH   5   7
ATOM      7  C   UNL A   1      37.182  22.703  25.917  1.00  0.00     0.060 A 
ATOM      8  N   UNL A   1      33.445  23.166  24.224  1.00  0.00    -0.263 N 
ATOM      9  C   UNL A   1      34.750  22.883  24.745  1.00  0.00     0.055 A 
ATOM     10  C   UNL A   1      33.379  24.684  24.251  1.00  0.00     0.101 C 
ATOM     11  C   UNL A   1      35.367  21.652  24.719  1.00  0.00     0.028 A 
ATOM     12  C   UNL A   1      35.300  23.999  25.381  1.00  0.00    -0.021 A 
ATOM     13  C   UNL A   1      34.385  25.167  25.312  1.00  0.00     0.063 C 
ATOM     14  C   UNL A   1      33.795  25.167  22.847  1.00  0.00     0.032 C 
ATOM     15  C   UNL A   1      36.582  21.552  25.355  1.00  0.00     0.018 A 
ATOM     16  C   UNL A   1      36.527  23.928  25.992  1.00  0.00     0.021 A 
BRANCH   8  17
ATOM     17  S   UNL A   1      32.300  22.275  25.158  1.00  0.00     0.264 S 
ATOM     18  O   UNL A   1      30.974  22.679  24.736  1.00  0.00    -0.201 OA
ATOM     19  O   UNL A   1      32.698  22.365  26.553  1.00  0.00    -0.201 OA
BRANCH  17  20
ATOM     20  C   UNL A   1      32.450  20.567  24.757  1.00  0.00     0.088 A 
ATOM     21  C   UNL A   1      33.418  16.641  23.380  1.00  0.00     0.044 C 
ATOM     22  C   UNL A   1      33.024  17.999  23.871  1.00  0.00    -0.051 A 
ATOM     23  C   UNL A   1      32.541  18.953  22.970  1.00  0.00     0.005 A 
ATOM     24  C   UNL A   1      33.122  18.314  25.230  1.00  0.00     0.005 A 
ATOM     25  C   UNL A   1      32.266  20.241  23.409  1.00  0.00     0.022 A 
ATOM     26  C   UNL A   1      32.799  19.590  25.679  1.00  0.00     0.022 A 
ENDBRANCH  17  20
ENDBRANCH   8  17
ENDBRANCH   5   7
ENDBRANCH   4   5
ENDBRANCH   3   4
ENDBRANCH   2   3
ENDBRANCH   1   2
BRANCH   1  27
ATOM     27  C   UNL A   1      42.775  19.021  25.805  1.00  0.00     0.202 C 
BRANCH  27  28
ATOM     28  C   UNL A   1      43.869  19.443  24.812  1.00  0.00     0.261 C 
BRANCH  28  29
ATOM     29  O   UNL A   1      44.989  19.999  25.540  1.00  0.00    -0.460 OA
BRANCH  29  30
ATOM     30  C   UNL A   1      45.525  21.164  25.073  1.00  0.00     0.338 C 
ATOM     31  O   UNL A   1      46.672  21.309  24.681  1.00  0.00    -0.246 OA
BRANCH  30  32
ATOM     32  C   UNL A   1      44.616  22.308  25.409  1.00  0.00     0.060 A 
ATOM     33  C   UNL A   1      44.458  23.380  24.503  1.00  0.00     0.016 A 
ATOM     34  C   UNL A   1      44.239  22.472  26.737  1.00  0.00     0.016 A 
ATOM     35  C   UNL A   1      44.092  24.660  24.966  1.00  0.00     0.010 A 
ATOM     36  C   UNL A   1      43.984  23.748  27.199  1.00  0.00     0.010 A 
ATOM     37  C   UNL A   1      43.943  24.864  26.336  1.00  0.00    -0.014 A 
BRANCH  37  38
ATOM     38  C   UNL A   1      43.905  26.163  27.039  1.00  0.00     0.031 A 
ATOM     39  C   UNL A   1      42.603  26.857  27.109  1.00  0.00     0.074 A 
ATOM     40  C   UNL A   1      44.907  26.573  27.863  1.00  0.00     0.049 A 
ATOM     41  N   UNL A   1      42.448  28.050  27.559  1.00  0.00    -0.248 NA
ATOM     42  C   UNL A   1      41.348  26.264  26.655  1.00  0.00     0.031 C 
ATOM     43  C   UNL A   1      44.850  27.470  29.025  1.00  0.00     0.029 A 
ATOM     44  N   UNL A   1      46.254  26.239  27.817  1.00  0.00    -0.354 N 
ATOM     45  C   UNL A   1      41.106  28.238  27.784  1.00  0.00     0.074 A 
ATOM     46  C   UNL A   1      40.455  27.126  27.140  1.00  0.00     0.031 C 
ATOM     47  C   UNL A   1      46.096  27.805  29.412  1.00  0.00     0.029 A 
ATOM     48  C   UNL A   1      47.022  27.216  28.460  1.00  0.00     0.049 A 
ATOM     49  H   UNL A   1      46.617  25.430  27.391  1.00  0.00     0.167 HD
ATOM     50  C   UNL A   1      40.724  29.249  28.610  1.00  0.00     0.031 A 
ATOM     51  C   UNL A   1      48.038  27.798  27.774  1.00  0.00     0.031 A 
ATOM     52  C   UNL A   1      41.892  30.034  29.048  1.00  0.00     0.049 A 
ATOM     53  C   UNL A   1      47.563  29.191  27.462  1.00  0.00     0.074 A 
ATOM     54  C   UNL A   1      42.613  30.084  30.229  1.00  0.00     0.029 A 
ATOM     55  N   UNL A   1      42.711  30.620  28.075  1.00  0.00    -0.354 N 
ATOM     56  N   UNL A   1      46.297  29.514  27.486  1.00  0.00    -0.248 NA
ATOM     57  C   UNL A   1      48.434  30.342  27.264  1.00  0.00     0.031 C 
ATOM     58  C   UNL A   1      43.916  30.593  29.925  1.00  0.00     0.029 A 
ATOM     59  C   UNL A   1      43.978  30.885  28.569  1.00  0.00     0.049 A 
ATOM     60  H   UNL A   1      42.422  30.818  27.155  1.00  0.00     0.167 HD
ATOM     61  C   UNL A   1      46.177  30.863  27.493  1.00  0.00     0.074 A 
ATOM     62  C   UNL A   1      47.533  31.344  27.271  1.00  0.00     0.031 C 
ATOM     63  C   UNL A   1      44.999  31.508  27.720  1.00  0.00     0.031 A 
BRANCH  50  64
ATOM     64  C   UNL A   1      39.333  29.345  29.197  1.00  0.00    -0.014 A 
ATOM     65  C   UNL A   1      39.083  28.875  30.498  1.00  0.00     0.009 A 
ATOM     66  C   UNL A   1      38.213  29.858  28.513  1.00  0.00     0.009 A 
ATOM     67  C   UNL A   1      37.791  28.867  31.051  1.00  0.00     0.001 A 
ATOM     68  C   UNL A   1      36.914  29.814  29.039  1.00  0.00     0.001 A 
ATOM     69  C   UNL A   1      36.702  29.317  30.313  1.00  0.00     0.000 A 
ENDBRANCH  50  64
BRANCH  51  70
ATOM     70  C   UNL A   1      48.746  26.780  26.920  1.00  0.00    -0.014 A 
ATOM     71  C   UNL A   1      48.883  27.106  25.545  1.00  0.00     0.009 A 
ATOM     72  C   UNL A   1      49.675  25.878  27.464  1.00  0.00     0.009 A 
ATOM     73  C   UNL A   1      49.985  26.670  24.791  1.00  0.00     0.001 A 
ATOM     74  C   UNL A   1      50.778  25.443  26.702  1.00  0.00     0.001 A 
ATOM     75  C   UNL A   1      50.951  25.865  25.383  1.00  0.00     0.000 A 
ENDBRANCH  51  70
BRANCH  63  76
ATOM     76  C   UNL A   1      44.756  32.872  27.160  1.00  0.00    -0.014 A 
ATOM     77  C   UNL A   1      44.239  33.066  25.869  1.00  0.00     0.009 A 
ATOM     78  C   UNL A   1      44.860  33.996  27.996  1.00  0.00     0.009 A 
ATOM     79  C   UNL A   1      43.920  34.339  25.405  1.00  0.00     0.001 A 
ATOM     80  C   UNL A   1      44.477  35.261  27.558  1.00  0.00     0.001 A 
ATOM     81  C   UNL A   1      44.029  35.435  26.253  1.00  0.00     0.000 A 
ENDBRANCH  63  76
ENDBRANCH  37  38
ENDBRANCH  30  32
ENDBRANCH  29  30
ENDBRANCH  28  29
ENDBRANCH  27  28
ENDBRANCH   1  27
TORSDOF 16
ENDMDL
MODEL 3
REMARK VINA RESULT:     -11.4      4.311      9.264
REMARK SMILES Cc1ccc(S(=O)(=O)N2c3ccc(C(=O)OCCOCCOC(=O)c4ccc(-c5c6nc(c(-c7ccccc7)c7ccc([nH]7)c(-c7ccccc7)c7nc(c(-c8ccccc8)c8ccc5[nH]8)C=C7)C=C6)cc4)cc3C[C@H]2C)cc1
REMARK SMILES IDX 19 1 18 2 17 3 16 4 14 5 15 6 13 7 9 8 10 9 76 10 11 11
REMARK SMILES IDX 74 12 75 13 77 14 12 15 73 16 6 17 7 18 8 19 5 20 1 21 2 22
REMARK SMILES IDX 3 23 79 24 4 25 78 26 20 27 21 28 22 29 23 30 24 31 25 32
REMARK SMILES IDX 26 33 72 34 27 35 71 36 28 37 29 38 30 39 65 40 31 41 70 42
REMARK SMILES IDX 64 43 66 44 32 45 69 46 63 47 62 48 33 50 55 51 40 52 54 53
REMARK SMILES IDX 41 54 44 55 53 56 67 57 42 58 43 59 52 61 68 62 45 63 34 64
REMARK SMILES IDX 35 65 39 66 36 67 38 68 37 69 56 70 57 71 61 72 58 73 60 74
REMARK SMILES IDX 59 75 46 76 47 77 51 78 48 79 50 80 49 81
REMARK H PARENT 66 49 44 60
REMARK Flexibility Score: inf
ROOT
ATOM      1  O   UNL A   1      33.179  29.637  25.758  1.00  0.00    -0.374 OA
ENDROOT
BRANCH   1   2
ATOM      2  C   UNL A   1      31.778  29.523  25.942  1.00  0.00     0.202 C 
BRANCH   2   3
ATOM      3  C   UNL A   1      31.235  29.443  24.565  1.00  0.00     0.261 C 
BRANCH   3   4
ATOM      4  O   UNL A   1      31.111  28.087  24.168  1.00  0.00    -0.460 OA
BRANCH   4   5
ATOM      5  C   UNL A   1      32.027  27.583  23.291  1.00  0.00     0.338 C 
ATOM      6  O   UNL A   1      32.790  28.154  22.556  1.00  0.00    -0.246 OA
BRANCH   5   7
ATOM      7  C   UNL A   1      32.052  26.155  23.632  1.00  0.00     0.060 A 
ATOM      8  N   UNL A   1      31.140  22.400  25.088  1.00  0.00    -0.263 N 
ATOM      9  C   UNL A   1      31.383  23.671  24.470  1.00  0.00     0.055 A 
ATOM     10  C   UNL A   1      31.271  22.704  26.572  1.00  0.00     0.101 C 
ATOM     11  C   UNL A   1      31.164  23.963  23.142  1.00  0.00     0.028 A 
ATOM     12  C   UNL A   1      31.967  24.572  25.363  1.00  0.00    -0.021 A 
ATOM     13  C   UNL A   1      32.146  23.963  26.706  1.00  0.00     0.063 C 
ATOM     14  C   UNL A   1      29.846  22.973  27.093  1.00  0.00     0.032 C 
ATOM     15  C   UNL A   1      31.548  25.210  22.708  1.00  0.00     0.018 A 
ATOM     16  C   UNL A   1      32.325  25.834  24.958  1.00  0.00     0.021 A 
BRANCH   8  17
ATOM     17  S   UNL A   1      32.222  21.256  24.383  1.00  0.00     0.264 S 
ATOM     18  O   UNL A   1      32.065  21.328  22.943  1.00  0.00    -0.201 OA
ATOM     19  O   UNL A   1      32.060  19.997  25.089  1.00  0.00    -0.201 OA
BRANCH  17  20
ATOM     20  C   UNL A   1      33.875  21.756  24.727  1.00  0.00     0.088 A 
ATOM     21  C   UNL A   1      37.593  23.666  25.608  1.00  0.00     0.044 C 
ATOM     22  C   UNL A   1      36.320  22.953  25.276  1.00  0.00    -0.051 A 
ATOM     23  C   UNL A   1      35.698  23.175  24.042  1.00  0.00     0.005 A 
ATOM     24  C   UNL A   1      35.756  22.053  26.185  1.00  0.00     0.005 A 
ATOM     25  C   UNL A   1      34.470  22.588  23.772  1.00  0.00     0.022 A 
ATOM     26  C   UNL A   1      34.550  21.425  25.894  1.00  0.00     0.022 A 
ENDBRANCH  17  20
ENDBRANCH   8  17
ENDBRANCH   5   7
ENDBRANCH   4   5
ENDBRANCH   3   4
ENDBRANCH   2   3
ENDBRANCH   1   2
BRANCH   1  27
ATOM     27  C   UNL A   1      33.931  29.744  26.945  1.00  0.00     0.202 C 
BRANCH  27  28
ATOM     28  C   UNL A   1      34.100  31.199  27.406  1.00  0.00     0.261 C 
BRANCH  28  29
ATOM     29  O   UNL A   1      34.662  31.217  28.740  1.00  0.00    -0.460 OA
BRANCH  29  30
ATOM     30  C   UNL A   1      35.991  31.505  28.857  1.00  0.00     0.338 C 
ATOM     31  O   UNL A   1      36.493  32.608  28.706  1.00  0.00    -0.246 OA
BRANCH  30  32
ATOM     32  C   UNL A   1      36.783  30.232  28.871  1.00  0.00     0.060 A 
ATOM     33  C   UNL A   1      36.805  29.422  30.028  1.00  0.00     0.016 A 
ATOM     34  C   UNL A   1      37.760  30.060  27.896  1.00  0.00     0.016 A 
ATOM     35  C   UNL A   1      37.900  28.572  30.286  1.00  0.00     0.010 A 
ATOM     36  C   UNL A   1      38.875  29.307  28.203  1.00  0.00     0.010 A 
ATOM     37  C   UNL A   1      38.984  28.585  29.411  1.00  0.00    -0.014 A 
BRANCH  37  38
ATOM     38  C   UNL A   1      40.336  28.049  29.668  1.00  0.00     0.031 A 
ATOM     39  C   UNL A   1      40.704  26.787  28.995  1.00  0.00     0.074 A 
ATOM     40  C   UNL A   1      41.324  28.804  30.221  1.00  0.00     0.049 A 
ATOM     41  N   UNL A   1      41.783  26.132  29.234  1.00  0.00    -0.248 NA
ATOM     42  C   UNL A   1      39.865  26.134  27.993  1.00  0.00     0.031 C 
ATOM     43  C   UNL A   1      42.779  28.698  30.059  1.00  0.00     0.029 A 
ATOM     44  N   UNL A   1      41.204  29.882  31.088  1.00  0.00    -0.354 N 
ATOM     45  C   UNL A   1      41.951  25.224  28.218  1.00  0.00     0.074 A 
ATOM     46  C   UNL A   1      40.698  25.212  27.509  1.00  0.00     0.031 C 
ATOM     47  C   UNL A   1      43.404  29.477  30.964  1.00  0.00     0.029 A 
ATOM     48  C   UNL A   1      42.383  30.054  31.821  1.00  0.00     0.049 A 
ATOM     49  H   UNL A   1      40.401  30.445  31.175  1.00  0.00     0.167 HD
ATOM     50  C   UNL A   1      43.188  24.690  28.026  1.00  0.00     0.031 A 
ATOM     51  C   UNL A   1      42.307  30.075  33.176  1.00  0.00     0.031 A 
ATOM     52  C   UNL A   1      44.125  25.160  29.062  1.00  0.00     0.049 A 
ATOM     53  C   UNL A   1      42.890  28.766  33.629  1.00  0.00     0.074 A 
ATOM     54  C   UNL A   1      45.140  26.102  29.068  1.00  0.00     0.029 A 
ATOM     55  N   UNL A   1      43.812  24.928  30.406  1.00  0.00    -0.354 N 
ATOM     56  N   UNL A   1      42.994  27.737  32.829  1.00  0.00    -0.248 NA
ATOM     57  C   UNL A   1      43.535  28.543  34.917  1.00  0.00     0.031 C 
ATOM     58  C   UNL A   1      45.341  26.520  30.422  1.00  0.00     0.029 A 
ATOM     59  C   UNL A   1      44.477  25.809  31.244  1.00  0.00     0.049 A 
ATOM     60  H   UNL A   1      43.194  24.227  30.718  1.00  0.00     0.167 HD
ATOM     61  C   UNL A   1      43.830  26.824  33.376  1.00  0.00     0.074 A 
ATOM     62  C   UNL A   1      44.083  27.328  34.718  1.00  0.00     0.031 C 
ATOM     63  C   UNL A   1      44.301  25.740  32.698  1.00  0.00     0.031 A 
BRANCH  50  64
ATOM     64  C   UNL A   1      43.575  23.959  26.760  1.00  0.00    -0.014 A 
ATOM     65  C   UNL A   1      44.358  24.601  25.785  1.00  0.00     0.009 A 
ATOM     66  C   UNL A   1      43.177  22.644  26.446  1.00  0.00     0.009 A 
ATOM     67  C   UNL A   1      44.670  23.989  24.559  1.00  0.00     0.001 A 
ATOM     68  C   UNL A   1      43.445  22.042  25.208  1.00  0.00     0.001 A 
ATOM     69  C   UNL A   1      44.196  22.717  24.262  1.00  0.00     0.000 A 
ENDBRANCH  50  64
BRANCH  51  70
ATOM     70  C   UNL A   1      41.074  30.817  33.621  1.00  0.00    -0.014 A 
ATOM     71  C   UNL A   1      41.012  32.191  33.267  1.00  0.00     0.009 A 
ATOM     72  C   UNL A   1      39.858  30.156  33.852  1.00  0.00     0.009 A 
ATOM     73  C   UNL A   1      39.788  32.830  33.009  1.00  0.00     0.001 A 
ATOM     74  C   UNL A   1      38.632  30.802  33.594  1.00  0.00     0.001 A 
ATOM     75  C   UNL A   1      38.599  32.122  33.140  1.00  0.00     0.000 A 
ENDBRANCH  51  70
BRANCH  63  76
ATOM     76  C   UNL A   1      44.694  24.496  33.427  1.00  0.00    -0.014 A 
ATOM     77  C   UNL A   1      46.022  24.243  33.807  1.00  0.00     0.009 A 
ATOM     78  C   UNL A   1      43.700  23.638  33.924  1.00  0.00     0.009 A 
ATOM     79  C   UNL A   1      46.352  23.133  34.579  1.00  0.00     0.001 A 
ATOM     80  C   UNL A   1      44.019  22.565  34.753  1.00  0.00     0.001 A 
ATOM     81  C   UNL A   1      45.349  22.300  35.060  1.00  0.00     0.000 A 
ENDBRANCH  63  76
ENDBRANCH  37  38
ENDBRANCH  30  32
ENDBRANCH  29  30
ENDBRANCH  28  29
ENDBRANCH  27  28
ENDBRANCH   1  27
TORSDOF 16
ENDMDL
