MODEL 1
REMARK VINA RESULT:     -10.6      0.000      0.000
REMARK SMILES CN1C(=O)CC[C@H]([NH2+]Cc2ccc(C(=O)OCCOCCOC(=O)c3ccc(-c4c5nc(c(-c6ccccc6)c6ccc([nH]6)c(-c6ccccc6)c6nc(c(-c7ccccc7)c7ccc4[nH]7)C=C6)C=C5)cc3)cn2)C1=O
REMARK SMILES IDX 18 1 17 2 16 3 14 4 15 5 13 6 10 7 11 8 74 9 12 10 73 11
REMARK SMILES IDX 9 12 8 13 7 16 1 17 2 18 3 19 75 20 4 21 5 22 76 23 6 24
REMARK SMILES IDX 19 25 20 26 21 27 22 28 23 29 24 30 25 31 26 32 72 33 27 34
REMARK SMILES IDX 71 35 28 36 29 37 30 38 65 39 31 40 70 41 64 42 66 43 32 44
REMARK SMILES IDX 69 45 63 46 62 47 33 49 55 50 40 51 54 52 41 53 44 54 53 55
REMARK SMILES IDX 67 56 42 57 43 58 52 60 68 61 45 62 34 63 35 64 39 65 36 66
REMARK SMILES IDX 38 67 37 68 56 69 57 70 61 71 58 72 60 73 59 74 46 75 47 76
REMARK SMILES IDX 51 77 48 78 50 79 49 80
REMARK H PARENT 8 14 8 15 66 48 44 59
REMARK Flexibility Score: inf
ROOT
ATOM      1  C   UNL A   1      32.939  35.333  29.930  1.00  0.00     0.202 C 
ENDROOT
BRANCH   1   2
ATOM      2  C   UNL A   1      34.120  34.700  29.187  1.00  0.00     0.261 C 
BRANCH   2   3
ATOM      3  O   UNL A   1      33.885  33.313  28.904  1.00  0.00    -0.460 OA
BRANCH   3   4
ATOM      4  C   UNL A   1      34.775  32.752  28.051  1.00  0.00     0.339 C 
ATOM      5  O   UNL A   1      35.852  33.217  27.704  1.00  0.00    -0.246 OA
BRANCH   4   6
ATOM      6  C   UNL A   1      34.338  31.398  27.675  1.00  0.00     0.078 A 
ATOM      7  C   UNL A   1      33.280  28.941  27.042  1.00  0.00     0.094 A 
ATOM      8  C   UNL A   1      34.639  29.041  27.357  1.00  0.00     0.031 A 
ATOM      9  N   UNL A   1      32.464  30.025  26.990  1.00  0.00    -0.254 NA
ATOM     10  C   UNL A   1      35.178  30.286  27.675  1.00  0.00     0.019 A 
ATOM     11  C   UNL A   1      33.013  31.224  27.298  1.00  0.00     0.127 A 
BRANCH   7  12
ATOM     12  C   UNL A   1      32.650  27.560  26.991  1.00  0.00     0.318 C 
BRANCH  12  13
ATOM     13  N   UNL A   1      33.200  26.645  25.992  1.00  0.00    -0.331 N 
ATOM     14  H   UNL A   1      32.894  26.962  25.073  1.00  0.00     0.347 HD
ATOM     15  H   UNL A   1      34.213  26.668  26.117  1.00  0.00     0.347 HD
BRANCH  13  16
ATOM     16  C   UNL A   1      32.802  25.224  26.143  1.00  0.00     0.274 C 
ATOM     17  C   UNL A   1      34.573  21.988  25.100  1.00  0.00     0.156 C 
ATOM     18  N   UNL A   1      33.519  22.953  25.369  1.00  0.00    -0.281 N 
ATOM     19  C   UNL A   1      32.209  22.488  25.289  1.00  0.00     0.229 C 
ATOM     20  C   UNL A   1      33.900  24.280  25.604  1.00  0.00     0.287 C 
ATOM     21  O   UNL A   1      31.902  21.380  24.847  1.00  0.00    -0.274 OA
ATOM     22  C   UNL A   1      31.139  23.397  25.834  1.00  0.00     0.107 C 
ATOM     23  O   UNL A   1      35.057  24.680  25.442  1.00  0.00    -0.267 OA
ATOM     24  C   UNL A   1      31.444  24.848  25.555  1.00  0.00     0.085 C 
ENDBRANCH  13  16
ENDBRANCH  12  13
ENDBRANCH   7  12
ENDBRANCH   4   6
ENDBRANCH   3   4
ENDBRANCH   2   3
ENDBRANCH   1   2
BRANCH   1  25
ATOM     25  O   UNL A   1      32.778  35.002  31.307  1.00  0.00    -0.374 OA
BRANCH  25  26
ATOM     26  C   UNL A   1      33.956  34.865  32.103  1.00  0.00     0.202 C 
BRANCH  26  27
ATOM     27  C   UNL A   1      34.056  33.641  33.024  1.00  0.00     0.261 C 
BRANCH  27  28
ATOM     28  O   UNL A   1      34.886  32.602  32.476  1.00  0.00    -0.460 OA
BRANCH  28  29
ATOM     29  C   UNL A   1      36.024  32.363  33.169  1.00  0.00     0.338 C 
ATOM     30  O   UNL A   1      36.226  32.558  34.359  1.00  0.00    -0.246 OA
BRANCH  29  31
ATOM     31  C   UNL A   1      36.983  31.639  32.318  1.00  0.00     0.060 A 
ATOM     32  C   UNL A   1      37.970  30.874  32.953  1.00  0.00     0.016 A 
ATOM     33  C   UNL A   1      36.962  31.761  30.927  1.00  0.00     0.016 A 
ATOM     34  C   UNL A   1      38.965  30.256  32.200  1.00  0.00     0.010 A 
ATOM     35  C   UNL A   1      37.968  31.148  30.175  1.00  0.00     0.010 A 
ATOM     36  C   UNL A   1      38.989  30.417  30.809  1.00  0.00    -0.014 A 
BRANCH  36  37
ATOM     37  C   UNL A   1      40.146  29.918  30.028  1.00  0.00     0.031 A 
ATOM     38  C   UNL A   1      41.338  30.811  29.826  1.00  0.00     0.074 A 
ATOM     39  C   UNL A   1      40.135  28.676  29.512  1.00  0.00     0.049 A 
ATOM     40  N   UNL A   1      42.426  30.595  29.130  1.00  0.00    -0.248 NA
ATOM     41  C   UNL A   1      41.299  32.120  30.496  1.00  0.00     0.031 C 
ATOM     42  C   UNL A   1      39.060  27.700  29.679  1.00  0.00     0.029 A 
ATOM     43  N   UNL A   1      41.063  28.029  28.734  1.00  0.00    -0.354 N 
ATOM     44  C   UNL A   1      43.194  31.744  29.268  1.00  0.00     0.074 A 
ATOM     45  C   UNL A   1      42.437  32.664  30.089  1.00  0.00     0.031 C 
ATOM     46  C   UNL A   1      39.386  26.577  29.014  1.00  0.00     0.029 A 
ATOM     47  C   UNL A   1      40.670  26.773  28.344  1.00  0.00     0.049 A 
ATOM     48  H   UNL A   1      41.926  28.429  28.480  1.00  0.00     0.167 HD
ATOM     49  C   UNL A   1      44.421  32.009  28.758  1.00  0.00     0.031 A 
ATOM     50  C   UNL A   1      41.265  25.892  27.518  1.00  0.00     0.031 A 
ATOM     51  C   UNL A   1      45.165  31.098  27.928  1.00  0.00     0.049 A 
ATOM     52  C   UNL A   1      42.587  26.245  26.892  1.00  0.00     0.074 A 
ATOM     53  C   UNL A   1      46.424  31.267  27.377  1.00  0.00     0.029 A 
ATOM     54  N   UNL A   1      44.714  29.853  27.520  1.00  0.00    -0.354 N 
ATOM     55  N   UNL A   1      43.315  27.324  27.047  1.00  0.00    -0.248 NA
ATOM     56  C   UNL A   1      43.172  25.252  25.979  1.00  0.00     0.031 C 
ATOM     57  C   UNL A   1      46.706  30.151  26.582  1.00  0.00     0.029 A 
ATOM     58  C   UNL A   1      45.654  29.256  26.696  1.00  0.00     0.049 A 
ATOM     59  H   UNL A   1      43.853  29.451  27.778  1.00  0.00     0.167 HD
ATOM     60  C   UNL A   1      44.456  27.128  26.278  1.00  0.00     0.074 A 
ATOM     61  C   UNL A   1      44.330  25.820  25.670  1.00  0.00     0.031 C 
ATOM     62  C   UNL A   1      45.514  27.955  26.094  1.00  0.00     0.031 A 
BRANCH  49  63
ATOM     63  C   UNL A   1      45.019  33.358  29.050  1.00  0.00    -0.014 A 
ATOM     64  C   UNL A   1      45.847  33.566  30.166  1.00  0.00     0.009 A 
ATOM     65  C   UNL A   1      44.779  34.428  28.175  1.00  0.00     0.009 A 
ATOM     66  C   UNL A   1      46.394  34.828  30.414  1.00  0.00     0.001 A 
ATOM     67  C   UNL A   1      45.353  35.679  28.408  1.00  0.00     0.001 A 
ATOM     68  C   UNL A   1      46.151  35.881  29.532  1.00  0.00     0.000 A 
ENDBRANCH  49  63
BRANCH  50  69
ATOM     69  C   UNL A   1      40.604  24.596  27.211  1.00  0.00    -0.014 A 
ATOM     70  C   UNL A   1      39.406  24.557  26.481  1.00  0.00     0.009 A 
ATOM     71  C   UNL A   1      41.159  23.390  27.666  1.00  0.00     0.009 A 
ATOM     72  C   UNL A   1      38.766  23.340  26.235  1.00  0.00     0.001 A 
ATOM     73  C   UNL A   1      40.534  22.171  27.391  1.00  0.00     0.001 A 
ATOM     74  C   UNL A   1      39.333  22.148  26.686  1.00  0.00     0.000 A 
ENDBRANCH  50  69
BRANCH  62  75
ATOM     75  C   UNL A   1      46.638  27.454  25.229  1.00  0.00    -0.014 A 
ATOM     76  C   UNL A   1      47.496  26.431  25.661  1.00  0.00     0.009 A 
ATOM     77  C   UNL A   1      46.815  27.990  23.942  1.00  0.00     0.009 A 
ATOM     78  C   UNL A   1      48.531  25.982  24.837  1.00  0.00     0.001 A 
ATOM     79  C   UNL A   1      47.830  27.516  23.109  1.00  0.00     0.001 A 
ATOM     80  C   UNL A   1      48.694  26.521  23.561  1.00  0.00     0.000 A 
ENDBRANCH  62  75
ENDBRANCH  36  37
ENDBRANCH  29  31
ENDBRANCH  28  29
ENDBRANCH  27  28
ENDBRANCH  26  27
ENDBRANCH  25  26
ENDBRANCH   1  25
TORSDOF 17
ENDMDL
MODEL 2
REMARK VINA RESULT:     -10.5      1.574      1.996
REMARK SMILES CN1C(=O)CC[C@H]([NH2+]Cc2ccc(C(=O)OCCOCCOC(=O)c3ccc(-c4c5nc(c(-c6ccccc6)c6ccc([nH]6)c(-c6ccccc6)c6nc(c(-c7ccccc7)c7ccc4[nH]7)C=C6)C=C5)cc3)cn2)C1=O
REMARK SMILES IDX 18 1 17 2 16 3 14 4 15 5 13 6 10 7 11 8 74 9 12 10 73 11
REMARK SMILES IDX 9 12 8 13 7 16 1 17 2 18 3 19 75 20 4 21 5 22 76 23 6 24
REMARK SMILES IDX 19 25 20 26 21 27 22 28 23 29 24 30 25 31 26 32 72 33 27 34
REMARK SMILES IDX 71 35 28 36 29 37 30 38 65 39 31 40 70 41 64 42 66 43 32 44
REMARK SMILES IDX 69 45 63 46 62 47 33 49 55 50 40 51 54 52 41 53 44 54 53 55
REMARK SMILES IDX 67 56 42 57 43 58 52 60 68 61 45 62 34 63 35 64 39 65 36 66
REMARK SMILES IDX 38 67 37 68 56 69 57 70 61 71 58 72 60 73 59 74 46 75 47 76
REMARK SMILES IDX 51 77 48 78 50 79 49 80
REMARK H PARENT 8 14 8 15 66 48 44 59
REMARK Flexibility Score: inf
ROOT
ATOM      1  C   UNL A   1      32.953  35.309  29.632  1.00  0.00     0.202 C 
ENDROOT
BRANCH   1   2
ATOM      2  C   UNL A   1      34.084  34.666  28.824  1.00  0.00     0.261 C 
BRANCH   2   3
ATOM      3  O   UNL A   1      33.931  33.241  28.742  1.00  0.00    -0.460 OA
BRANCH   3   4
ATOM      4  C   UNL A   1      34.924  32.604  28.076  1.00  0.00     0.339 C 
ATOM      5  O   UNL A   1      36.078  32.985  27.942  1.00  0.00    -0.246 OA
BRANCH   4   6
ATOM      6  C   UNL A   1      34.467  31.279  27.625  1.00  0.00     0.078 A 
ATOM      7  C   UNL A   1      33.379  28.869  26.875  1.00  0.00     0.094 A 
ATOM      8  C   UNL A   1      34.758  28.961  27.089  1.00  0.00     0.031 A 
ATOM      9  N   UNL A   1      32.554  29.942  26.979  1.00  0.00    -0.254 NA
ATOM     10  C   UNL A   1      35.312  30.183  27.465  1.00  0.00     0.019 A 
ATOM     11  C   UNL A   1      33.117  31.119  27.341  1.00  0.00     0.127 A 
BRANCH   7  12
ATOM     12  C   UNL A   1      32.758  27.489  26.761  1.00  0.00     0.318 C 
BRANCH  12  13
ATOM     13  N   UNL A   1      32.960  26.802  25.486  1.00  0.00    -0.331 N 
ATOM     14  H   UNL A   1      33.715  27.275  24.989  1.00  0.00     0.347 HD
ATOM     15  H   UNL A   1      33.169  25.831  25.720  1.00  0.00     0.347 HD
BRANCH  13  16
ATOM     16  C   UNL A   1      31.777  26.760  24.590  1.00  0.00     0.274 C 
ATOM     17  C   UNL A   1      30.323  29.395  22.215  1.00  0.00     0.156 C 
ATOM     18  N   UNL A   1      30.407  28.305  23.174  1.00  0.00    -0.281 N 
ATOM     19  C   UNL A   1      29.221  27.633  23.463  1.00  0.00     0.229 C 
ATOM     20  C   UNL A   1      31.645  28.073  23.786  1.00  0.00     0.287 C 
ATOM     21  O   UNL A   1      28.111  28.015  23.091  1.00  0.00    -0.274 OA
ATOM     22  C   UNL A   1      29.350  26.343  24.227  1.00  0.00     0.107 C 
ATOM     23  O   UNL A   1      32.604  28.840  23.660  1.00  0.00    -0.267 OA
ATOM     24  C   UNL A   1      30.449  26.412  25.259  1.00  0.00     0.085 C 
ENDBRANCH  13  16
ENDBRANCH  12  13
ENDBRANCH   7  12
ENDBRANCH   4   6
ENDBRANCH   3   4
ENDBRANCH   2   3
ENDBRANCH   1   2
BRANCH   1  25
ATOM     25  O   UNL A   1      32.895  35.016  31.026  1.00  0.00    -0.374 OA
BRANCH  25  26
ATOM     26  C   UNL A   1      34.128  34.836  31.724  1.00  0.00     0.202 C 
BRANCH  26  27
ATOM     27  C   UNL A   1      34.161  33.807  32.861  1.00  0.00     0.261 C 
BRANCH  27  28
ATOM     28  O   UNL A   1      34.880  32.612  32.507  1.00  0.00    -0.460 OA
BRANCH  28  29
ATOM     29  C   UNL A   1      36.012  32.403  33.218  1.00  0.00     0.338 C 
ATOM     30  O   UNL A   1      36.196  32.619  34.407  1.00  0.00    -0.246 OA
BRANCH  29  31
ATOM     31  C   UNL A   1      36.995  31.683  32.390  1.00  0.00     0.060 A 
ATOM     32  C   UNL A   1      38.028  31.003  33.048  1.00  0.00     0.016 A 
ATOM     33  C   UNL A   1      36.947  31.729  30.995  1.00  0.00     0.016 A 
ATOM     34  C   UNL A   1      39.042  30.396  32.311  1.00  0.00     0.010 A 
ATOM     35  C   UNL A   1      37.972  31.128  30.260  1.00  0.00     0.010 A 
ATOM     36  C   UNL A   1      39.038  30.483  30.914  1.00  0.00    -0.014 A 
BRANCH  36  37
ATOM     37  C   UNL A   1      40.207  30.001  30.140  1.00  0.00     0.031 A 
ATOM     38  C   UNL A   1      41.386  30.912  29.943  1.00  0.00     0.074 A 
ATOM     39  C   UNL A   1      40.219  28.758  29.626  1.00  0.00     0.049 A 
ATOM     40  N   UNL A   1      42.481  30.713  29.254  1.00  0.00    -0.248 NA
ATOM     41  C   UNL A   1      41.322  32.222  30.610  1.00  0.00     0.031 C 
ATOM     42  C   UNL A   1      39.159  27.765  29.789  1.00  0.00     0.029 A 
ATOM     43  N   UNL A   1      41.161  28.125  28.856  1.00  0.00    -0.354 N 
ATOM     44  C   UNL A   1      43.230  31.874  29.394  1.00  0.00     0.074 A 
ATOM     45  C   UNL A   1      42.454  32.784  30.209  1.00  0.00     0.031 C 
ATOM     46  C   UNL A   1      39.506  26.646  29.129  1.00  0.00     0.029 A 
ATOM     47  C   UNL A   1      40.790  26.862  28.466  1.00  0.00     0.049 A 
ATOM     48  H   UNL A   1      42.019  28.537  28.606  1.00  0.00     0.167 HD
ATOM     49  C   UNL A   1      44.456  32.157  28.890  1.00  0.00     0.031 A 
ATOM     50  C   UNL A   1      41.405  25.988  27.645  1.00  0.00     0.031 A 
ATOM     51  C   UNL A   1      45.219  31.257  28.067  1.00  0.00     0.049 A 
ATOM     52  C   UNL A   1      42.725  26.361  27.026  1.00  0.00     0.074 A 
ATOM     53  C   UNL A   1      46.478  31.444  27.522  1.00  0.00     0.029 A 
ATOM     54  N   UNL A   1      44.790  30.004  27.659  1.00  0.00    -0.354 N 
ATOM     55  N   UNL A   1      43.434  27.452  27.183  1.00  0.00    -0.248 NA
ATOM     56  C   UNL A   1      43.330  25.376  26.119  1.00  0.00     0.031 C 
ATOM     57  C   UNL A   1      46.782  30.332  26.732  1.00  0.00     0.029 A 
ATOM     58  C   UNL A   1      45.744  29.420  26.841  1.00  0.00     0.049 A 
ATOM     59  H   UNL A   1      43.934  29.588  27.913  1.00  0.00     0.167 HD
ATOM     60  C   UNL A   1      44.582  27.273  26.421  1.00  0.00     0.074 A 
ATOM     61  C   UNL A   1      44.481  25.961  25.815  1.00  0.00     0.031 C 
ATOM     62  C   UNL A   1      45.629  28.116  26.241  1.00  0.00     0.031 A 
BRANCH  49  63
ATOM     63  C   UNL A   1      45.030  33.516  29.183  1.00  0.00    -0.014 A 
ATOM     64  C   UNL A   1      45.434  33.877  30.479  1.00  0.00     0.009 A 
ATOM     65  C   UNL A   1      45.204  34.436  28.138  1.00  0.00     0.009 A 
ATOM     66  C   UNL A   1      45.969  35.144  30.725  1.00  0.00     0.001 A 
ATOM     67  C   UNL A   1      45.768  35.689  28.381  1.00  0.00     0.001 A 
ATOM     68  C   UNL A   1      46.141  36.047  29.676  1.00  0.00     0.000 A 
ENDBRANCH  49  63
BRANCH  50  69
ATOM     69  C   UNL A   1      40.765  24.681  27.337  1.00  0.00    -0.014 A 
ATOM     70  C   UNL A   1      39.645  24.611  26.496  1.00  0.00     0.009 A 
ATOM     71  C   UNL A   1      41.264  23.496  27.901  1.00  0.00     0.009 A 
ATOM     72  C   UNL A   1      39.022  23.386  26.247  1.00  0.00     0.001 A 
ATOM     73  C   UNL A   1      40.659  22.268  27.625  1.00  0.00     0.001 A 
ATOM     74  C   UNL A   1      39.532  22.215  26.808  1.00  0.00     0.000 A 
ENDBRANCH  50  69
BRANCH  62  75
ATOM     75  C   UNL A   1      46.765  27.631  25.384  1.00  0.00    -0.014 A 
ATOM     76  C   UNL A   1      47.784  26.819  25.907  1.00  0.00     0.009 A 
ATOM     77  C   UNL A   1      46.794  27.961  24.018  1.00  0.00     0.009 A 
ATOM     78  C   UNL A   1      48.828  26.380  25.088  1.00  0.00     0.001 A 
ATOM     79  C   UNL A   1      47.820  27.494  23.196  1.00  0.00     0.001 A 
ATOM     80  C   UNL A   1      48.842  26.714  23.734  1.00  0.00     0.000 A 
ENDBRANCH  62  75
ENDBRANCH  36  37
ENDBRANCH  29  31
ENDBRANCH  28  29
ENDBRANCH  27  28
ENDBRANCH  26  27
ENDBRANCH  25  26
ENDBRANCH   1  25
TORSDOF 17
ENDMDL
MODEL 3
REMARK VINA RESULT:     -10.2      4.468     10.631
REMARK SMILES CN1C(=O)CC[C@H]([NH2+]Cc2ccc(C(=O)OCCOCCOC(=O)c3ccc(-c4c5nc(c(-c6ccccc6)c6ccc([nH]6)c(-c6ccccc6)c6nc(c(-c7ccccc7)c7ccc4[nH]7)C=C6)C=C5)cc3)cn2)C1=O
REMARK SMILES IDX 18 1 17 2 16 3 14 4 15 5 13 6 10 7 11 8 74 9 12 10 73 11
REMARK SMILES IDX 9 12 8 13 7 16 1 17 2 18 3 19 75 20 4 21 5 22 76 23 6 24
REMARK SMILES IDX 19 25 20 26 21 27 22 28 23 29 24 30 25 31 26 32 72 33 27 34
REMARK SMILES IDX 71 35 28 36 29 37 30 38 65 39 31 40 70 41 64 42 66 43 32 44
REMARK SMILES IDX 69 45 63 46 62 47 33 49 55 50 40 51 54 52 41 53 44 54 53 55
REMARK SMILES IDX 67 56 42 57 43 58 52 60 68 61 45 62 34 63 35 64 39 65 36 66
REMARK SMILES IDX 38 67 37 68 56 69 57 70 61 71 58 72 60 73 59 74 46 75 47 76
REMARK SMILES IDX 51 77 48 78 50 79 49 80
REMARK H PARENT 8 14 8 15 66 48 44 59
REMARK Flexibility Score: inf
ROOT
ATOM      1  C   UNL A   1      44.999  20.042  24.592  1.00  0.00     0.202 C 
ENDROOT
BRANCH   1   2
ATOM      2  C   UNL A   1      43.813  19.349  25.269  1.00  0.00     0.261 C 
BRANCH   2   3
ATOM      3  O   UNL A   1      43.041  20.269  26.055  1.00  0.00    -0.460 OA
BRANCH   3   4
ATOM      4  C   UNL A   1      42.048  19.699  26.779  1.00  0.00     0.339 C 
ATOM      5  O   UNL A   1      42.176  18.922  27.715  1.00  0.00    -0.246 OA
BRANCH   4   6
ATOM      6  C   UNL A   1      40.743  20.248  26.376  1.00  0.00     0.078 A 
ATOM      7  C   UNL A   1      38.298  21.085  25.440  1.00  0.00     0.094 A 
ATOM      8  C   UNL A   1      39.124  21.995  26.110  1.00  0.00     0.031 A 
ATOM      9  N   UNL A   1      38.638  19.783  25.272  1.00  0.00    -0.254 NA
ATOM     10  C   UNL A   1      40.361  21.571  26.588  1.00  0.00     0.019 A 
ATOM     11  C   UNL A   1      39.844  19.394  25.750  1.00  0.00     0.127 A 
BRANCH   7  12
ATOM     12  C   UNL A   1      37.104  21.625  24.674  1.00  0.00     0.318 C 
BRANCH  12  13
ATOM     13  N   UNL A   1      35.794  21.146  25.114  1.00  0.00    -0.331 N 
ATOM     14  H   UNL A   1      35.325  20.730  24.310  1.00  0.00     0.347 HD
ATOM     15  H   UNL A   1      35.977  20.484  25.870  1.00  0.00     0.347 HD
BRANCH  13  16
ATOM     16  C   UNL A   1      34.896  22.180  25.685  1.00  0.00     0.274 C 
ATOM     17  C   UNL A   1      31.071  22.431  25.758  1.00  0.00     0.156 C 
ATOM     18  N   UNL A   1      32.473  22.811  25.678  1.00  0.00    -0.281 N 
ATOM     19  C   UNL A   1      32.755  24.175  25.701  1.00  0.00     0.229 C 
ATOM     20  C   UNL A   1      33.413  21.787  25.503  1.00  0.00     0.287 C 
ATOM     21  O   UNL A   1      31.895  25.052  25.615  1.00  0.00    -0.274 OA
ATOM     22  C   UNL A   1      34.197  24.559  25.901  1.00  0.00     0.107 C 
ATOM     23  O   UNL A   1      33.090  20.621  25.264  1.00  0.00    -0.267 OA
ATOM     24  C   UNL A   1      35.131  23.608  25.196  1.00  0.00     0.085 C 
ENDBRANCH  13  16
ENDBRANCH  12  13
ENDBRANCH   7  12
ENDBRANCH   4   6
ENDBRANCH   3   4
ENDBRANCH   2   3
ENDBRANCH   1   2
BRANCH   1  25
ATOM     25  O   UNL A   1      45.774  20.938  25.385  1.00  0.00    -0.374 OA
BRANCH  25  26
ATOM     26  C   UNL A   1      46.329  22.087  24.745  1.00  0.00     0.202 C 
BRANCH  26  27
ATOM     27  C   UNL A   1      45.407  22.914  23.839  1.00  0.00     0.261 C 
BRANCH  27  28
ATOM     28  O   UNL A   1      44.816  24.033  24.523  1.00  0.00    -0.460 OA
BRANCH  28  29
ATOM     29  C   UNL A   1      43.564  23.812  24.990  1.00  0.00     0.338 C 
ATOM     30  O   UNL A   1      42.777  22.949  24.632  1.00  0.00    -0.246 OA
BRANCH  29  31
ATOM     31  C   UNL A   1      43.314  24.665  26.165  1.00  0.00     0.060 A 
ATOM     32  C   UNL A   1      42.466  24.166  27.163  1.00  0.00     0.016 A 
ATOM     33  C   UNL A   1      43.842  25.954  26.257  1.00  0.00     0.016 A 
ATOM     34  C   UNL A   1      42.111  24.972  28.242  1.00  0.00     0.010 A 
ATOM     35  C   UNL A   1      43.475  26.763  27.337  1.00  0.00     0.010 A 
ATOM     36  C   UNL A   1      42.587  26.286  28.318  1.00  0.00    -0.014 A 
BRANCH  36  37
ATOM     37  C   UNL A   1      42.066  27.201  29.361  1.00  0.00     0.031 A 
ATOM     38  C   UNL A   1      42.781  27.295  30.680  1.00  0.00     0.074 A 
ATOM     39  C   UNL A   1      40.972  27.947  29.130  1.00  0.00     0.049 A 
ATOM     40  N   UNL A   1      42.464  27.985  31.747  1.00  0.00    -0.248 NA
ATOM     41  C   UNL A   1      44.016  26.507  30.816  1.00  0.00     0.031 C 
ATOM     42  C   UNL A   1      40.220  27.981  27.877  1.00  0.00     0.029 A 
ATOM     43  N   UNL A   1      40.301  28.819  29.951  1.00  0.00    -0.354 N 
ATOM     44  C   UNL A   1      43.451  27.704  32.683  1.00  0.00     0.074 A 
ATOM     45  C   UNL A   1      44.362  26.762  32.070  1.00  0.00     0.031 C 
ATOM     46  C   UNL A   1      39.183  28.826  28.015  1.00  0.00     0.029 A 
ATOM     47  C   UNL A   1      39.177  29.357  29.376  1.00  0.00     0.049 A 
ATOM     48  H   UNL A   1      40.597  29.035  30.865  1.00  0.00     0.167 HD
ATOM     49  C   UNL A   1      43.588  28.191  33.941  1.00  0.00     0.031 A 
ATOM     50  C   UNL A   1      38.234  30.165  29.897  1.00  0.00     0.031 A 
ATOM     51  C   UNL A   1      42.673  29.116  34.554  1.00  0.00     0.049 A 
ATOM     52  C   UNL A   1      38.361  30.621  31.326  1.00  0.00     0.074 A 
ATOM     53  C   UNL A   1      42.734  29.681  35.816  1.00  0.00     0.029 A 
ATOM     54  N   UNL A   1      41.523  29.604  33.954  1.00  0.00    -0.354 N 
ATOM     55  N   UNL A   1      39.311  30.369  32.194  1.00  0.00    -0.248 NA
ATOM     56  C   UNL A   1      37.286  31.480  31.844  1.00  0.00     0.031 C 
ATOM     57  C   UNL A   1      41.588  30.459  36.004  1.00  0.00     0.029 A 
ATOM     58  C   UNL A   1      40.847  30.436  34.832  1.00  0.00     0.049 A 
ATOM     59  H   UNL A   1      41.228  29.392  33.038  1.00  0.00     0.167 HD
ATOM     60  C   UNL A   1      38.964  31.060  33.349  1.00  0.00     0.074 A 
ATOM     61  C   UNL A   1      37.726  31.756  33.063  1.00  0.00     0.031 C 
ATOM     62  C   UNL A   1      39.614  31.118  34.537  1.00  0.00     0.031 A 
BRANCH  49  63
ATOM     63  C   UNL A   1      44.753  27.696  34.753  1.00  0.00    -0.014 A 
ATOM     64  C   UNL A   1      46.013  28.312  34.679  1.00  0.00     0.009 A 
ATOM     65  C   UNL A   1      44.577  26.618  35.635  1.00  0.00     0.009 A 
ATOM     66  C   UNL A   1      47.079  27.837  35.448  1.00  0.00     0.001 A 
ATOM     67  C   UNL A   1      45.635  26.166  36.425  1.00  0.00     0.001 A 
ATOM     68  C   UNL A   1      46.888  26.768  36.323  1.00  0.00     0.000 A 
ENDBRANCH  49  63
BRANCH  50  69
ATOM     69  C   UNL A   1      37.067  30.577  29.072  1.00  0.00    -0.014 A 
ATOM     70  C   UNL A   1      36.932  31.902  28.631  1.00  0.00     0.009 A 
ATOM     71  C   UNL A   1      36.070  29.647  28.738  1.00  0.00     0.009 A 
ATOM     72  C   UNL A   1      35.811  32.292  27.895  1.00  0.00     0.001 A 
ATOM     73  C   UNL A   1      34.966  30.032  27.975  1.00  0.00     0.001 A 
ATOM     74  C   UNL A   1      34.832  31.357  27.564  1.00  0.00     0.000 A 
ENDBRANCH  50  69
BRANCH  62  75
ATOM     75  C   UNL A   1      39.018  31.992  35.607  1.00  0.00    -0.014 A 
ATOM     76  C   UNL A   1      38.234  31.455  36.640  1.00  0.00     0.009 A 
ATOM     77  C   UNL A   1      39.280  33.372  35.601  1.00  0.00     0.009 A 
ATOM     78  C   UNL A   1      37.694  32.289  37.623  1.00  0.00     0.001 A 
ATOM     79  C   UNL A   1      38.766  34.197  36.602  1.00  0.00     0.001 A 
ATOM     80  C   UNL A   1      37.964  33.657  37.606  1.00  0.00     0.000 A 
ENDBRANCH  62  75
ENDBRANCH  36  37
ENDBRANCH  29  31
ENDBRANCH  28  29
ENDBRANCH  27  28
ENDBRANCH  26  27
ENDBRANCH  25  26
ENDBRANCH   1  25
TORSDOF 17
ENDMDL
