MODEL 1
REMARK VINA RESULT:      -9.5      0.000      0.000
REMARK SMILES Cc1c(Cl)cc2c(c1C)O[C@@H](C(F)(F)F)C(C(=O)OCCOCCOC(=O)c1ccc(-c3c4nc(c(-c5ccccc5)c5ccc([nH]5)c(-c5ccccc5)c5nc(c(-c6ccccc6)c6ccc3[nH]6)C=C5)C=C4)cc1)=C2
REMARK SMILES IDX 23 1 22 2 21 3 20 4 19 5 17 6 18 7 16 8 1 9 2 10 3 11 8 12
REMARK SMILES IDX 4 13 5 14 7 15 9 16 6 17 10 18 76 19 11 20 12 21 13 22 14 23
REMARK SMILES IDX 15 24 24 25 25 26 26 27 27 28 28 29 29 30 75 31 30 32 74 33
REMARK SMILES IDX 31 34 32 35 33 36 68 37 34 38 73 39 67 40 69 41 35 42 72 43
REMARK SMILES IDX 66 44 65 45 36 47 58 48 43 49 57 50 44 51 47 52 56 53 70 54
REMARK SMILES IDX 45 55 46 56 55 58 71 59 48 60 37 61 38 62 42 63 39 64 41 65
REMARK SMILES IDX 40 66 59 67 60 68 64 69 61 70 63 71 62 72 49 73 50 74 54 75
REMARK SMILES IDX 51 76 53 77 52 78
REMARK H PARENT 69 46 47 57
REMARK Flexibility Score: inf
ROOT
ATOM      1  C   UNL A   1      45.011  18.725  25.749  1.00  0.00     0.202 C 
ENDROOT
BRANCH   1   2
ATOM      2  O   UNL A   1      46.102  18.918  24.843  1.00  0.00    -0.374 OA
BRANCH   2   3
ATOM      3  C   UNL A   1      46.499  20.268  24.601  1.00  0.00     0.202 C 
BRANCH   3   4
ATOM      4  C   UNL A   1      45.757  21.315  25.433  1.00  0.00     0.261 C 
BRANCH   4   5
ATOM      5  O   UNL A   1      46.505  22.544  25.468  1.00  0.00    -0.460 OA
BRANCH   5   6
ATOM      6  C   UNL A   1      46.068  23.504  24.628  1.00  0.00     0.338 C 
ATOM      7  O   UNL A   1      45.259  23.360  23.724  1.00  0.00    -0.246 OA
BRANCH   6   8
ATOM      8  C   UNL A   1      46.626  24.812  25.013  1.00  0.00     0.087 C 
ATOM      9  C   UNL A   1      50.777  29.598  26.552  1.00  0.00     0.046 C 
ATOM     10  C   UNL A   1      49.956  28.487  25.946  1.00  0.00    -0.026 A 
ATOM     11  C   UNL A   1      50.401  27.787  24.806  1.00  0.00     0.045 A 
ATOM     12  C   UNL A   1      48.733  28.093  26.555  1.00  0.00    -0.004 A 
ATOM     13  Cl  UNL A   1      51.879  28.167  23.991  1.00  0.00    -0.084 Cl
ATOM     14  C   UNL A   1      49.669  26.715  24.291  1.00  0.00     0.032 A 
ATOM     15  C   UNL A   1      48.004  27.012  26.015  1.00  0.00     0.131 A 
ATOM     16  C   UNL A   1      48.171  28.803  27.762  1.00  0.00     0.049 C 
ATOM     17  C   UNL A   1      48.483  26.315  24.905  1.00  0.00     0.019 A 
ATOM     18  O   UNL A   1      46.863  26.628  26.677  1.00  0.00    -0.475 OA
ATOM     19  C   UNL A   1      47.810  25.109  24.463  1.00  0.00     0.027 C 
ATOM     20  C   UNL A   1      45.944  25.716  26.005  1.00  0.00     0.316 C 
BRANCH  20  21
ATOM     21  C   UNL A   1      44.760  26.523  25.431  1.00  0.00     0.430 C 
ATOM     22  F   UNL A   1      45.183  27.469  24.555  1.00  0.00    -0.167 F 
ATOM     23  F   UNL A   1      43.874  25.741  24.770  1.00  0.00    -0.167 F 
ATOM     24  F   UNL A   1      44.079  27.184  26.396  1.00  0.00    -0.167 F 
ENDBRANCH  20  21
ENDBRANCH   6   8
ENDBRANCH   5   6
ENDBRANCH   4   5
ENDBRANCH   3   4
ENDBRANCH   2   3
ENDBRANCH   1   2
BRANCH   1  25
ATOM     25  C   UNL A   1      43.668  18.376  25.098  1.00  0.00     0.261 C 
BRANCH  25  26
ATOM     26  O   UNL A   1      42.866  19.556  24.900  1.00  0.00    -0.460 OA
BRANCH  26  27
ATOM     27  C   UNL A   1      41.804  19.675  25.729  1.00  0.00     0.338 C 
ATOM     28  O   UNL A   1      41.003  18.803  26.038  1.00  0.00    -0.246 OA
BRANCH  27  29
ATOM     29  C   UNL A   1      41.831  20.992  26.395  1.00  0.00     0.060 A 
ATOM     30  C   UNL A   1      42.277  22.083  25.639  1.00  0.00     0.016 A 
ATOM     31  C   UNL A   1      41.479  21.155  27.737  1.00  0.00     0.016 A 
ATOM     32  C   UNL A   1      42.426  23.333  26.237  1.00  0.00     0.010 A 
ATOM     33  C   UNL A   1      41.640  22.409  28.340  1.00  0.00     0.010 A 
ATOM     34  C   UNL A   1      42.150  23.492  27.601  1.00  0.00    -0.014 A 
BRANCH  34  35
ATOM     35  C   UNL A   1      42.537  24.751  28.280  1.00  0.00     0.031 A 
ATOM     36  C   UNL A   1      41.510  25.838  28.436  1.00  0.00     0.074 A 
ATOM     37  C   UNL A   1      43.768  24.908  28.797  1.00  0.00     0.049 A 
ATOM     38  N   UNL A   1      41.631  27.019  28.986  1.00  0.00    -0.248 NA
ATOM     39  C   UNL A   1      40.163  25.552  27.911  1.00  0.00     0.031 C 
ATOM     40  C   UNL A   1      44.831  23.905  28.770  1.00  0.00     0.029 A 
ATOM     41  N   UNL A   1      44.325  25.976  29.454  1.00  0.00    -0.354 N 
ATOM     42  C   UNL A   1      40.381  27.615  28.876  1.00  0.00     0.074 A 
ATOM     43  C   UNL A   1      39.523  26.680  28.183  1.00  0.00     0.031 C 
ATOM     44  C   UNL A   1      45.915  24.405  29.389  1.00  0.00     0.029 A 
ATOM     45  C   UNL A   1      45.632  25.772  29.823  1.00  0.00     0.049 A 
ATOM     46  H   UNL A   1      43.835  26.809  29.643  1.00  0.00     0.167 HD
ATOM     47  C   UNL A   1      39.982  28.830  29.320  1.00  0.00     0.031 A 
ATOM     48  C   UNL A   1      46.505  26.599  30.430  1.00  0.00     0.031 A 
ATOM     49  C   UNL A   1      40.837  29.771  29.991  1.00  0.00     0.049 A 
ATOM     50  C   UNL A   1      46.065  27.983  30.824  1.00  0.00     0.074 A 
ATOM     51  C   UNL A   1      40.525  31.035  30.461  1.00  0.00     0.029 A 
ATOM     52  N   UNL A   1      42.172  29.551  30.285  1.00  0.00    -0.354 N 
ATOM     53  N   UNL A   1      44.885  28.541  30.703  1.00  0.00    -0.248 NA
ATOM     54  C   UNL A   1      47.078  28.850  31.444  1.00  0.00     0.031 C 
ATOM     55  C   UNL A   1      41.686  31.599  30.998  1.00  0.00     0.029 A 
ATOM     56  C   UNL A   1      42.704  30.664  30.916  1.00  0.00     0.049 A 
ATOM     57  H   UNL A   1      42.669  28.727  30.079  1.00  0.00     0.167 HD
ATOM     58  C   UNL A   1      45.004  29.809  31.257  1.00  0.00     0.074 A 
ATOM     59  C   UNL A   1      46.369  29.937  31.722  1.00  0.00     0.031 C 
ATOM     60  C   UNL A   1      44.064  30.777  31.375  1.00  0.00     0.031 A 
BRANCH  47  61
ATOM     61  C   UNL A   1      38.554  29.224  29.070  1.00  0.00    -0.014 A 
ATOM     62  C   UNL A   1      37.594  29.151  30.091  1.00  0.00     0.009 A 
ATOM     63  C   UNL A   1      38.177  29.729  27.816  1.00  0.00     0.009 A 
ATOM     64  C   UNL A   1      36.279  29.557  29.854  1.00  0.00     0.001 A 
ATOM     65  C   UNL A   1      36.869  30.157  27.589  1.00  0.00     0.001 A 
ATOM     66  C   UNL A   1      35.920  30.065  28.606  1.00  0.00     0.000 A 
ENDBRANCH  47  61
BRANCH  48  67
ATOM     67  C   UNL A   1      47.892  26.141  30.700  1.00  0.00    -0.014 A 
ATOM     68  C   UNL A   1      48.856  26.143  29.682  1.00  0.00     0.009 A 
ATOM     69  C   UNL A   1      48.259  25.698  31.981  1.00  0.00     0.009 A 
ATOM     70  C   UNL A   1      50.155  25.700  29.936  1.00  0.00     0.001 A 
ATOM     71  C   UNL A   1      49.566  25.280  32.240  1.00  0.00     0.001 A 
ATOM     72  C   UNL A   1      50.511  25.275  31.216  1.00  0.00     0.000 A 
ENDBRANCH  48  67
BRANCH  60  73
ATOM     73  C   UNL A   1      44.459  32.052  32.067  1.00  0.00    -0.014 A 
ATOM     74  C   UNL A   1      45.143  33.070  31.386  1.00  0.00     0.009 A 
ATOM     75  C   UNL A   1      44.082  32.260  33.403  1.00  0.00     0.009 A 
ATOM     76  C   UNL A   1      45.463  34.262  32.039  1.00  0.00     0.001 A 
ATOM     77  C   UNL A   1      44.379  33.463  34.045  1.00  0.00     0.001 A 
ATOM     78  C   UNL A   1      45.076  34.460  33.365  1.00  0.00     0.000 A 
ENDBRANCH  60  73
ENDBRANCH  34  35
ENDBRANCH  27  29
ENDBRANCH  26  27
ENDBRANCH  25  26
ENDBRANCH   1  25
TORSDOF 15
ENDMDL
MODEL 2
REMARK VINA RESULT:      -9.2      5.203     10.209
REMARK SMILES Cc1c(Cl)cc2c(c1C)O[C@@H](C(F)(F)F)C(C(=O)OCCOCCOC(=O)c1ccc(-c3c4nc(c(-c5ccccc5)c5ccc([nH]5)c(-c5ccccc5)c5nc(c(-c6ccccc6)c6ccc3[nH]6)C=C5)C=C4)cc1)=C2
REMARK SMILES IDX 23 1 22 2 21 3 20 4 19 5 17 6 18 7 16 8 1 9 2 10 3 11 8 12
REMARK SMILES IDX 4 13 5 14 7 15 9 16 6 17 10 18 76 19 11 20 12 21 13 22 14 23
REMARK SMILES IDX 15 24 24 25 25 26 26 27 27 28 28 29 29 30 75 31 30 32 74 33
REMARK SMILES IDX 31 34 32 35 33 36 68 37 34 38 73 39 67 40 69 41 35 42 72 43
REMARK SMILES IDX 66 44 65 45 36 47 58 48 43 49 57 50 44 51 47 52 56 53 70 54
REMARK SMILES IDX 45 55 46 56 55 58 71 59 48 60 37 61 38 62 42 63 39 64 41 65
REMARK SMILES IDX 40 66 59 67 60 68 64 69 61 70 63 71 62 72 49 73 50 74 54 75
REMARK SMILES IDX 51 76 53 77 52 78
REMARK H PARENT 69 46 47 57
REMARK Flexibility Score: inf
ROOT
ATOM      1  C   UNL A   1      42.437  21.154  26.337  1.00  0.00     0.202 C 
ENDROOT
BRANCH   1   2
ATOM      2  O   UNL A   1      41.179  21.069  25.661  1.00  0.00    -0.374 OA
BRANCH   2   3
ATOM      3  C   UNL A   1      40.088  21.775  26.253  1.00  0.00     0.202 C 
BRANCH   3   4
ATOM      4  C   UNL A   1      38.705  21.353  25.756  1.00  0.00     0.261 C 
BRANCH   4   5
ATOM      5  O   UNL A   1      38.020  22.479  25.176  1.00  0.00    -0.460 OA
BRANCH   5   6
ATOM      6  C   UNL A   1      37.510  23.356  26.062  1.00  0.00     0.338 C 
ATOM      7  O   UNL A   1      38.147  24.056  26.836  1.00  0.00    -0.246 OA
BRANCH   6   8
ATOM      8  C   UNL A   1      36.048  23.450  25.905  1.00  0.00     0.087 C 
ATOM      9  C   UNL A   1      29.917  25.666  25.925  1.00  0.00     0.046 C 
ATOM     10  C   UNL A   1      31.385  25.371  25.741  1.00  0.00    -0.026 A 
ATOM     11  C   UNL A   1      32.261  26.332  25.199  1.00  0.00     0.045 A 
ATOM     12  C   UNL A   1      31.917  24.123  26.164  1.00  0.00    -0.004 A 
ATOM     13  Cl  UNL A   1      31.730  27.890  24.665  1.00  0.00    -0.084 Cl
ATOM     14  C   UNL A   1      33.630  26.077  25.095  1.00  0.00     0.032 A 
ATOM     15  C   UNL A   1      33.302  23.881  26.044  1.00  0.00     0.131 A 
ATOM     16  C   UNL A   1      31.047  23.028  26.733  1.00  0.00     0.049 C 
ATOM     17  C   UNL A   1      34.153  24.861  25.534  1.00  0.00     0.019 A 
ATOM     18  O   UNL A   1      33.778  22.686  26.527  1.00  0.00    -0.475 OA
ATOM     19  C   UNL A   1      35.589  24.662  25.568  1.00  0.00     0.027 C 
ATOM     20  C   UNL A   1      35.134  22.283  26.170  1.00  0.00     0.316 C 
BRANCH  20  21
ATOM     21  C   UNL A   1      35.071  21.245  25.031  1.00  0.00     0.430 C 
ATOM     22  F   UNL A   1      33.822  20.731  24.897  1.00  0.00    -0.167 F 
ATOM     23  F   UNL A   1      35.413  21.771  23.832  1.00  0.00    -0.167 F 
ATOM     24  F   UNL A   1      35.887  20.189  25.259  1.00  0.00    -0.167 F 
ENDBRANCH  20  21
ENDBRANCH   6   8
ENDBRANCH   5   6
ENDBRANCH   4   5
ENDBRANCH   3   4
ENDBRANCH   2   3
ENDBRANCH   1   2
BRANCH   1  25
ATOM     25  C   UNL A   1      43.544  21.897  25.580  1.00  0.00     0.261 C 
BRANCH  25  26
ATOM     26  O   UNL A   1      43.028  23.079  24.939  1.00  0.00    -0.460 OA
BRANCH  26  27
ATOM     27  C   UNL A   1      43.760  24.201  25.129  1.00  0.00     0.338 C 
ATOM     28  O   UNL A   1      44.784  24.526  24.544  1.00  0.00    -0.246 OA
BRANCH  27  29
ATOM     29  C   UNL A   1      43.044  25.121  26.034  1.00  0.00     0.060 A 
ATOM     30  C   UNL A   1      43.627  26.372  26.271  1.00  0.00     0.016 A 
ATOM     31  C   UNL A   1      41.858  24.759  26.678  1.00  0.00     0.016 A 
ATOM     32  C   UNL A   1      43.058  27.245  27.195  1.00  0.00     0.010 A 
ATOM     33  C   UNL A   1      41.293  25.633  27.615  1.00  0.00     0.010 A 
ATOM     34  C   UNL A   1      41.912  26.862  27.903  1.00  0.00    -0.014 A 
BRANCH  34  35
ATOM     35  C   UNL A   1      41.455  27.686  29.047  1.00  0.00     0.031 A 
ATOM     36  C   UNL A   1      42.215  27.617  30.342  1.00  0.00     0.074 A 
ATOM     37  C   UNL A   1      40.411  28.524  28.923  1.00  0.00     0.049 A 
ATOM     38  N   UNL A   1      41.988  28.241  31.470  1.00  0.00    -0.248 NA
ATOM     39  C   UNL A   1      43.394  26.734  30.369  1.00  0.00     0.031 C 
ATOM     40  C   UNL A   1      39.634  28.732  27.702  1.00  0.00     0.029 A 
ATOM     41  N   UNL A   1      39.831  29.363  29.840  1.00  0.00    -0.354 N 
ATOM     42  C   UNL A   1      42.993  27.830  32.336  1.00  0.00     0.074 A 
ATOM     43  C   UNL A   1      43.815  26.882  31.616  1.00  0.00     0.031 C 
ATOM     44  C   UNL A   1      38.678  29.645  27.946  1.00  0.00     0.029 A 
ATOM     45  C   UNL A   1      38.757  30.059  29.346  1.00  0.00     0.049 A 
ATOM     46  H   UNL A   1      40.155  29.456  30.766  1.00  0.00     0.167 HD
ATOM     47  C   UNL A   1      43.217  28.213  33.615  1.00  0.00     0.031 A 
ATOM     48  C   UNL A   1      37.922  30.923  29.957  1.00  0.00     0.031 A 
ATOM     49  C   UNL A   1      42.391  29.139  34.342  1.00  0.00     0.049 A 
ATOM     50  C   UNL A   1      38.132  31.256  31.409  1.00  0.00     0.074 A 
ATOM     51  C   UNL A   1      42.530  29.574  35.648  1.00  0.00     0.029 A 
ATOM     52  N   UNL A   1      41.273  29.771  33.824  1.00  0.00    -0.354 N 
ATOM     53  N   UNL A   1      39.077  30.851  32.222  1.00  0.00    -0.248 NA
ATOM     54  C   UNL A   1      37.161  32.172  32.026  1.00  0.00     0.031 C 
ATOM     55  C   UNL A   1      41.465  30.434  35.937  1.00  0.00     0.029 A 
ATOM     56  C   UNL A   1      40.699  30.580  34.791  1.00  0.00     0.049 A 
ATOM     57  H   UNL A   1      40.936  29.663  32.905  1.00  0.00     0.167 HD
ATOM     58  C   UNL A   1      38.834  31.483  33.434  1.00  0.00     0.074 A 
ATOM     59  C   UNL A   1      37.657  32.306  33.250  1.00  0.00     0.031 C 
ATOM     60  C   UNL A   1      39.529  31.394  34.594  1.00  0.00     0.031 A 
BRANCH  47  61
ATOM     61  C   UNL A   1      44.396  27.609  34.324  1.00  0.00    -0.014 A 
ATOM     62  C   UNL A   1      45.650  28.238  34.308  1.00  0.00     0.009 A 
ATOM     63  C   UNL A   1      44.235  26.428  35.065  1.00  0.00     0.009 A 
ATOM     64  C   UNL A   1      46.726  27.683  35.004  1.00  0.00     0.001 A 
ATOM     65  C   UNL A   1      45.305  25.889  35.780  1.00  0.00     0.001 A 
ATOM     66  C   UNL A   1      46.551  26.514  35.744  1.00  0.00     0.000 A 
ENDBRANCH  47  61
BRANCH  48  67
ATOM     67  C   UNL A   1      36.802  31.532  29.195  1.00  0.00    -0.014 A 
ATOM     68  C   UNL A   1      36.895  32.848  28.719  1.00  0.00     0.009 A 
ATOM     69  C   UNL A   1      35.633  30.798  28.937  1.00  0.00     0.009 A 
ATOM     70  C   UNL A   1      35.836  33.421  28.013  1.00  0.00     0.001 A 
ATOM     71  C   UNL A   1      34.585  31.365  28.208  1.00  0.00     0.001 A 
ATOM     72  C   UNL A   1      34.685  32.678  27.753  1.00  0.00     0.000 A 
ENDBRANCH  48  67
BRANCH  60  73
ATOM     73  C   UNL A   1      39.064  32.234  35.751  1.00  0.00    -0.014 A 
ATOM     74  C   UNL A   1      38.188  31.722  36.720  1.00  0.00     0.009 A 
ATOM     75  C   UNL A   1      39.564  33.537  35.905  1.00  0.00     0.009 A 
ATOM     76  C   UNL A   1      37.804  32.507  37.807  1.00  0.00     0.001 A 
ATOM     77  C   UNL A   1      39.199  34.311  37.008  1.00  0.00     0.001 A 
ATOM     78  C   UNL A   1      38.313  33.798  37.955  1.00  0.00     0.000 A 
ENDBRANCH  60  73
ENDBRANCH  34  35
ENDBRANCH  27  29
ENDBRANCH  26  27
ENDBRANCH  25  26
ENDBRANCH   1  25
TORSDOF 15
ENDMDL
MODEL 3
REMARK VINA RESULT:      -9.2      5.893     10.806
REMARK SMILES Cc1c(Cl)cc2c(c1C)O[C@@H](C(F)(F)F)C(C(=O)OCCOCCOC(=O)c1ccc(-c3c4nc(c(-c5ccccc5)c5ccc([nH]5)c(-c5ccccc5)c5nc(c(-c6ccccc6)c6ccc3[nH]6)C=C5)C=C4)cc1)=C2
REMARK SMILES IDX 23 1 22 2 21 3 20 4 19 5 17 6 18 7 16 8 1 9 2 10 3 11 8 12
REMARK SMILES IDX 4 13 5 14 7 15 9 16 6 17 10 18 76 19 11 20 12 21 13 22 14 23
REMARK SMILES IDX 15 24 24 25 25 26 26 27 27 28 28 29 29 30 75 31 30 32 74 33
REMARK SMILES IDX 31 34 32 35 33 36 68 37 34 38 73 39 67 40 69 41 35 42 72 43
REMARK SMILES IDX 66 44 65 45 36 47 58 48 43 49 57 50 44 51 47 52 56 53 70 54
REMARK SMILES IDX 45 55 46 56 55 58 71 59 48 60 37 61 38 62 42 63 39 64 41 65
REMARK SMILES IDX 40 66 59 67 60 68 64 69 61 70 63 71 62 72 49 73 50 74 54 75
REMARK SMILES IDX 51 76 53 77 52 78
REMARK H PARENT 69 46 47 57
REMARK Flexibility Score: inf
ROOT
ATOM      1  C   UNL A   1      35.894  21.472  25.739  1.00  0.00     0.202 C 
ENDROOT
BRANCH   1   2
ATOM      2  O   UNL A   1      34.634  20.805  25.857  1.00  0.00    -0.374 OA
BRANCH   2   3
ATOM      3  C   UNL A   1      34.044  20.336  24.644  1.00  0.00     0.202 C 
BRANCH   3   4
ATOM      4  C   UNL A   1      32.558  20.658  24.485  1.00  0.00     0.261 C 
BRANCH   4   5
ATOM      5  O   UNL A   1      32.382  22.052  24.170  1.00  0.00    -0.460 OA
BRANCH   5   6
ATOM      6  C   UNL A   1      31.502  22.708  24.952  1.00  0.00     0.338 C 
ATOM      7  O   UNL A   1      30.855  22.230  25.872  1.00  0.00    -0.246 OA
BRANCH   6   8
ATOM      8  C   UNL A   1      31.494  24.143  24.618  1.00  0.00     0.087 C 
ATOM      9  C   UNL A   1      29.902  29.931  22.075  1.00  0.00     0.046 C 
ATOM     10  C   UNL A   1      30.008  28.600  22.778  1.00  0.00    -0.026 A 
ATOM     11  C   UNL A   1      28.863  27.934  23.258  1.00  0.00     0.045 A 
ATOM     12  C   UNL A   1      31.275  27.971  22.921  1.00  0.00    -0.004 A 
ATOM     13  Cl  UNL A   1      27.270  28.595  23.126  1.00  0.00    -0.084 Cl
ATOM     14  C   UNL A   1      28.961  26.671  23.847  1.00  0.00     0.032 A 
ATOM     15  C   UNL A   1      31.355  26.698  23.525  1.00  0.00     0.131 A 
ATOM     16  C   UNL A   1      32.554  28.623  22.457  1.00  0.00     0.049 C 
ATOM     17  C   UNL A   1      30.202  26.046  23.963  1.00  0.00     0.019 A 
ATOM     18  O   UNL A   1      32.592  26.103  23.581  1.00  0.00    -0.475 OA
ATOM     19  C   UNL A   1      30.279  24.675  24.430  1.00  0.00     0.027 C 
ATOM     20  C   UNL A   1      32.762  24.934  24.437  1.00  0.00     0.316 C 
BRANCH  20  21
ATOM     21  C   UNL A   1      33.444  25.365  25.752  1.00  0.00     0.430 C 
ATOM     22  F   UNL A   1      32.555  25.924  26.612  1.00  0.00    -0.167 F 
ATOM     23  F   UNL A   1      34.020  24.326  26.400  1.00  0.00    -0.167 F 
ATOM     24  F   UNL A   1      34.403  26.298  25.546  1.00  0.00    -0.167 F 
ENDBRANCH  20  21
ENDBRANCH   6   8
ENDBRANCH   5   6
ENDBRANCH   4   5
ENDBRANCH   3   4
ENDBRANCH   2   3
ENDBRANCH   1   2
BRANCH   1  25
ATOM     25  C   UNL A   1      37.019  20.647  25.104  1.00  0.00     0.261 C 
BRANCH  25  26
ATOM     26  O   UNL A   1      38.231  21.418  25.001  1.00  0.00    -0.460 OA
BRANCH  26  27
ATOM     27  C   UNL A   1      39.160  21.158  25.950  1.00  0.00     0.338 C 
ATOM     28  O   UNL A   1      39.683  20.081  26.201  1.00  0.00    -0.246 OA
BRANCH  27  29
ATOM     29  C   UNL A   1      39.629  22.422  26.553  1.00  0.00     0.060 A 
ATOM     30  C   UNL A   1      39.013  23.604  26.125  1.00  0.00     0.016 A 
ATOM     31  C   UNL A   1      40.678  22.463  27.475  1.00  0.00     0.016 A 
ATOM     32  C   UNL A   1      39.478  24.837  26.575  1.00  0.00     0.010 A 
ATOM     33  C   UNL A   1      41.152  23.703  27.918  1.00  0.00     0.010 A 
ATOM     34  C   UNL A   1      40.578  24.895  27.440  1.00  0.00    -0.014 A 
BRANCH  34  35
ATOM     35  C   UNL A   1      41.214  26.203  27.722  1.00  0.00     0.031 A 
ATOM     36  C   UNL A   1      42.574  26.489  27.146  1.00  0.00     0.074 A 
ATOM     37  C   UNL A   1      40.574  27.145  28.436  1.00  0.00     0.049 A 
ATOM     38  N   UNL A   1      43.318  27.559  27.271  1.00  0.00    -0.248 NA
ATOM     39  C   UNL A   1      43.171  25.434  26.310  1.00  0.00     0.031 C 
ATOM     40  C   UNL A   1      39.227  27.015  28.991  1.00  0.00     0.029 A 
ATOM     41  N   UNL A   1      40.974  28.404  28.807  1.00  0.00    -0.354 N 
ATOM     42  C   UNL A   1      44.465  27.307  26.530  1.00  0.00     0.074 A 
ATOM     43  C   UNL A   1      44.335  25.975  25.982  1.00  0.00     0.031 C 
ATOM     44  C   UNL A   1      38.911  28.155  29.632  1.00  0.00     0.029 A 
ATOM     45  C   UNL A   1      40.044  29.077  29.559  1.00  0.00     0.049 A 
ATOM     46  H   UNL A   1      41.846  28.788  28.558  1.00  0.00     0.167 HD
ATOM     47  C   UNL A   1      45.530  28.116  26.318  1.00  0.00     0.031 A 
ATOM     48  C   UNL A   1      40.103  30.293  30.136  1.00  0.00     0.031 A 
ATOM     49  C   UNL A   1      45.673  29.433  26.877  1.00  0.00     0.049 A 
ATOM     50  C   UNL A   1      41.340  31.133  29.968  1.00  0.00     0.074 A 
ATOM     51  C   UNL A   1      46.726  30.319  26.733  1.00  0.00     0.029 A 
ATOM     52  N   UNL A   1      44.736  30.050  27.689  1.00  0.00    -0.354 N 
ATOM     53  N   UNL A   1      42.425  30.879  29.277  1.00  0.00    -0.248 NA
ATOM     54  C   UNL A   1      41.358  32.432  30.658  1.00  0.00     0.031 C 
ATOM     55  C   UNL A   1      46.446  31.457  27.497  1.00  0.00     0.029 A 
ATOM     56  C   UNL A   1      45.193  31.301  28.068  1.00  0.00     0.049 A 
ATOM     57  H   UNL A   1      43.872  29.659  27.955  1.00  0.00     0.167 HD
ATOM     58  C   UNL A   1      43.239  31.995  29.422  1.00  0.00     0.074 A 
ATOM     59  C   UNL A   1      42.521  32.932  30.261  1.00  0.00     0.031 C 
ATOM     60  C   UNL A   1      44.469  32.224  28.902  1.00  0.00     0.031 A 
BRANCH  47  61
ATOM     61  C   UNL A   1      46.643  27.587  25.459  1.00  0.00    -0.014 A 
ATOM     62  C   UNL A   1      46.729  27.921  24.099  1.00  0.00     0.009 A 
ATOM     63  C   UNL A   1      47.648  26.792  26.030  1.00  0.00     0.009 A 
ATOM     64  C   UNL A   1      47.791  27.452  23.323  1.00  0.00     0.001 A 
ATOM     65  C   UNL A   1      48.722  26.346  25.258  1.00  0.00     0.001 A 
ATOM     66  C   UNL A   1      48.789  26.671  23.904  1.00  0.00     0.000 A 
ENDBRANCH  47  61
BRANCH  48  67
ATOM     67  C   UNL A   1      38.952  30.790  30.933  1.00  0.00    -0.014 A 
ATOM     68  C   UNL A   1      38.856  30.504  32.302  1.00  0.00     0.009 A 
ATOM     69  C   UNL A   1      37.943  31.555  30.326  1.00  0.00     0.009 A 
ATOM     70  C   UNL A   1      37.767  30.963  33.045  1.00  0.00     0.001 A 
ATOM     71  C   UNL A   1      36.868  32.035  31.077  1.00  0.00     0.001 A 
ATOM     72  C   UNL A   1      36.778  31.733  32.434  1.00  0.00     0.000 A 
ENDBRANCH  48  67
BRANCH  60  73
ATOM     73  C   UNL A   1      45.110  33.553  29.187  1.00  0.00    -0.014 A 
ATOM     74  C   UNL A   1      44.881  34.666  28.364  1.00  0.00     0.009 A 
ATOM     75  C   UNL A   1      45.902  33.707  30.337  1.00  0.00     0.009 A 
ATOM     76  C   UNL A   1      45.454  35.901  28.674  1.00  0.00     0.001 A 
ATOM     77  C   UNL A   1      46.451  34.949  30.658  1.00  0.00     0.001 A 
ATOM     78  C   UNL A   1      46.234  36.043  29.822  1.00  0.00     0.000 A 
ENDBRANCH  60  73
ENDBRANCH  34  35
ENDBRANCH  27  29
ENDBRANCH  26  27
ENDBRANCH  25  26
ENDBRANCH   1  25
TORSDOF 15
ENDMDL
