MODEL 1
REMARK VINA RESULT:     -10.9      0.000      0.000
REMARK SMILES Cc1cc2c(c(C)c1Cl)C=C(C(=O)OCCOCCOC(=O)c1ccc(-c3c4nc(c(-c5ccccc5)c5ccc([nH]5)c(-c5ccccc5)c5nc(c(-c6ccccc6)c6ccc3[nH]6)C=C5)C=C4)cc1)[C@@H](C(F)(F)F)O2
REMARK SMILES IDX 18 1 17 2 16 3 15 4 14 5 12 6 13 7 11 8 1 9 2 10 3 11 8 12
REMARK SMILES IDX 4 13 6 14 9 15 5 16 76 17 7 18 10 19 71 20 72 21 73 22 74 23
REMARK SMILES IDX 75 24 19 25 20 26 21 27 22 28 23 29 24 30 70 31 25 32 69 33
REMARK SMILES IDX 26 34 27 35 28 36 63 37 29 38 68 39 62 40 64 41 30 42 67 43
REMARK SMILES IDX 61 44 60 45 31 47 53 48 38 49 52 50 39 51 42 52 51 53 65 54
REMARK SMILES IDX 40 55 41 56 50 58 66 59 43 60 32 61 33 62 37 63 34 64 36 65
REMARK SMILES IDX 35 66 54 67 55 68 59 69 56 70 58 71 57 72 44 73 45 74 49 75
REMARK SMILES IDX 46 76 48 77 47 78
REMARK H PARENT 64 46 42 57
REMARK Flexibility Score: inf
ROOT
ATOM      1  C   UNL A   1      35.698  21.387  25.186  1.00  0.00     0.202 C 
ENDROOT
BRANCH   1   2
ATOM      2  O   UNL A   1      35.454  22.161  26.361  1.00  0.00    -0.374 OA
BRANCH   2   3
ATOM      3  C   UNL A   1      34.198  22.003  27.016  1.00  0.00     0.202 C 
BRANCH   3   4
ATOM      4  C   UNL A   1      33.116  23.036  26.688  1.00  0.00     0.261 C 
BRANCH   4   5
ATOM      5  O   UNL A   1      33.675  24.341  26.471  1.00  0.00    -0.460 OA
BRANCH   5   6
ATOM      6  C   UNL A   1      33.569  24.790  25.198  1.00  0.00     0.338 C 
ATOM      7  O   UNL A   1      33.758  24.147  24.175  1.00  0.00    -0.246 OA
BRANCH   6   8
ATOM      8  C   UNL A   1      33.059  26.171  25.194  1.00  0.00     0.087 C 
ATOM      9  C   UNL A   1      31.367  32.213  26.781  1.00  0.00     0.046 C 
ATOM     10  C   UNL A   1      32.087  30.922  26.495  1.00  0.00    -0.028 A 
ATOM     11  C   UNL A   1      31.479  29.978  25.659  1.00  0.00     0.052 A 
ATOM     12  C   UNL A   1      33.345  30.627  27.058  1.00  0.00     0.047 A 
ATOM     13  C   UNL A   1      32.070  28.736  25.435  1.00  0.00     0.128 A 
ATOM     14  C   UNL A   1      33.972  29.382  26.824  1.00  0.00    -0.021 A 
ATOM     15  Cl  UNL A   1      34.101  31.823  28.068  1.00  0.00    -0.084 Cl
ATOM     16  C   UNL A   1      33.291  28.417  26.037  1.00  0.00     0.022 A 
ATOM     17  O   UNL A   1      31.373  27.899  24.608  1.00  0.00    -0.475 OA
ATOM     18  C   UNL A   1      35.333  29.054  27.395  1.00  0.00     0.047 C 
ATOM     19  C   UNL A   1      33.791  27.056  25.882  1.00  0.00     0.027 C 
ATOM     20  C   UNL A   1      31.787  26.513  24.480  1.00  0.00     0.316 C 
BRANCH  20  21
ATOM     21  C   UNL A   1      30.610  25.618  24.896  1.00  0.00     0.430 C 
ATOM     22  F   UNL A   1      30.613  25.397  26.234  1.00  0.00    -0.167 F 
ATOM     23  F   UNL A   1      29.418  26.188  24.604  1.00  0.00    -0.167 F 
ATOM     24  F   UNL A   1      30.645  24.414  24.285  1.00  0.00    -0.167 F 
ENDBRANCH  20  21
ENDBRANCH   6   8
ENDBRANCH   5   6
ENDBRANCH   4   5
ENDBRANCH   3   4
ENDBRANCH   2   3
ENDBRANCH   1   2
BRANCH   1  25
ATOM     25  C   UNL A   1      36.977  20.541  25.158  1.00  0.00     0.261 C 
BRANCH  25  26
ATOM     26  O   UNL A   1      38.159  21.355  25.031  1.00  0.00    -0.460 OA
BRANCH  26  27
ATOM     27  C   UNL A   1      39.133  21.090  25.932  1.00  0.00     0.338 C 
ATOM     28  O   UNL A   1      39.716  20.027  26.111  1.00  0.00    -0.246 OA
BRANCH  27  29
ATOM     29  C   UNL A   1      39.564  22.337  26.584  1.00  0.00     0.060 A 
ATOM     30  C   UNL A   1      38.927  23.525  26.200  1.00  0.00     0.016 A 
ATOM     31  C   UNL A   1      40.631  22.358  27.483  1.00  0.00     0.016 A 
ATOM     32  C   UNL A   1      39.384  24.747  26.687  1.00  0.00     0.010 A 
ATOM     33  C   UNL A   1      41.097  23.588  27.959  1.00  0.00     0.010 A 
ATOM     34  C   UNL A   1      40.497  24.788  27.538  1.00  0.00    -0.014 A 
BRANCH  34  35
ATOM     35  C   UNL A   1      41.114  26.097  27.854  1.00  0.00     0.031 A 
ATOM     36  C   UNL A   1      42.471  26.418  27.293  1.00  0.00     0.074 A 
ATOM     37  C   UNL A   1      40.448  27.013  28.579  1.00  0.00     0.049 A 
ATOM     38  N   UNL A   1      43.178  27.513  27.414  1.00  0.00    -0.248 NA
ATOM     39  C   UNL A   1      43.113  25.371  26.481  1.00  0.00     0.031 C 
ATOM     40  C   UNL A   1      39.105  26.842  29.130  1.00  0.00     0.029 A 
ATOM     41  N   UNL A   1      40.813  28.278  28.964  1.00  0.00    -0.354 N 
ATOM     42  C   UNL A   1      44.341  27.291  26.688  1.00  0.00     0.074 A 
ATOM     43  C   UNL A   1      44.264  25.945  26.161  1.00  0.00     0.031 C 
ATOM     44  C   UNL A   1      38.753  27.968  29.774  1.00  0.00     0.029 A 
ATOM     45  C   UNL A   1      39.856  28.925  29.706  1.00  0.00     0.049 A 
ATOM     46  H   UNL A   1      41.680  28.684  28.731  1.00  0.00     0.167 HD
ATOM     47  C   UNL A   1      45.376  28.135  26.469  1.00  0.00     0.031 A 
ATOM     48  C   UNL A   1      39.871  30.147  30.272  1.00  0.00     0.031 A 
ATOM     49  C   UNL A   1      45.464  29.464  27.006  1.00  0.00     0.049 A 
ATOM     50  C   UNL A   1      41.081  31.027  30.103  1.00  0.00     0.074 A 
ATOM     51  C   UNL A   1      46.475  30.396  26.838  1.00  0.00     0.029 A 
ATOM     52  N   UNL A   1      44.510  30.050  27.821  1.00  0.00    -0.354 N 
ATOM     53  N   UNL A   1      42.168  30.811  29.402  1.00  0.00    -0.248 NA
ATOM     54  C   UNL A   1      41.066  32.321  30.803  1.00  0.00     0.031 C 
ATOM     55  C   UNL A   1      46.156  31.526  27.596  1.00  0.00     0.029 A 
ATOM     56  C   UNL A   1      44.921  31.320  28.190  1.00  0.00     0.049 A 
ATOM     57  H   UNL A   1      43.664  29.627  28.097  1.00  0.00     0.167 HD
ATOM     58  C   UNL A   1      42.954  31.946  29.560  1.00  0.00     0.074 A 
ATOM     59  C   UNL A   1      42.214  32.854  30.411  1.00  0.00     0.031 C 
ATOM     60  C   UNL A   1      44.178  32.210  29.043  1.00  0.00     0.031 A 
BRANCH  47  61
ATOM     61  C   UNL A   1      46.511  27.636  25.623  1.00  0.00    -0.014 A 
ATOM     62  C   UNL A   1      46.592  27.958  24.259  1.00  0.00     0.009 A 
ATOM     63  C   UNL A   1      47.540  26.880  26.207  1.00  0.00     0.009 A 
ATOM     64  C   UNL A   1      47.671  27.513  23.492  1.00  0.00     0.001 A 
ATOM     65  C   UNL A   1      48.629  26.458  25.444  1.00  0.00     0.001 A 
ATOM     66  C   UNL A   1      48.691  26.770  24.085  1.00  0.00     0.000 A 
ENDBRANCH  47  61
BRANCH  48  67
ATOM     67  C   UNL A   1      38.700  30.614  31.059  1.00  0.00    -0.014 A 
ATOM     68  C   UNL A   1      37.643  31.290  30.431  1.00  0.00     0.009 A 
ATOM     69  C   UNL A   1      38.633  30.385  32.442  1.00  0.00     0.009 A 
ATOM     70  C   UNL A   1      36.549  31.737  31.176  1.00  0.00     0.001 A 
ATOM     71  C   UNL A   1      37.527  30.811  33.179  1.00  0.00     0.001 A 
ATOM     72  C   UNL A   1      36.489  31.493  32.547  1.00  0.00     0.000 A 
ENDBRANCH  48  67
BRANCH  60  73
ATOM     73  C   UNL A   1      44.803  33.537  29.369  1.00  0.00    -0.014 A 
ATOM     74  C   UNL A   1      45.633  33.690  30.489  1.00  0.00     0.009 A 
ATOM     75  C   UNL A   1      44.628  34.623  28.495  1.00  0.00     0.009 A 
ATOM     76  C   UNL A   1      46.265  34.909  30.737  1.00  0.00     0.001 A 
ATOM     77  C   UNL A   1      45.283  35.832  28.732  1.00  0.00     0.001 A 
ATOM     78  C   UNL A   1      46.096  35.976  29.854  1.00  0.00     0.000 A 
ENDBRANCH  60  73
ENDBRANCH  34  35
ENDBRANCH  27  29
ENDBRANCH  26  27
ENDBRANCH  25  26
ENDBRANCH   1  25
TORSDOF 15
ENDMDL
MODEL 2
REMARK VINA RESULT:     -10.6      0.576      5.917
REMARK SMILES Cc1cc2c(c(C)c1Cl)C=C(C(=O)OCCOCCOC(=O)c1ccc(-c3c4nc(c(-c5ccccc5)c5ccc([nH]5)c(-c5ccccc5)c5nc(c(-c6ccccc6)c6ccc3[nH]6)C=C5)C=C4)cc1)[C@@H](C(F)(F)F)O2
REMARK SMILES IDX 18 1 17 2 16 3 15 4 14 5 12 6 13 7 11 8 1 9 2 10 3 11 8 12
REMARK SMILES IDX 4 13 6 14 9 15 5 16 76 17 7 18 10 19 71 20 72 21 73 22 74 23
REMARK SMILES IDX 75 24 19 25 20 26 21 27 22 28 23 29 24 30 70 31 25 32 69 33
REMARK SMILES IDX 26 34 27 35 28 36 63 37 29 38 68 39 62 40 64 41 30 42 67 43
REMARK SMILES IDX 61 44 60 45 31 47 53 48 38 49 52 50 39 51 42 52 51 53 65 54
REMARK SMILES IDX 40 55 41 56 50 58 66 59 43 60 32 61 33 62 37 63 34 64 36 65
REMARK SMILES IDX 35 66 54 67 55 68 59 69 56 70 58 71 57 72 44 73 45 74 49 75
REMARK SMILES IDX 46 76 48 77 47 78
REMARK H PARENT 64 46 42 57
REMARK Flexibility Score: inf
ROOT
ATOM      1  C   UNL A   1      35.876  19.878  24.992  1.00  0.00     0.202 C 
ENDROOT
BRANCH   1   2
ATOM      2  O   UNL A   1      35.108  21.021  25.371  1.00  0.00    -0.374 OA
BRANCH   2   3
ATOM      3  C   UNL A   1      34.432  21.741  24.344  1.00  0.00     0.202 C 
BRANCH   3   4
ATOM      4  C   UNL A   1      34.850  23.199  24.136  1.00  0.00     0.261 C 
BRANCH   4   5
ATOM      5  O   UNL A   1      33.733  24.095  24.251  1.00  0.00    -0.460 OA
BRANCH   5   6
ATOM      6  C   UNL A   1      33.556  24.611  25.489  1.00  0.00     0.338 C 
ATOM      7  O   UNL A   1      33.860  24.090  26.552  1.00  0.00    -0.246 OA
BRANCH   6   8
ATOM      8  C   UNL A   1      33.040  25.987  25.390  1.00  0.00     0.087 C 
ATOM      9  C   UNL A   1      31.297  32.108  26.565  1.00  0.00     0.046 C 
ATOM     10  C   UNL A   1      32.028  30.805  26.374  1.00  0.00    -0.028 A 
ATOM     11  C   UNL A   1      31.438  29.808  25.588  1.00  0.00     0.052 A 
ATOM     12  C   UNL A   1      33.276  30.552  26.976  1.00  0.00     0.047 A 
ATOM     13  C   UNL A   1      32.038  28.557  25.452  1.00  0.00     0.128 A 
ATOM     14  C   UNL A   1      33.912  29.298  26.832  1.00  0.00    -0.021 A 
ATOM     15  Cl  UNL A   1      34.010  31.812  27.923  1.00  0.00    -0.084 Cl
ATOM     16  C   UNL A   1      33.249  28.283  26.095  1.00  0.00     0.022 A 
ATOM     17  O   UNL A   1      31.359  27.667  24.667  1.00  0.00    -0.475 OA
ATOM     18  C   UNL A   1      35.264  29.012  27.446  1.00  0.00     0.047 C 
ATOM     19  C   UNL A   1      33.757  26.917  26.035  1.00  0.00     0.027 C 
ATOM     20  C   UNL A   1      31.781  26.278  24.633  1.00  0.00     0.316 C 
BRANCH  20  21
ATOM     21  C   UNL A   1      30.599  25.405  25.083  1.00  0.00     0.430 C 
ATOM     22  F   UNL A   1      29.419  25.929  24.669  1.00  0.00    -0.167 F 
ATOM     23  F   UNL A   1      30.670  24.158  24.563  1.00  0.00    -0.167 F 
ATOM     24  F   UNL A   1      30.541  25.282  26.427  1.00  0.00    -0.167 F 
ENDBRANCH  20  21
ENDBRANCH   6   8
ENDBRANCH   5   6
ENDBRANCH   4   5
ENDBRANCH   3   4
ENDBRANCH   2   3
ENDBRANCH   1   2
BRANCH   1  25
ATOM     25  C   UNL A   1      37.394  20.063  24.867  1.00  0.00     0.261 C 
BRANCH  25  26
ATOM     26  O   UNL A   1      37.873  21.147  25.684  1.00  0.00    -0.460 OA
BRANCH  26  27
ATOM     27  C   UNL A   1      39.150  21.015  26.114  1.00  0.00     0.338 C 
ATOM     28  O   UNL A   1      39.891  20.050  25.968  1.00  0.00    -0.246 OA
BRANCH  27  29
ATOM     29  C   UNL A   1      39.634  22.299  26.644  1.00  0.00     0.060 A 
ATOM     30  C   UNL A   1      39.045  23.471  26.150  1.00  0.00     0.016 A 
ATOM     31  C   UNL A   1      40.705  22.362  27.537  1.00  0.00     0.016 A 
ATOM     32  C   UNL A   1      39.553  24.713  26.519  1.00  0.00     0.010 A 
ATOM     33  C   UNL A   1      41.223  23.611  27.895  1.00  0.00     0.010 A 
ATOM     34  C   UNL A   1      40.671  24.789  27.362  1.00  0.00    -0.014 A 
BRANCH  34  35
ATOM     35  C   UNL A   1      41.342  26.095  27.553  1.00  0.00     0.031 A 
ATOM     36  C   UNL A   1      40.675  27.140  28.405  1.00  0.00     0.074 A 
ATOM     37  C   UNL A   1      42.558  26.327  27.027  1.00  0.00     0.049 A 
ATOM     38  N   UNL A   1      41.100  28.334  28.733  1.00  0.00    -0.248 NA
ATOM     39  C   UNL A   1      39.362  26.789  28.971  1.00  0.00     0.031 C 
ATOM     40  C   UNL A   1      43.329  25.375  26.231  1.00  0.00     0.029 A 
ATOM     41  N   UNL A   1      43.360  27.438  27.098  1.00  0.00    -0.354 N 
ATOM     42  C   UNL A   1      40.113  28.872  29.547  1.00  0.00     0.074 A 
ATOM     43  C   UNL A   1      39.051  27.893  29.635  1.00  0.00     0.031 C 
ATOM     44  C   UNL A   1      44.502  25.940  25.896  1.00  0.00     0.029 A 
ATOM     45  C   UNL A   1      44.550  27.300  26.427  1.00  0.00     0.049 A 
ATOM     46  H   UNL A   1      43.106  28.256  27.584  1.00  0.00     0.167 HD
ATOM     47  C   UNL A   1      40.096  30.070  30.177  1.00  0.00     0.031 A 
ATOM     48  C   UNL A   1      45.559  28.176  26.257  1.00  0.00     0.031 A 
ATOM     49  C   UNL A   1      41.139  31.052  30.078  1.00  0.00     0.049 A 
ATOM     50  C   UNL A   1      45.468  29.543  26.880  1.00  0.00     0.074 A 
ATOM     51  C   UNL A   1      41.211  32.297  30.681  1.00  0.00     0.029 A 
ATOM     52  N   UNL A   1      42.290  30.906  29.321  1.00  0.00    -0.354 N 
ATOM     53  N   UNL A   1      44.536  30.035  27.660  1.00  0.00    -0.248 NA
ATOM     54  C   UNL A   1      46.569  30.477  26.598  1.00  0.00     0.031 C 
ATOM     55  C   UNL A   1      42.381  32.924  30.245  1.00  0.00     0.029 A 
ATOM     56  C   UNL A   1      43.064  32.050  29.416  1.00  0.00     0.049 A 
ATOM     57  H   UNL A   1      42.523  30.107  28.794  1.00  0.00     0.167 HD
ATOM     58  C   UNL A   1      44.947  31.324  27.978  1.00  0.00     0.074 A 
ATOM     59  C   UNL A   1      46.218  31.534  27.318  1.00  0.00     0.031 C 
ATOM     60  C   UNL A   1      44.325  32.248  28.749  1.00  0.00     0.031 A 
BRANCH  47  61
ATOM     61  C   UNL A   1      38.896  30.394  31.020  1.00  0.00    -0.014 A 
ATOM     62  C   UNL A   1      37.750  30.975  30.453  1.00  0.00     0.009 A 
ATOM     63  C   UNL A   1      38.888  30.064  32.384  1.00  0.00     0.009 A 
ATOM     64  C   UNL A   1      36.630  31.241  31.243  1.00  0.00     0.001 A 
ATOM     65  C   UNL A   1      37.759  30.308  33.165  1.00  0.00     0.001 A 
ATOM     66  C   UNL A   1      36.632  30.902  32.595  1.00  0.00     0.000 A 
ENDBRANCH  47  61
BRANCH  48  67
ATOM     67  C   UNL A   1      46.749  27.788  25.455  1.00  0.00    -0.014 A 
ATOM     68  C   UNL A   1      47.883  27.245  26.078  1.00  0.00     0.009 A 
ATOM     69  C   UNL A   1      46.755  27.956  24.062  1.00  0.00     0.009 A 
ATOM     70  C   UNL A   1      49.004  26.892  25.323  1.00  0.00     0.001 A 
ATOM     71  C   UNL A   1      47.868  27.580  23.307  1.00  0.00     0.001 A 
ATOM     72  C   UNL A   1      48.993  27.054  23.938  1.00  0.00     0.000 A 
ENDBRANCH  48  67
BRANCH  60  73
ATOM     73  C   UNL A   1      45.006  33.573  28.939  1.00  0.00    -0.014 A 
ATOM     74  C   UNL A   1      45.945  33.763  29.964  1.00  0.00     0.009 A 
ATOM     75  C   UNL A   1      44.770  34.615  28.027  1.00  0.00     0.009 A 
ATOM     76  C   UNL A   1      46.623  34.977  30.081  1.00  0.00     0.001 A 
ATOM     77  C   UNL A   1      45.469  35.818  28.132  1.00  0.00     0.001 A 
ATOM     78  C   UNL A   1      46.392  36.000  29.161  1.00  0.00     0.000 A 
ENDBRANCH  60  73
ENDBRANCH  34  35
ENDBRANCH  27  29
ENDBRANCH  26  27
ENDBRANCH  25  26
ENDBRANCH   1  25
TORSDOF 15
ENDMDL
MODEL 3
REMARK VINA RESULT:     -10.6      4.720      7.870
REMARK SMILES Cc1cc2c(c(C)c1Cl)C=C(C(=O)OCCOCCOC(=O)c1ccc(-c3c4nc(c(-c5ccccc5)c5ccc([nH]5)c(-c5ccccc5)c5nc(c(-c6ccccc6)c6ccc3[nH]6)C=C5)C=C4)cc1)[C@@H](C(F)(F)F)O2
REMARK SMILES IDX 18 1 17 2 16 3 15 4 14 5 12 6 13 7 11 8 1 9 2 10 3 11 8 12
REMARK SMILES IDX 4 13 6 14 9 15 5 16 76 17 7 18 10 19 71 20 72 21 73 22 74 23
REMARK SMILES IDX 75 24 19 25 20 26 21 27 22 28 23 29 24 30 70 31 25 32 69 33
REMARK SMILES IDX 26 34 27 35 28 36 63 37 29 38 68 39 62 40 64 41 30 42 67 43
REMARK SMILES IDX 61 44 60 45 31 47 53 48 38 49 52 50 39 51 42 52 51 53 65 54
REMARK SMILES IDX 40 55 41 56 50 58 66 59 43 60 32 61 33 62 37 63 34 64 36 65
REMARK SMILES IDX 35 66 54 67 55 68 59 69 56 70 58 71 57 72 44 73 45 74 49 75
REMARK SMILES IDX 46 76 48 77 47 78
REMARK H PARENT 64 46 42 57
REMARK Flexibility Score: inf
ROOT
ATOM      1  C   UNL A   1      41.513  18.969  26.271  1.00  0.00     0.202 C 
ENDROOT
BRANCH   1   2
ATOM      2  O   UNL A   1      42.783  19.620  26.213  1.00  0.00    -0.374 OA
BRANCH   2   3
ATOM      3  C   UNL A   1      43.846  18.950  25.541  1.00  0.00     0.202 C 
BRANCH   3   4
ATOM      4  C   UNL A   1      44.652  19.775  24.533  1.00  0.00     0.261 C 
BRANCH   4   5
ATOM      5  O   UNL A   1      45.442  20.784  25.182  1.00  0.00    -0.460 OA
BRANCH   5   6
ATOM      6  C   UNL A   1      44.845  21.996  25.259  1.00  0.00     0.338 C 
ATOM      7  O   UNL A   1      43.847  22.363  24.656  1.00  0.00    -0.246 OA
BRANCH   6   8
ATOM      8  C   UNL A   1      45.503  22.814  26.293  1.00  0.00     0.087 C 
ATOM      9  C   UNL A   1      46.792  26.851  31.184  1.00  0.00     0.046 C 
ATOM     10  C   UNL A   1      46.304  25.738  30.294  1.00  0.00    -0.028 A 
ATOM     11  C   UNL A   1      46.999  25.464  29.110  1.00  0.00     0.052 A 
ATOM     12  C   UNL A   1      45.160  24.978  30.606  1.00  0.00     0.047 A 
ATOM     13  C   UNL A   1      46.536  24.501  28.216  1.00  0.00     0.128 A 
ATOM     14  C   UNL A   1      44.686  23.981  29.724  1.00  0.00    -0.021 A 
ATOM     15  Cl  UNL A   1      44.326  25.310  32.095  1.00  0.00    -0.084 Cl
ATOM     16  C   UNL A   1      45.369  23.783  28.495  1.00  0.00     0.022 A 
ATOM     17  O   UNL A   1      47.298  24.334  27.093  1.00  0.00    -0.475 OA
ATOM     18  C   UNL A   1      43.477  23.134  30.050  1.00  0.00     0.047 C 
ATOM     19  C   UNL A   1      44.854  22.893  27.461  1.00  0.00     0.027 C 
ATOM     20  C   UNL A   1      46.794  23.516  26.003  1.00  0.00     0.316 C 
BRANCH  20  21
ATOM     21  C   UNL A   1      46.729  24.387  24.739  1.00  0.00     0.430 C 
ATOM     22  F   UNL A   1      46.689  23.622  23.620  1.00  0.00    -0.167 F 
ATOM     23  F   UNL A   1      45.617  25.158  24.717  1.00  0.00    -0.167 F 
ATOM     24  F   UNL A   1      47.796  25.209  24.632  1.00  0.00    -0.167 F 
ENDBRANCH  20  21
ENDBRANCH   6   8
ENDBRANCH   5   6
ENDBRANCH   4   5
ENDBRANCH   3   4
ENDBRANCH   2   3
ENDBRANCH   1   2
BRANCH   1  25
ATOM     25  C   UNL A   1      40.269  19.838  26.052  1.00  0.00     0.261 C 
BRANCH  25  26
ATOM     26  O   UNL A   1      40.515  21.221  26.369  1.00  0.00    -0.460 OA
BRANCH  26  27
ATOM     27  C   UNL A   1      39.441  22.035  26.243  1.00  0.00     0.338 C 
ATOM     28  O   UNL A   1      38.346  21.758  25.770  1.00  0.00    -0.246 OA
BRANCH  27  29
ATOM     29  C   UNL A   1      39.692  23.305  26.942  1.00  0.00     0.060 A 
ATOM     30  C   UNL A   1      38.978  24.434  26.517  1.00  0.00     0.016 A 
ATOM     31  C   UNL A   1      40.672  23.412  27.930  1.00  0.00     0.016 A 
ATOM     32  C   UNL A   1      39.271  25.685  27.054  1.00  0.00     0.010 A 
ATOM     33  C   UNL A   1      40.974  24.672  28.457  1.00  0.00     0.010 A 
ATOM     34  C   UNL A   1      40.299  25.816  27.998  1.00  0.00    -0.014 A 
BRANCH  34  35
ATOM     35  C   UNL A   1      40.757  27.172  28.380  1.00  0.00     0.031 A 
ATOM     36  C   UNL A   1      42.184  27.562  28.112  1.00  0.00     0.074 A 
ATOM     37  C   UNL A   1      39.898  28.066  28.902  1.00  0.00     0.049 A 
ATOM     38  N   UNL A   1      42.784  28.704  28.332  1.00  0.00    -0.248 NA
ATOM     39  C   UNL A   1      43.046  26.534  27.506  1.00  0.00     0.031 C 
ATOM     40  C   UNL A   1      38.479  27.826  29.156  1.00  0.00     0.029 A 
ATOM     41  N   UNL A   1      40.099  29.364  29.298  1.00  0.00    -0.354 N 
ATOM     42  C   UNL A   1      44.088  28.535  27.886  1.00  0.00     0.074 A 
ATOM     43  C   UNL A   1      44.204  27.171  27.416  1.00  0.00     0.031 C 
ATOM     44  C   UNL A   1      37.932  28.948  29.657  1.00  0.00     0.029 A 
ATOM     45  C   UNL A   1      38.967  29.971  29.785  1.00  0.00     0.049 A 
ATOM     46  H   UNL A   1      40.971  29.818  29.239  1.00  0.00     0.167 HD
ATOM     47  C   UNL A   1      45.097  29.437  27.856  1.00  0.00     0.031 A 
ATOM     48  C   UNL A   1      38.790  31.210  30.284  1.00  0.00     0.031 A 
ATOM     49  C   UNL A   1      44.990  30.786  28.338  1.00  0.00     0.049 A 
ATOM     50  C   UNL A   1      39.956  32.160  30.340  1.00  0.00     0.074 A 
ATOM     51  C   UNL A   1      45.959  31.775  28.350  1.00  0.00     0.029 A 
ATOM     52  N   UNL A   1      43.850  31.335  28.900  1.00  0.00    -0.354 N 
ATOM     53  N   UNL A   1      41.180  31.993  29.901  1.00  0.00    -0.248 NA
ATOM     54  C   UNL A   1      39.715  33.472  30.961  1.00  0.00     0.031 C 
ATOM     55  C   UNL A   1      45.419  32.906  28.969  1.00  0.00     0.029 A 
ATOM     56  C   UNL A   1      44.099  32.640  29.291  1.00  0.00     0.049 A 
ATOM     57  H   UNL A   1      42.989  30.867  29.006  1.00  0.00     0.167 HD
ATOM     58  C   UNL A   1      41.847  33.181  30.173  1.00  0.00     0.074 A 
ATOM     59  C   UNL A   1      40.890  34.066  30.802  1.00  0.00     0.031 C 
ATOM     60  C   UNL A   1      43.138  33.507  29.922  1.00  0.00     0.031 A 
BRANCH  47  61
ATOM     61  C   UNL A   1      46.416  28.985  27.299  1.00  0.00    -0.014 A 
ATOM     62  C   UNL A   1      46.587  28.781  25.921  1.00  0.00     0.009 A 
ATOM     63  C   UNL A   1      47.515  28.814  28.155  1.00  0.00     0.009 A 
ATOM     64  C   UNL A   1      47.828  28.392  25.414  1.00  0.00     0.001 A 
ATOM     65  C   UNL A   1      48.761  28.450  27.642  1.00  0.00     0.001 A 
ATOM     66  C   UNL A   1      48.915  28.233  26.273  1.00  0.00     0.000 A 
ENDBRANCH  47  61
BRANCH  48  67
ATOM     67  C   UNL A   1      37.451  31.625  30.777  1.00  0.00    -0.014 A 
ATOM     68  C   UNL A   1      37.114  31.484  32.132  1.00  0.00     0.009 A 
ATOM     69  C   UNL A   1      36.503  32.166  29.895  1.00  0.00     0.009 A 
ATOM     70  C   UNL A   1      35.850  31.864  32.589  1.00  0.00     0.001 A 
ATOM     71  C   UNL A   1      35.249  32.568  30.360  1.00  0.00     0.001 A 
ATOM     72  C   UNL A   1      34.921  32.411  31.705  1.00  0.00     0.000 A 
ENDBRANCH  48  67
BRANCH  60  73
ATOM     73  C   UNL A   1      43.601  34.881  30.313  1.00  0.00    -0.014 A 
ATOM     74  C   UNL A   1      43.537  35.951  29.408  1.00  0.00     0.009 A 
ATOM     75  C   UNL A   1      44.023  35.127  31.630  1.00  0.00     0.009 A 
ATOM     76  C   UNL A   1      43.902  37.237  29.809  1.00  0.00     0.001 A 
ATOM     77  C   UNL A   1      44.361  36.418  32.036  1.00  0.00     0.001 A 
ATOM     78  C   UNL A   1      44.305  37.471  31.125  1.00  0.00     0.000 A 
ENDBRANCH  60  73
ENDBRANCH  34  35
ENDBRANCH  27  29
ENDBRANCH  26  27
ENDBRANCH  25  26
ENDBRANCH   1  25
TORSDOF 15
ENDMDL
