MODEL 1
REMARK VINA RESULT:     -10.9      0.000      0.000
REMARK SMILES CC(C)[C@H](C)CNC(=O)N1CC(n2cc(C(=O)OCCOCCOC(=O)c3ccc(-c4c5nc(c(-c6ccccc6)c6ccc([nH]6)c(-c6ccccc6)c6nc(c(-c7ccccc7)c7ccc4[nH]7)C=C6)C=C5)cc3)nn2)C1
REMARK SMILES IDX 20 1 19 2 18 3 16 4 17 5 15 6 13 7 14 8 76 9 75 10 12 11
REMARK SMILES IDX 7 12 8 13 9 15 10 16 11 17 77 18 6 19 4 20 5 21 2 22 1 23
REMARK SMILES IDX 3 24 21 25 22 26 23 27 24 28 25 29 26 30 27 31 28 32 74 33
REMARK SMILES IDX 29 34 73 35 30 36 31 37 32 38 67 39 33 40 72 41 66 42 68 43
REMARK SMILES IDX 34 44 71 45 65 46 64 47 35 49 57 50 42 51 56 52 43 53 46 54
REMARK SMILES IDX 55 55 69 56 44 57 45 58 54 60 70 61 47 62 36 63 37 64 41 65
REMARK SMILES IDX 38 66 40 67 39 68 58 69 59 70 63 71 60 72 62 73 61 74 48 75
REMARK SMILES IDX 49 76 53 77 50 78 52 79 51 80
REMARK H PARENT 7 14 68 48 46 59
REMARK Flexibility Score: inf
ROOT
ATOM      1  C   UNL A   1      40.789  20.762  26.743  1.00  0.00     0.202 C 
ENDROOT
BRANCH   1   2
ATOM      2  C   UNL A   1      39.982  21.626  25.771  1.00  0.00     0.261 C 
BRANCH   2   3
ATOM      3  O   UNL A   1      38.601  21.742  26.153  1.00  0.00    -0.458 OA
BRANCH   3   4
ATOM      4  C   UNL A   1      37.724  21.123  25.303  1.00  0.00     0.360 C 
ATOM      5  O   UNL A   1      37.991  20.133  24.639  1.00  0.00    -0.244 OA
BRANCH   4   6
ATOM      6  C   UNL A   1      36.393  21.707  25.340  1.00  0.00     0.190 A 
ATOM      7  N   UNL A   1      34.462  22.536  25.857  1.00  0.00    -0.245 N 
ATOM      8  C   UNL A   1      35.463  21.750  26.364  1.00  0.00     0.147 A 
ATOM      9  N   UNL A   1      34.684  22.836  24.570  1.00  0.00    -0.066 NA
ATOM     10  N   UNL A   1      35.868  22.348  24.243  1.00  0.00    -0.123 NA
BRANCH   7  11
ATOM     11  C   UNL A   1      33.394  23.089  26.631  1.00  0.00     0.148 C 
ATOM     12  N   UNL A   1      30.048  25.635  26.225  1.00  0.00    -0.338 N 
ATOM     13  C   UNL A   1      30.353  24.367  26.592  1.00  0.00     0.317 C 
ATOM     14  H   UNL A   1      29.379  26.077  26.798  1.00  0.00     0.165 HD
ATOM     15  O   UNL A   1      29.548  23.752  27.291  1.00  0.00    -0.249 OA
ATOM     16  N   UNL A   1      31.524  23.816  26.199  1.00  0.00    -0.320 N 
ATOM     17  C   UNL A   1      32.011  22.457  26.427  1.00  0.00     0.150 C 
ATOM     18  C   UNL A   1      32.842  24.359  25.954  1.00  0.00     0.150 C 
BRANCH  12  19
ATOM     19  C   UNL A   1      30.543  26.459  25.126  1.00  0.00     0.121 C 
BRANCH  19  20
ATOM     20  C   UNL A   1      31.242  27.739  25.642  1.00  0.00     0.008 C 
ATOM     21  C   UNL A   1      31.495  27.656  27.161  1.00  0.00     0.010 C 
BRANCH  20  22
ATOM     22  C   UNL A   1      32.530  28.134  24.851  1.00  0.00    -0.013 C 
ATOM     23  C   UNL A   1      33.833  28.036  25.654  1.00  0.00     0.008 C 
ATOM     24  C   UNL A   1      32.688  27.333  23.552  1.00  0.00     0.008 C 
ENDBRANCH  20  22
ENDBRANCH  19  20
ENDBRANCH  12  19
ENDBRANCH   7  11
ENDBRANCH   4   6
ENDBRANCH   3   4
ENDBRANCH   2   3
ENDBRANCH   1   2
BRANCH   1  25
ATOM     25  O   UNL A   1      41.183  19.462  26.314  1.00  0.00    -0.374 OA
BRANCH  25  26
ATOM     26  C   UNL A   1      42.428  18.913  26.732  1.00  0.00     0.202 C 
BRANCH  26  27
ATOM     27  C   UNL A   1      43.450  18.558  25.662  1.00  0.00     0.261 C 
BRANCH  27  28
ATOM     28  O   UNL A   1      43.486  19.518  24.617  1.00  0.00    -0.460 OA
BRANCH  28  29
ATOM     29  C   UNL A   1      44.735  19.822  24.195  1.00  0.00     0.338 C 
ATOM     30  O   UNL A   1      45.585  19.056  23.783  1.00  0.00    -0.246 OA
BRANCH  29  31
ATOM     31  C   UNL A   1      44.979  21.242  24.466  1.00  0.00     0.060 A 
ATOM     32  C   UNL A   1      45.928  21.527  25.448  1.00  0.00     0.016 A 
ATOM     33  C   UNL A   1      44.075  22.209  23.997  1.00  0.00     0.016 A 
ATOM     34  C   UNL A   1      45.809  22.711  26.136  1.00  0.00     0.010 A 
ATOM     35  C   UNL A   1      43.950  23.385  24.691  1.00  0.00     0.010 A 
ATOM     36  C   UNL A   1      44.755  23.571  25.809  1.00  0.00    -0.014 A 
BRANCH  36  37
ATOM     37  C   UNL A   1      44.555  24.729  26.645  1.00  0.00     0.031 A 
ATOM     38  C   UNL A   1      45.668  25.695  26.558  1.00  0.00     0.074 A 
ATOM     39  C   UNL A   1      43.433  24.926  27.358  1.00  0.00     0.049 A 
ATOM     40  N   UNL A   1      46.534  25.975  27.470  1.00  0.00    -0.248 NA
ATOM     41  C   UNL A   1      45.955  26.280  25.239  1.00  0.00     0.031 C 
ATOM     42  C   UNL A   1      42.165  24.193  27.300  1.00  0.00     0.029 A 
ATOM     43  N   UNL A   1      43.165  25.930  28.228  1.00  0.00    -0.354 N 
ATOM     44  C   UNL A   1      47.375  26.921  26.903  1.00  0.00     0.074 A 
ATOM     45  C   UNL A   1      47.091  26.929  25.490  1.00  0.00     0.031 C 
ATOM     46  C   UNL A   1      41.203  24.929  27.906  1.00  0.00     0.029 A 
ATOM     47  C   UNL A   1      41.817  26.103  28.507  1.00  0.00     0.049 A 
ATOM     48  H   UNL A   1      43.868  26.492  28.629  1.00  0.00     0.167 HD
ATOM     49  C   UNL A   1      48.049  27.816  27.673  1.00  0.00     0.031 A 
ATOM     50  C   UNL A   1      41.263  27.182  29.114  1.00  0.00     0.031 A 
ATOM     51  C   UNL A   1      48.111  27.399  29.049  1.00  0.00     0.049 A 
ATOM     52  C   UNL A   1      42.350  27.900  29.827  1.00  0.00     0.074 A 
ATOM     53  C   UNL A   1      48.631  26.299  29.703  1.00  0.00     0.029 A 
ATOM     54  N   UNL A   1      47.214  27.968  29.923  1.00  0.00    -0.354 N 
ATOM     55  N   UNL A   1      42.970  27.409  30.863  1.00  0.00    -0.248 NA
ATOM     56  C   UNL A   1      43.073  28.937  29.103  1.00  0.00     0.031 C 
ATOM     57  C   UNL A   1      47.676  25.990  30.717  1.00  0.00     0.029 A 
ATOM     58  C   UNL A   1      46.670  26.957  30.672  1.00  0.00     0.049 A 
ATOM     59  H   UNL A   1      47.002  28.927  29.997  1.00  0.00     0.167 HD
ATOM     60  C   UNL A   1      44.305  27.739  30.668  1.00  0.00     0.074 A 
ATOM     61  C   UNL A   1      44.294  28.755  29.615  1.00  0.00     0.031 C 
ATOM     62  C   UNL A   1      45.308  26.954  31.162  1.00  0.00     0.031 A 
BRANCH  49  63
ATOM     63  C   UNL A   1      48.259  29.245  27.249  1.00  0.00    -0.014 A 
ATOM     64  C   UNL A   1      49.545  29.797  27.353  1.00  0.00     0.009 A 
ATOM     65  C   UNL A   1      47.197  30.145  27.023  1.00  0.00     0.009 A 
ATOM     66  C   UNL A   1      49.744  31.182  27.303  1.00  0.00     0.001 A 
ATOM     67  C   UNL A   1      47.398  31.522  26.929  1.00  0.00     0.001 A 
ATOM     68  C   UNL A   1      48.670  32.043  27.099  1.00  0.00     0.000 A 
ENDBRANCH  49  63
BRANCH  50  69
ATOM     69  C   UNL A   1      39.954  27.813  28.833  1.00  0.00    -0.014 A 
ATOM     70  C   UNL A   1      38.954  27.869  29.816  1.00  0.00     0.009 A 
ATOM     71  C   UNL A   1      39.784  28.607  27.683  1.00  0.00     0.009 A 
ATOM     72  C   UNL A   1      37.844  28.714  29.667  1.00  0.00     0.001 A 
ATOM     73  C   UNL A   1      38.676  29.448  27.534  1.00  0.00     0.001 A 
ATOM     74  C   UNL A   1      37.713  29.513  28.533  1.00  0.00     0.000 A 
ENDBRANCH  50  69
BRANCH  62  75
ATOM     75  C   UNL A   1      44.935  25.833  32.102  1.00  0.00    -0.014 A 
ATOM     76  C   UNL A   1      44.576  24.545  31.662  1.00  0.00     0.009 A 
ATOM     77  C   UNL A   1      45.106  26.037  33.480  1.00  0.00     0.009 A 
ATOM     78  C   UNL A   1      44.368  23.505  32.577  1.00  0.00     0.001 A 
ATOM     79  C   UNL A   1      44.918  24.995  34.389  1.00  0.00     0.001 A 
ATOM     80  C   UNL A   1      44.545  23.731  33.940  1.00  0.00     0.000 A 
ENDBRANCH  62  75
ENDBRANCH  36  37
ENDBRANCH  29  31
ENDBRANCH  28  29
ENDBRANCH  27  28
ENDBRANCH  26  27
ENDBRANCH  25  26
ENDBRANCH   1  25
TORSDOF 18
ENDMDL
MODEL 2
REMARK VINA RESULT:     -10.5      2.415      3.815
REMARK SMILES CC(C)[C@H](C)CNC(=O)N1CC(n2cc(C(=O)OCCOCCOC(=O)c3ccc(-c4c5nc(c(-c6ccccc6)c6ccc([nH]6)c(-c6ccccc6)c6nc(c(-c7ccccc7)c7ccc4[nH]7)C=C6)C=C5)cc3)nn2)C1
REMARK SMILES IDX 20 1 19 2 18 3 16 4 17 5 15 6 13 7 14 8 76 9 75 10 12 11
REMARK SMILES IDX 7 12 8 13 9 15 10 16 11 17 77 18 6 19 4 20 5 21 2 22 1 23
REMARK SMILES IDX 3 24 21 25 22 26 23 27 24 28 25 29 26 30 27 31 28 32 74 33
REMARK SMILES IDX 29 34 73 35 30 36 31 37 32 38 67 39 33 40 72 41 66 42 68 43
REMARK SMILES IDX 34 44 71 45 65 46 64 47 35 49 57 50 42 51 56 52 43 53 46 54
REMARK SMILES IDX 55 55 69 56 44 57 45 58 54 60 70 61 47 62 36 63 37 64 41 65
REMARK SMILES IDX 38 66 40 67 39 68 58 69 59 70 63 71 60 72 62 73 61 74 48 75
REMARK SMILES IDX 49 76 53 77 50 78 52 79 51 80
REMARK H PARENT 7 14 68 48 46 59
REMARK Flexibility Score: inf
ROOT
ATOM      1  C   UNL A   1      43.412  18.970  25.323  1.00  0.00     0.202 C 
ENDROOT
BRANCH   1   2
ATOM      2  C   UNL A   1      42.188  18.510  26.118  1.00  0.00     0.261 C 
BRANCH   2   3
ATOM      3  O   UNL A   1      40.996  19.230  25.760  1.00  0.00    -0.458 OA
BRANCH   3   4
ATOM      4  C   UNL A   1      40.563  20.117  26.710  1.00  0.00     0.360 C 
ATOM      5  O   UNL A   1      41.045  20.219  27.827  1.00  0.00    -0.244 OA
BRANCH   4   6
ATOM      6  C   UNL A   1      39.522  21.007  26.221  1.00  0.00     0.190 A 
ATOM      7  N   UNL A   1      37.744  21.934  25.410  1.00  0.00    -0.245 N 
ATOM      8  C   UNL A   1      38.419  20.743  25.429  1.00  0.00     0.147 A 
ATOM      9  N   UNL A   1      38.444  22.900  26.020  1.00  0.00    -0.066 NA
ATOM     10  N   UNL A   1      39.528  22.345  26.534  1.00  0.00    -0.123 NA
BRANCH   7  11
ATOM     11  C   UNL A   1      36.404  22.100  24.936  1.00  0.00     0.148 C 
ATOM     12  N   UNL A   1      32.537  20.477  25.447  1.00  0.00    -0.338 N 
ATOM     13  C   UNL A   1      33.196  21.656  25.564  1.00  0.00     0.317 C 
ATOM     14  H   UNL A   1      31.644  20.547  25.037  1.00  0.00     0.165 HD
ATOM     15  O   UNL A   1      32.539  22.696  25.547  1.00  0.00    -0.249 OA
ATOM     16  N   UNL A   1      34.543  21.664  25.685  1.00  0.00    -0.320 N 
ATOM     17  C   UNL A   1      35.430  22.807  25.888  1.00  0.00     0.150 C 
ATOM     18  C   UNL A   1      35.590  20.811  25.166  1.00  0.00     0.150 C 
BRANCH  12  19
ATOM     19  C   UNL A   1      32.927  19.121  25.823  1.00  0.00     0.121 C 
BRANCH  19  20
ATOM     20  C   UNL A   1      32.763  18.133  24.644  1.00  0.00     0.008 C 
ATOM     21  C   UNL A   1      32.319  18.869  23.364  1.00  0.00     0.010 C 
BRANCH  20  22
ATOM     22  C   UNL A   1      34.004  17.216  24.395  1.00  0.00    -0.013 C 
ATOM     23  C   UNL A   1      34.081  15.980  25.300  1.00  0.00     0.008 C 
ATOM     24  C   UNL A   1      34.116  16.766  22.933  1.00  0.00     0.008 C 
ENDBRANCH  20  22
ENDBRANCH  19  20
ENDBRANCH  12  19
ENDBRANCH   7  11
ENDBRANCH   4   6
ENDBRANCH   3   4
ENDBRANCH   2   3
ENDBRANCH   1   2
BRANCH   1  25
ATOM     25  O   UNL A   1      44.585  18.163  25.374  1.00  0.00    -0.374 OA
BRANCH  25  26
ATOM     26  C   UNL A   1      45.838  18.737  25.730  1.00  0.00     0.202 C 
BRANCH  26  27
ATOM     27  C   UNL A   1      46.492  19.696  24.747  1.00  0.00     0.261 C 
BRANCH  27  28
ATOM     28  O   UNL A   1      46.346  21.051  25.145  1.00  0.00    -0.460 OA
BRANCH  28  29
ATOM     29  C   UNL A   1      45.412  21.731  24.442  1.00  0.00     0.338 C 
ATOM     30  O   UNL A   1      44.759  21.332  23.497  1.00  0.00    -0.246 OA
BRANCH  29  31
ATOM     31  C   UNL A   1      45.414  23.123  24.902  1.00  0.00     0.060 A 
ATOM     32  C   UNL A   1      46.246  23.413  25.984  1.00  0.00     0.016 A 
ATOM     33  C   UNL A   1      44.399  23.999  24.483  1.00  0.00     0.016 A 
ATOM     34  C   UNL A   1      45.902  24.465  26.799  1.00  0.00     0.010 A 
ATOM     35  C   UNL A   1      44.050  25.042  25.302  1.00  0.00     0.010 A 
ATOM     36  C   UNL A   1      44.747  25.196  26.496  1.00  0.00    -0.014 A 
BRANCH  36  37
ATOM     37  C   UNL A   1      44.318  26.191  27.448  1.00  0.00     0.031 A 
ATOM     38  C   UNL A   1      45.272  27.310  27.572  1.00  0.00     0.074 A 
ATOM     39  C   UNL A   1      43.136  26.126  28.084  1.00  0.00     0.049 A 
ATOM     40  N   UNL A   1      46.024  27.589  28.580  1.00  0.00    -0.248 NA
ATOM     41  C   UNL A   1      45.548  28.101  26.363  1.00  0.00     0.031 C 
ATOM     42  C   UNL A   1      42.003  25.231  27.832  1.00  0.00     0.029 A 
ATOM     43  N   UNL A   1      42.661  26.956  29.045  1.00  0.00    -0.354 N 
ATOM     44  C   UNL A   1      46.743  28.714  28.204  1.00  0.00     0.074 A 
ATOM     45  C   UNL A   1      46.552  28.869  26.784  1.00  0.00     0.031 C 
ATOM     46  C   UNL A   1      40.902  25.733  28.441  1.00  0.00     0.029 A 
ATOM     47  C   UNL A   1      41.288  26.892  29.230  1.00  0.00     0.049 A 
ATOM     48  H   UNL A   1      43.242  27.554  29.568  1.00  0.00     0.167 HD
ATOM     49  C   UNL A   1      47.221  29.587  29.130  1.00  0.00     0.031 A 
ATOM     50  C   UNL A   1      40.537  27.789  29.917  1.00  0.00     0.031 A 
ATOM     51  C   UNL A   1      47.259  29.003  30.446  1.00  0.00     0.049 A 
ATOM     52  C   UNL A   1      41.453  28.555  30.800  1.00  0.00     0.074 A 
ATOM     53  C   UNL A   1      47.900  27.913  31.001  1.00  0.00     0.029 A 
ATOM     54  N   UNL A   1      46.232  29.315  31.305  1.00  0.00    -0.354 N 
ATOM     55  N   UNL A   1      42.074  28.026  31.815  1.00  0.00    -0.248 NA
ATOM     56  C   UNL A   1      42.051  29.773  30.270  1.00  0.00     0.031 C 
ATOM     57  C   UNL A   1      46.942  27.336  31.887  1.00  0.00     0.029 A 
ATOM     58  C   UNL A   1      45.803  28.144  31.878  1.00  0.00     0.049 A 
ATOM     59  H   UNL A   1      45.870  30.214  31.479  1.00  0.00     0.167 HD
ATOM     60  C   UNL A   1      43.352  28.569  31.773  1.00  0.00     0.074 A 
ATOM     61  C   UNL A   1      43.251  29.704  30.855  1.00  0.00     0.031 C 
ATOM     62  C   UNL A   1      44.431  27.879  32.249  1.00  0.00     0.031 A 
BRANCH  49  63
ATOM     63  C   UNL A   1      47.235  31.074  28.903  1.00  0.00    -0.014 A 
ATOM     64  C   UNL A   1      48.204  31.848  29.560  1.00  0.00     0.009 A 
ATOM     65  C   UNL A   1      46.167  31.771  28.301  1.00  0.00     0.009 A 
ATOM     66  C   UNL A   1      48.071  33.238  29.666  1.00  0.00     0.001 A 
ATOM     67  C   UNL A   1      46.054  33.160  28.367  1.00  0.00     0.001 A 
ATOM     68  C   UNL A   1      46.993  33.891  29.076  1.00  0.00     0.000 A 
ENDBRANCH  49  63
BRANCH  50  69
ATOM     69  C   UNL A   1      39.167  28.256  29.607  1.00  0.00    -0.014 A 
ATOM     70  C   UNL A   1      38.233  28.480  30.630  1.00  0.00     0.009 A 
ATOM     71  C   UNL A   1      38.859  28.746  28.324  1.00  0.00     0.009 A 
ATOM     72  C   UNL A   1      37.052  29.197  30.384  1.00  0.00     0.001 A 
ATOM     73  C   UNL A   1      37.681  29.459  28.078  1.00  0.00     0.001 A 
ATOM     74  C   UNL A   1      36.784  29.697  29.111  1.00  0.00     0.000 A 
ENDBRANCH  50  69
BRANCH  62  75
ATOM     75  C   UNL A   1      44.176  26.600  33.011  1.00  0.00    -0.014 A 
ATOM     76  C   UNL A   1      44.266  25.323  32.426  1.00  0.00     0.009 A 
ATOM     77  C   UNL A   1      43.996  26.680  34.400  1.00  0.00     0.009 A 
ATOM     78  C   UNL A   1      44.151  24.166  33.206  1.00  0.00     0.001 A 
ATOM     79  C   UNL A   1      43.902  25.526  35.180  1.00  0.00     0.001 A 
ATOM     80  C   UNL A   1      43.974  24.270  34.584  1.00  0.00     0.000 A 
ENDBRANCH  62  75
ENDBRANCH  36  37
ENDBRANCH  29  31
ENDBRANCH  28  29
ENDBRANCH  27  28
ENDBRANCH  26  27
ENDBRANCH  25  26
ENDBRANCH   1  25
TORSDOF 18
ENDMDL
MODEL 3
REMARK VINA RESULT:     -10.4      3.130      8.587
REMARK SMILES CC(C)[C@H](C)CNC(=O)N1CC(n2cc(C(=O)OCCOCCOC(=O)c3ccc(-c4c5nc(c(-c6ccccc6)c6ccc([nH]6)c(-c6ccccc6)c6nc(c(-c7ccccc7)c7ccc4[nH]7)C=C6)C=C5)cc3)nn2)C1
REMARK SMILES IDX 20 1 19 2 18 3 16 4 17 5 15 6 13 7 14 8 76 9 75 10 12 11
REMARK SMILES IDX 7 12 8 13 9 15 10 16 11 17 77 18 6 19 4 20 5 21 2 22 1 23
REMARK SMILES IDX 3 24 21 25 22 26 23 27 24 28 25 29 26 30 27 31 28 32 74 33
REMARK SMILES IDX 29 34 73 35 30 36 31 37 32 38 67 39 33 40 72 41 66 42 68 43
REMARK SMILES IDX 34 44 71 45 65 46 64 47 35 49 57 50 42 51 56 52 43 53 46 54
REMARK SMILES IDX 55 55 69 56 44 57 45 58 54 60 70 61 47 62 36 63 37 64 41 65
REMARK SMILES IDX 38 66 40 67 39 68 58 69 59 70 63 71 60 72 62 73 61 74 48 75
REMARK SMILES IDX 49 76 53 77 50 78 52 79 51 80
REMARK H PARENT 7 14 68 48 46 59
REMARK Flexibility Score: inf
ROOT
ATOM      1  C   UNL A   1      31.365  30.161  25.257  1.00  0.00     0.202 C 
ENDROOT
BRANCH   1   2
ATOM      2  C   UNL A   1      32.208  29.192  24.424  1.00  0.00     0.261 C 
BRANCH   2   3
ATOM      3  O   UNL A   1      31.787  29.136  23.051  1.00  0.00    -0.458 OA
BRANCH   3   4
ATOM      4  C   UNL A   1      30.886  28.142  22.775  1.00  0.00     0.360 C 
ATOM      5  O   UNL A   1      29.794  28.325  22.261  1.00  0.00    -0.244 OA
BRANCH   4   6
ATOM      6  C   UNL A   1      31.403  26.814  23.066  1.00  0.00     0.190 A 
ATOM      7  N   UNL A   1      31.947  24.894  23.902  1.00  0.00    -0.245 N 
ATOM      8  C   UNL A   1      31.511  26.141  24.269  1.00  0.00     0.147 A 
ATOM      9  N   UNL A   1      32.225  24.842  22.593  1.00  0.00    -0.066 NA
ATOM     10  N   UNL A   1      31.884  26.004  22.064  1.00  0.00    -0.123 NA
BRANCH   7  11
ATOM     11  C   UNL A   1      31.963  23.754  24.766  1.00  0.00     0.148 C 
ATOM     12  N   UNL A   1      34.558  20.685  26.070  1.00  0.00    -0.338 N 
ATOM     13  C   UNL A   1      33.816  21.704  26.568  1.00  0.00     0.317 C 
ATOM     14  H   UNL A   1      34.516  19.854  26.596  1.00  0.00     0.165 HD
ATOM     15  O   UNL A   1      33.505  21.671  27.759  1.00  0.00    -0.249 OA
ATOM     16  N   UNL A   1      33.431  22.716  25.757  1.00  0.00    -0.320 N 
ATOM     17  C   UNL A   1      32.694  23.928  26.105  1.00  0.00     0.150 C 
ATOM     18  C   UNL A   1      33.088  22.784  24.353  1.00  0.00     0.150 C 
BRANCH  12  19
ATOM     19  C   UNL A   1      35.406  20.610  24.883  1.00  0.00     0.121 C 
BRANCH  19  20
ATOM     20  C   UNL A   1      36.873  20.979  25.207  1.00  0.00     0.008 C 
ATOM     21  C   UNL A   1      37.827  19.825  24.838  1.00  0.00     0.010 C 
BRANCH  20  22
ATOM     22  C   UNL A   1      37.341  22.344  24.608  1.00  0.00    -0.013 C 
ATOM     23  C   UNL A   1      36.648  22.743  23.299  1.00  0.00     0.008 C 
ATOM     24  C   UNL A   1      37.209  23.499  25.609  1.00  0.00     0.008 C 
ENDBRANCH  20  22
ENDBRANCH  19  20
ENDBRANCH  12  19
ENDBRANCH   7  11
ENDBRANCH   4   6
ENDBRANCH   3   4
ENDBRANCH   2   3
ENDBRANCH   1   2
BRANCH   1  25
ATOM     25  O   UNL A   1      32.000  30.844  26.335  1.00  0.00    -0.374 OA
BRANCH  25  26
ATOM     26  C   UNL A   1      33.239  30.374  26.854  1.00  0.00     0.202 C 
BRANCH  26  27
ATOM     27  C   UNL A   1      34.039  31.305  27.752  1.00  0.00     0.261 C 
BRANCH  27  28
ATOM     28  O   UNL A   1      35.431  31.031  27.703  1.00  0.00    -0.460 OA
BRANCH  28  29
ATOM     29  C   UNL A   1      36.182  31.877  28.444  1.00  0.00     0.338 C 
ATOM     30  O   UNL A   1      36.225  33.091  28.369  1.00  0.00    -0.246 OA
BRANCH  29  31
ATOM     31  C   UNL A   1      37.090  31.080  29.275  1.00  0.00     0.060 A 
ATOM     32  C   UNL A   1      38.384  31.577  29.424  1.00  0.00     0.016 A 
ATOM     33  C   UNL A   1      36.754  29.756  29.605  1.00  0.00     0.016 A 
ATOM     34  C   UNL A   1      39.396  30.680  29.671  1.00  0.00     0.010 A 
ATOM     35  C   UNL A   1      37.765  28.860  29.840  1.00  0.00     0.010 A 
ATOM     36  C   UNL A   1      39.075  29.321  29.771  1.00  0.00    -0.014 A 
BRANCH  36  37
ATOM     37  C   UNL A   1      40.166  28.384  29.872  1.00  0.00     0.031 A 
ATOM     38  C   UNL A   1      40.721  28.299  31.237  1.00  0.00     0.074 A 
ATOM     39  C   UNL A   1      40.567  27.620  28.841  1.00  0.00     0.049 A 
ATOM     40  N   UNL A   1      41.874  28.709  31.639  1.00  0.00    -0.248 NA
ATOM     41  C   UNL A   1      39.813  27.872  32.313  1.00  0.00     0.031 C 
ATOM     42  C   UNL A   1      39.917  27.412  27.544  1.00  0.00     0.029 A 
ATOM     43  N   UNL A   1      41.617  26.765  28.797  1.00  0.00    -0.354 N 
ATOM     44  C   UNL A   1      41.916  28.421  32.996  1.00  0.00     0.074 A 
ATOM     45  C   UNL A   1      40.571  28.086  33.387  1.00  0.00     0.031 C 
ATOM     46  C   UNL A   1      40.449  26.313  26.957  1.00  0.00     0.029 A 
ATOM     47  C   UNL A   1      41.557  25.836  27.769  1.00  0.00     0.049 A 
ATOM     48  H   UNL A   1      42.362  26.800  29.441  1.00  0.00     0.167 HD
ATOM     49  C   UNL A   1      43.098  28.217  33.636  1.00  0.00     0.031 A 
ATOM     50  C   UNL A   1      42.318  24.718  27.663  1.00  0.00     0.031 A 
ATOM     51  C   UNL A   1      44.212  28.733  32.882  1.00  0.00     0.049 A 
ATOM     52  C   UNL A   1      43.502  24.899  28.542  1.00  0.00     0.074 A 
ATOM     53  C   UNL A   1      44.568  29.983  32.419  1.00  0.00     0.029 A 
ATOM     54  N   UNL A   1      44.945  27.833  32.144  1.00  0.00    -0.354 N 
ATOM     55  N   UNL A   1      44.437  25.776  28.308  1.00  0.00    -0.248 NA
ATOM     56  C   UNL A   1      43.401  24.450  29.924  1.00  0.00     0.031 C 
ATOM     57  C   UNL A   1      45.113  29.752  31.121  1.00  0.00     0.029 A 
ATOM     58  C   UNL A   1      45.126  28.374  30.897  1.00  0.00     0.049 A 
ATOM     59  H   UNL A   1      45.280  26.961  32.455  1.00  0.00     0.167 HD
ATOM     60  C   UNL A   1      44.740  26.314  29.552  1.00  0.00     0.074 A 
ATOM     61  C   UNL A   1      44.135  25.396  30.518  1.00  0.00     0.031 C 
ATOM     62  C   UNL A   1      45.192  27.597  29.679  1.00  0.00     0.031 A 
BRANCH  49  63
ATOM     63  C   UNL A   1      43.260  27.180  34.715  1.00  0.00    -0.014 A 
ATOM     64  C   UNL A   1      43.203  25.823  34.360  1.00  0.00     0.009 A 
ATOM     65  C   UNL A   1      43.182  27.481  36.090  1.00  0.00     0.009 A 
ATOM     66  C   UNL A   1      43.008  24.830  35.328  1.00  0.00     0.001 A 
ATOM     67  C   UNL A   1      43.032  26.491  37.061  1.00  0.00     0.001 A 
ATOM     68  C   UNL A   1      42.915  25.165  36.675  1.00  0.00     0.000 A 
ENDBRANCH  49  63
BRANCH  50  69
ATOM     69  C   UNL A   1      41.921  23.392  27.140  1.00  0.00    -0.014 A 
ATOM     70  C   UNL A   1      42.879  22.395  26.897  1.00  0.00     0.009 A 
ATOM     71  C   UNL A   1      40.566  23.009  27.137  1.00  0.00     0.009 A 
ATOM     72  C   UNL A   1      42.495  21.061  26.694  1.00  0.00     0.001 A 
ATOM     73  C   UNL A   1      40.183  21.679  26.932  1.00  0.00     0.001 A 
ATOM     74  C   UNL A   1      41.149  20.702  26.725  1.00  0.00     0.000 A 
ENDBRANCH  50  69
BRANCH  62  75
ATOM     75  C   UNL A   1      45.554  28.349  28.421  1.00  0.00    -0.014 A 
ATOM     76  C   UNL A   1      44.612  29.046  27.641  1.00  0.00     0.009 A 
ATOM     77  C   UNL A   1      46.913  28.493  28.101  1.00  0.00     0.009 A 
ATOM     78  C   UNL A   1      45.018  29.836  26.559  1.00  0.00     0.001 A 
ATOM     79  C   UNL A   1      47.319  29.298  27.035  1.00  0.00     0.001 A 
ATOM     80  C   UNL A   1      46.373  29.965  26.261  1.00  0.00     0.000 A 
ENDBRANCH  62  75
ENDBRANCH  36  37
ENDBRANCH  29  31
ENDBRANCH  28  29
ENDBRANCH  27  28
ENDBRANCH  26  27
ENDBRANCH  25  26
ENDBRANCH   1  25
TORSDOF 18
ENDMDL
