MODEL 1
REMARK VINA RESULT:      -9.9      0.000      0.000
REMARK SMILES CCCCCCCNC(=O)Oc1cccc(-c2ccc([C@@H](C)C(=O)OCCOCCOC(=O)c3ccc(-c4c5nc(c(-c6ccccc6)c6ccc([nH]6)c(-c6ccccc6)c6nc(c(-c7ccccc7)c7ccc4[nH]7)C=C6)C=C5)cc3)cc2F)c1
REMARK SMILES IDX 23 1 24 2 21 3 22 4 20 5 17 6 18 7 83 8 19 9 82 10 84 11
REMARK SMILES IDX 16 12 12 13 13 14 85 15 14 16 15 17 11 18 9 19 8 20 10 22
REMARK SMILES IDX 7 23 6 24 5 25 4 26 3 27 2 28 1 29 25 30 26 31 27 32 28 33
REMARK SMILES IDX 29 34 30 35 31 36 32 37 33 38 34 39 35 40 81 41 36 42 80 43
REMARK SMILES IDX 37 44 38 45 39 46 74 47 40 48 79 49 73 50 75 51 41 52 78 53
REMARK SMILES IDX 72 54 71 55 42 57 64 58 49 59 63 60 50 61 53 62 62 63 76 64
REMARK SMILES IDX 51 65 52 66 61 68 77 69 54 70 43 71 44 72 48 73 45 74 47 75
REMARK SMILES IDX 46 76 65 77 66 78 70 79 67 80 69 81 68 82 55 83 56 84 60 85
REMARK SMILES IDX 57 86 59 87 58 88
REMARK H PARENT 8 21 75 56 53 67
REMARK Flexibility Score: inf
ROOT
ATOM      1  C   UNL A   1      33.948  19.577  24.714  1.00  0.00     0.313 C 
ATOM      2  O   UNL A   1      34.446  18.482  24.471  1.00  0.00    -0.252 OA
ENDROOT
BRANCH   1   3
ATOM      3  C   UNL A   1      32.530  19.921  24.290  1.00  0.00     0.126 C 
ATOM      4  C   UNL A   1      32.160  19.091  23.064  1.00  0.00     0.025 C 
BRANCH   3   5
ATOM      5  C   UNL A   1      32.170  21.392  24.105  1.00  0.00    -0.031 A 
ATOM      6  C   UNL A   1      31.246  24.075  23.745  1.00  0.00     0.018 A 
ATOM      7  C   UNL A   1      32.007  23.423  22.759  1.00  0.00     0.012 A 
ATOM      8  C   UNL A   1      31.000  23.367  24.927  1.00  0.00     0.131 A 
ATOM      9  C   UNL A   1      32.459  22.106  22.934  1.00  0.00     0.005 A 
ATOM     10  C   UNL A   1      31.449  22.056  25.111  1.00  0.00     0.044 A 
ATOM     11  F   UNL A   1      30.278  23.922  25.914  1.00  0.00    -0.206 F 
BRANCH   6  12
ATOM     12  C   UNL A   1      30.687  25.421  23.518  1.00  0.00    -0.012 A 
ATOM     13  C   UNL A   1      30.924  27.738  22.821  1.00  0.00     0.133 A 
ATOM     14  C   UNL A   1      29.611  28.016  23.192  1.00  0.00     0.047 A 
ATOM     15  C   UNL A   1      31.469  26.462  22.989  1.00  0.00     0.056 A 
ATOM     16  C   UNL A   1      28.822  26.997  23.714  1.00  0.00     0.004 A 
ATOM     17  C   UNL A   1      29.355  25.713  23.872  1.00  0.00     0.009 A 
BRANCH  13  18
ATOM     18  O   UNL A   1      31.706  28.825  22.397  1.00  0.00    -0.410 OA
BRANCH  18  19
ATOM     19  C   UNL A   1      33.027  28.878  22.806  1.00  0.00     0.412 C 
ATOM     20  N   UNL A   1      33.180  29.337  24.085  1.00  0.00    -0.321 N 
ATOM     21  H   UNL A   1      34.103  29.391  24.424  1.00  0.00     0.167 HD
ATOM     22  O   UNL A   1      34.006  28.569  22.128  1.00  0.00    -0.224 OA
BRANCH  20  23
ATOM     23  C   UNL A   1      32.130  29.755  24.994  1.00  0.00     0.119 C 
BRANCH  23  24
ATOM     24  C   UNL A   1      32.180  28.997  26.320  1.00  0.00     0.021 C 
BRANCH  24  25
ATOM     25  C   UNL A   1      32.298  27.473  26.189  1.00  0.00     0.002 C 
BRANCH  25  26
ATOM     26  C   UNL A   1      33.728  26.924  26.153  1.00  0.00     0.000 C 
BRANCH  26  27
ATOM     27  C   UNL A   1      34.043  25.995  24.975  1.00  0.00    -0.000 C 
BRANCH  27  28
ATOM     28  C   UNL A   1      34.760  24.693  25.339  1.00  0.00    -0.003 C 
ATOM     29  C   UNL A   1      34.109  23.944  26.492  1.00  0.00     0.004 C 
ENDBRANCH  27  28
ENDBRANCH  26  27
ENDBRANCH  25  26
ENDBRANCH  24  25
ENDBRANCH  23  24
ENDBRANCH  20  23
ENDBRANCH  18  19
ENDBRANCH  13  18
ENDBRANCH   6  12
ENDBRANCH   3   5
ENDBRANCH   1   3
BRANCH   1  30
ATOM     30  O   UNL A   1      34.599  20.592  25.341  1.00  0.00    -0.463 OA
BRANCH  30  31
ATOM     31  C   UNL A   1      35.710  21.163  24.626  1.00  0.00     0.261 C 
BRANCH  31  32
ATOM     32  C   UNL A   1      36.891  21.427  25.563  1.00  0.00     0.202 C 
BRANCH  32  33
ATOM     33  O   UNL A   1      38.181  21.073  25.067  1.00  0.00    -0.374 OA
BRANCH  33  34
ATOM     34  C   UNL A   1      39.225  20.883  26.023  1.00  0.00     0.202 C 
BRANCH  34  35
ATOM     35  C   UNL A   1      40.166  19.693  25.791  1.00  0.00     0.261 C 
BRANCH  35  36
ATOM     36  O   UNL A   1      41.327  19.736  26.637  1.00  0.00    -0.460 OA
BRANCH  36  37
ATOM     37  C   UNL A   1      42.316  20.545  26.188  1.00  0.00     0.338 C 
ATOM     38  O   UNL A   1      43.137  20.302  25.320  1.00  0.00    -0.246 OA
BRANCH  37  39
ATOM     39  C   UNL A   1      42.174  21.897  26.763  1.00  0.00     0.060 A 
ATOM     40  C   UNL A   1      42.071  22.961  25.858  1.00  0.00     0.016 A 
ATOM     41  C   UNL A   1      42.236  22.138  28.138  1.00  0.00     0.016 A 
ATOM     42  C   UNL A   1      42.100  24.275  26.318  1.00  0.00     0.010 A 
ATOM     43  C   UNL A   1      42.267  23.462  28.598  1.00  0.00     0.010 A 
ATOM     44  C   UNL A   1      42.244  24.534  27.687  1.00  0.00    -0.014 A 
BRANCH  44  45
ATOM     45  C   UNL A   1      42.524  25.927  28.120  1.00  0.00     0.031 A 
ATOM     46  C   UNL A   1      43.927  26.463  28.008  1.00  0.00     0.074 A 
ATOM     47  C   UNL A   1      41.528  26.734  28.526  1.00  0.00     0.049 A 
ATOM     48  N   UNL A   1      44.376  27.668  28.259  1.00  0.00    -0.248 NA
ATOM     49  C   UNL A   1      44.958  25.520  27.547  1.00  0.00     0.031 C 
ATOM     50  C   UNL A   1      40.121  26.353  28.637  1.00  0.00     0.029 A 
ATOM     51  N   UNL A   1      41.552  28.053  28.907  1.00  0.00    -0.354 N 
ATOM     52  C   UNL A   1      45.738  27.626  27.988  1.00  0.00     0.074 A 
ATOM     53  C   UNL A   1      46.049  26.272  27.587  1.00  0.00     0.031 C 
ATOM     54  C   UNL A   1      39.413  27.419  29.049  1.00  0.00     0.029 A 
ATOM     55  C   UNL A   1      40.319  28.546  29.256  1.00  0.00     0.049 A 
ATOM     56  H   UNL A   1      42.375  28.593  28.929  1.00  0.00     0.167 HD
ATOM     57  C   UNL A   1      46.649  28.627  28.056  1.00  0.00     0.031 A 
ATOM     58  C   UNL A   1      39.962  29.768  29.698  1.00  0.00     0.031 A 
ATOM     59  C   UNL A   1      46.349  29.974  28.464  1.00  0.00     0.049 A 
ATOM     60  C   UNL A   1      41.006  30.844  29.831  1.00  0.00     0.074 A 
ATOM     61  C   UNL A   1      47.204  31.060  28.548  1.00  0.00     0.029 A 
ATOM     62  N   UNL A   1      45.098  30.417  28.862  1.00  0.00    -0.354 N 
ATOM     63  N   UNL A   1      42.283  30.798  29.540  1.00  0.00    -0.248 NA
ATOM     64  C   UNL A   1      40.551  32.146  30.342  1.00  0.00     0.031 C 
ATOM     65  C   UNL A   1      46.481  32.147  29.052  1.00  0.00     0.029 A 
ATOM     66  C   UNL A   1      45.164  31.752  29.223  1.00  0.00     0.049 A 
ATOM     67  H   UNL A   1      44.283  29.864  28.885  1.00  0.00     0.167 HD
ATOM     68  C   UNL A   1      42.779  32.069  29.809  1.00  0.00     0.074 A 
ATOM     69  C   UNL A   1      41.660  32.867  30.267  1.00  0.00     0.031 C 
ATOM     70  C   UNL A   1      44.046  32.534  29.683  1.00  0.00     0.031 A 
BRANCH  57  71
ATOM     71  C   UNL A   1      48.073  28.290  27.709  1.00  0.00    -0.014 A 
ATOM     72  C   UNL A   1      48.551  28.409  26.395  1.00  0.00     0.009 A 
ATOM     73  C   UNL A   1      48.956  27.881  28.720  1.00  0.00     0.009 A 
ATOM     74  C   UNL A   1      49.879  28.094  26.095  1.00  0.00     0.001 A 
ATOM     75  C   UNL A   1      50.289  27.594  28.422  1.00  0.00     0.001 A 
ATOM     76  C   UNL A   1      50.748  27.691  27.109  1.00  0.00     0.000 A 
ENDBRANCH  57  71
BRANCH  58  77
ATOM     77  C   UNL A   1      38.547  30.042  30.061  1.00  0.00    -0.014 A 
ATOM     78  C   UNL A   1      37.651  30.570  29.119  1.00  0.00     0.009 A 
ATOM     79  C   UNL A   1      38.092  29.799  31.368  1.00  0.00     0.009 A 
ATOM     80  C   UNL A   1      36.337  30.873  29.485  1.00  0.00     0.001 A 
ATOM     81  C   UNL A   1      36.771  30.075  31.722  1.00  0.00     0.001 A 
ATOM     82  C   UNL A   1      35.896  30.621  30.784  1.00  0.00     0.000 A 
ENDBRANCH  58  77
BRANCH  70  83
ATOM     83  C   UNL A   1      44.284  33.980  30.020  1.00  0.00    -0.014 A 
ATOM     84  C   UNL A   1      44.128  34.989  29.057  1.00  0.00     0.009 A 
ATOM     85  C   UNL A   1      44.643  34.339  31.329  1.00  0.00     0.009 A 
ATOM     86  C   UNL A   1      44.366  36.325  29.389  1.00  0.00     0.001 A 
ATOM     87  C   UNL A   1      44.850  35.678  31.665  1.00  0.00     0.001 A 
ATOM     88  C   UNL A   1      44.723  36.668  30.693  1.00  0.00     0.000 A 
ENDBRANCH  70  83
ENDBRANCH  44  45
ENDBRANCH  37  39
ENDBRANCH  36  37
ENDBRANCH  35  36
ENDBRANCH  34  35
ENDBRANCH  33  34
ENDBRANCH  32  33
ENDBRANCH  31  32
ENDBRANCH  30  31
ENDBRANCH   1  30
TORSDOF 24
ENDMDL
MODEL 2
REMARK VINA RESULT:      -9.9      1.667      5.920
REMARK SMILES CCCCCCCNC(=O)Oc1cccc(-c2ccc([C@@H](C)C(=O)OCCOCCOC(=O)c3ccc(-c4c5nc(c(-c6ccccc6)c6ccc([nH]6)c(-c6ccccc6)c6nc(c(-c7ccccc7)c7ccc4[nH]7)C=C6)C=C5)cc3)cc2F)c1
REMARK SMILES IDX 23 1 24 2 21 3 22 4 20 5 17 6 18 7 83 8 19 9 82 10 84 11
REMARK SMILES IDX 16 12 12 13 13 14 85 15 14 16 15 17 11 18 9 19 8 20 10 22
REMARK SMILES IDX 7 23 6 24 5 25 4 26 3 27 2 28 1 29 25 30 26 31 27 32 28 33
REMARK SMILES IDX 29 34 30 35 31 36 32 37 33 38 34 39 35 40 81 41 36 42 80 43
REMARK SMILES IDX 37 44 38 45 39 46 74 47 40 48 79 49 73 50 75 51 41 52 78 53
REMARK SMILES IDX 72 54 71 55 42 57 64 58 49 59 63 60 50 61 53 62 62 63 76 64
REMARK SMILES IDX 51 65 52 66 61 68 77 69 54 70 43 71 44 72 48 73 45 74 47 75
REMARK SMILES IDX 46 76 65 77 66 78 70 79 67 80 69 81 68 82 55 83 56 84 60 85
REMARK SMILES IDX 57 86 59 87 58 88
REMARK H PARENT 8 21 75 56 53 67
REMARK Flexibility Score: inf
ROOT
ATOM      1  C   UNL A   1      37.335  21.426  24.780  1.00  0.00     0.313 C 
ATOM      2  O   UNL A   1      37.381  22.223  23.847  1.00  0.00    -0.252 OA
ENDROOT
BRANCH   1   3
ATOM      3  C   UNL A   1      36.017  21.013  25.414  1.00  0.00     0.126 C 
ATOM      4  C   UNL A   1      35.646  19.614  24.928  1.00  0.00     0.025 C 
BRANCH   3   5
ATOM      5  C   UNL A   1      34.838  21.976  25.318  1.00  0.00    -0.031 A 
ATOM      6  C   UNL A   1      32.702  23.828  24.890  1.00  0.00     0.018 A 
ATOM      7  C   UNL A   1      33.751  24.113  25.781  1.00  0.00     0.012 A 
ATOM      8  C   UNL A   1      32.728  22.580  24.257  1.00  0.00     0.131 A 
ATOM      9  C   UNL A   1      34.802  23.205  25.990  1.00  0.00     0.005 A 
ATOM     10  C   UNL A   1      33.768  21.669  24.461  1.00  0.00     0.044 A 
ATOM     11  F   UNL A   1      31.761  22.239  23.390  1.00  0.00    -0.206 F 
BRANCH   6  12
ATOM     12  C   UNL A   1      31.654  24.825  24.596  1.00  0.00    -0.012 A 
ATOM     13  C   UNL A   1      30.701  26.567  23.194  1.00  0.00     0.133 A 
ATOM     14  C   UNL A   1      29.684  26.797  24.117  1.00  0.00     0.047 A 
ATOM     15  C   UNL A   1      31.686  25.603  23.427  1.00  0.00     0.056 A 
ATOM     16  C   UNL A   1      29.635  26.033  25.278  1.00  0.00     0.004 A 
ATOM     17  C   UNL A   1      30.609  25.056  25.512  1.00  0.00     0.009 A 
BRANCH  13  18
ATOM     18  O   UNL A   1      30.763  27.435  22.091  1.00  0.00    -0.410 OA
BRANCH  18  19
ATOM     19  C   UNL A   1      30.832  28.795  22.333  1.00  0.00     0.412 C 
ATOM     20  N   UNL A   1      32.108  29.286  22.312  1.00  0.00    -0.321 N 
ATOM     21  H   UNL A   1      32.210  30.251  22.476  1.00  0.00     0.167 HD
ATOM     22  O   UNL A   1      29.877  29.537  22.564  1.00  0.00    -0.224 OA
BRANCH  20  23
ATOM     23  C   UNL A   1      33.327  28.537  22.074  1.00  0.00     0.119 C 
BRANCH  23  24
ATOM     24  C   UNL A   1      34.083  28.239  23.368  1.00  0.00     0.021 C 
BRANCH  24  25
ATOM     25  C   UNL A   1      33.355  28.657  24.653  1.00  0.00     0.002 C 
BRANCH  25  26
ATOM     26  C   UNL A   1      33.769  27.901  25.920  1.00  0.00     0.000 C 
BRANCH  26  27
ATOM     27  C   UNL A   1      32.725  27.881  27.041  1.00  0.00    -0.000 C 
BRANCH  27  28
ATOM     28  C   UNL A   1      31.777  29.083  27.077  1.00  0.00    -0.003 C 
ATOM     29  C   UNL A   1      32.497  30.419  27.187  1.00  0.00     0.004 C 
ENDBRANCH  27  28
ENDBRANCH  26  27
ENDBRANCH  25  26
ENDBRANCH  24  25
ENDBRANCH  23  24
ENDBRANCH  20  23
ENDBRANCH  18  19
ENDBRANCH  13  18
ENDBRANCH   6  12
ENDBRANCH   3   5
ENDBRANCH   1   3
BRANCH   1  30
ATOM     30  O   UNL A   1      38.427  20.864  25.361  1.00  0.00    -0.463 OA
BRANCH  30  31
ATOM     31  C   UNL A   1      39.259  21.753  26.129  1.00  0.00     0.261 C 
BRANCH  31  32
ATOM     32  C   UNL A   1      40.539  21.052  26.587  1.00  0.00     0.202 C 
BRANCH  32  33
ATOM     33  O   UNL A   1      40.825  19.795  25.975  1.00  0.00    -0.374 OA
BRANCH  33  34
ATOM     34  C   UNL A   1      42.069  19.172  26.299  1.00  0.00     0.202 C 
BRANCH  34  35
ATOM     35  C   UNL A   1      43.238  19.421  25.337  1.00  0.00     0.261 C 
BRANCH  35  36
ATOM     36  O   UNL A   1      44.102  20.480  25.782  1.00  0.00    -0.460 OA
BRANCH  36  37
ATOM     37  C   UNL A   1      44.182  21.531  24.931  1.00  0.00     0.338 C 
ATOM     38  O   UNL A   1      44.363  21.497  23.726  1.00  0.00    -0.246 OA
BRANCH  37  39
ATOM     39  C   UNL A   1      43.823  22.783  25.626  1.00  0.00     0.060 A 
ATOM     40  C   UNL A   1      43.744  23.940  24.841  1.00  0.00     0.016 A 
ATOM     41  C   UNL A   1      43.663  22.852  27.012  1.00  0.00     0.016 A 
ATOM     42  C   UNL A   1      43.574  25.183  25.445  1.00  0.00     0.010 A 
ATOM     43  C   UNL A   1      43.493  24.106  27.617  1.00  0.00     0.010 A 
ATOM     44  C   UNL A   1      43.493  25.278  26.840  1.00  0.00    -0.014 A 
BRANCH  44  45
ATOM     45  C   UNL A   1      43.566  26.623  27.466  1.00  0.00     0.031 A 
ATOM     46  C   UNL A   1      42.288  27.356  27.782  1.00  0.00     0.074 A 
ATOM     47  C   UNL A   1      44.748  27.150  27.830  1.00  0.00     0.049 A 
ATOM     48  N   UNL A   1      42.120  28.503  28.391  1.00  0.00    -0.248 NA
ATOM     49  C   UNL A   1      41.036  26.709  27.360  1.00  0.00     0.031 C 
ATOM     50  C   UNL A   1      46.053  26.525  27.624  1.00  0.00     0.029 A 
ATOM     51  N   UNL A   1      45.037  28.332  28.467  1.00  0.00    -0.354 N 
ATOM     52  C   UNL A   1      40.747  28.714  28.425  1.00  0.00     0.074 A 
ATOM     53  C   UNL A   1      40.130  27.597  27.746  1.00  0.00     0.031 C 
ATOM     54  C   UNL A   1      47.005  27.326  28.133  1.00  0.00     0.029 A 
ATOM     55  C   UNL A   1      46.379  28.528  28.677  1.00  0.00     0.049 A 
ATOM     56  H   UNL A   1      44.347  28.977  28.745  1.00  0.00     0.167 HD
ATOM     57  C   UNL A   1      40.058  29.740  28.981  1.00  0.00     0.031 A 
ATOM     58  C   UNL A   1      47.031  29.565  29.240  1.00  0.00     0.031 A 
ATOM     59  C   UNL A   1      40.666  30.861  29.649  1.00  0.00     0.049 A 
ATOM     60  C   UNL A   1      46.246  30.726  29.788  1.00  0.00     0.074 A 
ATOM     61  C   UNL A   1      40.048  31.940  30.256  1.00  0.00     0.029 A 
ATOM     62  N   UNL A   1      42.032  31.048  29.791  1.00  0.00    -0.354 N 
ATOM     63  N   UNL A   1      44.947  30.896  29.841  1.00  0.00    -0.248 NA
ATOM     64  C   UNL A   1      47.022  31.834  30.367  1.00  0.00     0.031 C 
ATOM     65  C   UNL A   1      41.043  32.810  30.718  1.00  0.00     0.029 A 
ATOM     66  C   UNL A   1      42.277  32.241  30.450  1.00  0.00     0.049 A 
ATOM     67  H   UNL A   1      42.724  30.425  29.471  1.00  0.00     0.167 HD
ATOM     68  C   UNL A   1      44.750  32.115  30.480  1.00  0.00     0.074 A 
ATOM     69  C   UNL A   1      46.062  32.631  30.812  1.00  0.00     0.031 C 
ATOM     70  C   UNL A   1      43.587  32.747  30.769  1.00  0.00     0.031 A 
BRANCH  57  71
ATOM     71  C   UNL A   1      38.560  29.713  28.859  1.00  0.00    -0.014 A 
ATOM     72  C   UNL A   1      37.921  30.003  27.643  1.00  0.00     0.009 A 
ATOM     73  C   UNL A   1      37.779  29.358  29.970  1.00  0.00     0.009 A 
ATOM     74  C   UNL A   1      36.528  29.969  27.552  1.00  0.00     0.001 A 
ATOM     75  C   UNL A   1      36.388  29.299  29.868  1.00  0.00     0.001 A 
ATOM     76  C   UNL A   1      35.763  29.612  28.662  1.00  0.00     0.000 A 
ENDBRANCH  57  71
BRANCH  58  77
ATOM     77  C   UNL A   1      48.516  29.561  29.307  1.00  0.00    -0.014 A 
ATOM     78  C   UNL A   1      49.284  30.153  28.292  1.00  0.00     0.009 A 
ATOM     79  C   UNL A   1      49.174  28.938  30.379  1.00  0.00     0.009 A 
ATOM     80  C   UNL A   1      50.679  30.099  28.338  1.00  0.00     0.001 A 
ATOM     81  C   UNL A   1      50.568  28.911  30.437  1.00  0.00     0.001 A 
ATOM     82  C   UNL A   1      51.320  29.482  29.412  1.00  0.00     0.000 A 
ENDBRANCH  58  77
BRANCH  70  83
ATOM     83  C   UNL A   1      43.679  34.055  31.505  1.00  0.00    -0.014 A 
ATOM     84  C   UNL A   1      43.771  35.276  30.817  1.00  0.00     0.009 A 
ATOM     85  C   UNL A   1      43.646  34.067  32.909  1.00  0.00     0.009 A 
ATOM     86  C   UNL A   1      43.867  36.478  31.522  1.00  0.00     0.001 A 
ATOM     87  C   UNL A   1      43.711  35.272  33.609  1.00  0.00     0.001 A 
ATOM     88  C   UNL A   1      43.833  36.475  32.916  1.00  0.00     0.000 A 
ENDBRANCH  70  83
ENDBRANCH  44  45
ENDBRANCH  37  39
ENDBRANCH  36  37
ENDBRANCH  35  36
ENDBRANCH  34  35
ENDBRANCH  33  34
ENDBRANCH  32  33
ENDBRANCH  31  32
ENDBRANCH  30  31
ENDBRANCH   1  30
TORSDOF 24
ENDMDL
MODEL 3
REMARK VINA RESULT:      -9.7      3.714      6.674
REMARK SMILES CCCCCCCNC(=O)Oc1cccc(-c2ccc([C@@H](C)C(=O)OCCOCCOC(=O)c3ccc(-c4c5nc(c(-c6ccccc6)c6ccc([nH]6)c(-c6ccccc6)c6nc(c(-c7ccccc7)c7ccc4[nH]7)C=C6)C=C5)cc3)cc2F)c1
REMARK SMILES IDX 23 1 24 2 21 3 22 4 20 5 17 6 18 7 83 8 19 9 82 10 84 11
REMARK SMILES IDX 16 12 12 13 13 14 85 15 14 16 15 17 11 18 9 19 8 20 10 22
REMARK SMILES IDX 7 23 6 24 5 25 4 26 3 27 2 28 1 29 25 30 26 31 27 32 28 33
REMARK SMILES IDX 29 34 30 35 31 36 32 37 33 38 34 39 35 40 81 41 36 42 80 43
REMARK SMILES IDX 37 44 38 45 39 46 74 47 40 48 79 49 73 50 75 51 41 52 78 53
REMARK SMILES IDX 72 54 71 55 42 57 64 58 49 59 63 60 50 61 53 62 62 63 76 64
REMARK SMILES IDX 51 65 52 66 61 68 77 69 54 70 43 71 44 72 48 73 45 74 47 75
REMARK SMILES IDX 46 76 65 77 66 78 70 79 67 80 69 81 68 82 55 83 56 84 60 85
REMARK SMILES IDX 57 86 59 87 58 88
REMARK H PARENT 8 21 75 56 53 67
REMARK Flexibility Score: inf
ROOT
ATOM      1  C   UNL A   1      41.244  20.787  26.984  1.00  0.00     0.313 C 
ATOM      2  O   UNL A   1      40.839  20.090  27.909  1.00  0.00    -0.252 OA
ENDROOT
BRANCH   1   3
ATOM      3  C   UNL A   1      40.721  22.197  26.756  1.00  0.00     0.126 C 
ATOM      4  C   UNL A   1      40.984  23.035  28.004  1.00  0.00     0.025 C 
BRANCH   3   5
ATOM      5  C   UNL A   1      39.289  22.361  26.256  1.00  0.00    -0.031 A 
ATOM      6  C   UNL A   1      36.702  22.664  25.076  1.00  0.00     0.018 A 
ATOM      7  C   UNL A   1      37.295  23.700  25.817  1.00  0.00     0.012 A 
ATOM      8  C   UNL A   1      37.415  21.464  24.980  1.00  0.00     0.131 A 
ATOM      9  C   UNL A   1      38.566  23.554  26.395  1.00  0.00     0.005 A 
ATOM     10  C   UNL A   1      38.680  21.307  25.555  1.00  0.00     0.044 A 
ATOM     11  F   UNL A   1      36.914  20.430  24.286  1.00  0.00    -0.206 F 
BRANCH   6  12
ATOM     12  C   UNL A   1      35.412  22.856  24.386  1.00  0.00    -0.012 A 
ATOM     13  C   UNL A   1      33.834  24.241  23.160  1.00  0.00     0.133 A 
ATOM     14  C   UNL A   1      32.888  23.220  23.162  1.00  0.00     0.047 A 
ATOM     15  C   UNL A   1      35.080  24.075  23.773  1.00  0.00     0.056 A 
ATOM     16  C   UNL A   1      33.201  22.005  23.762  1.00  0.00     0.004 A 
ATOM     17  C   UNL A   1      34.451  21.826  24.365  1.00  0.00     0.009 A 
BRANCH  13  18
ATOM     18  O   UNL A   1      33.429  25.479  22.633  1.00  0.00    -0.410 OA
BRANCH  18  19
ATOM     19  C   UNL A   1      32.862  25.497  21.372  1.00  0.00     0.412 C 
ATOM     20  N   UNL A   1      31.776  26.323  21.278  1.00  0.00    -0.321 N 
ATOM     21  H   UNL A   1      31.337  26.373  20.398  1.00  0.00     0.167 HD
ATOM     22  O   UNL A   1      33.243  24.847  20.398  1.00  0.00    -0.224 OA
BRANCH  20  23
ATOM     23  C   UNL A   1      31.201  27.131  22.335  1.00  0.00     0.119 C 
BRANCH  23  24
ATOM     24  C   UNL A   1      30.990  26.333  23.622  1.00  0.00     0.021 C 
BRANCH  24  25
ATOM     25  C   UNL A   1      30.642  27.177  24.856  1.00  0.00     0.002 C 
BRANCH  25  26
ATOM     26  C   UNL A   1      31.015  26.555  26.205  1.00  0.00     0.000 C 
BRANCH  26  27
ATOM     27  C   UNL A   1      31.955  25.347  26.132  1.00  0.00    -0.000 C 
BRANCH  27  28
ATOM     28  C   UNL A   1      31.303  23.990  26.410  1.00  0.00    -0.003 C 
ATOM     29  C   UNL A   1      32.172  23.059  27.242  1.00  0.00     0.004 C 
ENDBRANCH  27  28
ENDBRANCH  26  27
ENDBRANCH  25  26
ENDBRANCH  24  25
ENDBRANCH  23  24
ENDBRANCH  20  23
ENDBRANCH  18  19
ENDBRANCH  13  18
ENDBRANCH   6  12
ENDBRANCH   3   5
ENDBRANCH   1   3
BRANCH   1  30
ATOM     30  O   UNL A   1      42.155  20.381  26.061  1.00  0.00    -0.463 OA
BRANCH  30  31
ATOM     31  C   UNL A   1      42.278  18.958  25.883  1.00  0.00     0.261 C 
BRANCH  31  32
ATOM     32  C   UNL A   1      43.746  18.525  25.905  1.00  0.00     0.202 C 
BRANCH  32  33
ATOM     33  O   UNL A   1      44.547  18.951  24.804  1.00  0.00    -0.374 OA
BRANCH  33  34
ATOM     34  C   UNL A   1      45.583  19.896  25.069  1.00  0.00     0.202 C 
BRANCH  34  35
ATOM     35  C   UNL A   1      45.253  21.373  24.817  1.00  0.00     0.261 C 
BRANCH  35  36
ATOM     36  O   UNL A   1      45.950  22.255  25.713  1.00  0.00    -0.460 OA
BRANCH  36  37
ATOM     37  C   UNL A   1      45.151  22.901  26.595  1.00  0.00     0.338 C 
ATOM     38  O   UNL A   1      44.350  22.406  27.370  1.00  0.00    -0.246 OA
BRANCH  37  39
ATOM     39  C   UNL A   1      45.502  24.333  26.654  1.00  0.00     0.060 A 
ATOM     40  C   UNL A   1      45.652  24.998  25.430  1.00  0.00     0.016 A 
ATOM     41  C   UNL A   1      45.774  24.990  27.857  1.00  0.00     0.016 A 
ATOM     42  C   UNL A   1      46.141  26.301  25.399  1.00  0.00     0.010 A 
ATOM     43  C   UNL A   1      46.269  26.301  27.821  1.00  0.00     0.010 A 
ATOM     44  C   UNL A   1      46.496  26.945  26.591  1.00  0.00    -0.014 A 
BRANCH  44  45
ATOM     45  C   UNL A   1      47.244  28.225  26.512  1.00  0.00     0.031 A 
ATOM     46  C   UNL A   1      48.731  28.193  26.274  1.00  0.00     0.074 A 
ATOM     47  C   UNL A   1      46.598  29.404  26.563  1.00  0.00     0.049 A 
ATOM     48  N   UNL A   1      49.563  29.189  26.098  1.00  0.00    -0.248 NA
ATOM     49  C   UNL A   1      49.362  26.865  26.222  1.00  0.00     0.031 C 
ATOM     50  C   UNL A   1      45.158  29.572  26.743  1.00  0.00     0.029 A 
ATOM     51  N   UNL A   1      47.077  30.685  26.450  1.00  0.00    -0.354 N 
ATOM     52  C   UNL A   1      50.813  28.609  25.916  1.00  0.00     0.074 A 
ATOM     53  C   UNL A   1      50.637  27.178  26.036  1.00  0.00     0.031 C 
ATOM     54  C   UNL A   1      44.867  30.885  26.721  1.00  0.00     0.029 A 
ATOM     55  C   UNL A   1      46.102  31.647  26.549  1.00  0.00     0.049 A 
ATOM     56  H   UNL A   1      48.029  30.895  26.312  1.00  0.00     0.167 HD
ATOM     57  C   UNL A   1      52.000  29.209  25.660  1.00  0.00     0.031 A 
ATOM     58  C   UNL A   1      46.195  32.990  26.513  1.00  0.00     0.031 A 
ATOM     59  C   UNL A   1      52.185  30.633  25.550  1.00  0.00     0.049 A 
ATOM     60  C   UNL A   1      47.537  33.635  26.297  1.00  0.00     0.074 A 
ATOM     61  C   UNL A   1      53.348  31.332  25.278  1.00  0.00     0.029 A 
ATOM     62  N   UNL A   1      51.180  31.573  25.713  1.00  0.00    -0.354 N 
ATOM     63  N   UNL A   1      48.704  33.073  26.094  1.00  0.00    -0.248 NA
ATOM     64  C   UNL A   1      47.570  35.106  26.292  1.00  0.00     0.031 C 
ATOM     65  C   UNL A   1      53.057  32.700  25.331  1.00  0.00     0.029 A 
ATOM     66  C   UNL A   1      51.702  32.848  25.577  1.00  0.00     0.049 A 
ATOM     67  H   UNL A   1      50.235  31.365  25.897  1.00  0.00     0.167 HD
ATOM     68  C   UNL A   1      49.602  34.118  25.913  1.00  0.00     0.074 A 
ATOM     69  C   UNL A   1      48.842  35.346  26.011  1.00  0.00     0.031 C 
ATOM     70  C   UNL A   1      50.937  34.063  25.683  1.00  0.00     0.031 A 
BRANCH  57  71
ATOM     71  C   UNL A   1      53.206  28.323  25.515  1.00  0.00    -0.014 A 
ATOM     72  C   UNL A   1      53.972  27.944  26.628  1.00  0.00     0.009 A 
ATOM     73  C   UNL A   1      53.559  27.834  24.247  1.00  0.00     0.009 A 
ATOM     74  C   UNL A   1      55.086  27.117  26.470  1.00  0.00     0.001 A 
ATOM     75  C   UNL A   1      54.658  26.986  24.097  1.00  0.00     0.001 A 
ATOM     76  C   UNL A   1      55.426  26.635  25.206  1.00  0.00     0.000 A 
ENDBRANCH  57  71
BRANCH  58  77
ATOM     77  C   UNL A   1      44.979  33.825  26.696  1.00  0.00    -0.014 A 
ATOM     78  C   UNL A   1      44.576  34.240  27.975  1.00  0.00     0.009 A 
ATOM     79  C   UNL A   1      44.197  34.189  25.587  1.00  0.00     0.009 A 
ATOM     80  C   UNL A   1      43.403  34.980  28.141  1.00  0.00     0.001 A 
ATOM     81  C   UNL A   1      43.042  34.953  25.754  1.00  0.00     0.001 A 
ATOM     82  C   UNL A   1      42.639  35.340  27.031  1.00  0.00     0.000 A 
ENDBRANCH  58  77
BRANCH  70  83
ATOM     83  C   UNL A   1      51.656  35.370  25.492  1.00  0.00    -0.014 A 
ATOM     84  C   UNL A   1      52.176  36.084  26.583  1.00  0.00     0.009 A 
ATOM     85  C   UNL A   1      51.839  35.881  24.196  1.00  0.00     0.009 A 
ATOM     86  C   UNL A   1      52.830  37.302  26.383  1.00  0.00     0.001 A 
ATOM     87  C   UNL A   1      52.520  37.082  23.997  1.00  0.00     0.001 A 
ATOM     88  C   UNL A   1      53.005  37.797  25.091  1.00  0.00     0.000 A 
ENDBRANCH  70  83
ENDBRANCH  44  45
ENDBRANCH  37  39
ENDBRANCH  36  37
ENDBRANCH  35  36
ENDBRANCH  34  35
ENDBRANCH  33  34
ENDBRANCH  32  33
ENDBRANCH  31  32
ENDBRANCH  30  31
ENDBRANCH   1  30
TORSDOF 24
ENDMDL
