MODEL 1
REMARK VINA RESULT:     -10.9      0.000      0.000
REMARK SMILES O=C(C[C@@H](C(=O)N(c1ccccc1)c1ccccc1)[NH+]1CCOCC1)OCCOCCOC(=O)c1ccc(-c2c3nc(c(-c4ccccc4)c4ccc([nH]4)c(-c4ccccc4)c4nc(c(-c5ccccc5)c5ccc2[nH]5)C=C4)C=C3)cc1
REMARK SMILES IDX 28 1 27 2 26 3 2 4 1 5 3 6 4 7 5 8 6 9 7 10 8 11 9 12 13 13
REMARK SMILES IDX 10 14 12 15 11 16 14 17 15 18 19 19 16 20 18 21 17 22 20 23
REMARK SMILES IDX 21 24 25 25 22 27 24 28 23 29 29 30 30 31 31 32 32 33 33 34
REMARK SMILES IDX 34 35 35 36 36 37 82 38 37 39 81 40 38 41 39 42 40 43 75 44
REMARK SMILES IDX 41 45 80 46 74 47 76 48 42 49 79 50 73 51 72 52 43 54 65 55
REMARK SMILES IDX 50 56 64 57 51 58 54 59 63 60 77 61 52 62 53 63 62 65 78 66
REMARK SMILES IDX 55 67 44 68 45 69 49 70 46 71 48 72 47 73 66 74 67 75 71 76
REMARK SMILES IDX 68 77 70 78 69 79 56 80 57 81 61 82 58 83 60 84 59 85
REMARK H PARENT 20 26 76 53 54 64
REMARK Flexibility Score: inf
ROOT
ATOM      1  C   UNL A   1      35.720  22.309  25.935  1.00  0.00     0.202 C 
ENDROOT
BRANCH   1   2
ATOM      2  C   UNL A   1      34.654  22.559  27.007  1.00  0.00     0.261 C 
BRANCH   2   3
ATOM      3  O   UNL A   1      33.782  23.696  26.883  1.00  0.00    -0.463 OA
BRANCH   3   4
ATOM      4  C   UNL A   1      32.446  23.756  26.944  1.00  0.00     0.312 C 
ATOM      5  O   UNL A   1      31.837  22.953  27.651  1.00  0.00    -0.252 OA
BRANCH   4   6
ATOM      6  C   UNL A   1      31.685  24.740  26.115  1.00  0.00     0.198 C 
BRANCH   6   7
ATOM      7  C   UNL A   1      31.484  24.537  24.601  1.00  0.00     0.286 C 
BRANCH   7   8
ATOM      8  C   UNL A   1      30.864  25.745  23.833  1.00  0.00     0.290 C 
ATOM      9  O   UNL A   1      30.424  25.517  22.690  1.00  0.00    -0.267 OA
ATOM     10  N   UNL A   1      30.814  27.089  24.300  1.00  0.00    -0.276 N 
BRANCH  10  11
ATOM     11  C   UNL A   1      31.694  27.787  25.233  1.00  0.00     0.049 A 
ATOM     12  C   UNL A   1      33.035  28.086  24.897  1.00  0.00     0.027 A 
ATOM     13  C   UNL A   1      31.347  28.114  26.541  1.00  0.00     0.027 A 
ATOM     14  C   UNL A   1      34.007  28.390  25.863  1.00  0.00     0.002 A 
ATOM     15  C   UNL A   1      32.309  28.389  27.527  1.00  0.00     0.002 A 
ATOM     16  C   UNL A   1      33.651  28.477  27.197  1.00  0.00     0.000 A 
ENDBRANCH  10  11
BRANCH  10  17
ATOM     17  C   UNL A   1      30.021  27.951  23.422  1.00  0.00     0.049 A 
ATOM     18  C   UNL A   1      28.614  27.952  23.473  1.00  0.00     0.027 A 
ATOM     19  C   UNL A   1      30.654  28.958  22.675  1.00  0.00     0.027 A 
ATOM     20  C   UNL A   1      27.878  28.922  22.788  1.00  0.00     0.002 A 
ATOM     21  C   UNL A   1      29.909  29.933  22.002  1.00  0.00     0.002 A 
ATOM     22  C   UNL A   1      28.521  29.913  22.058  1.00  0.00     0.000 A 
ENDBRANCH  10  17
ENDBRANCH   7   8
BRANCH   7  23
ATOM     23  N   UNL A   1      32.913  24.201  24.220  1.00  0.00    -0.320 N 
ATOM     24  C   UNL A   1      33.769  25.154  23.495  1.00  0.00     0.291 C 
ATOM     25  C   UNL A   1      33.072  22.878  23.599  1.00  0.00     0.291 C 
ATOM     26  H   UNL A   1      33.276  24.246  25.172  1.00  0.00     0.348 HD
ATOM     27  C   UNL A   1      33.441  25.195  22.000  1.00  0.00     0.221 C 
ATOM     28  C   UNL A   1      32.798  22.914  22.089  1.00  0.00     0.221 C 
ATOM     29  O   UNL A   1      33.605  23.892  21.417  1.00  0.00    -0.370 OA
ENDBRANCH   7  23
ENDBRANCH   6   7
ENDBRANCH   4   6
ENDBRANCH   3   4
ENDBRANCH   2   3
ENDBRANCH   1   2
BRANCH   1  30
ATOM     30  O   UNL A   1      37.105  22.333  26.261  1.00  0.00    -0.374 OA
BRANCH  30  31
ATOM     31  C   UNL A   1      38.063  21.891  25.320  1.00  0.00     0.202 C 
BRANCH  31  32
ATOM     32  C   UNL A   1      39.357  21.357  25.952  1.00  0.00     0.261 C 
BRANCH  32  33
ATOM     33  O   UNL A   1      39.948  22.212  26.941  1.00  0.00    -0.460 OA
BRANCH  33  34
ATOM     34  C   UNL A   1      40.890  23.084  26.492  1.00  0.00     0.338 C 
ATOM     35  O   UNL A   1      41.837  22.856  25.767  1.00  0.00    -0.246 OA
BRANCH  34  36
ATOM     36  C   UNL A   1      40.545  24.439  26.979  1.00  0.00     0.060 A 
ATOM     37  C   UNL A   1      41.289  25.548  26.549  1.00  0.00     0.016 A 
ATOM     38  C   UNL A   1      39.519  24.593  27.912  1.00  0.00     0.016 A 
ATOM     39  C   UNL A   1      41.053  26.805  27.112  1.00  0.00     0.010 A 
ATOM     40  C   UNL A   1      39.295  25.842  28.486  1.00  0.00     0.010 A 
ATOM     41  C   UNL A   1      40.093  26.940  28.126  1.00  0.00    -0.014 A 
BRANCH  41  42
ATOM     42  C   UNL A   1      40.086  28.128  29.012  1.00  0.00     0.031 A 
ATOM     43  C   UNL A   1      41.146  28.211  30.073  1.00  0.00     0.074 A 
ATOM     44  C   UNL A   1      39.130  29.068  28.935  1.00  0.00     0.049 A 
ATOM     45  N   UNL A   1      41.251  29.042  31.077  1.00  0.00    -0.248 NA
ATOM     46  C   UNL A   1      42.201  27.186  30.019  1.00  0.00     0.031 C 
ATOM     47  C   UNL A   1      38.043  29.080  27.966  1.00  0.00     0.029 A 
ATOM     48  N   UNL A   1      38.920  30.191  29.695  1.00  0.00    -0.354 N 
ATOM     49  C   UNL A   1      42.349  28.604  31.806  1.00  0.00     0.074 A 
ATOM     50  C   UNL A   1      42.875  27.440  31.128  1.00  0.00     0.031 C 
ATOM     51  C   UNL A   1      37.314  30.195  28.142  1.00  0.00     0.029 A 
ATOM     52  C   UNL A   1      37.815  30.913  29.312  1.00  0.00     0.049 A 
ATOM     53  H   UNL A   1      39.504  30.455  30.442  1.00  0.00     0.167 HD
ATOM     54  C   UNL A   1      42.855  29.111  32.955  1.00  0.00     0.031 A 
ATOM     55  C   UNL A   1      37.243  31.995  29.875  1.00  0.00     0.031 A 
ATOM     56  C   UNL A   1      42.304  30.251  33.636  1.00  0.00     0.049 A 
ATOM     57  C   UNL A   1      37.809  32.533  31.164  1.00  0.00     0.074 A 
ATOM     58  C   UNL A   1      42.742  30.853  34.801  1.00  0.00     0.029 A 
ATOM     59  N   UNL A   1      41.184  30.953  33.217  1.00  0.00    -0.354 N 
ATOM     60  N   UNL A   1      38.846  32.114  31.850  1.00  0.00    -0.248 NA
ATOM     61  C   UNL A   1      37.109  33.674  31.772  1.00  0.00     0.031 C 
ATOM     62  C   UNL A   1      41.850  31.881  35.121  1.00  0.00     0.029 A 
ATOM     63  C   UNL A   1      40.903  31.971  34.113  1.00  0.00     0.049 A 
ATOM     64  H   UNL A   1      40.665  30.758  32.403  1.00  0.00     0.167 HD
ATOM     65  C   UNL A   1      38.931  32.946  32.959  1.00  0.00     0.074 A 
ATOM     66  C   UNL A   1      37.851  33.905  32.847  1.00  0.00     0.031 C 
ATOM     67  C   UNL A   1      39.824  32.918  33.981  1.00  0.00     0.031 A 
BRANCH  54  68
ATOM     68  C   UNL A   1      44.010  28.376  33.577  1.00  0.00    -0.014 A 
ATOM     69  C   UNL A   1      45.343  28.702  33.276  1.00  0.00     0.009 A 
ATOM     70  C   UNL A   1      43.757  27.319  34.465  1.00  0.00     0.009 A 
ATOM     71  C   UNL A   1      46.393  27.952  33.811  1.00  0.00     0.001 A 
ATOM     72  C   UNL A   1      44.809  26.595  35.028  1.00  0.00     0.001 A 
ATOM     73  C   UNL A   1      46.125  26.901  34.688  1.00  0.00     0.000 A 
ENDBRANCH  54  68
BRANCH  55  74
ATOM     74  C   UNL A   1      36.037  32.606  29.255  1.00  0.00    -0.014 A 
ATOM     75  C   UNL A   1      36.131  33.815  28.548  1.00  0.00     0.009 A 
ATOM     76  C   UNL A   1      34.784  31.976  29.347  1.00  0.00     0.009 A 
ATOM     77  C   UNL A   1      34.999  34.381  27.955  1.00  0.00     0.001 A 
ATOM     78  C   UNL A   1      33.663  32.524  28.724  1.00  0.00     0.001 A 
ATOM     79  C   UNL A   1      33.769  33.730  28.033  1.00  0.00     0.000 A 
ENDBRANCH  55  74
BRANCH  67  80
ATOM     80  C   UNL A   1      39.713  33.987  35.033  1.00  0.00    -0.014 A 
ATOM     81  C   UNL A   1      39.028  33.770  36.237  1.00  0.00     0.009 A 
ATOM     82  C   UNL A   1      40.377  35.210  34.837  1.00  0.00     0.009 A 
ATOM     83  C   UNL A   1      38.990  34.768  37.215  1.00  0.00     0.001 A 
ATOM     84  C   UNL A   1      40.363  36.192  35.829  1.00  0.00     0.001 A 
ATOM     85  C   UNL A   1      39.664  35.973  37.013  1.00  0.00     0.000 A 
ENDBRANCH  67  80
ENDBRANCH  41  42
ENDBRANCH  34  36
ENDBRANCH  33  34
ENDBRANCH  32  33
ENDBRANCH  31  32
ENDBRANCH  30  31
ENDBRANCH   1  30
TORSDOF 19
ENDMDL
MODEL 2
REMARK VINA RESULT:     -10.9      3.830      8.908
REMARK SMILES O=C(C[C@@H](C(=O)N(c1ccccc1)c1ccccc1)[NH+]1CCOCC1)OCCOCCOC(=O)c1ccc(-c2c3nc(c(-c4ccccc4)c4ccc([nH]4)c(-c4ccccc4)c4nc(c(-c5ccccc5)c5ccc2[nH]5)C=C4)C=C3)cc1
REMARK SMILES IDX 28 1 27 2 26 3 2 4 1 5 3 6 4 7 5 8 6 9 7 10 8 11 9 12 13 13
REMARK SMILES IDX 10 14 12 15 11 16 14 17 15 18 19 19 16 20 18 21 17 22 20 23
REMARK SMILES IDX 21 24 25 25 22 27 24 28 23 29 29 30 30 31 31 32 32 33 33 34
REMARK SMILES IDX 34 35 35 36 36 37 82 38 37 39 81 40 38 41 39 42 40 43 75 44
REMARK SMILES IDX 41 45 80 46 74 47 76 48 42 49 79 50 73 51 72 52 43 54 65 55
REMARK SMILES IDX 50 56 64 57 51 58 54 59 63 60 77 61 52 62 53 63 62 65 78 66
REMARK SMILES IDX 55 67 44 68 45 69 49 70 46 71 48 72 47 73 66 74 67 75 71 76
REMARK SMILES IDX 68 77 70 78 69 79 56 80 57 81 61 82 58 83 60 84 59 85
REMARK H PARENT 20 26 76 53 54 64
REMARK Flexibility Score: inf
ROOT
ATOM      1  C   UNL A   1      32.472  29.643  26.749  1.00  0.00     0.202 C 
ENDROOT
BRANCH   1   2
ATOM      2  C   UNL A   1      31.993  28.289  27.284  1.00  0.00     0.261 C 
BRANCH   2   3
ATOM      3  O   UNL A   1      30.970  27.572  26.572  1.00  0.00    -0.463 OA
BRANCH   3   4
ATOM      4  C   UNL A   1      30.906  26.274  26.248  1.00  0.00     0.312 C 
ATOM      5  O   UNL A   1      29.835  25.798  25.871  1.00  0.00    -0.252 OA
BRANCH   4   6
ATOM      6  C   UNL A   1      32.099  25.387  26.403  1.00  0.00     0.198 C 
BRANCH   6   7
ATOM      7  C   UNL A   1      32.760  24.701  25.191  1.00  0.00     0.286 C 
BRANCH   7   8
ATOM      8  C   UNL A   1      32.543  23.160  25.086  1.00  0.00     0.290 C 
ATOM      9  O   UNL A   1      31.381  22.743  25.261  1.00  0.00    -0.267 OA
ATOM     10  N   UNL A   1      33.562  22.191  24.870  1.00  0.00    -0.276 N 
BRANCH  10  11
ATOM     11  C   UNL A   1      34.984  22.239  25.201  1.00  0.00     0.049 A 
ATOM     12  C   UNL A   1      35.509  23.245  26.044  1.00  0.00     0.027 A 
ATOM     13  C   UNL A   1      35.945  21.398  24.647  1.00  0.00     0.027 A 
ATOM     14  C   UNL A   1      36.875  23.566  26.078  1.00  0.00     0.002 A 
ATOM     15  C   UNL A   1      37.313  21.720  24.645  1.00  0.00     0.002 A 
ATOM     16  C   UNL A   1      37.774  22.837  25.320  1.00  0.00     0.000 A 
ENDBRANCH  10  11
BRANCH  10  17
ATOM     17  C   UNL A   1      33.014  20.850  24.653  1.00  0.00     0.049 A 
ATOM     18  C   UNL A   1      32.606  20.423  23.376  1.00  0.00     0.027 A 
ATOM     19  C   UNL A   1      33.100  19.888  25.674  1.00  0.00     0.027 A 
ATOM     20  C   UNL A   1      32.286  19.083  23.142  1.00  0.00     0.002 A 
ATOM     21  C   UNL A   1      32.789  18.546  25.428  1.00  0.00     0.002 A 
ATOM     22  C   UNL A   1      32.380  18.145  24.162  1.00  0.00     0.000 A 
ENDBRANCH  10  17
ENDBRANCH   7   8
BRANCH   7  23
ATOM     23  N   UNL A   1      32.117  25.516  24.085  1.00  0.00    -0.320 N 
ATOM     24  C   UNL A   1      31.669  24.900  22.825  1.00  0.00     0.291 C 
ATOM     25  C   UNL A   1      32.836  26.755  23.759  1.00  0.00     0.291 C 
ATOM     26  H   UNL A   1      31.242  25.676  24.584  1.00  0.00     0.348 HD
ATOM     27  C   UNL A   1      32.838  24.635  21.872  1.00  0.00     0.221 C 
ATOM     28  C   UNL A   1      33.979  26.513  22.763  1.00  0.00     0.221 C 
ATOM     29  O   UNL A   1      33.523  25.861  21.569  1.00  0.00    -0.370 OA
ENDBRANCH   7  23
ENDBRANCH   6   7
ENDBRANCH   4   6
ENDBRANCH   3   4
ENDBRANCH   2   3
ENDBRANCH   1   2
BRANCH   1  30
ATOM     30  O   UNL A   1      32.375  30.819  27.545  1.00  0.00    -0.374 OA
BRANCH  30  31
ATOM     31  C   UNL A   1      32.872  32.049  27.055  1.00  0.00     0.202 C 
BRANCH  31  32
ATOM     32  C   UNL A   1      33.775  32.796  28.048  1.00  0.00     0.261 C 
BRANCH  32  33
ATOM     33  O   UNL A   1      35.085  32.236  28.217  1.00  0.00    -0.460 OA
BRANCH  33  34
ATOM     34  C   UNL A   1      35.365  31.730  29.448  1.00  0.00     0.338 C 
ATOM     35  O   UNL A   1      34.818  31.979  30.503  1.00  0.00    -0.246 OA
BRANCH  34  36
ATOM     36  C   UNL A   1      36.442  30.723  29.306  1.00  0.00     0.060 A 
ATOM     37  C   UNL A   1      36.836  29.960  30.415  1.00  0.00     0.016 A 
ATOM     38  C   UNL A   1      37.098  30.587  28.082  1.00  0.00     0.016 A 
ATOM     39  C   UNL A   1      37.941  29.110  30.317  1.00  0.00     0.010 A 
ATOM     40  C   UNL A   1      38.209  29.753  27.989  1.00  0.00     0.010 A 
ATOM     41  C   UNL A   1      38.665  29.052  29.118  1.00  0.00    -0.014 A 
BRANCH  41  42
ATOM     42  C   UNL A   1      40.038  28.494  29.085  1.00  0.00     0.031 A 
ATOM     43  C   UNL A   1      41.174  29.426  29.396  1.00  0.00     0.074 A 
ATOM     44  C   UNL A   1      40.283  27.227  28.718  1.00  0.00     0.049 A 
ATOM     45  N   UNL A   1      42.461  29.238  29.262  1.00  0.00    -0.248 NA
ATOM     46  C   UNL A   1      40.803  30.767  29.876  1.00  0.00     0.031 C 
ATOM     47  C   UNL A   1      39.267  26.243  28.373  1.00  0.00     0.029 A 
ATOM     48  N   UNL A   1      41.471  26.555  28.569  1.00  0.00    -0.354 N 
ATOM     49  C   UNL A   1      43.049  30.454  29.585  1.00  0.00     0.074 A 
ATOM     50  C   UNL A   1      41.980  31.368  29.923  1.00  0.00     0.031 C 
ATOM     51  C   UNL A   1      39.865  25.067  28.116  1.00  0.00     0.029 A 
ATOM     52  C   UNL A   1      41.315  25.251  28.164  1.00  0.00     0.049 A 
ATOM     53  H   UNL A   1      42.349  26.966  28.735  1.00  0.00     0.167 HD
ATOM     54  C   UNL A   1      44.360  30.787  29.572  1.00  0.00     0.031 A 
ATOM     55  C   UNL A   1      42.236  24.329  27.819  1.00  0.00     0.031 A 
ATOM     56  C   UNL A   1      45.412  29.879  29.204  1.00  0.00     0.049 A 
ATOM     57  C   UNL A   1      43.689  24.724  27.792  1.00  0.00     0.074 A 
ATOM     58  C   UNL A   1      46.775  30.109  29.163  1.00  0.00     0.029 A 
ATOM     59  N   UNL A   1      45.213  28.567  28.798  1.00  0.00    -0.354 N 
ATOM     60  N   UNL A   1      44.239  25.876  28.097  1.00  0.00    -0.248 NA
ATOM     61  C   UNL A   1      44.647  23.702  27.345  1.00  0.00     0.031 C 
ATOM     62  C   UNL A   1      47.396  28.955  28.674  1.00  0.00     0.029 A 
ATOM     63  C   UNL A   1      46.428  27.981  28.486  1.00  0.00     0.049 A 
ATOM     64  H   UNL A   1      44.338  28.118  28.741  1.00  0.00     0.167 HD
ATOM     65  C   UNL A   1      45.604  25.714  27.893  1.00  0.00     0.074 A 
ATOM     66  C   UNL A   1      45.802  24.347  27.455  1.00  0.00     0.031 C 
ATOM     67  C   UNL A   1      46.604  26.616  28.054  1.00  0.00     0.031 A 
BRANCH  54  68
ATOM     68  C   UNL A   1      44.707  32.216  29.888  1.00  0.00    -0.014 A 
ATOM     69  C   UNL A   1      45.005  32.634  31.196  1.00  0.00     0.009 A 
ATOM     70  C   UNL A   1      44.714  33.168  28.857  1.00  0.00     0.009 A 
ATOM     71  C   UNL A   1      45.249  33.981  31.470  1.00  0.00     0.001 A 
ATOM     72  C   UNL A   1      44.994  34.508  29.127  1.00  0.00     0.001 A 
ATOM     73  C   UNL A   1      45.246  34.917  30.435  1.00  0.00     0.000 A 
ENDBRANCH  54  68
BRANCH  55  74
ATOM     74  C   UNL A   1      41.806  22.963  27.418  1.00  0.00    -0.014 A 
ATOM     75  C   UNL A   1      41.603  21.965  28.384  1.00  0.00     0.009 A 
ATOM     76  C   UNL A   1      41.577  22.649  26.068  1.00  0.00     0.009 A 
ATOM     77  C   UNL A   1      41.187  20.685  28.006  1.00  0.00     0.001 A 
ATOM     78  C   UNL A   1      41.127  21.382  25.697  1.00  0.00     0.001 A 
ATOM     79  C   UNL A   1      40.937  20.398  26.665  1.00  0.00     0.000 A 
ENDBRANCH  55  74
BRANCH  67  80
ATOM     80  C   UNL A   1      48.012  26.146  27.813  1.00  0.00    -0.014 A 
ATOM     81  C   UNL A   1      48.778  25.558  28.830  1.00  0.00     0.009 A 
ATOM     82  C   UNL A   1      48.548  26.229  26.517  1.00  0.00     0.009 A 
ATOM     83  C   UNL A   1      50.064  25.083  28.557  1.00  0.00     0.001 A 
ATOM     84  C   UNL A   1      49.820  25.726  26.242  1.00  0.00     0.001 A 
ATOM     85  C   UNL A   1      50.580  25.161  27.263  1.00  0.00     0.000 A 
ENDBRANCH  67  80
ENDBRANCH  41  42
ENDBRANCH  34  36
ENDBRANCH  33  34
ENDBRANCH  32  33
ENDBRANCH  31  32
ENDBRANCH  30  31
ENDBRANCH   1  30
TORSDOF 19
ENDMDL
MODEL 3
REMARK VINA RESULT:     -10.5      2.608      7.908
REMARK SMILES O=C(C[C@@H](C(=O)N(c1ccccc1)c1ccccc1)[NH+]1CCOCC1)OCCOCCOC(=O)c1ccc(-c2c3nc(c(-c4ccccc4)c4ccc([nH]4)c(-c4ccccc4)c4nc(c(-c5ccccc5)c5ccc2[nH]5)C=C4)C=C3)cc1
REMARK SMILES IDX 28 1 27 2 26 3 2 4 1 5 3 6 4 7 5 8 6 9 7 10 8 11 9 12 13 13
REMARK SMILES IDX 10 14 12 15 11 16 14 17 15 18 19 19 16 20 18 21 17 22 20 23
REMARK SMILES IDX 21 24 25 25 22 27 24 28 23 29 29 30 30 31 31 32 32 33 33 34
REMARK SMILES IDX 34 35 35 36 36 37 82 38 37 39 81 40 38 41 39 42 40 43 75 44
REMARK SMILES IDX 41 45 80 46 74 47 76 48 42 49 79 50 73 51 72 52 43 54 65 55
REMARK SMILES IDX 50 56 64 57 51 58 54 59 63 60 77 61 52 62 53 63 62 65 78 66
REMARK SMILES IDX 55 67 44 68 45 69 49 70 46 71 48 72 47 73 66 74 67 75 71 76
REMARK SMILES IDX 68 77 70 78 69 79 56 80 57 81 61 82 58 83 60 84 59 85
REMARK H PARENT 20 26 76 53 54 64
REMARK Flexibility Score: inf
ROOT
ATOM      1  C   UNL A   1      32.223  29.296  26.287  1.00  0.00     0.202 C 
ENDROOT
BRANCH   1   2
ATOM      2  C   UNL A   1      31.677  27.938  26.742  1.00  0.00     0.261 C 
BRANCH   2   3
ATOM      3  O   UNL A   1      30.702  27.263  25.928  1.00  0.00    -0.463 OA
BRANCH   3   4
ATOM      4  C   UNL A   1      30.342  25.973  25.923  1.00  0.00     0.312 C 
ATOM      5  O   UNL A   1      29.215  25.662  25.538  1.00  0.00    -0.252 OA
BRANCH   4   6
ATOM      6  C   UNL A   1      31.265  24.918  26.442  1.00  0.00     0.198 C 
BRANCH   6   7
ATOM      7  C   UNL A   1      32.343  24.276  25.547  1.00  0.00     0.286 C 
BRANCH   7   8
ATOM      8  C   UNL A   1      32.252  22.727  25.384  1.00  0.00     0.290 C 
ATOM      9  O   UNL A   1      31.149  22.201  25.631  1.00  0.00    -0.267 OA
ATOM     10  N   UNL A   1      33.329  21.863  25.041  1.00  0.00    -0.276 N 
BRANCH  10  11
ATOM     11  C   UNL A   1      34.764  22.025  25.261  1.00  0.00     0.049 A 
ATOM     12  C   UNL A   1      35.271  23.059  26.080  1.00  0.00     0.027 A 
ATOM     13  C   UNL A   1      35.744  21.274  24.617  1.00  0.00     0.027 A 
ATOM     14  C   UNL A   1      36.605  23.492  26.014  1.00  0.00     0.002 A 
ATOM     15  C   UNL A   1      37.076  21.709  24.514  1.00  0.00     0.002 A 
ATOM     16  C   UNL A   1      37.497  22.851  25.173  1.00  0.00     0.000 A 
ENDBRANCH  10  11
BRANCH  10  17
ATOM     17  C   UNL A   1      32.882  20.488  24.804  1.00  0.00     0.049 A 
ATOM     18  C   UNL A   1      32.522  20.047  23.517  1.00  0.00     0.027 A 
ATOM     19  C   UNL A   1      33.024  19.524  25.816  1.00  0.00     0.027 A 
ATOM     20  C   UNL A   1      32.302  18.690  23.265  1.00  0.00     0.002 A 
ATOM     21  C   UNL A   1      32.815  18.165  25.552  1.00  0.00     0.002 A 
ATOM     22  C   UNL A   1      32.452  17.750  24.277  1.00  0.00     0.000 A 
ENDBRANCH  10  17
ENDBRANCH   7   8
BRANCH   7  23
ATOM     23  N   UNL A   1      32.094  25.069  24.278  1.00  0.00    -0.320 N 
ATOM     24  C   UNL A   1      31.605  24.431  23.046  1.00  0.00     0.291 C 
ATOM     25  C   UNL A   1      33.189  25.982  23.919  1.00  0.00     0.291 C 
ATOM     26  H   UNL A   1      31.267  25.550  24.631  1.00  0.00     0.348 HD
ATOM     27  C   UNL A   1      32.722  23.698  22.299  1.00  0.00     0.221 C 
ATOM     28  C   UNL A   1      34.293  25.272  23.123  1.00  0.00     0.221 C 
ATOM     29  O   UNL A   1      33.778  24.611  21.958  1.00  0.00    -0.370 OA
ENDBRANCH   7  23
ENDBRANCH   6   7
ENDBRANCH   4   6
ENDBRANCH   3   4
ENDBRANCH   2   3
ENDBRANCH   1   2
BRANCH   1  30
ATOM     30  O   UNL A   1      31.985  30.473  27.051  1.00  0.00    -0.374 OA
BRANCH  30  31
ATOM     31  C   UNL A   1      31.519  31.647  26.417  1.00  0.00     0.202 C 
BRANCH  31  32
ATOM     32  C   UNL A   1      31.885  32.942  27.156  1.00  0.00     0.261 C 
BRANCH  32  33
ATOM     33  O   UNL A   1      33.251  33.357  27.016  1.00  0.00    -0.460 OA
BRANCH  33  34
ATOM     34  C   UNL A   1      33.884  33.730  28.160  1.00  0.00     0.338 C 
ATOM     35  O   UNL A   1      33.555  34.591  28.952  1.00  0.00    -0.246 OA
BRANCH  34  36
ATOM     36  C   UNL A   1      35.056  32.847  28.357  1.00  0.00     0.060 A 
ATOM     37  C   UNL A   1      34.887  31.455  28.380  1.00  0.00     0.016 A 
ATOM     38  C   UNL A   1      36.312  33.412  28.581  1.00  0.00     0.016 A 
ATOM     39  C   UNL A   1      35.966  30.628  28.702  1.00  0.00     0.010 A 
ATOM     40  C   UNL A   1      37.384  32.590  28.918  1.00  0.00     0.010 A 
ATOM     41  C   UNL A   1      37.203  31.201  29.030  1.00  0.00    -0.014 A 
BRANCH  41  42
ATOM     42  C   UNL A   1      38.237  30.419  29.748  1.00  0.00     0.031 A 
ATOM     43  C   UNL A   1      38.368  30.635  31.230  1.00  0.00     0.074 A 
ATOM     44  C   UNL A   1      39.086  29.601  29.106  1.00  0.00     0.049 A 
ATOM     45  N   UNL A   1      39.297  30.218  32.050  1.00  0.00    -0.248 NA
ATOM     46  C   UNL A   1      37.337  31.477  31.857  1.00  0.00     0.031 C 
ATOM     47  C   UNL A   1      39.069  29.332  27.676  1.00  0.00     0.029 A 
ATOM     48  N   UNL A   1      40.132  28.851  29.580  1.00  0.00    -0.354 N 
ATOM     49  C   UNL A   1      38.994  30.794  33.276  1.00  0.00     0.074 A 
ATOM     50  C   UNL A   1      37.797  31.585  33.092  1.00  0.00     0.031 C 
ATOM     51  C   UNL A   1      40.016  28.423  27.390  1.00  0.00     0.029 A 
ATOM     52  C   UNL A   1      40.782  28.137  28.602  1.00  0.00     0.049 A 
ATOM     53  H   UNL A   1      40.394  28.826  30.529  1.00  0.00     0.167 HD
ATOM     54  C   UNL A   1      39.671  30.696  34.444  1.00  0.00     0.031 A 
ATOM     55  C   UNL A   1      41.899  27.385  28.667  1.00  0.00     0.031 A 
ATOM     56  C   UNL A   1      40.877  29.931  34.607  1.00  0.00     0.049 A 
ATOM     57  C   UNL A   1      42.648  27.303  29.972  1.00  0.00     0.074 A 
ATOM     58  C   UNL A   1      41.640  29.756  35.747  1.00  0.00     0.029 A 
ATOM     59  N   UNL A   1      41.504  29.224  33.592  1.00  0.00    -0.354 N 
ATOM     60  N   UNL A   1      42.358  27.852  31.128  1.00  0.00    -0.248 NA
ATOM     61  C   UNL A   1      43.895  26.524  29.973  1.00  0.00     0.031 C 
ATOM     62  C   UNL A   1      42.761  28.994  35.408  1.00  0.00     0.029 A 
ATOM     63  C   UNL A   1      42.656  28.627  34.074  1.00  0.00     0.049 A 
ATOM     64  H   UNL A   1      41.178  29.155  32.665  1.00  0.00     0.167 HD
ATOM     65  C   UNL A   1      43.375  27.473  31.996  1.00  0.00     0.074 A 
ATOM     66  C   UNL A   1      44.281  26.634  31.238  1.00  0.00     0.031 C 
ATOM     67  C   UNL A   1      43.544  27.792  33.304  1.00  0.00     0.031 A 
BRANCH  54  68
ATOM     68  C   UNL A   1      39.156  31.504  35.604  1.00  0.00    -0.014 A 
ATOM     69  C   UNL A   1      38.208  30.989  36.503  1.00  0.00     0.009 A 
ATOM     70  C   UNL A   1      39.616  32.818  35.785  1.00  0.00     0.009 A 
ATOM     71  C   UNL A   1      37.693  31.790  37.524  1.00  0.00     0.001 A 
ATOM     72  C   UNL A   1      39.127  33.605  36.829  1.00  0.00     0.001 A 
ATOM     73  C   UNL A   1      38.155  33.096  37.689  1.00  0.00     0.000 A 
ENDBRANCH  54  68
BRANCH  55  74
ATOM     74  C   UNL A   1      42.403  26.697  27.449  1.00  0.00    -0.014 A 
ATOM     75  C   UNL A   1      43.297  27.344  26.582  1.00  0.00     0.009 A 
ATOM     76  C   UNL A   1      42.011  25.381  27.153  1.00  0.00     0.009 A 
ATOM     77  C   UNL A   1      43.780  26.691  25.443  1.00  0.00     0.001 A 
ATOM     78  C   UNL A   1      42.522  24.719  26.036  1.00  0.00     0.001 A 
ATOM     79  C   UNL A   1      43.402  25.376  25.178  1.00  0.00     0.000 A 
ENDBRANCH  55  74
BRANCH  67  80
ATOM     80  C   UNL A   1      44.720  27.190  34.022  1.00  0.00    -0.014 A 
ATOM     81  C   UNL A   1      45.938  27.873  34.147  1.00  0.00     0.009 A 
ATOM     82  C   UNL A   1      44.572  25.941  34.649  1.00  0.00     0.009 A 
ATOM     83  C   UNL A   1      46.993  27.305  34.866  1.00  0.00     0.001 A 
ATOM     84  C   UNL A   1      45.616  25.392  35.394  1.00  0.00     0.001 A 
ATOM     85  C   UNL A   1      46.829  26.070  35.495  1.00  0.00     0.000 A 
ENDBRANCH  67  80
ENDBRANCH  41  42
ENDBRANCH  34  36
ENDBRANCH  33  34
ENDBRANCH  32  33
ENDBRANCH  31  32
ENDBRANCH  30  31
ENDBRANCH   1  30
TORSDOF 19
ENDMDL
