MODEL 1
REMARK VINA RESULT:     -10.5      0.000      0.000
REMARK SMILES Cc1ccccc1OCC(=O)N1C[C@H](O)C[C@H]1C(=O)OCCOCCOC(=O)c1ccc(-c2c3nc(c(-c4ccccc4)c4ccc([nH]4)c(-c4ccccc4)c4nc(c(-c5ccccc5)c5ccc2[nH]5)C=C4)C=C3)cc1
REMARK SMILES IDX 22 1 21 2 20 3 18 4 19 5 17 6 12 7 13 8 14 9 16 10 10 11
REMARK SMILES IDX 11 12 9 13 8 14 7 15 1 16 2 17 3 18 4 19 6 20 5 21 15 22
REMARK SMILES IDX 23 24 24 25 25 26 26 27 27 28 28 29 29 30 30 31 76 32 31 33
REMARK SMILES IDX 75 34 32 35 33 36 34 37 69 38 35 39 74 40 68 41 70 42 36 43
REMARK SMILES IDX 73 44 67 45 66 46 37 48 59 49 44 50 58 51 45 52 48 53 57 54
REMARK SMILES IDX 71 55 46 56 47 57 56 59 72 60 49 61 38 62 39 63 43 64 40 65
REMARK SMILES IDX 42 66 41 67 60 68 61 69 65 70 62 71 64 72 63 73 50 74 51 75
REMARK SMILES IDX 55 76 52 77 54 78 53 79
REMARK H PARENT 15 23 70 47 48 58
REMARK Flexibility Score: inf
ROOT
ATOM      1  C   UNL A   1      32.198  29.963  25.959  1.00  0.00     0.202 C 
ENDROOT
BRANCH   1   2
ATOM      2  C   UNL A   1      32.062  29.398  24.565  1.00  0.00     0.261 C 
BRANCH   2   3
ATOM      3  O   UNL A   1      30.792  28.764  24.339  1.00  0.00    -0.462 OA
BRANCH   3   4
ATOM      4  C   UNL A   1      30.611  27.972  23.240  1.00  0.00     0.329 C 
ATOM      5  O   UNL A   1      30.339  28.352  22.111  1.00  0.00    -0.250 OA
BRANCH   4   6
ATOM      6  C   UNL A   1      30.627  26.503  23.635  1.00  0.00     0.198 C 
ATOM      7  N   UNL A   1      31.982  25.997  23.921  1.00  0.00    -0.323 N 
ATOM      8  C   UNL A   1      32.107  25.566  25.297  1.00  0.00     0.152 C 
ATOM      9  C   UNL A   1      30.659  25.300  25.723  1.00  0.00     0.136 C 
ATOM     10  C   UNL A   1      29.834  26.310  24.932  1.00  0.00     0.070 C 
BRANCH   7  11
ATOM     11  C   UNL A   1      32.914  26.005  22.918  1.00  0.00     0.261 C 
ATOM     12  O   UNL A   1      33.583  27.021  22.727  1.00  0.00    -0.271 OA
BRANCH  11  13
ATOM     13  C   UNL A   1      33.037  24.889  21.882  1.00  0.00     0.329 C 
BRANCH  13  14
ATOM     14  O   UNL A   1      33.818  23.730  21.854  1.00  0.00    -0.484 OA
BRANCH  14  15
ATOM     15  C   UNL A   1      33.950  22.938  22.949  1.00  0.00     0.122 A 
ATOM     16  C   UNL A   1      36.520  22.987  23.220  1.00  0.00     0.048 C 
ATOM     17  C   UNL A   1      35.131  22.574  23.611  1.00  0.00    -0.009 A 
ATOM     18  C   UNL A   1      35.050  21.599  24.632  1.00  0.00     0.007 A 
ATOM     19  C   UNL A   1      33.849  20.956  24.934  1.00  0.00     0.001 A 
ATOM     20  C   UNL A   1      32.755  22.270  23.251  1.00  0.00     0.047 A 
ATOM     21  C   UNL A   1      32.701  21.281  24.228  1.00  0.00     0.004 A 
ENDBRANCH  14  15
ENDBRANCH  13  14
ENDBRANCH  11  13
ENDBRANCH   7  11
BRANCH   9  22
ATOM     22  O   UNL A   1      30.269  23.975  25.366  1.00  0.00    -0.391 OA
ATOM     23  H   UNL A   1      29.816  23.991  24.509  1.00  0.00     0.211 HD
ENDBRANCH   9  22
ENDBRANCH   4   6
ENDBRANCH   3   4
ENDBRANCH   2   3
ENDBRANCH   1   2
BRANCH   1  24
ATOM     24  O   UNL A   1      33.400  29.518  26.563  1.00  0.00    -0.374 OA
BRANCH  24  25
ATOM     25  C   UNL A   1      34.219  30.487  27.205  1.00  0.00     0.202 C 
BRANCH  25  26
ATOM     26  C   UNL A   1      33.480  31.725  27.726  1.00  0.00     0.261 C 
BRANCH  26  27
ATOM     27  O   UNL A   1      34.368  32.852  27.904  1.00  0.00    -0.460 OA
BRANCH  27  28
ATOM     28  C   UNL A   1      34.311  33.476  29.119  1.00  0.00     0.338 C 
ATOM     29  O   UNL A   1      33.355  34.095  29.534  1.00  0.00    -0.246 OA
BRANCH  28  30
ATOM     30  C   UNL A   1      35.675  33.506  29.741  1.00  0.00     0.060 A 
ATOM     31  C   UNL A   1      36.800  33.837  28.962  1.00  0.00     0.016 A 
ATOM     32  C   UNL A   1      35.842  32.813  30.930  1.00  0.00     0.016 A 
ATOM     33  C   UNL A   1      38.060  33.296  29.280  1.00  0.00     0.010 A 
ATOM     34  C   UNL A   1      37.017  32.118  31.099  1.00  0.00     0.010 A 
ATOM     35  C   UNL A   1      38.146  32.350  30.294  1.00  0.00    -0.014 A 
BRANCH  35  36
ATOM     36  C   UNL A   1      39.314  31.557  30.705  1.00  0.00     0.031 A 
ATOM     37  C   UNL A   1      39.516  30.282  29.962  1.00  0.00     0.074 A 
ATOM     38  C   UNL A   1      40.327  32.055  31.460  1.00  0.00     0.049 A 
ATOM     39  N   UNL A   1      40.487  29.471  30.177  1.00  0.00    -0.248 NA
ATOM     40  C   UNL A   1      38.625  29.793  28.900  1.00  0.00     0.031 C 
ATOM     41  C   UNL A   1      41.744  31.656  31.451  1.00  0.00     0.029 A 
ATOM     42  N   UNL A   1      40.321  33.062  32.431  1.00  0.00    -0.354 N 
ATOM     43  C   UNL A   1      40.572  28.631  29.097  1.00  0.00     0.074 A 
ATOM     44  C   UNL A   1      39.340  28.793  28.378  1.00  0.00     0.031 C 
ATOM     45  C   UNL A   1      42.366  32.154  32.535  1.00  0.00     0.029 A 
ATOM     46  C   UNL A   1      41.343  32.775  33.355  1.00  0.00     0.049 A 
ATOM     47  H   UNL A   1      39.709  33.833  32.463  1.00  0.00     0.167 HD
ATOM     48  C   UNL A   1      41.752  27.996  28.880  1.00  0.00     0.031 A 
ATOM     49  C   UNL A   1      41.044  32.481  34.651  1.00  0.00     0.031 A 
ATOM     50  C   UNL A   1      42.626  28.119  30.049  1.00  0.00     0.049 A 
ATOM     51  C   UNL A   1      41.431  31.055  34.935  1.00  0.00     0.074 A 
ATOM     52  C   UNL A   1      43.781  28.832  30.312  1.00  0.00     0.029 A 
ATOM     53  N   UNL A   1      42.125  27.712  31.287  1.00  0.00    -0.354 N 
ATOM     54  N   UNL A   1      41.571  30.167  33.987  1.00  0.00    -0.248 NA
ATOM     55  C   UNL A   1      41.777  30.526  36.248  1.00  0.00     0.031 C 
ATOM     56  C   UNL A   1      43.895  28.953  31.732  1.00  0.00     0.029 A 
ATOM     57  C   UNL A   1      42.844  28.269  32.325  1.00  0.00     0.049 A 
ATOM     58  H   UNL A   1      41.357  27.106  31.403  1.00  0.00     0.167 HD
ATOM     59  C   UNL A   1      42.105  29.028  34.500  1.00  0.00     0.074 A 
ATOM     60  C   UNL A   1      42.167  29.276  35.931  1.00  0.00     0.031 C 
ATOM     61  C   UNL A   1      42.479  27.980  33.712  1.00  0.00     0.031 A 
BRANCH  48  62
ATOM     62  C   UNL A   1      42.168  27.407  27.558  1.00  0.00    -0.014 A 
ATOM     63  C   UNL A   1      42.721  26.115  27.527  1.00  0.00     0.009 A 
ATOM     64  C   UNL A   1      42.144  28.096  26.328  1.00  0.00     0.009 A 
ATOM     65  C   UNL A   1      43.199  25.542  26.340  1.00  0.00     0.001 A 
ATOM     66  C   UNL A   1      42.589  27.518  25.132  1.00  0.00     0.001 A 
ATOM     67  C   UNL A   1      43.122  26.239  25.139  1.00  0.00     0.000 A 
ENDBRANCH  48  62
BRANCH  49  68
ATOM     68  C   UNL A   1      39.852  33.250  35.126  1.00  0.00    -0.014 A 
ATOM     69  C   UNL A   1      38.611  32.570  35.099  1.00  0.00     0.009 A 
ATOM     70  C   UNL A   1      40.004  34.307  36.038  1.00  0.00     0.009 A 
ATOM     71  C   UNL A   1      37.630  32.817  36.069  1.00  0.00     0.001 A 
ATOM     72  C   UNL A   1      39.011  34.557  36.998  1.00  0.00     0.001 A 
ATOM     73  C   UNL A   1      37.852  33.782  37.046  1.00  0.00     0.000 A 
ENDBRANCH  49  68
BRANCH  61  74
ATOM     74  C   UNL A   1      42.579  26.567  34.213  1.00  0.00    -0.014 A 
ATOM     75  C   UNL A   1      43.698  25.753  33.995  1.00  0.00     0.009 A 
ATOM     76  C   UNL A   1      41.597  26.080  35.099  1.00  0.00     0.009 A 
ATOM     77  C   UNL A   1      43.799  24.487  34.578  1.00  0.00     0.001 A 
ATOM     78  C   UNL A   1      41.725  24.845  35.734  1.00  0.00     0.001 A 
ATOM     79  C   UNL A   1      42.818  24.038  35.455  1.00  0.00     0.000 A 
ENDBRANCH  61  74
ENDBRANCH  35  36
ENDBRANCH  28  30
ENDBRANCH  27  28
ENDBRANCH  26  27
ENDBRANCH  25  26
ENDBRANCH  24  25
ENDBRANCH   1  24
TORSDOF 19
ENDMDL
MODEL 2
REMARK VINA RESULT:     -10.5      1.734      2.425
REMARK SMILES Cc1ccccc1OCC(=O)N1C[C@H](O)C[C@H]1C(=O)OCCOCCOC(=O)c1ccc(-c2c3nc(c(-c4ccccc4)c4ccc([nH]4)c(-c4ccccc4)c4nc(c(-c5ccccc5)c5ccc2[nH]5)C=C4)C=C3)cc1
REMARK SMILES IDX 22 1 21 2 20 3 18 4 19 5 17 6 12 7 13 8 14 9 16 10 10 11
REMARK SMILES IDX 11 12 9 13 8 14 7 15 1 16 2 17 3 18 4 19 6 20 5 21 15 22
REMARK SMILES IDX 23 24 24 25 25 26 26 27 27 28 28 29 29 30 30 31 76 32 31 33
REMARK SMILES IDX 75 34 32 35 33 36 34 37 69 38 35 39 74 40 68 41 70 42 36 43
REMARK SMILES IDX 73 44 67 45 66 46 37 48 59 49 44 50 58 51 45 52 48 53 57 54
REMARK SMILES IDX 71 55 46 56 47 57 56 59 72 60 49 61 38 62 39 63 43 64 40 65
REMARK SMILES IDX 42 66 41 67 60 68 61 69 65 70 62 71 64 72 63 73 50 74 51 75
REMARK SMILES IDX 55 76 52 77 54 78 53 79
REMARK H PARENT 15 23 70 47 48 58
REMARK Flexibility Score: inf
ROOT
ATOM      1  C   UNL A   1      32.159  28.279  25.528  1.00  0.00     0.202 C 
ENDROOT
BRANCH   1   2
ATOM      2  C   UNL A   1      31.966  27.551  24.218  1.00  0.00     0.261 C 
BRANCH   2   3
ATOM      3  O   UNL A   1      31.621  26.166  24.394  1.00  0.00    -0.462 OA
BRANCH   3   4
ATOM      4  C   UNL A   1      32.268  25.206  23.669  1.00  0.00     0.329 C 
ATOM      5  O   UNL A   1      32.670  25.314  22.520  1.00  0.00    -0.250 OA
BRANCH   4   6
ATOM      6  C   UNL A   1      32.286  23.888  24.429  1.00  0.00     0.198 C 
ATOM      7  N   UNL A   1      32.836  24.015  25.791  1.00  0.00    -0.323 N 
ATOM      8  C   UNL A   1      31.845  23.686  26.795  1.00  0.00     0.152 C 
ATOM      9  C   UNL A   1      30.833  22.826  26.032  1.00  0.00     0.136 C 
ATOM     10  C   UNL A   1      30.852  23.379  24.610  1.00  0.00     0.070 C 
BRANCH   7  11
ATOM     11  C   UNL A   1      34.135  24.419  25.944  1.00  0.00     0.261 C 
ATOM     12  O   UNL A   1      34.379  25.615  26.106  1.00  0.00    -0.271 OA
BRANCH  11  13
ATOM     13  C   UNL A   1      35.329  23.492  25.722  1.00  0.00     0.329 C 
BRANCH  13  14
ATOM     14  O   UNL A   1      36.543  23.686  25.056  1.00  0.00    -0.484 OA
BRANCH  14  15
ATOM     15  C   UNL A   1      37.724  23.306  25.608  1.00  0.00     0.122 A 
ATOM     16  C   UNL A   1      37.719  20.800  24.976  1.00  0.00     0.048 C 
ATOM     17  C   UNL A   1      38.307  22.032  25.600  1.00  0.00    -0.009 A 
ATOM     18  C   UNL A   1      39.464  21.823  26.385  1.00  0.00     0.007 A 
ATOM     19  C   UNL A   1      39.980  22.825  27.207  1.00  0.00     0.001 A 
ATOM     20  C   UNL A   1      38.243  24.298  26.452  1.00  0.00     0.047 A 
ATOM     21  C   UNL A   1      39.355  24.062  27.253  1.00  0.00     0.004 A 
ENDBRANCH  14  15
ENDBRANCH  13  14
ENDBRANCH  11  13
ENDBRANCH   7  11
BRANCH   9  22
ATOM     22  O   UNL A   1      31.245  21.460  26.021  1.00  0.00    -0.391 OA
ATOM     23  H   UNL A   1      31.767  21.272  26.818  1.00  0.00     0.211 HD
ENDBRANCH   9  22
ENDBRANCH   4   6
ENDBRANCH   3   4
ENDBRANCH   2   3
ENDBRANCH   1   2
BRANCH   1  24
ATOM     24  O   UNL A   1      31.964  29.673  25.358  1.00  0.00    -0.374 OA
BRANCH  24  25
ATOM     25  C   UNL A   1      32.119  30.508  26.498  1.00  0.00     0.202 C 
BRANCH  25  26
ATOM     26  C   UNL A   1      33.360  30.225  27.351  1.00  0.00     0.261 C 
BRANCH  26  27
ATOM     27  O   UNL A   1      34.340  31.285  27.252  1.00  0.00    -0.460 OA
BRANCH  27  28
ATOM     28  C   UNL A   1      34.205  32.313  28.143  1.00  0.00     0.338 C 
ATOM     29  O   UNL A   1      33.321  33.142  28.114  1.00  0.00    -0.246 OA
BRANCH  28  30
ATOM     30  C   UNL A   1      35.439  32.420  28.987  1.00  0.00     0.060 A 
ATOM     31  C   UNL A   1      36.606  33.010  28.463  1.00  0.00     0.016 A 
ATOM     32  C   UNL A   1      35.528  31.577  30.084  1.00  0.00     0.016 A 
ATOM     33  C   UNL A   1      37.870  32.592  28.918  1.00  0.00     0.010 A 
ATOM     34  C   UNL A   1      36.757  31.020  30.357  1.00  0.00     0.010 A 
ATOM     35  C   UNL A   1      37.945  31.518  29.796  1.00  0.00    -0.014 A 
BRANCH  35  36
ATOM     36  C   UNL A   1      39.144  30.826  30.292  1.00  0.00     0.031 A 
ATOM     37  C   UNL A   1      39.389  29.475  29.715  1.00  0.00     0.074 A 
ATOM     38  C   UNL A   1      40.144  31.452  30.965  1.00  0.00     0.049 A 
ATOM     39  N   UNL A   1      40.391  28.733  30.021  1.00  0.00    -0.248 NA
ATOM     40  C   UNL A   1      38.509  28.822  28.734  1.00  0.00     0.031 C 
ATOM     41  C   UNL A   1      41.574  31.107  30.992  1.00  0.00     0.029 A 
ATOM     42  N   UNL A   1      40.106  32.574  31.800  1.00  0.00    -0.354 N 
ATOM     43  C   UNL A   1      40.499  27.766  29.055  1.00  0.00     0.074 A 
ATOM     44  C   UNL A   1      39.257  27.791  28.336  1.00  0.00     0.031 C 
ATOM     45  C   UNL A   1      42.185  31.761  31.996  1.00  0.00     0.029 A 
ATOM     46  C   UNL A   1      41.145  32.444  32.742  1.00  0.00     0.049 A 
ATOM     47  H   UNL A   1      39.467  33.321  31.741  1.00  0.00     0.167 HD
ATOM     48  C   UNL A   1      41.700  27.151  28.908  1.00  0.00     0.031 A 
ATOM     49  C   UNL A   1      40.865  32.308  34.068  1.00  0.00     0.031 A 
ATOM     50  C   UNL A   1      42.577  27.453  30.041  1.00  0.00     0.049 A 
ATOM     51  C   UNL A   1      41.306  30.945  34.527  1.00  0.00     0.074 A 
ATOM     52  C   UNL A   1      43.707  28.235  30.199  1.00  0.00     0.029 A 
ATOM     53  N   UNL A   1      42.099  27.190  31.327  1.00  0.00    -0.354 N 
ATOM     54  N   UNL A   1      41.473  29.948  33.698  1.00  0.00    -0.248 NA
ATOM     55  C   UNL A   1      41.680  30.600  35.893  1.00  0.00     0.031 C 
ATOM     56  C   UNL A   1      43.826  28.540  31.590  1.00  0.00     0.029 A 
ATOM     57  C   UNL A   1      42.804  27.900  32.278  1.00  0.00     0.049 A 
ATOM     58  H   UNL A   1      41.356  26.577  31.528  1.00  0.00     0.167 HD
ATOM     59  C   UNL A   1      42.052  28.905  34.346  1.00  0.00     0.074 A 
ATOM     60  C   UNL A   1      42.115  29.335  35.733  1.00  0.00     0.031 C 
ATOM     61  C   UNL A   1      42.459  27.778  33.694  1.00  0.00     0.031 A 
BRANCH  48  62
ATOM     62  C   UNL A   1      42.129  26.413  27.667  1.00  0.00    -0.014 A 
ATOM     63  C   UNL A   1      42.846  25.211  27.798  1.00  0.00     0.009 A 
ATOM     64  C   UNL A   1      41.957  26.888  26.351  1.00  0.00     0.009 A 
ATOM     65  C   UNL A   1      43.341  24.518  26.683  1.00  0.00     0.001 A 
ATOM     66  C   UNL A   1      42.419  26.184  25.230  1.00  0.00     0.001 A 
ATOM     67  C   UNL A   1      43.117  24.999  25.398  1.00  0.00     0.000 A 
ENDBRANCH  48  62
BRANCH  49  68
ATOM     68  C   UNL A   1      39.648  33.088  34.454  1.00  0.00    -0.014 A 
ATOM     69  C   UNL A   1      38.436  32.363  34.542  1.00  0.00     0.009 A 
ATOM     70  C   UNL A   1      39.769  34.265  35.211  1.00  0.00     0.009 A 
ATOM     71  C   UNL A   1      37.458  32.703  35.486  1.00  0.00     0.001 A 
ATOM     72  C   UNL A   1      38.777  34.605  36.146  1.00  0.00     0.001 A 
ATOM     73  C   UNL A   1      37.652  33.800  36.319  1.00  0.00     0.000 A 
ENDBRANCH  49  68
BRANCH  61  74
ATOM     74  C   UNL A   1      42.615  26.446  34.370  1.00  0.00    -0.014 A 
ATOM     75  C   UNL A   1      41.599  25.844  35.125  1.00  0.00     0.009 A 
ATOM     76  C   UNL A   1      43.756  25.665  34.097  1.00  0.00     0.009 A 
ATOM     77  C   UNL A   1      41.745  24.553  35.639  1.00  0.00     0.001 A 
ATOM     78  C   UNL A   1      43.878  24.353  34.553  1.00  0.00     0.001 A 
ATOM     79  C   UNL A   1      42.879  23.804  35.344  1.00  0.00     0.000 A 
ENDBRANCH  61  74
ENDBRANCH  35  36
ENDBRANCH  28  30
ENDBRANCH  27  28
ENDBRANCH  26  27
ENDBRANCH  25  26
ENDBRANCH  24  25
ENDBRANCH   1  24
TORSDOF 19
ENDMDL
MODEL 3
REMARK VINA RESULT:     -10.5      3.947      8.877
REMARK SMILES Cc1ccccc1OCC(=O)N1C[C@H](O)C[C@H]1C(=O)OCCOCCOC(=O)c1ccc(-c2c3nc(c(-c4ccccc4)c4ccc([nH]4)c(-c4ccccc4)c4nc(c(-c5ccccc5)c5ccc2[nH]5)C=C4)C=C3)cc1
REMARK SMILES IDX 22 1 21 2 20 3 18 4 19 5 17 6 12 7 13 8 14 9 16 10 10 11
REMARK SMILES IDX 11 12 9 13 8 14 7 15 1 16 2 17 3 18 4 19 6 20 5 21 15 22
REMARK SMILES IDX 23 24 24 25 25 26 26 27 27 28 28 29 29 30 30 31 76 32 31 33
REMARK SMILES IDX 75 34 32 35 33 36 34 37 69 38 35 39 74 40 68 41 70 42 36 43
REMARK SMILES IDX 73 44 67 45 66 46 37 48 59 49 44 50 58 51 45 52 48 53 57 54
REMARK SMILES IDX 71 55 46 56 47 57 56 59 72 60 49 61 38 62 39 63 43 64 40 65
REMARK SMILES IDX 42 66 41 67 60 68 61 69 65 70 62 71 64 72 63 73 50 74 51 75
REMARK SMILES IDX 55 76 52 77 54 78 53 79
REMARK H PARENT 15 23 70 47 48 58
REMARK Flexibility Score: inf
ROOT
ATOM      1  C   UNL A   1      37.491  23.568  25.707  1.00  0.00     0.202 C 
ENDROOT
BRANCH   1   2
ATOM      2  C   UNL A   1      36.011  23.481  25.999  1.00  0.00     0.261 C 
BRANCH   2   3
ATOM      3  O   UNL A   1      35.196  23.899  24.891  1.00  0.00    -0.462 OA
BRANCH   3   4
ATOM      4  C   UNL A   1      34.098  24.681  25.109  1.00  0.00     0.329 C 
ATOM      5  O   UNL A   1      34.052  25.688  25.799  1.00  0.00    -0.250 OA
BRANCH   4   6
ATOM      6  C   UNL A   1      32.859  24.038  24.503  1.00  0.00     0.198 C 
ATOM      7  N   UNL A   1      31.926  23.513  25.516  1.00  0.00    -0.323 N 
ATOM      8  C   UNL A   1      30.649  24.192  25.464  1.00  0.00     0.152 C 
ATOM      9  C   UNL A   1      30.609  24.772  24.046  1.00  0.00     0.136 C 
ATOM     10  C   UNL A   1      32.066  25.089  23.720  1.00  0.00     0.070 C 
BRANCH   7  11
ATOM     11  C   UNL A   1      32.353  22.515  26.351  1.00  0.00     0.261 C 
ATOM     12  O   UNL A   1      32.497  22.754  27.550  1.00  0.00    -0.271 OA
BRANCH  11  13
ATOM     13  C   UNL A   1      32.859  21.164  25.848  1.00  0.00     0.329 C 
BRANCH  13  14
ATOM     14  O   UNL A   1      32.241  19.913  25.769  1.00  0.00    -0.484 OA
BRANCH  14  15
ATOM     15  C   UNL A   1      32.711  18.939  24.948  1.00  0.00     0.122 A 
ATOM     16  C   UNL A   1      32.150  19.990  22.654  1.00  0.00     0.048 C 
ATOM     17  C   UNL A   1      32.706  18.918  23.546  1.00  0.00    -0.009 A 
ATOM     18  C   UNL A   1      33.094  17.725  22.896  1.00  0.00     0.007 A 
ATOM     19  C   UNL A   1      33.407  16.570  23.613  1.00  0.00     0.001 A 
ATOM     20  C   UNL A   1      33.010  17.766  25.654  1.00  0.00     0.047 A 
ATOM     21  C   UNL A   1      33.347  16.587  24.998  1.00  0.00     0.004 A 
ENDBRANCH  14  15
ENDBRANCH  13  14
ENDBRANCH  11  13
ENDBRANCH   7  11
BRANCH   9  22
ATOM     22  O   UNL A   1      30.110  23.805  23.123  1.00  0.00    -0.391 OA
ATOM     23  H   UNL A   1      29.822  24.250  22.311  1.00  0.00     0.211 HD
ENDBRANCH   9  22
ENDBRANCH   4   6
ENDBRANCH   3   4
ENDBRANCH   2   3
ENDBRANCH   1   2
BRANCH   1  24
ATOM     24  O   UNL A   1      38.231  22.805  26.644  1.00  0.00    -0.374 OA
BRANCH  24  25
ATOM     25  C   UNL A   1      39.566  22.452  26.305  1.00  0.00     0.202 C 
BRANCH  25  26
ATOM     26  C   UNL A   1      39.775  20.984  25.917  1.00  0.00     0.261 C 
BRANCH  26  27
ATOM     27  O   UNL A   1      40.856  20.375  26.660  1.00  0.00    -0.460 OA
BRANCH  27  28
ATOM     28  C   UNL A   1      42.113  20.563  26.154  1.00  0.00     0.338 C 
ATOM     29  O   UNL A   1      42.639  19.851  25.327  1.00  0.00    -0.246 OA
BRANCH  28  30
ATOM     30  C   UNL A   1      42.832  21.608  26.955  1.00  0.00     0.060 A 
ATOM     31  C   UNL A   1      42.554  21.763  28.326  1.00  0.00     0.016 A 
ATOM     32  C   UNL A   1      43.424  22.645  26.251  1.00  0.00     0.016 A 
ATOM     33  C   UNL A   1      42.688  23.026  28.932  1.00  0.00     0.010 A 
ATOM     34  C   UNL A   1      43.337  23.908  26.791  1.00  0.00     0.010 A 
ATOM     35  C   UNL A   1      42.982  24.124  28.133  1.00  0.00    -0.014 A 
BRANCH  35  36
ATOM     36  C   UNL A   1      43.034  25.543  28.515  1.00  0.00     0.031 A 
ATOM     37  C   UNL A   1      41.851  26.357  28.120  1.00  0.00     0.074 A 
ATOM     38  C   UNL A   1      43.907  26.040  29.430  1.00  0.00     0.049 A 
ATOM     39  N   UNL A   1      41.717  27.607  28.381  1.00  0.00    -0.248 NA
ATOM     40  C   UNL A   1      40.696  25.831  27.377  1.00  0.00     0.031 C 
ATOM     41  C   UNL A   1      43.722  27.191  30.328  1.00  0.00     0.029 A 
ATOM     42  N   UNL A   1      45.193  25.613  29.776  1.00  0.00    -0.354 N 
ATOM     43  C   UNL A   1      40.394  27.926  28.216  1.00  0.00     0.074 A 
ATOM     44  C   UNL A   1      39.815  26.828  27.495  1.00  0.00     0.031 C 
ATOM     45  C   UNL A   1      44.904  27.553  30.858  1.00  0.00     0.029 A 
ATOM     46  C   UNL A   1      45.916  26.738  30.215  1.00  0.00     0.049 A 
ATOM     47  H   UNL A   1      45.533  24.690  29.722  1.00  0.00     0.167 HD
ATOM     48  C   UNL A   1      39.929  29.037  28.839  1.00  0.00     0.031 A 
ATOM     49  C   UNL A   1      47.001  27.179  29.518  1.00  0.00     0.031 A 
ATOM     50  C   UNL A   1      41.039  29.853  29.338  1.00  0.00     0.049 A 
ATOM     51  C   UNL A   1      46.701  28.541  28.951  1.00  0.00     0.074 A 
ATOM     52  C   UNL A   1      41.542  30.124  30.597  1.00  0.00     0.029 A 
ATOM     53  N   UNL A   1      42.029  30.235  28.430  1.00  0.00    -0.354 N 
ATOM     54  N   UNL A   1      45.480  28.971  28.773  1.00  0.00    -0.248 NA
ATOM     55  C   UNL A   1      47.700  29.553  28.629  1.00  0.00     0.031 C 
ATOM     56  C   UNL A   1      42.894  30.556  30.435  1.00  0.00     0.029 A 
ATOM     57  C   UNL A   1      43.191  30.599  29.080  1.00  0.00     0.049 A 
ATOM     58  H   UNL A   1      41.913  30.243  27.452  1.00  0.00     0.167 HD
ATOM     59  C   UNL A   1      45.501  30.286  28.435  1.00  0.00     0.074 A 
ATOM     60  C   UNL A   1      46.915  30.598  28.301  1.00  0.00     0.031 C 
ATOM     61  C   UNL A   1      44.362  31.025  28.314  1.00  0.00     0.031 A 
BRANCH  48  62
ATOM     62  C   UNL A   1      38.475  29.300  29.133  1.00  0.00    -0.014 A 
ATOM     63  C   UNL A   1      37.642  29.771  28.104  1.00  0.00     0.009 A 
ATOM     64  C   UNL A   1      37.885  29.209  30.410  1.00  0.00     0.009 A 
ATOM     65  C   UNL A   1      36.300  30.108  28.333  1.00  0.00     0.001 A 
ATOM     66  C   UNL A   1      36.537  29.513  30.640  1.00  0.00     0.001 A 
ATOM     67  C   UNL A   1      35.744  29.968  29.599  1.00  0.00     0.000 A 
ENDBRANCH  48  62
BRANCH  49  68
ATOM     68  C   UNL A   1      47.756  26.044  28.902  1.00  0.00    -0.014 A 
ATOM     69  C   UNL A   1      47.623  25.884  27.503  1.00  0.00     0.009 A 
ATOM     70  C   UNL A   1      48.918  25.549  29.515  1.00  0.00     0.009 A 
ATOM     71  C   UNL A   1      48.688  25.411  26.725  1.00  0.00     0.001 A 
ATOM     72  C   UNL A   1      49.977  25.064  28.729  1.00  0.00     0.001 A 
ATOM     73  C   UNL A   1      49.882  25.044  27.338  1.00  0.00     0.000 A 
ENDBRANCH  49  68
BRANCH  61  74
ATOM     74  C   UNL A   1      44.273  32.271  27.479  1.00  0.00    -0.014 A 
ATOM     75  C   UNL A   1      44.335  32.263  26.079  1.00  0.00     0.009 A 
ATOM     76  C   UNL A   1      43.928  33.490  28.097  1.00  0.00     0.009 A 
ATOM     77  C   UNL A   1      44.130  33.430  25.337  1.00  0.00     0.001 A 
ATOM     78  C   UNL A   1      43.659  34.641  27.357  1.00  0.00     0.001 A 
ATOM     79  C   UNL A   1      43.782  34.615  25.976  1.00  0.00     0.000 A 
ENDBRANCH  61  74
ENDBRANCH  35  36
ENDBRANCH  28  30
ENDBRANCH  27  28
ENDBRANCH  26  27
ENDBRANCH  25  26
ENDBRANCH  24  25
ENDBRANCH   1  24
TORSDOF 19
ENDMDL
