MODEL 1
REMARK VINA RESULT:      -9.6      0.000      0.000
REMARK SMILES CCCCCN(C)S(=O)(=O)c1cc(Cl)cc(C(=O)OCCOCCOC(=O)c2ccc(-c3c4nc(c(-c5ccccc5)c5ccc([nH]5)c(-c5ccccc5)c5nc(c(-c6ccccc6)c6ccc3[nH]6)C=C5)C=C4)cc2)c1F
REMARK SMILES IDX 20 1 19 2 17 3 18 4 16 5 11 6 12 7 76 8 13 9 77 10 14 11
REMARK SMILES IDX 15 12 8 13 9 14 10 15 6 16 7 17 5 18 4 19 3 20 2 21 1 22
REMARK SMILES IDX 21 23 22 24 23 25 24 26 25 27 26 28 27 29 28 30 29 31 75 32
REMARK SMILES IDX 30 33 74 34 31 35 32 36 33 37 68 38 34 39 73 40 67 41 69 42
REMARK SMILES IDX 35 43 72 44 66 45 65 46 36 48 58 49 43 50 57 51 44 52 47 53
REMARK SMILES IDX 56 54 70 55 45 56 46 57 55 59 71 60 48 61 37 62 38 63 42 64
REMARK SMILES IDX 39 65 41 66 40 67 59 68 60 69 64 70 61 71 63 72 62 73 49 74
REMARK SMILES IDX 50 75 54 76 51 77 53 78 52 79
REMARK H PARENT 69 47 47 58
REMARK Flexibility Score: inf
ROOT
ATOM      1  C   UNL A   1      34.067  31.234  27.646  1.00  0.00     0.261 C 
ENDROOT
BRANCH   1   2
ATOM      2  O   UNL A   1      33.316  30.658  26.562  1.00  0.00    -0.460 OA
BRANCH   2   3
ATOM      3  C   UNL A   1      33.258  29.308  26.539  1.00  0.00     0.341 C 
ATOM      4  O   UNL A   1      33.539  28.536  27.438  1.00  0.00    -0.246 OA
BRANCH   3   5
ATOM      5  C   UNL A   1      32.521  28.908  25.332  1.00  0.00     0.098 A 
ATOM      6  C   UNL A   1      32.278  27.648  23.306  1.00  0.00     0.120 A 
ATOM      7  C   UNL A   1      31.108  28.367  23.003  1.00  0.00     0.045 A 
ATOM      8  C   UNL A   1      32.987  27.913  24.471  1.00  0.00     0.157 A 
ATOM      9  C   UNL A   1      30.644  29.339  23.882  1.00  0.00     0.043 A 
ATOM     10  F   UNL A   1      34.095  27.229  24.783  1.00  0.00    -0.205 F 
ATOM     11  Cl  UNL A   1      29.204  30.201  23.520  1.00  0.00    -0.084 Cl
ATOM     12  C   UNL A   1      31.341  29.612  25.051  1.00  0.00     0.039 A 
BRANCH   6  13
ATOM     13  S   UNL A   1      32.700  26.343  22.202  1.00  0.00     0.245 S 
ATOM     14  O   UNL A   1      34.000  26.673  21.654  1.00  0.00    -0.207 OA
ATOM     15  O   UNL A   1      31.547  26.219  21.342  1.00  0.00    -0.207 OA
BRANCH  13  16
ATOM     16  N   UNL A   1      32.913  24.897  23.098  1.00  0.00    -0.201 NA
ATOM     17  C   UNL A   1      34.291  24.334  22.988  1.00  0.00     0.124 C 
BRANCH  16  18
ATOM     18  C   UNL A   1      31.910  23.823  22.763  1.00  0.00     0.102 C 
BRANCH  18  19
ATOM     19  C   UNL A   1      30.740  23.737  23.746  1.00  0.00     0.017 C 
BRANCH  19  20
ATOM     20  C   UNL A   1      31.024  23.259  25.177  1.00  0.00     0.001 C 
BRANCH  20  21
ATOM     21  C   UNL A   1      30.492  24.136  26.316  1.00  0.00    -0.003 C 
ATOM     22  C   UNL A   1      30.549  25.623  26.016  1.00  0.00     0.004 C 
ENDBRANCH  20  21
ENDBRANCH  19  20
ENDBRANCH  18  19
ENDBRANCH  16  18
ENDBRANCH  13  16
ENDBRANCH   6  13
ENDBRANCH   3   5
ENDBRANCH   2   3
ENDBRANCH   1   2
BRANCH   1  23
ATOM     23  C   UNL A   1      33.586  32.671  27.858  1.00  0.00     0.202 C 
BRANCH  23  24
ATOM     24  O   UNL A   1      34.515  33.451  28.620  1.00  0.00    -0.374 OA
BRANCH  24  25
ATOM     25  C   UNL A   1      33.944  34.263  29.648  1.00  0.00     0.202 C 
BRANCH  25  26
ATOM     26  C   UNL A   1      34.536  33.985  31.032  1.00  0.00     0.261 C 
BRANCH  26  27
ATOM     27  O   UNL A   1      34.664  32.566  31.236  1.00  0.00    -0.460 OA
BRANCH  27  28
ATOM     28  C   UNL A   1      35.603  32.197  32.139  1.00  0.00     0.338 C 
ATOM     29  O   UNL A   1      35.554  32.329  33.350  1.00  0.00    -0.246 OA
BRANCH  28  30
ATOM     30  C   UNL A   1      36.682  31.449  31.461  1.00  0.00     0.060 A 
ATOM     31  C   UNL A   1      37.662  30.861  32.269  1.00  0.00     0.016 A 
ATOM     32  C   UNL A   1      36.760  31.342  30.067  1.00  0.00     0.016 A 
ATOM     33  C   UNL A   1      38.746  30.205  31.689  1.00  0.00     0.010 A 
ATOM     34  C   UNL A   1      37.853  30.689  29.486  1.00  0.00     0.010 A 
ATOM     35  C   UNL A   1      38.864  30.145  30.295  1.00  0.00    -0.014 A 
BRANCH  35  36
ATOM     36  C   UNL A   1      40.123  29.643  29.698  1.00  0.00     0.031 A 
ATOM     37  C   UNL A   1      41.303  30.569  29.602  1.00  0.00     0.074 A 
ATOM     38  C   UNL A   1      40.232  28.368  29.288  1.00  0.00     0.049 A 
ATOM     39  N   UNL A   1      42.509  30.326  29.158  1.00  0.00    -0.248 NA
ATOM     40  C   UNL A   1      41.097  31.948  30.074  1.00  0.00     0.031 C 
ATOM     41  C   UNL A   1      39.173  27.361  29.355  1.00  0.00     0.029 A 
ATOM     42  N   UNL A   1      41.297  27.704  28.735  1.00  0.00    -0.354 N 
ATOM     43  C   UNL A   1      43.208  31.517  29.305  1.00  0.00     0.074 A 
ATOM     44  C   UNL A   1      42.286  32.489  29.852  1.00  0.00     0.031 C 
ATOM     45  C   UNL A   1      39.646  26.203  28.862  1.00  0.00     0.029 A 
ATOM     46  C   UNL A   1      41.029  26.393  28.432  1.00  0.00     0.049 A 
ATOM     47  H   UNL A   1      42.171  28.128  28.572  1.00  0.00     0.167 HD
ATOM     48  C   UNL A   1      44.506  31.780  29.020  1.00  0.00     0.031 A 
ATOM     49  C   UNL A   1      41.811  25.454  27.866  1.00  0.00     0.031 A 
ATOM     50  C   UNL A   1      45.426  30.830  28.462  1.00  0.00     0.049 A 
ATOM     51  C   UNL A   1      43.228  25.792  27.491  1.00  0.00     0.074 A 
ATOM     52  C   UNL A   1      46.764  31.005  28.150  1.00  0.00     0.029 A 
ATOM     53  N   UNL A   1      45.101  29.527  28.123  1.00  0.00    -0.354 N 
ATOM     54  N   UNL A   1      43.884  26.913  27.664  1.00  0.00    -0.248 NA
ATOM     55  C   UNL A   1      44.013  24.727  26.847  1.00  0.00     0.031 C 
ATOM     56  C   UNL A   1      47.239  29.814  27.587  1.00  0.00     0.029 A 
ATOM     57  C   UNL A   1      46.205  28.893  27.582  1.00  0.00     0.049 A 
ATOM     58  H   UNL A   1      44.216  29.115  28.249  1.00  0.00     0.167 HD
ATOM     59  C   UNL A   1      45.161  26.685  27.168  1.00  0.00     0.074 A 
ATOM     60  C   UNL A   1      45.192  25.316  26.695  1.00  0.00     0.031 C 
ATOM     61  C   UNL A   1      46.216  27.533  27.112  1.00  0.00     0.031 A 
BRANCH  48  62
ATOM     62  C   UNL A   1      44.993  33.171  29.292  1.00  0.00    -0.014 A 
ATOM     63  C   UNL A   1      45.566  33.505  30.528  1.00  0.00     0.009 A 
ATOM     64  C   UNL A   1      44.892  34.154  28.296  1.00  0.00     0.009 A 
ATOM     65  C   UNL A   1      46.008  34.807  30.771  1.00  0.00     0.001 A 
ATOM     66  C   UNL A   1      45.351  35.450  28.536  1.00  0.00     0.001 A 
ATOM     67  C   UNL A   1      45.902  35.777  29.775  1.00  0.00     0.000 A 
ENDBRANCH  48  62
BRANCH  49  68
ATOM     68  C   UNL A   1      41.271  24.098  27.605  1.00  0.00    -0.014 A 
ATOM     69  C   UNL A   1      41.731  22.993  28.336  1.00  0.00     0.009 A 
ATOM     70  C   UNL A   1      40.303  23.904  26.607  1.00  0.00     0.009 A 
ATOM     71  C   UNL A   1      41.244  21.714  28.059  1.00  0.00     0.001 A 
ATOM     72  C   UNL A   1      39.806  22.626  26.347  1.00  0.00     0.001 A 
ATOM     73  C   UNL A   1      40.280  21.532  27.067  1.00  0.00     0.000 A 
ENDBRANCH  49  68
BRANCH  61  74
ATOM     74  C   UNL A   1      47.495  26.999  26.538  1.00  0.00    -0.014 A 
ATOM     75  C   UNL A   1      48.429  26.339  27.350  1.00  0.00     0.009 A 
ATOM     76  C   UNL A   1      47.747  27.119  25.163  1.00  0.00     0.009 A 
ATOM     77  C   UNL A   1      49.606  25.828  26.797  1.00  0.00     0.001 A 
ATOM     78  C   UNL A   1      48.915  26.592  24.610  1.00  0.00     0.001 A 
ATOM     79  C   UNL A   1      49.845  25.953  25.428  1.00  0.00     0.000 A 
ENDBRANCH  61  74
ENDBRANCH  35  36
ENDBRANCH  28  30
ENDBRANCH  27  28
ENDBRANCH  26  27
ENDBRANCH  25  26
ENDBRANCH  24  25
ENDBRANCH  23  24
ENDBRANCH   1  23
TORSDOF 20
ENDMDL
MODEL 2
REMARK VINA RESULT:      -9.5      2.053      2.876
REMARK SMILES CCCCCN(C)S(=O)(=O)c1cc(Cl)cc(C(=O)OCCOCCOC(=O)c2ccc(-c3c4nc(c(-c5ccccc5)c5ccc([nH]5)c(-c5ccccc5)c5nc(c(-c6ccccc6)c6ccc3[nH]6)C=C5)C=C4)cc2)c1F
REMARK SMILES IDX 20 1 19 2 17 3 18 4 16 5 11 6 12 7 76 8 13 9 77 10 14 11
REMARK SMILES IDX 15 12 8 13 9 14 10 15 6 16 7 17 5 18 4 19 3 20 2 21 1 22
REMARK SMILES IDX 21 23 22 24 23 25 24 26 25 27 26 28 27 29 28 30 29 31 75 32
REMARK SMILES IDX 30 33 74 34 31 35 32 36 33 37 68 38 34 39 73 40 67 41 69 42
REMARK SMILES IDX 35 43 72 44 66 45 65 46 36 48 58 49 43 50 57 51 44 52 47 53
REMARK SMILES IDX 56 54 70 55 45 56 46 57 55 59 71 60 48 61 37 62 38 63 42 64
REMARK SMILES IDX 39 65 41 66 40 67 59 68 60 69 64 70 61 71 63 72 62 73 49 74
REMARK SMILES IDX 50 75 54 76 51 77 53 78 52 79
REMARK H PARENT 69 47 47 58
REMARK Flexibility Score: inf
ROOT
ATOM      1  C   UNL A   1      34.742  34.937  28.812  1.00  0.00     0.261 C 
ENDROOT
BRANCH   1   2
ATOM      2  O   UNL A   1      34.710  33.869  27.848  1.00  0.00    -0.460 OA
BRANCH   2   3
ATOM      3  C   UNL A   1      33.538  33.204  27.745  1.00  0.00     0.341 C 
ATOM      4  O   UNL A   1      32.424  33.677  27.611  1.00  0.00    -0.246 OA
BRANCH   3   5
ATOM      5  C   UNL A   1      33.843  31.782  27.531  1.00  0.00     0.098 A 
ATOM      6  C   UNL A   1      33.210  29.517  27.060  1.00  0.00     0.120 A 
ATOM      7  C   UNL A   1      34.527  29.098  27.319  1.00  0.00     0.045 A 
ATOM      8  C   UNL A   1      32.862  30.859  27.162  1.00  0.00     0.157 A 
ATOM      9  C   UNL A   1      35.497  30.033  27.663  1.00  0.00     0.043 A 
ATOM     10  F   UNL A   1      31.617  31.277  26.905  1.00  0.00    -0.205 F 
ATOM     11  Cl  UNL A   1      37.109  29.523  27.960  1.00  0.00    -0.084 Cl
ATOM     12  C   UNL A   1      35.164  31.377  27.766  1.00  0.00     0.039 A 
BRANCH   6  13
ATOM     13  S   UNL A   1      32.094  28.278  26.492  1.00  0.00     0.245 S 
ATOM     14  O   UNL A   1      31.352  28.866  25.394  1.00  0.00    -0.207 OA
ATOM     15  O   UNL A   1      31.417  27.837  27.688  1.00  0.00    -0.207 OA
BRANCH  13  16
ATOM     16  N   UNL A   1      32.991  26.981  25.820  1.00  0.00    -0.201 NA
ATOM     17  C   UNL A   1      33.449  27.241  24.424  1.00  0.00     0.124 C 
BRANCH  16  18
ATOM     18  C   UNL A   1      32.269  25.658  25.867  1.00  0.00     0.102 C 
BRANCH  18  19
ATOM     19  C   UNL A   1      33.200  24.443  25.906  1.00  0.00     0.017 C 
BRANCH  19  20
ATOM     20  C   UNL A   1      32.699  23.120  25.312  1.00  0.00     0.001 C 
BRANCH  20  21
ATOM     21  C   UNL A   1      33.766  22.107  24.884  1.00  0.00    -0.003 C 
ATOM     22  C   UNL A   1      34.963  22.739  24.195  1.00  0.00     0.004 C 
ENDBRANCH  20  21
ENDBRANCH  19  20
ENDBRANCH  18  19
ENDBRANCH  16  18
ENDBRANCH  13  16
ENDBRANCH   6  13
ENDBRANCH   3   5
ENDBRANCH   2   3
ENDBRANCH   1   2
BRANCH   1  23
ATOM     23  C   UNL A   1      33.937  34.505  30.039  1.00  0.00     0.202 C 
BRANCH  23  24
ATOM     24  O   UNL A   1      34.753  33.872  31.032  1.00  0.00    -0.374 OA
BRANCH  24  25
ATOM     25  C   UNL A   1      34.720  34.469  32.331  1.00  0.00     0.202 C 
BRANCH  25  26
ATOM     26  C   UNL A   1      34.476  33.456  33.451  1.00  0.00     0.261 C 
BRANCH  26  27
ATOM     27  O   UNL A   1      35.346  32.321  33.286  1.00  0.00    -0.460 OA
BRANCH  27  28
ATOM     28  C   UNL A   1      36.637  32.529  33.637  1.00  0.00     0.338 C 
ATOM     29  O   UNL A   1      37.048  33.087  34.640  1.00  0.00    -0.246 OA
BRANCH  28  30
ATOM     30  C   UNL A   1      37.531  31.840  32.684  1.00  0.00     0.060 A 
ATOM     31  C   UNL A   1      38.613  31.129  33.217  1.00  0.00     0.016 A 
ATOM     32  C   UNL A   1      37.344  31.902  31.298  1.00  0.00     0.016 A 
ATOM     33  C   UNL A   1      39.535  30.519  32.370  1.00  0.00     0.010 A 
ATOM     34  C   UNL A   1      38.274  31.294  30.448  1.00  0.00     0.010 A 
ATOM     35  C   UNL A   1      39.389  30.627  30.982  1.00  0.00    -0.014 A 
BRANCH  35  36
ATOM     36  C   UNL A   1      40.488  30.166  30.102  1.00  0.00     0.031 A 
ATOM     37  C   UNL A   1      41.617  31.109  29.791  1.00  0.00     0.074 A 
ATOM     38  C   UNL A   1      40.506  28.911  29.621  1.00  0.00     0.049 A 
ATOM     39  N   UNL A   1      42.697  30.900  29.084  1.00  0.00    -0.248 NA
ATOM     40  C   UNL A   1      41.515  32.464  30.358  1.00  0.00     0.031 C 
ATOM     41  C   UNL A   1      39.490  27.890  29.873  1.00  0.00     0.029 A 
ATOM     42  N   UNL A   1      41.426  28.285  28.819  1.00  0.00    -0.354 N 
ATOM     43  C   UNL A   1      43.408  32.092  29.127  1.00  0.00     0.074 A 
ATOM     44  C   UNL A   1      42.626  33.028  29.906  1.00  0.00     0.031 C 
ATOM     45  C   UNL A   1      39.846  26.760  29.236  1.00  0.00     0.029 A 
ATOM     46  C   UNL A   1      41.101  26.984  28.523  1.00  0.00     0.049 A 
ATOM     47  H   UNL A   1      42.243  28.725  28.488  1.00  0.00     0.167 HD
ATOM     48  C   UNL A   1      44.611  32.382  28.578  1.00  0.00     0.031 A 
ATOM     49  C   UNL A   1      41.742  26.081  27.758  1.00  0.00     0.031 A 
ATOM     50  C   UNL A   1      45.389  31.468  27.790  1.00  0.00     0.049 A 
ATOM     51  C   UNL A   1      43.042  26.451  27.099  1.00  0.00     0.074 A 
ATOM     52  C   UNL A   1      46.625  31.672  27.201  1.00  0.00     0.029 A 
ATOM     53  N   UNL A   1      45.000  30.177  27.472  1.00  0.00    -0.354 N 
ATOM     54  N   UNL A   1      43.717  27.571  27.173  1.00  0.00    -0.248 NA
ATOM     55  C   UNL A   1      43.669  25.424  26.251  1.00  0.00     0.031 C 
ATOM     56  C   UNL A   1      46.968  30.513  26.495  1.00  0.00     0.029 A 
ATOM     57  C   UNL A   1      45.960  29.580  26.675  1.00  0.00     0.049 A 
ATOM     58  H   UNL A   1      44.165  29.749  27.770  1.00  0.00     0.167 HD
ATOM     59  C   UNL A   1      44.855  27.380  26.401  1.00  0.00     0.074 A 
ATOM     60  C   UNL A   1      44.784  26.033  25.872  1.00  0.00     0.031 C 
ATOM     61  C   UNL A   1      45.871  28.242  26.154  1.00  0.00     0.031 A 
BRANCH  48  62
ATOM     62  C   UNL A   1      45.143  33.766  28.798  1.00  0.00    -0.014 A 
ATOM     63  C   UNL A   1      45.944  34.060  29.912  1.00  0.00     0.009 A 
ATOM     64  C   UNL A   1      44.853  34.781  27.875  1.00  0.00     0.009 A 
ATOM     65  C   UNL A   1      46.426  35.356  30.110  1.00  0.00     0.001 A 
ATOM     66  C   UNL A   1      45.351  36.071  28.067  1.00  0.00     0.001 A 
ATOM     67  C   UNL A   1      46.131  36.359  29.187  1.00  0.00     0.000 A 
ENDBRANCH  48  62
BRANCH  49  68
ATOM     68  C   UNL A   1      41.160  24.731  27.562  1.00  0.00    -0.014 A 
ATOM     69  C   UNL A   1      40.031  24.552  26.750  1.00  0.00     0.009 A 
ATOM     70  C   UNL A   1      41.725  23.618  28.203  1.00  0.00     0.009 A 
ATOM     71  C   UNL A   1      39.466  23.284  26.599  1.00  0.00     0.001 A 
ATOM     72  C   UNL A   1      41.169  22.349  28.034  1.00  0.00     0.001 A 
ATOM     73  C   UNL A   1      40.037  22.183  27.239  1.00  0.00     0.000 A 
ENDBRANCH  49  68
BRANCH  61  74
ATOM     74  C   UNL A   1      46.993  27.749  25.290  1.00  0.00    -0.014 A 
ATOM     75  C   UNL A   1      48.076  27.050  25.845  1.00  0.00     0.009 A 
ATOM     76  C   UNL A   1      46.946  27.947  23.901  1.00  0.00     0.009 A 
ATOM     77  C   UNL A   1      49.104  26.578  25.026  1.00  0.00     0.001 A 
ATOM     78  C   UNL A   1      47.965  27.458  23.083  1.00  0.00     0.001 A 
ATOM     79  C   UNL A   1      49.045  26.780  23.647  1.00  0.00     0.000 A 
ENDBRANCH  61  74
ENDBRANCH  35  36
ENDBRANCH  28  30
ENDBRANCH  27  28
ENDBRANCH  26  27
ENDBRANCH  25  26
ENDBRANCH  24  25
ENDBRANCH  23  24
ENDBRANCH   1  23
TORSDOF 20
ENDMDL
MODEL 3
REMARK VINA RESULT:      -9.4      3.655      5.049
REMARK SMILES CCCCCN(C)S(=O)(=O)c1cc(Cl)cc(C(=O)OCCOCCOC(=O)c2ccc(-c3c4nc(c(-c5ccccc5)c5ccc([nH]5)c(-c5ccccc5)c5nc(c(-c6ccccc6)c6ccc3[nH]6)C=C5)C=C4)cc2)c1F
REMARK SMILES IDX 20 1 19 2 17 3 18 4 16 5 11 6 12 7 76 8 13 9 77 10 14 11
REMARK SMILES IDX 15 12 8 13 9 14 10 15 6 16 7 17 5 18 4 19 3 20 2 21 1 22
REMARK SMILES IDX 21 23 22 24 23 25 24 26 25 27 26 28 27 29 28 30 29 31 75 32
REMARK SMILES IDX 30 33 74 34 31 35 32 36 33 37 68 38 34 39 73 40 67 41 69 42
REMARK SMILES IDX 35 43 72 44 66 45 65 46 36 48 58 49 43 50 57 51 44 52 47 53
REMARK SMILES IDX 56 54 70 55 45 56 46 57 55 59 71 60 48 61 37 62 38 63 42 64
REMARK SMILES IDX 39 65 41 66 40 67 59 68 60 69 64 70 61 71 63 72 62 73 49 74
REMARK SMILES IDX 50 75 54 76 51 77 53 78 52 79
REMARK H PARENT 69 47 47 58
REMARK Flexibility Score: inf
ROOT
ATOM      1  C   UNL A   1      32.759  28.847  25.875  1.00  0.00     0.261 C 
ENDROOT
BRANCH   1   2
ATOM      2  O   UNL A   1      31.582  28.158  25.415  1.00  0.00    -0.460 OA
BRANCH   2   3
ATOM      3  C   UNL A   1      31.501  26.849  25.741  1.00  0.00     0.341 C 
ATOM      4  O   UNL A   1      30.788  26.335  26.583  1.00  0.00    -0.246 OA
BRANCH   3   5
ATOM      5  C   UNL A   1      32.215  26.083  24.710  1.00  0.00     0.098 A 
ATOM      6  C   UNL A   1      33.971  24.623  23.977  1.00  0.00     0.120 A 
ATOM      7  C   UNL A   1      33.574  24.820  22.643  1.00  0.00     0.045 A 
ATOM      8  C   UNL A   1      33.294  25.250  25.016  1.00  0.00     0.157 A 
ATOM      9  C   UNL A   1      32.484  25.634  22.357  1.00  0.00     0.043 A 
ATOM     10  F   UNL A   1      33.649  25.063  26.293  1.00  0.00    -0.205 F 
ATOM     11  Cl  UNL A   1      31.987  25.857  20.729  1.00  0.00    -0.084 Cl
ATOM     12  C   UNL A   1      31.796  26.264  23.385  1.00  0.00     0.039 A 
BRANCH   6  13
ATOM     13  S   UNL A   1      35.270  23.463  24.242  1.00  0.00     0.245 S 
ATOM     14  O   UNL A   1      36.275  24.145  25.033  1.00  0.00    -0.207 OA
ATOM     15  O   UNL A   1      35.580  22.971  22.921  1.00  0.00    -0.207 OA
BRANCH  13  16
ATOM     16  N   UNL A   1      34.686  22.180  25.217  1.00  0.00    -0.201 NA
ATOM     17  C   UNL A   1      35.773  21.403  25.882  1.00  0.00     0.124 C 
BRANCH  16  18
ATOM     18  C   UNL A   1      33.773  21.230  24.485  1.00  0.00     0.102 C 
BRANCH  18  19
ATOM     19  C   UNL A   1      34.028  19.754  24.803  1.00  0.00     0.017 C 
BRANCH  19  20
ATOM     20  C   UNL A   1      32.895  18.749  24.554  1.00  0.00     0.001 C 
BRANCH  20  21
ATOM     21  C   UNL A   1      32.651  17.700  25.646  1.00  0.00    -0.003 C 
ATOM     22  C   UNL A   1      33.109  16.304  25.260  1.00  0.00     0.004 C 
ENDBRANCH  20  21
ENDBRANCH  19  20
ENDBRANCH  18  19
ENDBRANCH  16  18
ENDBRANCH  13  16
ENDBRANCH   6  13
ENDBRANCH   3   5
ENDBRANCH   2   3
ENDBRANCH   1   2
BRANCH   1  23
ATOM     23  C   UNL A   1      32.325  29.971  26.818  1.00  0.00     0.202 C 
BRANCH  23  24
ATOM     24  O   UNL A   1      31.460  30.917  26.178  1.00  0.00    -0.374 OA
BRANCH  24  25
ATOM     25  C   UNL A   1      31.494  32.243  26.709  1.00  0.00     0.202 C 
BRANCH  25  26
ATOM     26  C   UNL A   1      32.662  32.477  27.669  1.00  0.00     0.261 C 
BRANCH  26  27
ATOM     27  O   UNL A   1      33.080  33.854  27.609  1.00  0.00    -0.460 OA
BRANCH  27  28
ATOM     28  C   UNL A   1      33.307  34.438  28.809  1.00  0.00     0.338 C 
ATOM     29  O   UNL A   1      32.550  35.162  29.433  1.00  0.00    -0.246 OA
BRANCH  28  30
ATOM     30  C   UNL A   1      34.587  33.953  29.366  1.00  0.00     0.060 A 
ATOM     31  C   UNL A   1      35.750  34.230  28.638  1.00  0.00     0.016 A 
ATOM     32  C   UNL A   1      34.659  33.218  30.556  1.00  0.00     0.016 A 
ATOM     33  C   UNL A   1      36.980  33.737  29.069  1.00  0.00     0.010 A 
ATOM     34  C   UNL A   1      35.893  32.718  30.984  1.00  0.00     0.010 A 
ATOM     35  C   UNL A   1      37.052  32.950  30.225  1.00  0.00    -0.014 A 
BRANCH  35  36
ATOM     36  C   UNL A   1      38.319  32.255  30.547  1.00  0.00     0.031 A 
ATOM     37  C   UNL A   1      39.245  32.861  31.565  1.00  0.00     0.074 A 
ATOM     38  C   UNL A   1      38.625  31.077  29.976  1.00  0.00     0.049 A 
ATOM     39  N   UNL A   1      40.378  32.401  32.028  1.00  0.00    -0.248 NA
ATOM     40  C   UNL A   1      38.834  34.153  32.139  1.00  0.00     0.031 C 
ATOM     41  C   UNL A   1      37.799  30.368  28.999  1.00  0.00     0.029 A 
ATOM     42  N   UNL A   1      39.719  30.268  30.147  1.00  0.00    -0.354 N 
ATOM     43  C   UNL A   1      40.812  33.341  32.954  1.00  0.00     0.074 A 
ATOM     44  C   UNL A   1      39.836  34.409  32.967  1.00  0.00     0.031 C 
ATOM     45  C   UNL A   1      38.420  29.224  28.657  1.00  0.00     0.029 A 
ATOM     46  C   UNL A   1      39.687  29.131  29.378  1.00  0.00     0.049 A 
ATOM     47  H   UNL A   1      40.457  30.481  30.763  1.00  0.00     0.167 HD
ATOM     48  C   UNL A   1      41.919  33.315  33.733  1.00  0.00     0.031 A 
ATOM     49  C   UNL A   1      40.583  28.133  29.265  1.00  0.00     0.031 A 
ATOM     50  C   UNL A   1      42.903  32.270  33.717  1.00  0.00     0.049 A 
ATOM     51  C   UNL A   1      41.841  28.164  30.089  1.00  0.00     0.074 A 
ATOM     52  C   UNL A   1      44.052  32.155  34.481  1.00  0.00     0.029 A 
ATOM     53  N   UNL A   1      42.858  31.162  32.888  1.00  0.00    -0.354 N 
ATOM     54  N   UNL A   1      42.223  29.043  30.982  1.00  0.00    -0.248 NA
ATOM     55  C   UNL A   1      42.789  27.056  29.889  1.00  0.00     0.031 C 
ATOM     56  C   UNL A   1      44.724  30.991  34.086  1.00  0.00     0.029 A 
ATOM     57  C   UNL A   1      43.972  30.369  33.102  1.00  0.00     0.049 A 
ATOM     58  H   UNL A   1      42.141  30.968  32.243  1.00  0.00     0.167 HD
ATOM     59  C   UNL A   1      43.443  28.588  31.464  1.00  0.00     0.074 A 
ATOM     60  C   UNL A   1      43.735  27.350  30.771  1.00  0.00     0.031 C 
ATOM     61  C   UNL A   1      44.249  29.145  32.400  1.00  0.00     0.031 A 
BRANCH  48  62
ATOM     62  C   UNL A   1      42.128  34.478  34.655  1.00  0.00    -0.014 A 
ATOM     63  C   UNL A   1      41.606  34.468  35.957  1.00  0.00     0.009 A 
ATOM     64  C   UNL A   1      42.868  35.589  34.223  1.00  0.00     0.009 A 
ATOM     65  C   UNL A   1      41.801  35.562  36.803  1.00  0.00     0.001 A 
ATOM     66  C   UNL A   1      43.075  36.673  35.077  1.00  0.00     0.001 A 
ATOM     67  C   UNL A   1      42.536  36.662  36.363  1.00  0.00     0.000 A 
ENDBRANCH  48  62
BRANCH  49  68
ATOM     68  C   UNL A   1      40.332  27.015  28.324  1.00  0.00    -0.014 A 
ATOM     69  C   UNL A   1      40.824  27.063  27.011  1.00  0.00     0.009 A 
ATOM     70  C   UNL A   1      39.580  25.902  28.732  1.00  0.00     0.009 A 
ATOM     71  C   UNL A   1      40.552  26.023  26.119  1.00  0.00     0.001 A 
ATOM     72  C   UNL A   1      39.326  24.857  27.843  1.00  0.00     0.001 A 
ATOM     73  C   UNL A   1      39.806  24.920  26.537  1.00  0.00     0.000 A 
ENDBRANCH  49  68
BRANCH  61  74
ATOM     74  C   UNL A   1      45.512  28.411  32.741  1.00  0.00    -0.014 A 
ATOM     75  C   UNL A   1      46.713  28.693  32.072  1.00  0.00     0.009 A 
ATOM     76  C   UNL A   1      45.510  27.458  33.771  1.00  0.00     0.009 A 
ATOM     77  C   UNL A   1      47.885  28.017  32.415  1.00  0.00     0.001 A 
ATOM     78  C   UNL A   1      46.687  26.797  34.124  1.00  0.00     0.001 A 
ATOM     79  C   UNL A   1      47.871  27.072  33.442  1.00  0.00     0.000 A 
ENDBRANCH  61  74
ENDBRANCH  35  36
ENDBRANCH  28  30
ENDBRANCH  27  28
ENDBRANCH  26  27
ENDBRANCH  25  26
ENDBRANCH  24  25
ENDBRANCH  23  24
ENDBRANCH   1  23
TORSDOF 20
ENDMDL
