MODEL 1
REMARK VINA RESULT:      -9.8      0.000      0.000
REMARK SMILES COC(=O)c1ccccc1-c1ccc(/C=C(\C#N)C(=O)OCCOCCOC(=O)c2ccc(-c3c4nc(c(-c5ccccc5)c5ccc([nH]5)c(-c5ccccc5)c5nc(c(-c6ccccc6)c6ccc3[nH]6)C=C5)C=C4)cc2)o1
REMARK SMILES IDX 23 1 22 2 21 3 19 4 20 5 16 6 15 7 14 8 11 9 12 10 78 11
REMARK SMILES IDX 13 12 10 13 5 14 6 15 7 16 9 17 8 18 3 19 4 20 2 21 1 22
REMARK SMILES IDX 17 23 18 24 24 25 25 26 26 27 27 28 28 29 29 30 30 31 31 32
REMARK SMILES IDX 77 33 32 34 76 35 33 36 34 37 35 38 70 39 36 40 75 41 69 42
REMARK SMILES IDX 71 43 37 44 74 45 68 46 67 47 38 49 60 50 45 51 59 52 46 53
REMARK SMILES IDX 49 54 58 55 72 56 47 57 48 58 57 60 73 61 50 62 39 63 40 64
REMARK SMILES IDX 44 65 41 66 43 67 42 68 61 69 62 70 66 71 63 72 65 73 64 74
REMARK SMILES IDX 51 75 52 76 56 77 53 78 55 79 54 80
REMARK H PARENT 71 48 49 59
REMARK Flexibility Score: inf
ROOT
ATOM      1  C   UNL A   1      37.932  22.457  25.360  1.00  0.00     0.202 C 
ENDROOT
BRANCH   1   2
ATOM      2  C   UNL A   1      36.471  22.105  25.643  1.00  0.00     0.261 C 
BRANCH   2   3
ATOM      3  O   UNL A   1      35.773  21.755  24.435  1.00  0.00    -0.459 OA
BRANCH   3   4
ATOM      4  C   UNL A   1      35.808  22.717  23.485  1.00  0.00     0.349 C 
ATOM      5  O   UNL A   1      36.719  22.905  22.689  1.00  0.00    -0.245 OA
BRANCH   4   6
ATOM      6  C   UNL A   1      34.529  23.446  23.413  1.00  0.00     0.141 C 
ATOM      7  C   UNL A   1      34.547  24.633  24.059  1.00  0.00     0.074 C 
BRANCH   7   8
ATOM      8  C   UNL A   1      33.392  25.273  24.601  1.00  0.00     0.129 A 
ATOM      9  C   UNL A   1      31.578  26.564  24.706  1.00  0.00     0.135 A 
ATOM     10  C   UNL A   1      31.567  25.802  25.851  1.00  0.00     0.051 A 
ATOM     11  O   UNL A   1      32.668  26.250  23.961  1.00  0.00    -0.457 OA
ATOM     12  C   UNL A   1      32.725  24.986  25.789  1.00  0.00     0.051 A 
BRANCH   9  13
ATOM     13  C   UNL A   1      30.714  27.599  24.153  1.00  0.00     0.032 A 
ATOM     14  C   UNL A   1      30.938  28.971  24.368  1.00  0.00     0.071 A 
ATOM     15  C   UNL A   1      30.028  29.925  23.884  1.00  0.00     0.016 A 
ATOM     16  C   UNL A   1      28.907  29.524  23.160  1.00  0.00     0.001 A 
ATOM     17  C   UNL A   1      29.585  27.216  23.408  1.00  0.00     0.013 A 
ATOM     18  C   UNL A   1      28.689  28.170  22.917  1.00  0.00     0.001 A 
BRANCH  14  19
ATOM     19  C   UNL A   1      32.108  29.481  25.111  1.00  0.00     0.338 C 
ATOM     20  O   UNL A   1      33.222  29.604  24.614  1.00  0.00    -0.246 OA
BRANCH  19  21
ATOM     21  O   UNL A   1      31.769  29.729  26.396  1.00  0.00    -0.465 OA
ATOM     22  C   UNL A   1      32.280  30.956  26.914  1.00  0.00     0.282 C 
ENDBRANCH  19  21
ENDBRANCH  14  19
ENDBRANCH   9  13
ENDBRANCH   7   8
BRANCH   6  23
ATOM     23  C   UNL A   1      33.232  22.684  23.194  1.00  0.00     0.107 C 
ATOM     24  N   UNL A   1      32.156  22.051  23.013  1.00  0.00    -0.192 NA
ENDBRANCH   6  23
ENDBRANCH   4   6
ENDBRANCH   3   4
ENDBRANCH   2   3
ENDBRANCH   1   2
BRANCH   1  25
ATOM     25  O   UNL A   1      38.899  22.199  26.375  1.00  0.00    -0.374 OA
BRANCH  25  26
ATOM     26  C   UNL A   1      39.764  21.076  26.250  1.00  0.00     0.202 C 
BRANCH  26  27
ATOM     27  C   UNL A   1      41.276  21.263  26.447  1.00  0.00     0.261 C 
BRANCH  27  28
ATOM     28  O   UNL A   1      41.691  22.634  26.519  1.00  0.00    -0.460 OA
BRANCH  28  29
ATOM     29  C   UNL A   1      42.809  22.900  25.798  1.00  0.00     0.338 C 
ATOM     30  O   UNL A   1      43.295  22.215  24.910  1.00  0.00    -0.246 OA
BRANCH  29  31
ATOM     31  C   UNL A   1      43.314  24.252  26.093  1.00  0.00     0.060 A 
ATOM     32  C   UNL A   1      43.533  25.097  24.998  1.00  0.00     0.016 A 
ATOM     33  C   UNL A   1      43.679  24.644  27.382  1.00  0.00     0.016 A 
ATOM     34  C   UNL A   1      44.187  26.309  25.177  1.00  0.00     0.010 A 
ATOM     35  C   UNL A   1      44.348  25.861  27.559  1.00  0.00     0.010 A 
ATOM     36  C   UNL A   1      44.649  26.671  26.449  1.00  0.00    -0.014 A 
BRANCH  36  37
ATOM     37  C   UNL A   1      45.609  27.795  26.547  1.00  0.00     0.031 A 
ATOM     38  C   UNL A   1      47.080  27.507  26.402  1.00  0.00     0.074 A 
ATOM     39  C   UNL A   1      45.177  29.063  26.662  1.00  0.00     0.049 A 
ATOM     40  N   UNL A   1      48.085  28.343  26.333  1.00  0.00    -0.248 NA
ATOM     41  C   UNL A   1      47.468  26.089  26.312  1.00  0.00     0.031 C 
ATOM     42  C   UNL A   1      43.779  29.474  26.780  1.00  0.00     0.029 A 
ATOM     43  N   UNL A   1      45.880  30.240  26.680  1.00  0.00    -0.354 N 
ATOM     44  C   UNL A   1      49.219  27.554  26.190  1.00  0.00     0.074 A 
ATOM     45  C   UNL A   1      48.786  26.175  26.215  1.00  0.00     0.031 C 
ATOM     46  C   UNL A   1      43.726  30.816  26.853  1.00  0.00     0.029 A 
ATOM     47  C   UNL A   1      45.085  31.353  26.798  1.00  0.00     0.049 A 
ATOM     48  H   UNL A   1      46.861  30.283  26.616  1.00  0.00     0.167 HD
ATOM     49  C   UNL A   1      50.508  27.941  26.040  1.00  0.00     0.031 A 
ATOM     50  C   UNL A   1      45.417  32.656  26.852  1.00  0.00     0.031 A 
ATOM     51  C   UNL A   1      50.948  29.310  26.025  1.00  0.00     0.049 A 
ATOM     52  C   UNL A   1      46.863  33.059  26.731  1.00  0.00     0.074 A 
ATOM     53  C   UNL A   1      52.231  29.802  25.858  1.00  0.00     0.029 A 
ATOM     54  N   UNL A   1      50.115  30.405  26.189  1.00  0.00    -0.354 N 
ATOM     55  N   UNL A   1      47.919  32.304  26.547  1.00  0.00    -0.248 NA
ATOM     56  C   UNL A   1      47.156  34.496  26.807  1.00  0.00     0.031 C 
ATOM     57  C   UNL A   1      52.180  31.197  25.968  1.00  0.00     0.029 A 
ATOM     58  C   UNL A   1      50.859  31.571  26.153  1.00  0.00     0.049 A 
ATOM     59  H   UNL A   1      49.139  30.359  26.311  1.00  0.00     0.167 HD
ATOM     60  C   UNL A   1      48.997  33.176  26.463  1.00  0.00     0.074 A 
ATOM     61  C   UNL A   1      48.464  34.517  26.596  1.00  0.00     0.031 C 
ATOM     62  C   UNL A   1      50.312  32.895  26.293  1.00  0.00     0.031 A 
BRANCH  49  63
ATOM     63  C   UNL A   1      51.541  26.859  25.909  1.00  0.00    -0.014 A 
ATOM     64  C   UNL A   1      51.964  26.408  24.648  1.00  0.00     0.009 A 
ATOM     65  C   UNL A   1      52.121  26.307  27.061  1.00  0.00     0.009 A 
ATOM     66  C   UNL A   1      52.929  25.404  24.547  1.00  0.00     0.001 A 
ATOM     67  C   UNL A   1      53.102  25.319  26.955  1.00  0.00     0.001 A 
ATOM     68  C   UNL A   1      53.500  24.863  25.699  1.00  0.00     0.000 A 
ENDBRANCH  49  63
BRANCH  50  69
ATOM     69  C   UNL A   1      44.364  33.687  27.038  1.00  0.00    -0.014 A 
ATOM     70  C   UNL A   1      43.796  34.342  25.935  1.00  0.00     0.009 A 
ATOM     71  C   UNL A   1      43.945  34.041  28.330  1.00  0.00     0.009 A 
ATOM     72  C   UNL A   1      42.850  35.352  26.125  1.00  0.00     0.001 A 
ATOM     73  C   UNL A   1      42.981  35.034  28.514  1.00  0.00     0.001 A 
ATOM     74  C   UNL A   1      42.441  35.695  27.413  1.00  0.00     0.000 A 
ENDBRANCH  50  69
BRANCH  62  75
ATOM     75  C   UNL A   1      51.257  34.061  26.218  1.00  0.00    -0.014 A 
ATOM     76  C   UNL A   1      51.548  34.682  24.994  1.00  0.00     0.009 A 
ATOM     77  C   UNL A   1      51.842  34.560  27.392  1.00  0.00     0.009 A 
ATOM     78  C   UNL A   1      52.438  35.757  24.944  1.00  0.00     0.001 A 
ATOM     79  C   UNL A   1      52.710  35.651  27.342  1.00  0.00     0.001 A 
ATOM     80  C   UNL A   1      53.016  36.241  26.117  1.00  0.00     0.000 A 
ENDBRANCH  62  75
ENDBRANCH  36  37
ENDBRANCH  29  31
ENDBRANCH  28  29
ENDBRANCH  27  28
ENDBRANCH  26  27
ENDBRANCH  25  26
ENDBRANCH   1  25
TORSDOF 19
ENDMDL
MODEL 2
REMARK VINA RESULT:      -9.6      3.851      6.334
REMARK SMILES COC(=O)c1ccccc1-c1ccc(/C=C(\C#N)C(=O)OCCOCCOC(=O)c2ccc(-c3c4nc(c(-c5ccccc5)c5ccc([nH]5)c(-c5ccccc5)c5nc(c(-c6ccccc6)c6ccc3[nH]6)C=C5)C=C4)cc2)o1
REMARK SMILES IDX 23 1 22 2 21 3 19 4 20 5 16 6 15 7 14 8 11 9 12 10 78 11
REMARK SMILES IDX 13 12 10 13 5 14 6 15 7 16 9 17 8 18 3 19 4 20 2 21 1 22
REMARK SMILES IDX 17 23 18 24 24 25 25 26 26 27 27 28 28 29 29 30 30 31 31 32
REMARK SMILES IDX 77 33 32 34 76 35 33 36 34 37 35 38 70 39 36 40 75 41 69 42
REMARK SMILES IDX 71 43 37 44 74 45 68 46 67 47 38 49 60 50 45 51 59 52 46 53
REMARK SMILES IDX 49 54 58 55 72 56 47 57 48 58 57 60 73 61 50 62 39 63 40 64
REMARK SMILES IDX 44 65 41 66 43 67 42 68 61 69 62 70 66 71 63 72 65 73 64 74
REMARK SMILES IDX 51 75 52 76 56 77 53 78 55 79 54 80
REMARK H PARENT 71 48 49 59
REMARK Flexibility Score: inf
ROOT
ATOM      1  C   UNL A   1      33.526  23.135  25.616  1.00  0.00     0.202 C 
ENDROOT
BRANCH   1   2
ATOM      2  C   UNL A   1      32.906  23.993  24.513  1.00  0.00     0.261 C 
BRANCH   2   3
ATOM      3  O   UNL A   1      31.804  24.772  25.012  1.00  0.00    -0.459 OA
BRANCH   3   4
ATOM      4  C   UNL A   1      31.663  25.970  24.402  1.00  0.00     0.349 C 
ATOM      5  O   UNL A   1      30.758  26.284  23.639  1.00  0.00    -0.245 OA
BRANCH   4   6
ATOM      6  C   UNL A   1      32.665  26.938  24.882  1.00  0.00     0.141 C 
ATOM      7  C   UNL A   1      32.508  27.279  26.181  1.00  0.00     0.074 C 
BRANCH   7   8
ATOM      8  C   UNL A   1      32.943  28.514  26.748  1.00  0.00     0.129 A 
ATOM      9  C   UNL A   1      34.325  30.083  27.522  1.00  0.00     0.135 A 
ATOM     10  C   UNL A   1      33.090  30.680  27.425  1.00  0.00     0.051 A 
ATOM     11  O   UNL A   1      34.237  28.789  27.120  1.00  0.00    -0.457 OA
ATOM     12  C   UNL A   1      32.209  29.681  26.941  1.00  0.00     0.051 A 
BRANCH   9  13
ATOM     13  C   UNL A   1      35.645  30.519  27.956  1.00  0.00     0.032 A 
ATOM     14  C   UNL A   1      35.859  31.726  28.646  1.00  0.00     0.071 A 
ATOM     15  C   UNL A   1      37.161  32.141  28.968  1.00  0.00     0.016 A 
ATOM     16  C   UNL A   1      38.256  31.346  28.633  1.00  0.00     0.001 A 
ATOM     17  C   UNL A   1      36.762  29.725  27.640  1.00  0.00     0.013 A 
ATOM     18  C   UNL A   1      38.056  30.136  27.974  1.00  0.00     0.001 A 
BRANCH  14  19
ATOM     19  C   UNL A   1      34.754  32.618  29.052  1.00  0.00     0.338 C 
ATOM     20  O   UNL A   1      34.189  32.543  30.137  1.00  0.00    -0.246 OA
BRANCH  19  21
ATOM     21  O   UNL A   1      34.446  33.463  28.043  1.00  0.00    -0.465 OA
ATOM     22  C   UNL A   1      33.604  34.551  28.420  1.00  0.00     0.282 C 
ENDBRANCH  19  21
ENDBRANCH  14  19
ENDBRANCH   9  13
ENDBRANCH   7   8
BRANCH   6  23
ATOM     23  C   UNL A   1      33.354  27.870  23.898  1.00  0.00     0.107 C 
ATOM     24  N   UNL A   1      33.927  28.643  23.082  1.00  0.00    -0.192 NA
ENDBRANCH   6  23
ENDBRANCH   4   6
ENDBRANCH   3   4
ENDBRANCH   2   3
ENDBRANCH   1   2
BRANCH   1  25
ATOM     25  O   UNL A   1      33.925  21.804  25.296  1.00  0.00    -0.374 OA
BRANCH  25  26
ATOM     26  C   UNL A   1      35.156  21.584  24.618  1.00  0.00     0.202 C 
BRANCH  26  27
ATOM     27  C   UNL A   1      36.413  21.242  25.430  1.00  0.00     0.261 C 
BRANCH  27  28
ATOM     28  O   UNL A   1      37.535  22.094  25.161  1.00  0.00    -0.460 OA
BRANCH  28  29
ATOM     29  C   UNL A   1      38.681  21.687  25.760  1.00  0.00     0.338 C 
ATOM     30  O   UNL A   1      39.316  20.669  25.525  1.00  0.00    -0.246 OA
BRANCH  29  31
ATOM     31  C   UNL A   1      39.205  22.732  26.655  1.00  0.00     0.060 A 
ATOM     32  C   UNL A   1      38.632  24.004  26.544  1.00  0.00     0.016 A 
ATOM     33  C   UNL A   1      40.302  22.512  27.491  1.00  0.00     0.016 A 
ATOM     34  C   UNL A   1      39.201  25.082  27.212  1.00  0.00     0.010 A 
ATOM     35  C   UNL A   1      40.881  23.601  28.154  1.00  0.00     0.010 A 
ATOM     36  C   UNL A   1      40.362  24.897  27.974  1.00  0.00    -0.014 A 
BRANCH  36  37
ATOM     37  C   UNL A   1      41.114  26.100  28.400  1.00  0.00     0.031 A 
ATOM     38  C   UNL A   1      42.442  26.391  27.752  1.00  0.00     0.074 A 
ATOM     39  C   UNL A   1      40.582  26.972  29.273  1.00  0.00     0.049 A 
ATOM     40  N   UNL A   1      43.213  27.441  27.880  1.00  0.00    -0.248 NA
ATOM     41  C   UNL A   1      42.965  25.366  26.832  1.00  0.00     0.031 C 
ATOM     42  C   UNL A   1      39.292  26.819  29.945  1.00  0.00     0.029 A 
ATOM     43  N   UNL A   1      41.063  28.173  29.729  1.00  0.00    -0.354 N 
ATOM     44  C   UNL A   1      44.307  27.205  27.056  1.00  0.00     0.074 A 
ATOM     45  C   UNL A   1      44.118  25.901  26.460  1.00  0.00     0.031 C 
ATOM     46  C   UNL A   1      39.080  27.894  30.725  1.00  0.00     0.029 A 
ATOM     47  C   UNL A   1      40.222  28.799  30.615  1.00  0.00     0.049 A 
ATOM     48  H   UNL A   1      41.927  28.550  29.447  1.00  0.00     0.167 HD
ATOM     49  C   UNL A   1      45.370  28.006  26.809  1.00  0.00     0.031 A 
ATOM     50  C   UNL A   1      40.359  29.972  31.262  1.00  0.00     0.031 A 
ATOM     51  C   UNL A   1      45.570  29.298  27.405  1.00  0.00     0.049 A 
ATOM     52  C   UNL A   1      41.575  30.823  31.004  1.00  0.00     0.074 A 
ATOM     53  C   UNL A   1      46.606  30.193  27.201  1.00  0.00     0.029 A 
ATOM     54  N   UNL A   1      44.715  29.877  28.330  1.00  0.00    -0.354 N 
ATOM     55  N   UNL A   1      42.576  30.609  30.186  1.00  0.00    -0.248 NA
ATOM     56  C   UNL A   1      41.665  32.086  31.750  1.00  0.00     0.031 C 
ATOM     57  C   UNL A   1      46.402  31.295  28.039  1.00  0.00     0.029 A 
ATOM     58  C   UNL A   1      45.213  31.106  28.726  1.00  0.00     0.049 A 
ATOM     59  H   UNL A   1      43.878  29.474  28.655  1.00  0.00     0.167 HD
ATOM     60  C   UNL A   1      43.403  31.720  30.301  1.00  0.00     0.074 A 
ATOM     61  C   UNL A   1      42.775  32.613  31.254  1.00  0.00     0.031 C 
ATOM     62  C   UNL A   1      44.578  31.978  29.678  1.00  0.00     0.031 A 
BRANCH  49  63
ATOM     63  C   UNL A   1      46.418  27.487  25.866  1.00  0.00    -0.014 A 
ATOM     64  C   UNL A   1      47.335  26.504  26.269  1.00  0.00     0.009 A 
ATOM     65  C   UNL A   1      46.466  27.966  24.547  1.00  0.00     0.009 A 
ATOM     66  C   UNL A   1      48.299  26.032  25.376  1.00  0.00     0.001 A 
ATOM     67  C   UNL A   1      47.417  27.475  23.651  1.00  0.00     0.001 A 
ATOM     68  C   UNL A   1      48.337  26.514  24.068  1.00  0.00     0.000 A 
ENDBRANCH  49  63
BRANCH  50  69
ATOM     69  C   UNL A   1      39.321  30.417  32.226  1.00  0.00    -0.014 A 
ATOM     70  C   UNL A   1      38.283  31.270  31.823  1.00  0.00     0.009 A 
ATOM     71  C   UNL A   1      39.387  30.012  33.568  1.00  0.00     0.009 A 
ATOM     72  C   UNL A   1      37.348  31.731  32.752  1.00  0.00     0.001 A 
ATOM     73  C   UNL A   1      38.435  30.454  34.489  1.00  0.00     0.001 A 
ATOM     74  C   UNL A   1      37.422  31.321  34.083  1.00  0.00     0.000 A 
ENDBRANCH  50  69
BRANCH  62  75
ATOM     75  C   UNL A   1      45.245  33.288  29.989  1.00  0.00    -0.014 A 
ATOM     76  C   UNL A   1      44.986  34.435  29.224  1.00  0.00     0.009 A 
ATOM     77  C   UNL A   1      46.123  33.380  31.081  1.00  0.00     0.009 A 
ATOM     78  C   UNL A   1      45.625  35.641  29.523  1.00  0.00     0.001 A 
ATOM     79  C   UNL A   1      46.738  34.593  31.393  1.00  0.00     0.001 A 
ATOM     80  C   UNL A   1      46.497  35.719  30.607  1.00  0.00     0.000 A 
ENDBRANCH  62  75
ENDBRANCH  36  37
ENDBRANCH  29  31
ENDBRANCH  28  29
ENDBRANCH  27  28
ENDBRANCH  26  27
ENDBRANCH  25  26
ENDBRANCH   1  25
TORSDOF 19
ENDMDL
MODEL 3
REMARK VINA RESULT:      -9.5      3.767      7.689
REMARK SMILES COC(=O)c1ccccc1-c1ccc(/C=C(\C#N)C(=O)OCCOCCOC(=O)c2ccc(-c3c4nc(c(-c5ccccc5)c5ccc([nH]5)c(-c5ccccc5)c5nc(c(-c6ccccc6)c6ccc3[nH]6)C=C5)C=C4)cc2)o1
REMARK SMILES IDX 23 1 22 2 21 3 19 4 20 5 16 6 15 7 14 8 11 9 12 10 78 11
REMARK SMILES IDX 13 12 10 13 5 14 6 15 7 16 9 17 8 18 3 19 4 20 2 21 1 22
REMARK SMILES IDX 17 23 18 24 24 25 25 26 26 27 27 28 28 29 29 30 30 31 31 32
REMARK SMILES IDX 77 33 32 34 76 35 33 36 34 37 35 38 70 39 36 40 75 41 69 42
REMARK SMILES IDX 71 43 37 44 74 45 68 46 67 47 38 49 60 50 45 51 59 52 46 53
REMARK SMILES IDX 49 54 58 55 72 56 47 57 48 58 57 60 73 61 50 62 39 63 40 64
REMARK SMILES IDX 44 65 41 66 43 67 42 68 61 69 62 70 66 71 63 72 65 73 64 74
REMARK SMILES IDX 51 75 52 76 56 77 53 78 55 79 54 80
REMARK H PARENT 71 48 49 59
REMARK Flexibility Score: inf
ROOT
ATOM      1  C   UNL A   1      33.574  23.194  25.661  1.00  0.00     0.202 C 
ENDROOT
BRANCH   1   2
ATOM      2  C   UNL A   1      32.939  24.031  24.551  1.00  0.00     0.261 C 
BRANCH   2   3
ATOM      3  O   UNL A   1      31.838  24.812  25.048  1.00  0.00    -0.459 OA
BRANCH   3   4
ATOM      4  C   UNL A   1      31.710  26.018  24.449  1.00  0.00     0.349 C 
ATOM      5  O   UNL A   1      30.800  26.355  23.702  1.00  0.00    -0.245 OA
BRANCH   4   6
ATOM      6  C   UNL A   1      32.738  26.963  24.922  1.00  0.00     0.141 C 
ATOM      7  C   UNL A   1      32.564  27.352  26.205  1.00  0.00     0.074 C 
BRANCH   7   8
ATOM      8  C   UNL A   1      33.033  28.588  26.743  1.00  0.00     0.129 A 
ATOM      9  C   UNL A   1      34.451  30.111  27.543  1.00  0.00     0.135 A 
ATOM     10  C   UNL A   1      33.267  30.775  27.320  1.00  0.00     0.051 A 
ATOM     11  O   UNL A   1      34.310  28.805  27.200  1.00  0.00    -0.457 OA
ATOM     12  C   UNL A   1      32.363  29.806  26.818  1.00  0.00     0.051 A 
BRANCH   9  13
ATOM     13  C   UNL A   1      35.759  30.490  28.058  1.00  0.00     0.032 A 
ATOM     14  C   UNL A   1      35.987  31.699  28.741  1.00  0.00     0.071 A 
ATOM     15  C   UNL A   1      37.285  32.056  29.143  1.00  0.00     0.016 A 
ATOM     16  C   UNL A   1      38.358  31.202  28.894  1.00  0.00     0.001 A 
ATOM     17  C   UNL A   1      36.853  29.638  27.829  1.00  0.00     0.013 A 
ATOM     18  C   UNL A   1      38.141  29.991  28.242  1.00  0.00     0.001 A 
BRANCH  14  19
ATOM     19  C   UNL A   1      34.903  32.651  29.059  1.00  0.00     0.338 C 
ATOM     20  O   UNL A   1      34.201  32.565  30.060  1.00  0.00    -0.246 OA
BRANCH  19  21
ATOM     21  O   UNL A   1      34.787  33.566  28.071  1.00  0.00    -0.465 OA
ATOM     22  C   UNL A   1      33.987  34.698  28.407  1.00  0.00     0.282 C 
ENDBRANCH  19  21
ENDBRANCH  14  19
ENDBRANCH   9  13
ENDBRANCH   7   8
BRANCH   6  23
ATOM     23  C   UNL A   1      33.484  27.835  23.925  1.00  0.00     0.107 C 
ATOM     24  N   UNL A   1      34.104  28.559  23.099  1.00  0.00    -0.192 NA
ENDBRANCH   6  23
ENDBRANCH   4   6
ENDBRANCH   3   4
ENDBRANCH   2   3
ENDBRANCH   1   2
BRANCH   1  25
ATOM     25  O   UNL A   1      34.038  21.884  25.341  1.00  0.00    -0.374 OA
BRANCH  25  26
ATOM     26  C   UNL A   1      35.320  21.721  24.744  1.00  0.00     0.202 C 
BRANCH  26  27
ATOM     27  C   UNL A   1      36.534  21.426  25.637  1.00  0.00     0.261 C 
BRANCH  27  28
ATOM     28  O   UNL A   1      37.677  22.248  25.362  1.00  0.00    -0.460 OA
BRANCH  28  29
ATOM     29  C   UNL A   1      38.799  21.852  26.012  1.00  0.00     0.338 C 
ATOM     30  O   UNL A   1      39.342  20.758  25.947  1.00  0.00    -0.246 OA
BRANCH  29  31
ATOM     31  C   UNL A   1      39.427  22.984  26.712  1.00  0.00     0.060 A 
ATOM     32  C   UNL A   1      39.046  24.268  26.307  1.00  0.00     0.016 A 
ATOM     33  C   UNL A   1      40.446  22.804  27.651  1.00  0.00     0.016 A 
ATOM     34  C   UNL A   1      39.733  25.379  26.782  1.00  0.00     0.010 A 
ATOM     35  C   UNL A   1      41.145  23.923  28.119  1.00  0.00     0.010 A 
ATOM     36  C   UNL A   1      40.822  25.208  27.645  1.00  0.00    -0.014 A 
BRANCH  36  37
ATOM     37  C   UNL A   1      41.719  26.365  27.872  1.00  0.00     0.031 A 
ATOM     38  C   UNL A   1      41.387  27.333  28.977  1.00  0.00     0.074 A 
ATOM     39  C   UNL A   1      42.861  26.500  27.176  1.00  0.00     0.049 A 
ATOM     40  N   UNL A   1      42.087  28.342  29.431  1.00  0.00    -0.248 NA
ATOM     41  C   UNL A   1      40.102  27.130  29.667  1.00  0.00     0.031 C 
ATOM     42  C   UNL A   1      43.309  25.613  26.103  1.00  0.00     0.029 A 
ATOM     43  N   UNL A   1      43.861  27.432  27.286  1.00  0.00    -0.354 N 
ATOM     44  C   UNL A   1      41.329  28.890  30.459  1.00  0.00     0.074 A 
ATOM     45  C   UNL A   1      40.105  28.126  30.541  1.00  0.00     0.031 C 
ATOM     46  C   UNL A   1      44.502  26.042  25.656  1.00  0.00     0.029 A 
ATOM     47  C   UNL A   1      44.892  27.237  26.402  1.00  0.00     0.049 A 
ATOM     48  H   UNL A   1      43.840  28.171  27.936  1.00  0.00     0.167 HD
ATOM     49  C   UNL A   1      41.629  29.931  31.271  1.00  0.00     0.031 A 
ATOM     50  C   UNL A   1      46.025  27.941  26.219  1.00  0.00     0.031 A 
ATOM     51  C   UNL A   1      42.840  30.702  31.190  1.00  0.00     0.049 A 
ATOM     52  C   UNL A   1      46.313  29.124  27.105  1.00  0.00     0.074 A 
ATOM     53  C   UNL A   1      43.243  31.763  31.982  1.00  0.00     0.029 A 
ATOM     54  N   UNL A   1      43.840  30.497  30.253  1.00  0.00    -0.354 N 
ATOM     55  N   UNL A   1      45.611  29.600  28.105  1.00  0.00    -0.248 NA
ATOM     56  C   UNL A   1      47.562  29.853  26.846  1.00  0.00     0.031 C 
ATOM     57  C   UNL A   1      44.469  32.230  31.495  1.00  0.00     0.029 A 
ATOM     58  C   UNL A   1      44.849  31.428  30.431  1.00  0.00     0.049 A 
ATOM     59  H   UNL A   1      43.834  29.793  29.565  1.00  0.00     0.167 HD
ATOM     60  C   UNL A   1      46.343  30.669  28.606  1.00  0.00     0.074 A 
ATOM     61  C   UNL A   1      47.552  30.758  27.814  1.00  0.00     0.031 C 
ATOM     62  C   UNL A   1      46.042  31.504  29.630  1.00  0.00     0.031 A 
BRANCH  49  63
ATOM     63  C   UNL A   1      40.610  30.313  32.306  1.00  0.00    -0.014 A 
ATOM     64  C   UNL A   1      39.566  31.202  32.004  1.00  0.00     0.009 A 
ATOM     65  C   UNL A   1      40.678  29.750  33.590  1.00  0.00     0.009 A 
ATOM     66  C   UNL A   1      38.626  31.541  32.979  1.00  0.00     0.001 A 
ATOM     67  C   UNL A   1      39.722  30.075  34.555  1.00  0.00     0.001 A 
ATOM     68  C   UNL A   1      38.702  30.975  34.252  1.00  0.00     0.000 A 
ENDBRANCH  49  63
BRANCH  50  69
ATOM     69  C   UNL A   1      46.977  27.557  25.146  1.00  0.00    -0.014 A 
ATOM     70  C   UNL A   1      48.061  26.708  25.416  1.00  0.00     0.009 A 
ATOM     71  C   UNL A   1      46.819  28.067  23.849  1.00  0.00     0.009 A 
ATOM     72  C   UNL A   1      48.985  26.402  24.414  1.00  0.00     0.001 A 
ATOM     73  C   UNL A   1      47.731  27.739  22.843  1.00  0.00     0.001 A 
ATOM     74  C   UNL A   1      48.817  26.915  23.128  1.00  0.00     0.000 A 
ENDBRANCH  50  69
BRANCH  62  75
ATOM     75  C   UNL A   1      47.048  32.569  29.963  1.00  0.00    -0.014 A 
ATOM     76  C   UNL A   1      48.082  32.330  30.881  1.00  0.00     0.009 A 
ATOM     77  C   UNL A   1      46.976  33.819  29.328  1.00  0.00     0.009 A 
ATOM     78  C   UNL A   1      49.001  33.337  31.186  1.00  0.00     0.001 A 
ATOM     79  C   UNL A   1      47.911  34.813  29.614  1.00  0.00     0.001 A 
ATOM     80  C   UNL A   1      48.916  34.575  30.551  1.00  0.00     0.000 A 
ENDBRANCH  62  75
ENDBRANCH  36  37
ENDBRANCH  29  31
ENDBRANCH  28  29
ENDBRANCH  27  28
ENDBRANCH  26  27
ENDBRANCH  25  26
ENDBRANCH   1  25
TORSDOF 19
ENDMDL
