MODEL 1
REMARK VINA RESULT:     -11.0      0.000      0.000
REMARK SMILES O=C(NN1C(=O)/C(=C/c2ccc(C(=O)OCCOCCOC(=O)c3ccc(-c4c5nc(c(-c6ccccc6)c6ccc([nH]6)c(-c6ccccc6)c6nc(c(-c7ccccc7)c7ccc4[nH]7)C=C6)C=C5)cc3)cc2)SC1=S)c1ccc(Cl)cc1
REMARK SMILES IDX 17 1 16 2 15 3 13 4 14 5 12 6 9 7 10 8 73 9 11 10 72 11 8 12
REMARK SMILES IDX 4 13 5 14 75 15 6 16 7 17 74 18 76 19 3 20 1 21 2 22 77 24
REMARK SMILES IDX 78 25 83 26 79 27 82 28 80 29 81 30 18 31 19 32 20 33 21 34
REMARK SMILES IDX 22 35 23 36 24 37 25 38 71 39 26 40 70 41 27 42 28 43 29 44
REMARK SMILES IDX 64 45 30 46 69 47 63 48 65 49 31 50 68 51 62 52 61 53 32 55
REMARK SMILES IDX 54 56 39 57 53 58 40 59 43 60 52 61 66 62 41 63 42 64 51 66
REMARK SMILES IDX 67 67 44 68 33 69 34 70 38 71 35 72 37 73 36 74 55 75 56 76
REMARK SMILES IDX 60 77 57 78 59 79 58 80 45 81 46 82 50 83 47 84 49 85 48 86
REMARK H PARENT 3 23 65 54 43 65
REMARK Flexibility Score: inf
ROOT
ATOM      1  C   UNL A   1      43.896  21.071  25.511  1.00  0.00     0.202 C 
ENDROOT
BRANCH   1   2
ATOM      2  C   UNL A   1      42.612  20.505  26.123  1.00  0.00     0.261 C 
BRANCH   2   3
ATOM      3  O   UNL A   1      41.488  21.351  25.832  1.00  0.00    -0.460 OA
BRANCH   3   4
ATOM      4  C   UNL A   1      40.525  21.356  26.782  1.00  0.00     0.338 C 
ATOM      5  O   UNL A   1      40.657  21.047  27.957  1.00  0.00    -0.246 OA
BRANCH   4   6
ATOM      6  C   UNL A   1      39.259  21.907  26.243  1.00  0.00     0.060 A 
ATOM      7  C   UNL A   1      36.993  22.883  24.928  1.00  0.00    -0.024 A 
ATOM      8  C   UNL A   1      37.336  21.532  24.823  1.00  0.00     0.009 A 
ATOM      9  C   UNL A   1      37.710  23.711  25.803  1.00  0.00     0.009 A 
ATOM     10  C   UNL A   1      38.468  21.048  25.474  1.00  0.00     0.016 A 
ATOM     11  C   UNL A   1      38.853  23.230  26.451  1.00  0.00     0.016 A 
BRANCH   7  12
ATOM     12  C   UNL A   1      35.977  23.395  24.000  1.00  0.00     0.029 C 
ATOM     13  N   UNL A   1      32.510  24.412  24.075  1.00  0.00    -0.198 N 
ATOM     14  C   UNL A   1      33.751  24.346  23.457  1.00  0.00     0.285 C 
ATOM     15  C   UNL A   1      32.334  23.714  25.254  1.00  0.00     0.168 C 
ATOM     16  O   UNL A   1      34.048  24.803  22.362  1.00  0.00    -0.266 OA
ATOM     17  C   UNL A   1      34.698  23.613  24.342  1.00  0.00     0.082 C 
ATOM     18  S   UNL A   1      33.909  23.183  25.818  1.00  0.00    -0.052 SA
ATOM     19  S   UNL A   1      30.921  23.358  26.063  1.00  0.00    -0.050 S 
BRANCH  13  20
ATOM     20  N   UNL A   1      31.480  25.091  23.418  1.00  0.00    -0.255 N 
ATOM     21  O   UNL A   1      30.280  26.950  22.922  1.00  0.00    -0.267 OA
ATOM     22  C   UNL A   1      31.206  26.438  23.545  1.00  0.00     0.270 C 
ATOM     23  H   UNL A   1      30.905  24.566  22.815  1.00  0.00     0.192 HD
BRANCH  22  24
ATOM     24  C   UNL A   1      31.980  27.269  24.496  1.00  0.00     0.041 A 
ATOM     25  C   UNL A   1      33.151  27.935  24.118  1.00  0.00     0.015 A 
ATOM     26  C   UNL A   1      31.511  27.361  25.814  1.00  0.00     0.015 A 
ATOM     27  C   UNL A   1      33.886  28.638  25.078  1.00  0.00     0.021 A 
ATOM     28  C   UNL A   1      32.249  28.063  26.769  1.00  0.00     0.021 A 
ATOM     29  C   UNL A   1      33.438  28.688  26.399  1.00  0.00     0.041 A 
ATOM     30  Cl  UNL A   1      34.362  29.530  27.581  1.00  0.00    -0.084 Cl
ENDBRANCH  22  24
ENDBRANCH  13  20
ENDBRANCH   7  12
ENDBRANCH   4   6
ENDBRANCH   3   4
ENDBRANCH   2   3
ENDBRANCH   1   2
BRANCH   1  31
ATOM     31  O   UNL A   1      43.726  21.932  24.386  1.00  0.00    -0.374 OA
BRANCH  31  32
ATOM     32  C   UNL A   1      44.400  23.192  24.420  1.00  0.00     0.202 C 
BRANCH  32  33
ATOM     33  C   UNL A   1      44.292  23.980  25.730  1.00  0.00     0.261 C 
BRANCH  33  34
ATOM     34  O   UNL A   1      43.966  25.363  25.493  1.00  0.00    -0.460 OA
BRANCH  34  35
ATOM     35  C   UNL A   1      42.667  25.688  25.685  1.00  0.00     0.338 C 
ATOM     36  O   UNL A   1      41.709  25.369  24.995  1.00  0.00    -0.246 OA
BRANCH  35  37
ATOM     37  C   UNL A   1      42.515  26.362  26.987  1.00  0.00     0.060 A 
ATOM     38  C   UNL A   1      41.652  25.783  27.927  1.00  0.00     0.016 A 
ATOM     39  C   UNL A   1      43.164  27.567  27.265  1.00  0.00     0.016 A 
ATOM     40  C   UNL A   1      41.403  26.426  29.137  1.00  0.00     0.010 A 
ATOM     41  C   UNL A   1      42.904  28.216  28.475  1.00  0.00     0.010 A 
ATOM     42  C   UNL A   1      42.002  27.664  29.402  1.00  0.00    -0.014 A 
BRANCH  42  43
ATOM     43  C   UNL A   1      41.594  28.453  30.587  1.00  0.00     0.031 A 
ATOM     44  C   UNL A   1      40.430  29.395  30.470  1.00  0.00     0.074 A 
ATOM     45  C   UNL A   1      42.271  28.354  31.743  1.00  0.00     0.049 A 
ATOM     46  N   UNL A   1      39.972  30.259  31.339  1.00  0.00    -0.248 NA
ATOM     47  C   UNL A   1      39.692  29.368  29.197  1.00  0.00     0.031 C 
ATOM     48  C   UNL A   1      43.395  27.454  31.993  1.00  0.00     0.029 A 
ATOM     49  N   UNL A   1      42.122  29.044  32.920  1.00  0.00    -0.354 N 
ATOM     50  C   UNL A   1      38.907  30.892  30.713  1.00  0.00     0.074 A 
ATOM     51  C   UNL A   1      38.798  30.327  29.385  1.00  0.00     0.031 C 
ATOM     52  C   UNL A   1      43.853  27.665  33.238  1.00  0.00     0.029 A 
ATOM     53  C   UNL A   1      43.077  28.739  33.857  1.00  0.00     0.049 A 
ATOM     54  H   UNL A   1      41.399  29.694  33.078  1.00  0.00     0.167 HD
ATOM     55  C   UNL A   1      38.096  31.862  31.198  1.00  0.00     0.031 A 
ATOM     56  C   UNL A   1      43.321  29.288  35.063  1.00  0.00     0.031 A 
ATOM     57  C   UNL A   1      38.211  32.430  32.514  1.00  0.00     0.049 A 
ATOM     58  C   UNL A   1      42.443  30.403  35.561  1.00  0.00     0.074 A 
ATOM     59  C   UNL A   1      37.415  33.390  33.112  1.00  0.00     0.029 A 
ATOM     60  N   UNL A   1      39.195  32.097  33.431  1.00  0.00    -0.354 N 
ATOM     61  N   UNL A   1      41.417  30.970  34.974  1.00  0.00    -0.248 NA
ATOM     62  C   UNL A   1      42.754  30.948  36.890  1.00  0.00     0.031 C 
ATOM     63  C   UNL A   1      37.952  33.680  34.371  1.00  0.00     0.029 A 
ATOM     64  C   UNL A   1      39.047  32.856  34.580  1.00  0.00     0.049 A 
ATOM     65  H   UNL A   1      39.897  31.420  33.289  1.00  0.00     0.167 HD
ATOM     66  C   UNL A   1      40.943  31.920  35.873  1.00  0.00     0.074 A 
ATOM     67  C   UNL A   1      41.790  31.844  37.046  1.00  0.00     0.031 C 
ATOM     68  C   UNL A   1      39.899  32.772  35.738  1.00  0.00     0.031 A 
BRANCH  55  69
ATOM     69  C   UNL A   1      37.041  32.403  30.274  1.00  0.00    -0.014 A 
ATOM     70  C   UNL A   1      37.350  33.339  29.274  1.00  0.00     0.009 A 
ATOM     71  C   UNL A   1      35.717  31.954  30.398  1.00  0.00     0.009 A 
ATOM     72  C   UNL A   1      36.345  33.844  28.444  1.00  0.00     0.001 A 
ATOM     73  C   UNL A   1      34.721  32.438  29.549  1.00  0.00     0.001 A 
ATOM     74  C   UNL A   1      35.033  33.390  28.581  1.00  0.00     0.000 A 
ENDBRANCH  55  69
BRANCH  56  75
ATOM     75  C   UNL A   1      44.474  28.808  35.868  1.00  0.00    -0.014 A 
ATOM     76  C   UNL A   1      45.763  29.316  35.649  1.00  0.00     0.009 A 
ATOM     77  C   UNL A   1      44.284  27.844  36.870  1.00  0.00     0.009 A 
ATOM     78  C   UNL A   1      46.841  28.854  36.407  1.00  0.00     0.001 A 
ATOM     79  C   UNL A   1      45.359  27.404  37.644  1.00  0.00     0.001 A 
ATOM     80  C   UNL A   1      46.637  27.904  37.408  1.00  0.00     0.000 A 
ENDBRANCH  56  75
BRANCH  68  81
ATOM     81  C   UNL A   1      39.585  33.670  36.902  1.00  0.00    -0.014 A 
ATOM     82  C   UNL A   1      40.077  34.983  36.966  1.00  0.00     0.009 A 
ATOM     83  C   UNL A   1      38.736  33.212  37.922  1.00  0.00     0.009 A 
ATOM     84  C   UNL A   1      39.746  35.808  38.042  1.00  0.00     0.001 A 
ATOM     85  C   UNL A   1      38.386  34.048  38.982  1.00  0.00     0.001 A 
ATOM     86  C   UNL A   1      38.897  35.343  39.046  1.00  0.00     0.000 A 
ENDBRANCH  68  81
ENDBRANCH  42  43
ENDBRANCH  35  37
ENDBRANCH  34  35
ENDBRANCH  33  34
ENDBRANCH  32  33
ENDBRANCH  31  32
ENDBRANCH   1  31
TORSDOF 17
ENDMDL
MODEL 2
REMARK VINA RESULT:     -11.0      1.444      5.977
REMARK SMILES O=C(NN1C(=O)/C(=C/c2ccc(C(=O)OCCOCCOC(=O)c3ccc(-c4c5nc(c(-c6ccccc6)c6ccc([nH]6)c(-c6ccccc6)c6nc(c(-c7ccccc7)c7ccc4[nH]7)C=C6)C=C5)cc3)cc2)SC1=S)c1ccc(Cl)cc1
REMARK SMILES IDX 17 1 16 2 15 3 13 4 14 5 12 6 9 7 10 8 73 9 11 10 72 11 8 12
REMARK SMILES IDX 4 13 5 14 75 15 6 16 7 17 74 18 76 19 3 20 1 21 2 22 77 24
REMARK SMILES IDX 78 25 83 26 79 27 82 28 80 29 81 30 18 31 19 32 20 33 21 34
REMARK SMILES IDX 22 35 23 36 24 37 25 38 71 39 26 40 70 41 27 42 28 43 29 44
REMARK SMILES IDX 64 45 30 46 69 47 63 48 65 49 31 50 68 51 62 52 61 53 32 55
REMARK SMILES IDX 54 56 39 57 53 58 40 59 43 60 52 61 66 62 41 63 42 64 51 66
REMARK SMILES IDX 67 67 44 68 33 69 34 70 38 71 35 72 37 73 36 74 55 75 56 76
REMARK SMILES IDX 60 77 57 78 59 79 58 80 45 81 46 82 50 83 47 84 49 85 48 86
REMARK H PARENT 3 23 65 54 43 65
REMARK Flexibility Score: inf
ROOT
ATOM      1  C   UNL A   1      43.426  19.456  25.440  1.00  0.00     0.202 C 
ENDROOT
BRANCH   1   2
ATOM      2  C   UNL A   1      42.842  20.511  26.383  1.00  0.00     0.261 C 
BRANCH   2   3
ATOM      3  O   UNL A   1      41.407  20.456  26.389  1.00  0.00    -0.460 OA
BRANCH   3   4
ATOM      4  C   UNL A   1      40.808  21.446  27.090  1.00  0.00     0.338 C 
ATOM      5  O   UNL A   1      41.261  22.030  28.063  1.00  0.00    -0.246 OA
BRANCH   4   6
ATOM      6  C   UNL A   1      39.529  21.841  26.453  1.00  0.00     0.060 A 
ATOM      7  C   UNL A   1      37.252  22.492  24.966  1.00  0.00    -0.024 A 
ATOM      8  C   UNL A   1      37.682  21.164  25.043  1.00  0.00     0.009 A 
ATOM      9  C   UNL A   1      37.886  23.469  25.747  1.00  0.00     0.009 A 
ATOM     10  C   UNL A   1      38.819  20.841  25.779  1.00  0.00     0.016 A 
ATOM     11  C   UNL A   1      39.034  23.149  26.480  1.00  0.00     0.016 A 
BRANCH   7  12
ATOM     12  C   UNL A   1      36.238  22.816  23.954  1.00  0.00     0.029 C 
ATOM     13  N   UNL A   1      32.667  23.339  23.773  1.00  0.00    -0.198 N 
ATOM     14  C   UNL A   1      33.944  23.421  23.233  1.00  0.00     0.285 C 
ATOM     15  C   UNL A   1      32.512  22.676  24.975  1.00  0.00     0.168 C 
ATOM     16  O   UNL A   1      34.246  23.865  22.135  1.00  0.00    -0.266 OA
ATOM     17  C   UNL A   1      34.922  22.866  24.209  1.00  0.00     0.082 C 
ATOM     18  S   UNL A   1      34.105  22.396  25.657  1.00  0.00    -0.052 SA
ATOM     19  S   UNL A   1      31.111  22.162  25.717  1.00  0.00    -0.050 S 
BRANCH  13  20
ATOM     20  N   UNL A   1      31.599  23.837  23.022  1.00  0.00    -0.255 N 
ATOM     21  O   UNL A   1      30.039  25.405  22.520  1.00  0.00    -0.267 OA
ATOM     22  C   UNL A   1      30.970  25.047  23.237  1.00  0.00     0.270 C 
ATOM     23  H   UNL A   1      31.270  23.281  22.279  1.00  0.00     0.192 HD
BRANCH  22  24
ATOM     24  C   UNL A   1      31.360  25.895  24.387  1.00  0.00     0.041 A 
ATOM     25  C   UNL A   1      30.624  25.916  25.577  1.00  0.00     0.015 A 
ATOM     26  C   UNL A   1      32.496  26.704  24.247  1.00  0.00     0.015 A 
ATOM     27  C   UNL A   1      30.990  26.798  26.599  1.00  0.00     0.021 A 
ATOM     28  C   UNL A   1      32.858  27.583  25.270  1.00  0.00     0.021 A 
ATOM     29  C   UNL A   1      32.096  27.634  26.436  1.00  0.00     0.041 A 
ATOM     30  Cl  UNL A   1      32.524  28.737  27.685  1.00  0.00    -0.084 Cl
ENDBRANCH  22  24
ENDBRANCH  13  20
ENDBRANCH   7  12
ENDBRANCH   4   6
ENDBRANCH   3   4
ENDBRANCH   2   3
ENDBRANCH   1   2
BRANCH   1  31
ATOM     31  O   UNL A   1      44.249  19.949  24.383  1.00  0.00    -0.374 OA
BRANCH  31  32
ATOM     32  C   UNL A   1      44.946  21.174  24.615  1.00  0.00     0.202 C 
BRANCH  32  33
ATOM     33  C   UNL A   1      44.531  22.363  23.741  1.00  0.00     0.261 C 
BRANCH  33  34
ATOM     34  O   UNL A   1      43.854  23.376  24.508  1.00  0.00    -0.460 OA
BRANCH  34  35
ATOM     35  C   UNL A   1      44.636  24.397  24.927  1.00  0.00     0.338 C 
ATOM     36  O   UNL A   1      45.739  24.713  24.505  1.00  0.00    -0.246 OA
BRANCH  35  37
ATOM     37  C   UNL A   1      43.885  25.232  25.883  1.00  0.00     0.060 A 
ATOM     38  C   UNL A   1      44.209  26.594  25.958  1.00  0.00     0.016 A 
ATOM     39  C   UNL A   1      42.919  24.684  26.728  1.00  0.00     0.016 A 
ATOM     40  C   UNL A   1      43.595  27.408  26.906  1.00  0.00     0.010 A 
ATOM     41  C   UNL A   1      42.311  25.499  27.686  1.00  0.00     0.010 A 
ATOM     42  C   UNL A   1      42.667  26.856  27.798  1.00  0.00    -0.014 A 
BRANCH  42  43
ATOM     43  C   UNL A   1      42.157  27.656  28.936  1.00  0.00     0.031 A 
ATOM     44  C   UNL A   1      42.842  27.546  30.268  1.00  0.00     0.074 A 
ATOM     45  C   UNL A   1      41.080  28.446  28.791  1.00  0.00     0.049 A 
ATOM     46  N   UNL A   1      42.502  28.065  31.420  1.00  0.00    -0.248 NA
ATOM     47  C   UNL A   1      44.067  26.732  30.309  1.00  0.00     0.031 C 
ATOM     48  C   UNL A   1      40.349  28.662  27.544  1.00  0.00     0.029 A 
ATOM     49  N   UNL A   1      40.399  29.194  29.718  1.00  0.00    -0.354 N 
ATOM     50  C   UNL A   1      43.457  27.624  32.327  1.00  0.00     0.074 A 
ATOM     51  C   UNL A   1      44.379  26.781  31.595  1.00  0.00     0.031 C 
ATOM     52  C   UNL A   1      39.303  29.469  27.789  1.00  0.00     0.029 A 
ATOM     53  C   UNL A   1      39.272  29.794  29.213  1.00  0.00     0.049 A 
ATOM     54  H   UNL A   1      40.690  29.293  30.653  1.00  0.00     0.167 HD
ATOM     55  C   UNL A   1      43.555  27.892  33.650  1.00  0.00     0.031 A 
ATOM     56  C   UNL A   1      38.305  30.495  29.837  1.00  0.00     0.031 A 
ATOM     57  C   UNL A   1      42.631  28.722  34.378  1.00  0.00     0.049 A 
ATOM     58  C   UNL A   1      38.402  30.735  31.318  1.00  0.00     0.074 A 
ATOM     59  C   UNL A   1      42.666  29.084  35.712  1.00  0.00     0.029 A 
ATOM     60  N   UNL A   1      41.501  29.308  33.831  1.00  0.00    -0.354 N 
ATOM     61  N   UNL A   1      39.328  30.343  32.159  1.00  0.00    -0.248 NA
ATOM     62  C   UNL A   1      37.323  31.521  31.934  1.00  0.00     0.031 C 
ATOM     63  C   UNL A   1      41.522  29.843  35.987  1.00  0.00     0.029 A 
ATOM     64  C   UNL A   1      40.809  30.002  34.809  1.00  0.00     0.049 A 
ATOM     65  H   UNL A   1      41.228  29.240  32.887  1.00  0.00     0.167 HD
ATOM     66  C   UNL A   1      38.958  30.856  33.398  1.00  0.00     0.074 A 
ATOM     67  C   UNL A   1      37.728  31.593  33.194  1.00  0.00     0.031 C 
ATOM     68  C   UNL A   1      39.585  30.730  34.593  1.00  0.00     0.031 A 
BRANCH  55  69
ATOM     69  C   UNL A   1      44.677  27.237  34.405  1.00  0.00    -0.014 A 
ATOM     70  C   UNL A   1      44.527  25.969  34.989  1.00  0.00     0.009 A 
ATOM     71  C   UNL A   1      45.911  27.895  34.517  1.00  0.00     0.009 A 
ATOM     72  C   UNL A   1      45.580  25.393  35.706  1.00  0.00     0.001 A 
ATOM     73  C   UNL A   1      46.970  27.305  35.209  1.00  0.00     0.001 A 
ATOM     74  C   UNL A   1      46.800  26.060  35.812  1.00  0.00     0.000 A 
ENDBRANCH  55  69
BRANCH  56  75
ATOM     75  C   UNL A   1      37.141  30.992  29.059  1.00  0.00    -0.014 A 
ATOM     76  C   UNL A   1      36.964  32.363  28.828  1.00  0.00     0.009 A 
ATOM     77  C   UNL A   1      36.205  30.088  28.532  1.00  0.00     0.009 A 
ATOM     78  C   UNL A   1      35.863  32.821  28.101  1.00  0.00     0.001 A 
ATOM     79  C   UNL A   1      35.121  30.546  27.782  1.00  0.00     0.001 A 
ATOM     80  C   UNL A   1      34.947  31.912  27.573  1.00  0.00     0.000 A 
ENDBRANCH  56  75
BRANCH  68  81
ATOM     81  C   UNL A   1      38.974  31.434  35.772  1.00  0.00    -0.014 A 
ATOM     82  C   UNL A   1      39.197  32.800  36.003  1.00  0.00     0.009 A 
ATOM     83  C   UNL A   1      38.116  30.730  36.631  1.00  0.00     0.009 A 
ATOM     84  C   UNL A   1      38.593  33.439  37.089  1.00  0.00     0.001 A 
ATOM     85  C   UNL A   1      37.493  31.377  37.699  1.00  0.00     0.001 A 
ATOM     86  C   UNL A   1      37.739  32.729  37.931  1.00  0.00     0.000 A 
ENDBRANCH  68  81
ENDBRANCH  42  43
ENDBRANCH  35  37
ENDBRANCH  34  35
ENDBRANCH  33  34
ENDBRANCH  32  33
ENDBRANCH  31  32
ENDBRANCH   1  31
TORSDOF 17
ENDMDL
MODEL 3
REMARK VINA RESULT:     -10.6      3.587      5.049
REMARK SMILES O=C(NN1C(=O)/C(=C/c2ccc(C(=O)OCCOCCOC(=O)c3ccc(-c4c5nc(c(-c6ccccc6)c6ccc([nH]6)c(-c6ccccc6)c6nc(c(-c7ccccc7)c7ccc4[nH]7)C=C6)C=C5)cc3)cc2)SC1=S)c1ccc(Cl)cc1
REMARK SMILES IDX 17 1 16 2 15 3 13 4 14 5 12 6 9 7 10 8 73 9 11 10 72 11 8 12
REMARK SMILES IDX 4 13 5 14 75 15 6 16 7 17 74 18 76 19 3 20 1 21 2 22 77 24
REMARK SMILES IDX 78 25 83 26 79 27 82 28 80 29 81 30 18 31 19 32 20 33 21 34
REMARK SMILES IDX 22 35 23 36 24 37 25 38 71 39 26 40 70 41 27 42 28 43 29 44
REMARK SMILES IDX 64 45 30 46 69 47 63 48 65 49 31 50 68 51 62 52 61 53 32 55
REMARK SMILES IDX 54 56 39 57 53 58 40 59 43 60 52 61 66 62 41 63 42 64 51 66
REMARK SMILES IDX 67 67 44 68 33 69 34 70 38 71 35 72 37 73 36 74 55 75 56 76
REMARK SMILES IDX 60 77 57 78 59 79 58 80 45 81 46 82 50 83 47 84 49 85 48 86
REMARK H PARENT 3 23 65 54 43 65
REMARK Flexibility Score: inf
ROOT
ATOM      1  C   UNL A   1      42.429  18.368  26.324  1.00  0.00     0.202 C 
ENDROOT
BRANCH   1   2
ATOM      2  C   UNL A   1      41.990  19.587  27.139  1.00  0.00     0.261 C 
BRANCH   2   3
ATOM      3  O   UNL A   1      40.830  20.202  26.557  1.00  0.00    -0.460 OA
BRANCH   3   4
ATOM      4  C   UNL A   1      40.670  21.510  26.866  1.00  0.00     0.338 C 
ATOM      5  O   UNL A   1      41.485  22.235  27.416  1.00  0.00    -0.246 OA
BRANCH   4   6
ATOM      6  C   UNL A   1      39.381  22.019  26.342  1.00  0.00     0.060 A 
ATOM      7  C   UNL A   1      37.070  22.921  25.052  1.00  0.00    -0.024 A 
ATOM      8  C   UNL A   1      37.456  21.582  24.941  1.00  0.00     0.009 A 
ATOM      9  C   UNL A   1      37.768  23.771  25.921  1.00  0.00     0.009 A 
ATOM     10  C   UNL A   1      38.610  21.135  25.579  1.00  0.00     0.016 A 
ATOM     11  C   UNL A   1      38.933  23.327  26.556  1.00  0.00     0.016 A 
BRANCH   7  12
ATOM     12  C   UNL A   1      36.027  23.401  24.135  1.00  0.00     0.029 C 
ATOM     13  N   UNL A   1      32.547  24.366  24.263  1.00  0.00    -0.198 N 
ATOM     14  C   UNL A   1      33.777  24.308  23.621  1.00  0.00     0.285 C 
ATOM     15  C   UNL A   1      32.405  23.687  25.458  1.00  0.00     0.168 C 
ATOM     16  O   UNL A   1      34.044  24.748  22.512  1.00  0.00    -0.266 OA
ATOM     17  C   UNL A   1      34.752  23.605  24.500  1.00  0.00     0.082 C 
ATOM     18  S   UNL A   1      33.999  23.190  25.999  1.00  0.00    -0.052 SA
ATOM     19  S   UNL A   1      31.014  23.325  26.301  1.00  0.00    -0.050 S 
BRANCH  13  20
ATOM     20  N   UNL A   1      31.494  25.016  23.614  1.00  0.00    -0.255 N 
ATOM     21  O   UNL A   1      30.260  26.850  23.103  1.00  0.00    -0.267 OA
ATOM     22  C   UNL A   1      31.207  26.363  23.715  1.00  0.00     0.270 C 
ATOM     23  H   UNL A   1      30.910  24.471  23.039  1.00  0.00     0.192 HD
BRANCH  22  24
ATOM     24  C   UNL A   1      31.994  27.226  24.627  1.00  0.00     0.041 A 
ATOM     25  C   UNL A   1      33.132  27.917  24.196  1.00  0.00     0.015 A 
ATOM     26  C   UNL A   1      31.573  27.323  25.960  1.00  0.00     0.015 A 
ATOM     27  C   UNL A   1      33.884  28.651  25.119  1.00  0.00     0.021 A 
ATOM     28  C   UNL A   1      32.326  28.057  26.878  1.00  0.00     0.021 A 
ATOM     29  C   UNL A   1      33.484  28.707  26.456  1.00  0.00     0.041 A 
ATOM     30  Cl  UNL A   1      34.430  29.587  27.592  1.00  0.00    -0.084 Cl
ENDBRANCH  22  24
ENDBRANCH  13  20
ENDBRANCH   7  12
ENDBRANCH   4   6
ENDBRANCH   3   4
ENDBRANCH   2   3
ENDBRANCH   1   2
BRANCH   1  31
ATOM     31  O   UNL A   1      43.576  18.550  25.495  1.00  0.00    -0.374 OA
BRANCH  31  32
ATOM     32  C   UNL A   1      44.020  19.891  25.279  1.00  0.00     0.202 C 
BRANCH  32  33
ATOM     33  C   UNL A   1      45.110  20.079  24.217  1.00  0.00     0.261 C 
BRANCH  33  34
ATOM     34  O   UNL A   1      45.672  21.404  24.261  1.00  0.00    -0.460 OA
BRANCH  34  35
ATOM     35  C   UNL A   1      44.869  22.385  23.790  1.00  0.00     0.338 C 
ATOM     36  O   UNL A   1      44.166  22.357  22.790  1.00  0.00    -0.246 OA
BRANCH  35  37
ATOM     37  C   UNL A   1      44.806  23.484  24.771  1.00  0.00     0.060 A 
ATOM     38  C   UNL A   1      46.008  23.916  25.349  1.00  0.00     0.016 A 
ATOM     39  C   UNL A   1      43.588  24.046  25.159  1.00  0.00     0.016 A 
ATOM     40  C   UNL A   1      45.994  24.887  26.347  1.00  0.00     0.010 A 
ATOM     41  C   UNL A   1      43.576  25.012  26.168  1.00  0.00     0.010 A 
ATOM     42  C   UNL A   1      44.774  25.415  26.786  1.00  0.00    -0.014 A 
BRANCH  42  43
ATOM     43  C   UNL A   1      44.725  26.294  27.977  1.00  0.00     0.031 A 
ATOM     44  C   UNL A   1      44.810  27.782  27.789  1.00  0.00     0.074 A 
ATOM     45  C   UNL A   1      44.638  25.772  29.212  1.00  0.00     0.049 A 
ATOM     46  N   UNL A   1      44.896  28.727  28.689  1.00  0.00    -0.248 NA
ATOM     47  C   UNL A   1      44.808  28.266  26.400  1.00  0.00     0.031 C 
ATOM     48  C   UNL A   1      44.516  24.349  29.523  1.00  0.00     0.029 A 
ATOM     49  N   UNL A   1      44.664  26.387  30.439  1.00  0.00    -0.354 N 
ATOM     50  C   UNL A   1      44.982  29.916  27.976  1.00  0.00     0.074 A 
ATOM     51  C   UNL A   1      44.954  29.571  26.571  1.00  0.00     0.031 C 
ATOM     52  C   UNL A   1      44.506  24.196  30.858  1.00  0.00     0.029 A 
ATOM     53  C   UNL A   1      44.656  25.505  31.491  1.00  0.00     0.049 A 
ATOM     54  H   UNL A   1      44.686  27.364  30.553  1.00  0.00     0.167 HD
ATOM     55  C   UNL A   1      45.080  31.181  28.449  1.00  0.00     0.031 A 
ATOM     56  C   UNL A   1      44.791  25.727  32.813  1.00  0.00     0.031 A 
ATOM     57  C   UNL A   1      45.118  31.521  29.847  1.00  0.00     0.049 A 
ATOM     58  C   UNL A   1      44.955  27.135  33.316  1.00  0.00     0.074 A 
ATOM     59  C   UNL A   1      45.178  32.775  30.427  1.00  0.00     0.029 A 
ATOM     60  N   UNL A   1      45.111  30.599  30.881  1.00  0.00    -0.354 N 
ATOM     61  N   UNL A   1      44.999  28.254  32.635  1.00  0.00    -0.248 NA
ATOM     62  C   UNL A   1      45.082  27.308  34.770  1.00  0.00     0.031 C 
ATOM     63  C   UNL A   1      45.267  32.610  31.814  1.00  0.00     0.029 A 
ATOM     64  C   UNL A   1      45.200  31.255  32.098  1.00  0.00     0.049 A 
ATOM     65  H   UNL A   1      45.052  29.622  30.770  1.00  0.00     0.167 HD
ATOM     66  C   UNL A   1      45.131  29.267  33.578  1.00  0.00     0.074 A 
ATOM     67  C   UNL A   1      45.152  28.628  34.878  1.00  0.00     0.031 C 
ATOM     68  C   UNL A   1      45.222  30.605  33.384  1.00  0.00     0.031 A 
BRANCH  55  69
ATOM     69  C   UNL A   1      45.204  32.287  27.439  1.00  0.00    -0.014 A 
ATOM     70  C   UNL A   1      46.455  32.801  27.063  1.00  0.00     0.009 A 
ATOM     71  C   UNL A   1      44.047  32.810  26.842  1.00  0.00     0.009 A 
ATOM     72  C   UNL A   1      46.539  33.846  26.139  1.00  0.00     0.001 A 
ATOM     73  C   UNL A   1      44.136  33.833  25.897  1.00  0.00     0.001 A 
ATOM     74  C   UNL A   1      45.381  34.359  25.555  1.00  0.00     0.000 A 
ENDBRANCH  55  69
BRANCH  56  75
ATOM     75  C   UNL A   1      44.809  24.576  33.751  1.00  0.00    -0.014 A 
ATOM     76  C   UNL A   1      46.020  24.074  34.249  1.00  0.00     0.009 A 
ATOM     77  C   UNL A   1      43.606  23.979  34.163  1.00  0.00     0.009 A 
ATOM     78  C   UNL A   1      46.028  22.987  35.126  1.00  0.00     0.001 A 
ATOM     79  C   UNL A   1      43.615  22.911  35.061  1.00  0.00     0.001 A 
ATOM     80  C   UNL A   1      44.826  22.411  35.537  1.00  0.00     0.000 A 
ENDBRANCH  56  75
BRANCH  68  81
ATOM     81  C   UNL A   1      45.316  31.477  34.604  1.00  0.00    -0.014 A 
ATOM     82  C   UNL A   1      46.555  31.907  35.102  1.00  0.00     0.009 A 
ATOM     83  C   UNL A   1      44.140  31.920  35.231  1.00  0.00     0.009 A 
ATOM     84  C   UNL A   1      46.615  32.742  36.220  1.00  0.00     0.001 A 
ATOM     85  C   UNL A   1      44.203  32.776  36.331  1.00  0.00     0.001 A 
ATOM     86  C   UNL A   1      45.440  33.179  36.830  1.00  0.00     0.000 A 
ENDBRANCH  68  81
ENDBRANCH  42  43
ENDBRANCH  35  37
ENDBRANCH  34  35
ENDBRANCH  33  34
ENDBRANCH  32  33
ENDBRANCH  31  32
ENDBRANCH   1  31
TORSDOF 17
ENDMDL
