MODEL 1
REMARK VINA RESULT:      -9.9      0.000      0.000
REMARK SMILES O=C(OCCOCCOC(=O)c1ccc(-c2c3nc(c(-c4ccccc4)c4ccc([nH]4)c(-c4ccccc4)c4nc(c(-c5ccccc5)c5ccc2[nH]5)C=C4)C=C3)cc1)C1=Cc2cc(Cl)ccc2O[C@@H]1C(F)(F)F
REMARK SMILES IDX 7 1 6 2 5 3 4 4 3 5 2 6 1 7 60 8 61 9 70 10 62 11 69 12
REMARK SMILES IDX 63 13 68 14 64 15 67 16 65 17 66 18 71 19 72 20 73 21 74 22
REMARK SMILES IDX 8 23 9 24 10 25 11 26 12 27 13 28 59 29 14 30 58 31 15 32
REMARK SMILES IDX 16 33 17 34 52 35 18 36 57 37 51 38 53 39 19 40 56 41 50 42
REMARK SMILES IDX 49 43 20 45 42 46 27 47 41 48 28 49 31 50 40 51 54 52 29 53
REMARK SMILES IDX 30 54 39 56 55 57 32 58 21 59 22 60 26 61 23 62 25 63 24 64
REMARK SMILES IDX 43 65 44 66 48 67 45 68 47 69 46 70 33 71 34 72 38 73 35 74
REMARK SMILES IDX 37 75 36 76
REMARK H PARENT 53 44 31 55
REMARK Flexibility Score: inf
ROOT
ATOM      1  C   UNL A   1      33.048  36.955  30.774  1.00  0.00     0.202 C 
ENDROOT
BRANCH   1   2
ATOM      2  O   UNL A   1      33.261  36.174  31.966  1.00  0.00    -0.374 OA
BRANCH   2   3
ATOM      3  C   UNL A   1      34.439  36.164  33.081  1.00  0.00     0.202 C 
BRANCH   3   4
ATOM      4  C   UNL A   1      35.357  34.507  34.166  1.00  0.00     0.261 C 
BRANCH   4   5
ATOM      5  O   UNL A   1      36.716  33.865  33.866  1.00  0.00    -0.460 OA
BRANCH   5   6
ATOM      6  C   UNL A   1      37.693  34.339  34.643  1.00  0.00     0.338 C 
ATOM      7  O   UNL A   1      38.434  35.270  34.457  1.00  0.00    -0.246 OA
BRANCH   6   8
ATOM      8  C   UNL A   1      37.790  33.173  35.496  1.00  0.00     0.087 C 
ATOM      9  C   UNL A   1      37.366  31.937  34.795  1.00  0.00     0.027 C 
ATOM     10  C   UNL A   1      39.593  33.531  36.105  1.00  0.00     0.316 C 
ATOM     11  C   UNL A   1      38.521  30.682  34.185  1.00  0.00     0.019 A 
ATOM     12  O   UNL A   1      40.853  32.240  35.412  1.00  0.00    -0.475 OA
ATOM     13  C   UNL A   1      38.062  29.671  33.384  1.00  0.00     0.032 A 
ATOM     14  C   UNL A   1      40.236  30.846  34.405  1.00  0.00     0.128 A 
ATOM     15  C   UNL A   1      39.067  28.898  32.775  1.00  0.00     0.041 A 
ATOM     16  C   UNL A   1      41.133  30.120  33.683  1.00  0.00     0.048 A 
ATOM     17  Cl  UNL A   1      38.542  27.584  31.769  1.00  0.00    -0.084 Cl
ATOM     18  C   UNL A   1      40.503  29.128  32.886  1.00  0.00     0.024 A 
BRANCH  10  19
ATOM     19  C   UNL A   1      39.228  33.949  37.599  1.00  0.00     0.430 C 
ATOM     20  F   UNL A   1      38.317  33.174  38.214  1.00  0.00    -0.167 F 
ATOM     21  F   UNL A   1      40.365  33.805  38.345  1.00  0.00    -0.167 F 
ATOM     22  F   UNL A   1      38.876  35.243  37.762  1.00  0.00    -0.167 F 
ENDBRANCH  10  19
ENDBRANCH   6   8
ENDBRANCH   5   6
ENDBRANCH   4   5
ENDBRANCH   3   4
ENDBRANCH   2   3
ENDBRANCH   1   2
BRANCH   1  23
ATOM     23  C   UNL A   1      32.966  36.176  29.467  1.00  0.00     0.261 C 
BRANCH  23  24
ATOM     24  O   UNL A   1      32.710  34.795  29.675  1.00  0.00    -0.460 OA
BRANCH  24  25
ATOM     25  C   UNL A   1      33.154  34.006  28.672  1.00  0.00     0.338 C 
ATOM     26  O   UNL A   1      32.583  33.712  27.637  1.00  0.00    -0.246 OA
BRANCH  25  27
ATOM     27  C   UNL A   1      34.495  33.525  29.035  1.00  0.00     0.060 A 
ATOM     28  C   UNL A   1      35.522  33.705  28.104  1.00  0.00     0.016 A 
ATOM     29  C   UNL A   1      34.748  32.941  30.284  1.00  0.00     0.016 A 
ATOM     30  C   UNL A   1      36.818  33.338  28.436  1.00  0.00     0.010 A 
ATOM     31  C   UNL A   1      36.039  32.548  30.607  1.00  0.00     0.010 A 
ATOM     32  C   UNL A   1      37.069  32.741  29.677  1.00  0.00    -0.014 A 
BRANCH  32  33
ATOM     33  C   UNL A   1      38.374  32.109  29.908  1.00  0.00     0.031 A 
ATOM     34  C   UNL A   1      39.383  32.892  30.687  1.00  0.00     0.074 A 
ATOM     35  C   UNL A   1      38.631  30.875  29.450  1.00  0.00     0.049 A 
ATOM     36  N   UNL A   1      40.596  32.561  31.033  1.00  0.00    -0.248 NA
ATOM     37  C   UNL A   1      38.963  34.231  31.140  1.00  0.00     0.031 C 
ATOM     38  C   UNL A   1      37.692  30.027  28.718  1.00  0.00     0.029 A 
ATOM     39  N   UNL A   1      39.771  30.123  29.540  1.00  0.00    -0.354 N 
ATOM     40  C   UNL A   1      41.082  33.646  31.749  1.00  0.00     0.074 A 
ATOM     41  C   UNL A   1      40.051  34.659  31.758  1.00  0.00     0.031 C 
ATOM     42  C   UNL A   1      38.300  28.866  28.420  1.00  0.00     0.029 A 
ATOM     43  C   UNL A   1      39.676  28.908  28.911  1.00  0.00     0.049 A 
ATOM     44  H   UNL A   1      40.581  30.426  30.011  1.00  0.00     0.167 HD
ATOM     45  C   UNL A   1      42.286  33.781  32.348  1.00  0.00     0.031 A 
ATOM     46  C   UNL A   1      40.613  27.956  28.738  1.00  0.00     0.031 A 
ATOM     47  C   UNL A   1      43.318  32.785  32.280  1.00  0.00     0.049 A 
ATOM     48  C   UNL A   1      41.984  28.178  29.324  1.00  0.00     0.074 A 
ATOM     49  C   UNL A   1      44.581  32.814  32.838  1.00  0.00     0.029 A 
ATOM     50  N   UNL A   1      43.209  31.587  31.587  1.00  0.00    -0.354 N 
ATOM     51  N   UNL A   1      42.427  29.187  30.037  1.00  0.00    -0.248 NA
ATOM     52  C   UNL A   1      42.981  27.126  29.089  1.00  0.00     0.031 C 
ATOM     53  C   UNL A   1      45.265  31.671  32.416  1.00  0.00     0.029 A 
ATOM     54  C   UNL A   1      44.397  30.886  31.671  1.00  0.00     0.049 A 
ATOM     55  H   UNL A   1      42.405  31.283  31.107  1.00  0.00     0.167 HD
ATOM     56  C   UNL A   1      43.742  28.876  30.363  1.00  0.00     0.074 A 
ATOM     57  C   UNL A   1      44.016  27.576  29.785  1.00  0.00     0.031 C 
ATOM     58  C   UNL A   1      44.642  29.593  31.082  1.00  0.00     0.031 A 
BRANCH  45  59
ATOM     59  C   UNL A   1      42.555  35.074  33.060  1.00  0.00    -0.014 A 
ATOM     60  C   UNL A   1      42.093  35.306  34.366  1.00  0.00     0.009 A 
ATOM     61  C   UNL A   1      43.281  36.083  32.409  1.00  0.00     0.009 A 
ATOM     62  C   UNL A   1      42.317  36.536  34.988  1.00  0.00     0.001 A 
ATOM     63  C   UNL A   1      43.535  37.298  33.046  1.00  0.00     0.001 A 
ATOM     64  C   UNL A   1      43.042  37.528  34.330  1.00  0.00     0.000 A 
ENDBRANCH  45  59
BRANCH  46  65
ATOM     65  C   UNL A   1      40.302  26.727  27.958  1.00  0.00    -0.014 A 
ATOM     66  C   UNL A   1      40.728  26.588  26.629  1.00  0.00     0.009 A 
ATOM     67  C   UNL A   1      39.546  25.694  28.537  1.00  0.00     0.009 A 
ATOM     68  C   UNL A   1      40.373  25.458  25.886  1.00  0.00     0.001 A 
ATOM     69  C   UNL A   1      39.224  24.550  27.804  1.00  0.00     0.001 A 
ATOM     70  C   UNL A   1      39.626  24.439  26.474  1.00  0.00     0.000 A 
ENDBRANCH  46  65
BRANCH  58  71
ATOM     71  C   UNL A   1      45.991  28.970  31.321  1.00  0.00    -0.014 A 
ATOM     72  C   UNL A   1      46.231  28.129  32.419  1.00  0.00     0.009 A 
ATOM     73  C   UNL A   1      47.021  29.185  30.391  1.00  0.00     0.009 A 
ATOM     74  C   UNL A   1      47.487  27.547  32.599  1.00  0.00     0.001 A 
ATOM     75  C   UNL A   1      48.262  28.570  30.552  1.00  0.00     0.001 A 
ATOM     76  C   UNL A   1      48.498  27.761  31.662  1.00  0.00     0.000 A 
ENDBRANCH  58  71
ENDBRANCH  32  33
ENDBRANCH  25  27
ENDBRANCH  24  25
ENDBRANCH  23  24
ENDBRANCH   1  23
TORSDOF 15
ENDMDL
MODEL 2
REMARK VINA RESULT:      -9.6      2.036      3.190
REMARK SMILES O=C(OCCOCCOC(=O)c1ccc(-c2c3nc(c(-c4ccccc4)c4ccc([nH]4)c(-c4ccccc4)c4nc(c(-c5ccccc5)c5ccc2[nH]5)C=C4)C=C3)cc1)C1=Cc2cc(Cl)ccc2O[C@@H]1C(F)(F)F
REMARK SMILES IDX 7 1 6 2 5 3 4 4 3 5 2 6 1 7 60 8 61 9 70 10 62 11 69 12
REMARK SMILES IDX 63 13 68 14 64 15 67 16 65 17 66 18 71 19 72 20 73 21 74 22
REMARK SMILES IDX 8 23 9 24 10 25 11 26 12 27 13 28 59 29 14 30 58 31 15 32
REMARK SMILES IDX 16 33 17 34 52 35 18 36 57 37 51 38 53 39 19 40 56 41 50 42
REMARK SMILES IDX 49 43 20 45 42 46 27 47 41 48 28 49 31 50 40 51 54 52 29 53
REMARK SMILES IDX 30 54 39 56 55 57 32 58 21 59 22 60 26 61 23 62 25 63 24 64
REMARK SMILES IDX 43 65 44 66 48 67 45 68 47 69 46 70 33 71 34 72 38 73 35 74
REMARK SMILES IDX 37 75 36 76
REMARK H PARENT 53 44 31 55
REMARK Flexibility Score: inf
ROOT
ATOM      1  C   UNL A   1      33.281  37.103  30.332  1.00  0.00     0.202 C 
ENDROOT
BRANCH   1   2
ATOM      2  O   UNL A   1      33.065  36.501  31.623  1.00  0.00    -0.374 OA
BRANCH   2   3
ATOM      3  C   UNL A   1      34.057  36.162  32.860  1.00  0.00     0.202 C 
BRANCH   3   4
ATOM      4  C   UNL A   1      35.841  34.905  32.950  1.00  0.00     0.261 C 
BRANCH   4   5
ATOM      5  O   UNL A   1      36.914  34.926  34.045  1.00  0.00    -0.460 OA
BRANCH   5   6
ATOM      6  C   UNL A   1      36.695  34.015  34.997  1.00  0.00     0.338 C 
ATOM      7  O   UNL A   1      35.684  33.775  35.607  1.00  0.00    -0.246 OA
BRANCH   6   8
ATOM      8  C   UNL A   1      38.089  33.753  35.283  1.00  0.00     0.087 C 
ATOM      9  C   UNL A   1      38.672  34.778  36.182  1.00  0.00     0.027 C 
ATOM     10  C   UNL A   1      37.842  31.890  35.751  1.00  0.00     0.316 C 
ATOM     11  C   UNL A   1      39.016  34.496  37.939  1.00  0.00     0.019 A 
ATOM     12  O   UNL A   1      38.141  31.579  37.634  1.00  0.00    -0.475 OA
ATOM     13  C   UNL A   1      39.373  35.549  38.736  1.00  0.00     0.032 A 
ATOM     14  C   UNL A   1      38.691  32.964  38.690  1.00  0.00     0.128 A 
ATOM     15  C   UNL A   1      39.382  35.269  40.114  1.00  0.00     0.041 A 
ATOM     16  C   UNL A   1      38.615  32.821  40.042  1.00  0.00     0.048 A 
ATOM     17  Cl  UNL A   1      39.854  36.562  41.173  1.00  0.00    -0.084 Cl
ATOM     18  C   UNL A   1      38.994  34.004  40.729  1.00  0.00     0.024 A 
BRANCH  10  19
ATOM     19  C   UNL A   1      38.528  31.259  34.458  1.00  0.00     0.430 C 
ATOM     20  F   UNL A   1      38.572  29.915  34.419  1.00  0.00    -0.167 F 
ATOM     21  F   UNL A   1      37.759  31.611  33.384  1.00  0.00    -0.167 F 
ATOM     22  F   UNL A   1      39.757  31.741  34.170  1.00  0.00    -0.167 F 
ENDBRANCH  10  19
ENDBRANCH   6   8
ENDBRANCH   5   6
ENDBRANCH   4   5
ENDBRANCH   3   4
ENDBRANCH   2   3
ENDBRANCH   1   2
BRANCH   1  23
ATOM     23  C   UNL A   1      32.967  36.230  29.123  1.00  0.00     0.261 C 
BRANCH  23  24
ATOM     24  O   UNL A   1      32.713  34.880  29.482  1.00  0.00    -0.460 OA
BRANCH  24  25
ATOM     25  C   UNL A   1      33.125  33.988  28.555  1.00  0.00     0.338 C 
ATOM     26  O   UNL A   1      32.546  33.630  27.545  1.00  0.00    -0.246 OA
BRANCH  25  27
ATOM     27  C   UNL A   1      34.442  33.483  28.968  1.00  0.00     0.060 A 
ATOM     28  C   UNL A   1      35.530  33.749  28.131  1.00  0.00     0.016 A 
ATOM     29  C   UNL A   1      34.613  32.793  30.176  1.00  0.00     0.016 A 
ATOM     30  C   UNL A   1      36.804  33.360  28.520  1.00  0.00     0.010 A 
ATOM     31  C   UNL A   1      35.882  32.378  30.553  1.00  0.00     0.010 A 
ATOM     32  C   UNL A   1      36.973  32.657  29.719  1.00  0.00    -0.014 A 
BRANCH  32  33
ATOM     33  C   UNL A   1      38.265  32.012  29.986  1.00  0.00     0.031 A 
ATOM     34  C   UNL A   1      39.248  32.773  30.819  1.00  0.00     0.074 A 
ATOM     35  C   UNL A   1      38.533  30.787  29.512  1.00  0.00     0.049 A 
ATOM     36  N   UNL A   1      40.446  32.428  31.202  1.00  0.00    -0.248 NA
ATOM     37  C   UNL A   1      38.818  34.104  31.284  1.00  0.00     0.031 C 
ATOM     38  C   UNL A   1      37.618  29.960  28.726  1.00  0.00     0.029 A 
ATOM     39  N   UNL A   1      39.666  30.026  29.627  1.00  0.00    -0.354 N 
ATOM     40  C   UNL A   1      40.910  33.494  31.959  1.00  0.00     0.074 A 
ATOM     41  C   UNL A   1      39.884  34.512  31.952  1.00  0.00     0.031 C 
ATOM     42  C   UNL A   1      38.231  28.801  28.427  1.00  0.00     0.029 A 
ATOM     43  C   UNL A   1      39.588  28.826  28.970  1.00  0.00     0.049 A 
ATOM     44  H   UNL A   1      40.459  30.314  30.135  1.00  0.00     0.167 HD
ATOM     45  C   UNL A   1      42.090  33.609  32.606  1.00  0.00     0.031 A 
ATOM     46  C   UNL A   1      40.526  27.872  28.812  1.00  0.00     0.031 A 
ATOM     47  C   UNL A   1      43.120  32.609  32.555  1.00  0.00     0.049 A 
ATOM     48  C   UNL A   1      41.875  28.073  29.454  1.00  0.00     0.074 A 
ATOM     49  C   UNL A   1      44.361  32.619  33.161  1.00  0.00     0.029 A 
ATOM     50  N   UNL A   1      43.031  31.426  31.833  1.00  0.00    -0.354 N 
ATOM     51  N   UNL A   1      42.296  29.065  30.204  1.00  0.00    -0.248 NA
ATOM     52  C   UNL A   1      42.875  27.021  29.234  1.00  0.00     0.031 C 
ATOM     53  C   UNL A   1      45.054  31.481  32.741  1.00  0.00     0.029 A 
ATOM     54  C   UNL A   1      44.211  30.717  31.947  1.00  0.00     0.049 A 
ATOM     55  H   UNL A   1      42.244  31.137  31.318  1.00  0.00     0.167 HD
ATOM     56  C   UNL A   1      43.596  28.739  30.573  1.00  0.00     0.074 A 
ATOM     57  C   UNL A   1      43.885  27.450  29.978  1.00  0.00     0.031 C 
ATOM     58  C   UNL A   1      44.472  29.436  31.340  1.00  0.00     0.031 A 
BRANCH  45  59
ATOM     59  C   UNL A   1      42.339  34.886  33.355  1.00  0.00    -0.014 A 
ATOM     60  C   UNL A   1      42.971  35.984  32.749  1.00  0.00     0.009 A 
ATOM     61  C   UNL A   1      41.939  34.989  34.696  1.00  0.00     0.009 A 
ATOM     62  C   UNL A   1      43.234  37.143  33.482  1.00  0.00     0.001 A 
ATOM     63  C   UNL A   1      42.169  36.161  35.417  1.00  0.00     0.001 A 
ATOM     64  C   UNL A   1      42.827  37.232  34.813  1.00  0.00     0.000 A 
ENDBRANCH  45  59
BRANCH  46  65
ATOM     65  C   UNL A   1      40.238  26.662  27.995  1.00  0.00    -0.014 A 
ATOM     66  C   UNL A   1      39.486  25.599  28.519  1.00  0.00     0.009 A 
ATOM     67  C   UNL A   1      40.744  26.551  26.689  1.00  0.00     0.009 A 
ATOM     68  C   UNL A   1      39.279  24.439  27.766  1.00  0.00     0.001 A 
ATOM     69  C   UNL A   1      40.506  25.407  25.927  1.00  0.00     0.001 A 
ATOM     70  C   UNL A   1      39.784  24.346  26.471  1.00  0.00     0.000 A 
ENDBRANCH  46  65
BRANCH  58  71
ATOM     71  C   UNL A   1      45.808  28.800  31.617  1.00  0.00    -0.014 A 
ATOM     72  C   UNL A   1      46.966  29.184  30.925  1.00  0.00     0.009 A 
ATOM     73  C   UNL A   1      45.912  27.840  32.637  1.00  0.00     0.009 A 
ATOM     74  C   UNL A   1      48.195  28.592  31.222  1.00  0.00     0.001 A 
ATOM     75  C   UNL A   1      47.148  27.279  32.960  1.00  0.00     0.001 A 
ATOM     76  C   UNL A   1      48.285  27.647  32.245  1.00  0.00     0.000 A 
ENDBRANCH  58  71
ENDBRANCH  32  33
ENDBRANCH  25  27
ENDBRANCH  24  25
ENDBRANCH  23  24
ENDBRANCH   1  23
TORSDOF 15
ENDMDL
MODEL 3
REMARK VINA RESULT:      -9.6      6.830     12.247
REMARK SMILES O=C(OCCOCCOC(=O)c1ccc(-c2c3nc(c(-c4ccccc4)c4ccc([nH]4)c(-c4ccccc4)c4nc(c(-c5ccccc5)c5ccc2[nH]5)C=C4)C=C3)cc1)C1=Cc2cc(Cl)ccc2O[C@@H]1C(F)(F)F
REMARK SMILES IDX 7 1 6 2 5 3 4 4 3 5 2 6 1 7 60 8 61 9 70 10 62 11 69 12
REMARK SMILES IDX 63 13 68 14 64 15 67 16 65 17 66 18 71 19 72 20 73 21 74 22
REMARK SMILES IDX 8 23 9 24 10 25 11 26 12 27 13 28 59 29 14 30 58 31 15 32
REMARK SMILES IDX 16 33 17 34 52 35 18 36 57 37 51 38 53 39 19 40 56 41 50 42
REMARK SMILES IDX 49 43 20 45 42 46 27 47 41 48 28 49 31 50 40 51 54 52 29 53
REMARK SMILES IDX 30 54 39 56 55 57 32 58 21 59 22 60 26 61 23 62 25 63 24 64
REMARK SMILES IDX 43 65 44 66 48 67 45 68 47 69 46 70 33 71 34 72 38 73 35 74
REMARK SMILES IDX 37 75 36 76
REMARK H PARENT 53 44 31 55
REMARK Flexibility Score: inf
ROOT
ATOM      1  C   UNL A   1      45.521  18.813  25.233  1.00  0.00     0.202 C 
ENDROOT
BRANCH   1   2
ATOM      2  O   UNL A   1      46.002  20.158  25.418  1.00  0.00    -0.374 OA
BRANCH   2   3
ATOM      3  C   UNL A   1      46.364  21.351  24.381  1.00  0.00     0.202 C 
BRANCH   3   4
ATOM      4  C   UNL A   1      45.955  23.494  24.477  1.00  0.00     0.261 C 
BRANCH   4   5
ATOM      5  O   UNL A   1      46.698  24.524  25.335  1.00  0.00    -0.460 OA
BRANCH   5   6
ATOM      6  C   UNL A   1      47.565  25.254  24.628  1.00  0.00     0.338 C 
ATOM      7  O   UNL A   1      47.901  25.137  23.478  1.00  0.00    -0.246 OA
BRANCH   6   8
ATOM      8  C   UNL A   1      48.191  25.894  25.765  1.00  0.00     0.087 C 
ATOM      9  C   UNL A   1      49.418  25.180  26.196  1.00  0.00     0.027 C 
ATOM     10  C   UNL A   1      48.160  27.681  25.021  1.00  0.00     0.316 C 
ATOM     11  C   UNL A   1      51.096  25.777  25.864  1.00  0.00     0.019 A 
ATOM     12  O   UNL A   1      49.937  28.312  24.598  1.00  0.00    -0.475 OA
ATOM     13  C   UNL A   1      52.167  24.966  26.126  1.00  0.00     0.032 A 
ATOM     14  C   UNL A   1      51.376  27.266  25.015  1.00  0.00     0.128 A 
ATOM     15  C   UNL A   1      53.394  25.425  25.614  1.00  0.00     0.041 A 
ATOM     16  C   UNL A   1      52.582  27.569  24.460  1.00  0.00     0.048 A 
ATOM     17  Cl  UNL A   1      54.792  24.449  25.940  1.00  0.00    -0.084 Cl
ATOM     18  C   UNL A   1      53.583  26.624  24.804  1.00  0.00     0.024 A 
BRANCH  10  19
ATOM     19  C   UNL A   1      47.028  28.281  25.968  1.00  0.00     0.430 C 
ATOM     20  F   UNL A   1      47.467  28.991  27.023  1.00  0.00    -0.167 F 
ATOM     21  F   UNL A   1      46.313  29.176  25.222  1.00  0.00    -0.167 F 
ATOM     22  F   UNL A   1      46.110  27.388  26.399  1.00  0.00    -0.167 F 
ENDBRANCH  10  19
ENDBRANCH   6   8
ENDBRANCH   5   6
ENDBRANCH   4   5
ENDBRANCH   3   4
ENDBRANCH   2   3
ENDBRANCH   1   2
BRANCH   1  23
ATOM     23  C   UNL A   1      44.022  18.605  25.415  1.00  0.00     0.261 C 
BRANCH  23  24
ATOM     24  O   UNL A   1      43.266  19.734  25.008  1.00  0.00    -0.460 OA
BRANCH  24  25
ATOM     25  C   UNL A   1      42.178  19.963  25.776  1.00  0.00     0.338 C 
ATOM     26  O   UNL A   1      41.205  19.248  25.935  1.00  0.00    -0.246 OA
BRANCH  25  27
ATOM     27  C   UNL A   1      42.349  21.272  26.423  1.00  0.00     0.060 A 
ATOM     28  C   UNL A   1      42.653  22.365  25.606  1.00  0.00     0.016 A 
ATOM     29  C   UNL A   1      42.175  21.430  27.805  1.00  0.00     0.016 A 
ATOM     30  C   UNL A   1      42.744  23.632  26.164  1.00  0.00     0.010 A 
ATOM     31  C   UNL A   1      42.294  22.693  28.369  1.00  0.00     0.010 A 
ATOM     32  C   UNL A   1      42.586  23.789  27.547  1.00  0.00    -0.014 A 
BRANCH  32  33
ATOM     33  C   UNL A   1      42.955  25.070  28.161  1.00  0.00     0.031 A 
ATOM     34  C   UNL A   1      41.866  26.080  28.340  1.00  0.00     0.074 A 
ATOM     35  C   UNL A   1      44.215  25.306  28.555  1.00  0.00     0.049 A 
ATOM     36  N   UNL A   1      41.926  27.275  28.859  1.00  0.00    -0.248 NA
ATOM     37  C   UNL A   1      40.525  25.684  27.872  1.00  0.00     0.031 C 
ATOM     38  C   UNL A   1      45.328  24.363  28.454  1.00  0.00     0.029 A 
ATOM     39  N   UNL A   1      44.765  26.423  29.123  1.00  0.00    -0.354 N 
ATOM     40  C   UNL A   1      40.632  27.771  28.787  1.00  0.00     0.074 A 
ATOM     41  C   UNL A   1      39.816  26.768  28.143  1.00  0.00     0.031 C 
ATOM     42  C   UNL A   1      46.435  24.948  28.944  1.00  0.00     0.029 A 
ATOM     43  C   UNL A   1      46.111  26.312  29.358  1.00  0.00     0.049 A 
ATOM     44  H   UNL A   1      44.243  27.229  29.343  1.00  0.00     0.167 HD
ATOM     45  C   UNL A   1      40.168  28.962  29.224  1.00  0.00     0.031 A 
ATOM     46  C   UNL A   1      46.978  27.227  29.832  1.00  0.00     0.031 A 
ATOM     47  C   UNL A   1      41.007  29.970  29.811  1.00  0.00     0.049 A 
ATOM     48  C   UNL A   1      46.454  28.588  30.212  1.00  0.00     0.074 A 
ATOM     49  C   UNL A   1      40.652  31.218  30.282  1.00  0.00     0.029 A 
ATOM     50  N   UNL A   1      42.379  29.846  29.984  1.00  0.00    -0.354 N 
ATOM     51  N   UNL A   1      45.222  29.040  30.181  1.00  0.00    -0.248 NA
ATOM     52  C   UNL A   1      47.438  29.563  30.699  1.00  0.00     0.031 C 
ATOM     53  C   UNL A   1      41.820  31.882  30.665  1.00  0.00     0.029 A 
ATOM     54  C   UNL A   1      42.891  31.013  30.519  1.00  0.00     0.049 A 
ATOM     55  H   UNL A   1      42.907  29.046  29.759  1.00  0.00     0.167 HD
ATOM     56  C   UNL A   1      45.279  30.337  30.677  1.00  0.00     0.074 A 
ATOM     57  C   UNL A   1      46.664  30.591  31.016  1.00  0.00     0.031 C 
ATOM     58  C   UNL A   1      44.278  31.239  30.844  1.00  0.00     0.031 A 
BRANCH  45  59
ATOM     59  C   UNL A   1      38.710  29.248  29.014  1.00  0.00    -0.014 A 
ATOM     60  C   UNL A   1      38.220  29.709  27.780  1.00  0.00     0.009 A 
ATOM     61  C   UNL A   1      37.809  29.058  30.073  1.00  0.00     0.009 A 
ATOM     62  C   UNL A   1      36.866  30.012  27.626  1.00  0.00     0.001 A 
ATOM     63  C   UNL A   1      36.450  29.328  29.906  1.00  0.00     0.001 A 
ATOM     64  C   UNL A   1      35.982  29.816  28.687  1.00  0.00     0.000 A 
ENDBRANCH  45  59
BRANCH  46  65
ATOM     65  C   UNL A   1      48.426  26.903  29.948  1.00  0.00    -0.014 A 
ATOM     66  C   UNL A   1      48.910  26.132  31.015  1.00  0.00     0.009 A 
ATOM     67  C   UNL A   1      49.340  27.393  29.000  1.00  0.00     0.009 A 
ATOM     68  C   UNL A   1      50.281  25.890  31.149  1.00  0.00     0.001 A 
ATOM     69  C   UNL A   1      50.704  27.120  29.117  1.00  0.00     0.001 A 
ATOM     70  C   UNL A   1      51.175  26.380  30.200  1.00  0.00     0.000 A 
ENDBRANCH  46  65
BRANCH  58  71
ATOM     71  C   UNL A   1      44.635  32.564  31.461  1.00  0.00    -0.014 A 
ATOM     72  C   UNL A   1      44.640  32.753  32.851  1.00  0.00     0.009 A 
ATOM     73  C   UNL A   1      45.032  33.623  30.629  1.00  0.00     0.009 A 
ATOM     74  C   UNL A   1      45.001  33.988  33.393  1.00  0.00     0.001 A 
ATOM     75  C   UNL A   1      45.431  34.843  31.175  1.00  0.00     0.001 A 
ATOM     76  C   UNL A   1      45.403  35.028  32.555  1.00  0.00     0.000 A 
ENDBRANCH  58  71
ENDBRANCH  32  33
ENDBRANCH  25  27
ENDBRANCH  24  25
ENDBRANCH  23  24
ENDBRANCH   1  23
TORSDOF 15
ENDMDL
