MODEL 1
REMARK VINA RESULT:      -8.9      0.000      0.000
REMARK SMILES CCOC(=O)c1ccc(-c2ccc(C(=O)OCCOCCOC(=O)c3ccc(-c4c5nc(c(-c6ccccc6)c6ccc([nH]6)c(-c6ccccc6)c6nc(c(-c7ccccc7)c7ccc4[nH]7)C=C6)C=C5)cc3)o2)cc1
REMARK SMILES IDX 18 1 17 2 16 3 14 4 15 5 13 6 10 7 11 8 73 9 12 10 9 11 6 12
REMARK SMILES IDX 7 13 75 14 8 15 74 16 4 17 5 18 3 19 2 20 1 21 19 22 20 23
REMARK SMILES IDX 21 24 22 25 23 26 24 27 25 28 26 29 72 30 27 31 71 32 28 33
REMARK SMILES IDX 29 34 30 35 65 36 31 37 70 38 64 39 66 40 32 41 69 42 63 43
REMARK SMILES IDX 62 44 33 46 55 47 40 48 54 49 41 50 44 51 53 52 67 53 42 54
REMARK SMILES IDX 43 55 52 57 68 58 45 59 34 60 35 61 39 62 36 63 38 64 37 65
REMARK SMILES IDX 56 66 57 67 61 68 58 69 60 70 59 71 46 72 47 73 51 74 48 75
REMARK SMILES IDX 50 76 49 77
REMARK H PARENT 66 45 44 56
REMARK Flexibility Score: inf
ROOT
ATOM      1  C   UNL A   1      32.911  36.578  32.827  1.00  0.00     0.202 C 
ENDROOT
BRANCH   1   2
ATOM      2  C   UNL A   1      34.294  36.207  33.367  1.00  0.00     0.261 C 
BRANCH   2   3
ATOM      3  O   UNL A   1      34.759  34.998  32.742  1.00  0.00    -0.457 OA
BRANCH   3   4
ATOM      4  C   UNL A   1      34.494  33.837  33.410  1.00  0.00     0.374 C 
ATOM      5  O   UNL A   1      33.527  33.116  33.202  1.00  0.00    -0.242 OA
BRANCH   4   6
ATOM      6  C   UNL A   1      35.585  33.553  34.315  1.00  0.00     0.212 A 
ATOM      7  C   UNL A   1      37.409  32.491  34.935  1.00  0.00     0.135 A 
ATOM      8  C   UNL A   1      37.211  33.483  35.868  1.00  0.00     0.052 A 
ATOM      9  O   UNL A   1      36.425  32.516  33.999  1.00  0.00    -0.449 OA
ATOM     10  C   UNL A   1      36.043  34.177  35.463  1.00  0.00     0.059 A 
BRANCH   7  11
ATOM     11  C   UNL A   1      38.422  31.472  34.761  1.00  0.00     0.017 A 
ATOM     12  C   UNL A   1      40.276  29.384  34.528  1.00  0.00     0.060 A 
ATOM     13  C   UNL A   1      40.403  30.320  35.562  1.00  0.00     0.016 A 
ATOM     14  C   UNL A   1      39.241  29.510  33.593  1.00  0.00     0.016 A 
ATOM     15  C   UNL A   1      39.484  31.368  35.669  1.00  0.00     0.013 A 
ATOM     16  C   UNL A   1      38.314  30.548  33.715  1.00  0.00     0.013 A 
BRANCH  12  17
ATOM     17  C   UNL A   1      41.187  28.218  34.509  1.00  0.00     0.338 C 
ATOM     18  O   UNL A   1      41.550  27.673  33.481  1.00  0.00    -0.246 OA
BRANCH  17  19
ATOM     19  O   UNL A   1      41.542  27.886  35.775  1.00  0.00    -0.462 OA
BRANCH  19  20
ATOM     20  C   UNL A   1      42.117  26.582  35.941  1.00  0.00     0.230 C 
ATOM     21  C   UNL A   1      41.541  25.842  37.135  1.00  0.00     0.049 C 
ENDBRANCH  19  20
ENDBRANCH  17  19
ENDBRANCH  12  17
ENDBRANCH   7  11
ENDBRANCH   4   6
ENDBRANCH   3   4
ENDBRANCH   2   3
ENDBRANCH   1   2
BRANCH   1  22
ATOM     22  O   UNL A   1      32.914  37.668  31.902  1.00  0.00    -0.374 OA
BRANCH  22  23
ATOM     23  C   UNL A   1      33.269  37.356  30.553  1.00  0.00     0.202 C 
BRANCH  23  24
ATOM     24  C   UNL A   1      32.679  36.046  30.022  1.00  0.00     0.261 C 
BRANCH  24  25
ATOM     25  O   UNL A   1      33.222  35.721  28.729  1.00  0.00    -0.460 OA
BRANCH  25  26
ATOM     26  C   UNL A   1      33.098  34.420  28.372  1.00  0.00     0.338 C 
ATOM     27  O   UNL A   1      32.163  33.898  27.790  1.00  0.00    -0.246 OA
BRANCH  26  28
ATOM     28  C   UNL A   1      34.356  33.699  28.650  1.00  0.00     0.060 A 
ATOM     29  C   UNL A   1      34.367  32.835  29.752  1.00  0.00     0.016 A 
ATOM     30  C   UNL A   1      35.518  33.903  27.900  1.00  0.00     0.016 A 
ATOM     31  C   UNL A   1      35.552  32.215  30.142  1.00  0.00     0.010 A 
ATOM     32  C   UNL A   1      36.709  33.283  28.296  1.00  0.00     0.010 A 
ATOM     33  C   UNL A   1      36.739  32.466  29.441  1.00  0.00    -0.014 A 
BRANCH  33  34
ATOM     34  C   UNL A   1      38.026  31.979  29.992  1.00  0.00     0.031 A 
ATOM     35  C   UNL A   1      38.593  30.678  29.495  1.00  0.00     0.074 A 
ATOM     36  C   UNL A   1      38.708  32.709  30.893  1.00  0.00     0.049 A 
ATOM     37  N   UNL A   1      39.711  30.082  29.824  1.00  0.00    -0.248 NA
ATOM     38  C   UNL A   1      37.795  29.953  28.492  1.00  0.00     0.031 C 
ATOM     39  C   UNL A   1      38.288  34.003  31.428  1.00  0.00     0.029 A 
ATOM     40  N   UNL A   1      39.908  32.460  31.511  1.00  0.00    -0.354 N 
ATOM     41  C   UNL A   1      39.751  28.915  29.072  1.00  0.00     0.074 A 
ATOM     42  C   UNL A   1      38.531  28.870  28.294  1.00  0.00     0.031 C 
ATOM     43  C   UNL A   1      39.218  34.436  32.298  1.00  0.00     0.029 A 
ATOM     44  C   UNL A   1      40.283  33.440  32.397  1.00  0.00     0.049 A 
ATOM     45  H   UNL A   1      40.447  31.656  31.338  1.00  0.00     0.167 HD
ATOM     46  C   UNL A   1      40.718  27.968  29.024  1.00  0.00     0.031 A 
ATOM     47  C   UNL A   1      41.358  33.519  33.204  1.00  0.00     0.031 A 
ATOM     48  C   UNL A   1      41.928  28.000  29.802  1.00  0.00     0.049 A 
ATOM     49  C   UNL A   1      42.384  32.419  33.185  1.00  0.00     0.074 A 
ATOM     50  C   UNL A   1      42.974  27.094  29.809  1.00  0.00     0.029 A 
ATOM     51  N   UNL A   1      42.248  28.988  30.719  1.00  0.00    -0.354 N 
ATOM     52  N   UNL A   1      42.424  31.338  32.446  1.00  0.00    -0.248 NA
ATOM     53  C   UNL A   1      43.520  32.560  34.109  1.00  0.00     0.031 C 
ATOM     54  C   UNL A   1      43.905  27.507  30.767  1.00  0.00     0.029 A 
ATOM     55  C   UNL A   1      43.463  28.700  31.318  1.00  0.00     0.049 A 
ATOM     56  H   UNL A   1      41.694  29.778  30.916  1.00  0.00     0.167 HD
ATOM     57  C   UNL A   1      43.599  30.683  32.796  1.00  0.00     0.074 A 
ATOM     58  C   UNL A   1      44.249  31.495  33.802  1.00  0.00     0.031 C 
ATOM     59  C   UNL A   1      44.096  29.514  32.321  1.00  0.00     0.031 A 
BRANCH  46  60
ATOM     60  C   UNL A   1      40.489  26.795  28.114  1.00  0.00    -0.014 A 
ATOM     61  C   UNL A   1      41.065  26.744  26.834  1.00  0.00     0.009 A 
ATOM     62  C   UNL A   1      39.712  25.713  28.554  1.00  0.00     0.009 A 
ATOM     63  C   UNL A   1      40.840  25.644  26.002  1.00  0.00     0.001 A 
ATOM     64  C   UNL A   1      39.509  24.605  27.729  1.00  0.00     0.001 A 
ATOM     65  C   UNL A   1      40.065  24.576  26.453  1.00  0.00     0.000 A 
ENDBRANCH  46  60
BRANCH  47  66
ATOM     66  C   UNL A   1      41.518  34.682  34.115  1.00  0.00    -0.014 A 
ATOM     67  C   UNL A   1      42.301  35.784  33.737  1.00  0.00     0.009 A 
ATOM     68  C   UNL A   1      40.904  34.684  35.377  1.00  0.00     0.009 A 
ATOM     69  C   UNL A   1      42.483  36.854  34.617  1.00  0.00     0.001 A 
ATOM     70  C   UNL A   1      41.067  35.767  36.242  1.00  0.00     0.001 A 
ATOM     71  C   UNL A   1      41.863  36.847  35.865  1.00  0.00     0.000 A 
ENDBRANCH  47  66
BRANCH  59  72
ATOM     72  C   UNL A   1      45.423  29.061  32.862  1.00  0.00    -0.014 A 
ATOM     73  C   UNL A   1      46.628  29.451  32.257  1.00  0.00     0.009 A 
ATOM     74  C   UNL A   1      45.467  28.264  34.017  1.00  0.00     0.009 A 
ATOM     75  C   UNL A   1      47.850  29.023  32.780  1.00  0.00     0.001 A 
ATOM     76  C   UNL A   1      46.691  27.860  34.552  1.00  0.00     0.001 A 
ATOM     77  C   UNL A   1      47.880  28.231  33.929  1.00  0.00     0.000 A 
ENDBRANCH  59  72
ENDBRANCH  33  34
ENDBRANCH  26  28
ENDBRANCH  25  26
ENDBRANCH  24  25
ENDBRANCH  23  24
ENDBRANCH  22  23
ENDBRANCH   1  22
TORSDOF 18
ENDMDL
MODEL 2
REMARK VINA RESULT:      -8.1      4.445      9.004
REMARK SMILES CCOC(=O)c1ccc(-c2ccc(C(=O)OCCOCCOC(=O)c3ccc(-c4c5nc(c(-c6ccccc6)c6ccc([nH]6)c(-c6ccccc6)c6nc(c(-c7ccccc7)c7ccc4[nH]7)C=C6)C=C5)cc3)o2)cc1
REMARK SMILES IDX 18 1 17 2 16 3 14 4 15 5 13 6 10 7 11 8 73 9 12 10 9 11 6 12
REMARK SMILES IDX 7 13 75 14 8 15 74 16 4 17 5 18 3 19 2 20 1 21 19 22 20 23
REMARK SMILES IDX 21 24 22 25 23 26 24 27 25 28 26 29 72 30 27 31 71 32 28 33
REMARK SMILES IDX 29 34 30 35 65 36 31 37 70 38 64 39 66 40 32 41 69 42 63 43
REMARK SMILES IDX 62 44 33 46 55 47 40 48 54 49 41 50 44 51 53 52 67 53 42 54
REMARK SMILES IDX 43 55 52 57 68 58 45 59 34 60 35 61 39 62 36 63 38 64 37 65
REMARK SMILES IDX 56 66 57 67 61 68 58 69 60 70 59 71 46 72 47 73 51 74 48 75
REMARK SMILES IDX 50 76 49 77
REMARK H PARENT 66 45 44 56
REMARK Flexibility Score: inf
ROOT
ATOM      1  C   UNL A   1      33.437  35.595  30.459  1.00  0.00     0.202 C 
ENDROOT
BRANCH   1   2
ATOM      2  C   UNL A   1      34.275  34.402  29.991  1.00  0.00     0.261 C 
BRANCH   2   3
ATOM      3  O   UNL A   1      34.287  34.342  28.553  1.00  0.00    -0.457 OA
BRANCH   3   4
ATOM      4  C   UNL A   1      33.384  33.492  27.982  1.00  0.00     0.374 C 
ATOM      5  O   UNL A   1      32.270  33.814  27.590  1.00  0.00    -0.242 OA
BRANCH   4   6
ATOM      6  C   UNL A   1      33.996  32.192  27.821  1.00  0.00     0.212 A 
ATOM      7  C   UNL A   1      33.975  30.047  27.329  1.00  0.00     0.135 A 
ATOM      8  C   UNL A   1      35.296  30.378  27.535  1.00  0.00     0.052 A 
ATOM      9  O   UNL A   1      33.180  31.134  27.512  1.00  0.00    -0.449 OA
ATOM     10  C   UNL A   1      35.312  31.762  27.839  1.00  0.00     0.059 A 
BRANCH   7  11
ATOM     11  C   UNL A   1      33.298  28.821  26.966  1.00  0.00     0.017 A 
ATOM     12  C   UNL A   1      32.027  26.381  26.435  1.00  0.00     0.060 A 
ATOM     13  C   UNL A   1      33.375  26.556  26.098  1.00  0.00     0.016 A 
ATOM     14  C   UNL A   1      31.307  27.436  27.009  1.00  0.00     0.016 A 
ATOM     15  C   UNL A   1      34.004  27.778  26.353  1.00  0.00     0.013 A 
ATOM     16  C   UNL A   1      31.944  28.650  27.279  1.00  0.00     0.013 A 
BRANCH  12  17
ATOM     17  C   UNL A   1      31.421  25.042  26.268  1.00  0.00     0.338 C 
ATOM     18  O   UNL A   1      31.346  24.227  27.172  1.00  0.00    -0.246 OA
BRANCH  17  19
ATOM     19  O   UNL A   1      30.971  24.891  24.998  1.00  0.00    -0.462 OA
BRANCH  19  20
ATOM     20  C   UNL A   1      30.912  23.542  24.511  1.00  0.00     0.230 C 
ATOM     21  C   UNL A   1      32.096  23.193  23.627  1.00  0.00     0.049 C 
ENDBRANCH  19  20
ENDBRANCH  17  19
ENDBRANCH  12  17
ENDBRANCH   7  11
ENDBRANCH   4   6
ENDBRANCH   3   4
ENDBRANCH   2   3
ENDBRANCH   1   2
BRANCH   1  22
ATOM     22  O   UNL A   1      33.708  36.014  31.798  1.00  0.00    -0.374 OA
BRANCH  22  23
ATOM     23  C   UNL A   1      33.845  34.977  32.773  1.00  0.00     0.202 C 
BRANCH  23  24
ATOM     24  C   UNL A   1      35.195  34.951  33.495  1.00  0.00     0.261 C 
BRANCH  24  25
ATOM     25  O   UNL A   1      36.164  34.185  32.755  1.00  0.00    -0.460 OA
BRANCH  25  26
ATOM     26  C   UNL A   1      36.561  33.039  33.358  1.00  0.00     0.338 C 
ATOM     27  O   UNL A   1      36.211  32.615  34.445  1.00  0.00    -0.246 OA
BRANCH  26  28
ATOM     28  C   UNL A   1      37.398  32.247  32.435  1.00  0.00     0.060 A 
ATOM     29  C   UNL A   1      38.380  31.429  33.004  1.00  0.00     0.016 A 
ATOM     30  C   UNL A   1      37.276  32.344  31.045  1.00  0.00     0.016 A 
ATOM     31  C   UNL A   1      39.282  30.748  32.189  1.00  0.00     0.010 A 
ATOM     32  C   UNL A   1      38.185  31.662  30.227  1.00  0.00     0.010 A 
ATOM     33  C   UNL A   1      39.215  30.891  30.797  1.00  0.00    -0.014 A 
BRANCH  33  34
ATOM     34  C   UNL A   1      40.306  30.342  29.957  1.00  0.00     0.031 A 
ATOM     35  C   UNL A   1      41.545  31.164  29.731  1.00  0.00     0.074 A 
ATOM     36  C   UNL A   1      40.217  29.105  29.436  1.00  0.00     0.049 A 
ATOM     37  N   UNL A   1      42.624  30.868  29.053  1.00  0.00    -0.248 NA
ATOM     38  C   UNL A   1      41.572  32.498  30.355  1.00  0.00     0.031 C 
ATOM     39  C   UNL A   1      39.089  28.192  29.610  1.00  0.00     0.029 A 
ATOM     40  N   UNL A   1      41.103  28.405  28.656  1.00  0.00    -0.354 N 
ATOM     41  C   UNL A   1      43.456  31.975  29.167  1.00  0.00     0.074 A 
ATOM     42  C   UNL A   1      42.745  32.961  29.952  1.00  0.00     0.031 C 
ATOM     43  C   UNL A   1      39.351  27.048  28.954  1.00  0.00     0.029 A 
ATOM     44  C   UNL A   1      40.651  27.159  28.296  1.00  0.00     0.049 A 
ATOM     45  H   UNL A   1      41.977  28.762  28.380  1.00  0.00     0.167 HD
ATOM     46  C   UNL A   1      44.704  32.154  28.671  1.00  0.00     0.031 A 
ATOM     47  C   UNL A   1      41.219  26.219  27.516  1.00  0.00     0.031 A 
ATOM     48  C   UNL A   1      45.413  31.183  27.881  1.00  0.00     0.049 A 
ATOM     49  C   UNL A   1      42.576  26.470  26.918  1.00  0.00     0.074 A 
ATOM     50  C   UNL A   1      46.687  31.268  27.349  1.00  0.00     0.029 A 
ATOM     51  N   UNL A   1      44.902  29.952  27.503  1.00  0.00    -0.354 N 
ATOM     52  N   UNL A   1      43.365  27.508  27.060  1.00  0.00    -0.248 NA
ATOM     53  C   UNL A   1      43.125  25.411  26.057  1.00  0.00     0.031 C 
ATOM     54  C   UNL A   1      46.930  30.108  26.605  1.00  0.00     0.029 A 
ATOM     55  C   UNL A   1      45.825  29.279  26.720  1.00  0.00     0.049 A 
ATOM     56  H   UNL A   1      44.014  29.606  27.753  1.00  0.00     0.167 HD
ATOM     57  C   UNL A   1      44.510  27.216  26.330  1.00  0.00     0.074 A 
ATOM     58  C   UNL A   1      44.321  25.900  25.759  1.00  0.00     0.031 C 
ATOM     59  C   UNL A   1      45.623  27.971  26.154  1.00  0.00     0.031 A 
BRANCH  46  60
ATOM     60  C   UNL A   1      45.373  33.470  28.948  1.00  0.00    -0.014 A 
ATOM     61  C   UNL A   1      46.118  33.674  30.121  1.00  0.00     0.009 A 
ATOM     62  C   UNL A   1      45.281  34.509  28.011  1.00  0.00     0.009 A 
ATOM     63  C   UNL A   1      46.733  34.906  30.361  1.00  0.00     0.001 A 
ATOM     64  C   UNL A   1      45.917  35.730  28.242  1.00  0.00     0.001 A 
ATOM     65  C   UNL A   1      46.634  35.930  29.420  1.00  0.00     0.000 A 
ENDBRANCH  46  60
BRANCH  47  66
ATOM     66  C   UNL A   1      40.499  24.950  27.240  1.00  0.00    -0.014 A 
ATOM     67  C   UNL A   1      39.327  24.945  26.468  1.00  0.00     0.009 A 
ATOM     68  C   UNL A   1      40.971  23.737  27.766  1.00  0.00     0.009 A 
ATOM     69  C   UNL A   1      38.631  23.753  26.250  1.00  0.00     0.001 A 
ATOM     70  C   UNL A   1      40.288  22.545  27.524  1.00  0.00     0.001 A 
ATOM     71  C   UNL A   1      39.114  22.555  26.773  1.00  0.00     0.000 A 
ENDBRANCH  47  66
BRANCH  59  72
ATOM     72  C   UNL A   1      46.734  27.378  25.334  1.00  0.00    -0.014 A 
ATOM     73  C   UNL A   1      47.067  27.899  24.074  1.00  0.00     0.009 A 
ATOM     74  C   UNL A   1      47.482  26.308  25.849  1.00  0.00     0.009 A 
ATOM     75  C   UNL A   1      48.107  27.337  23.332  1.00  0.00     0.001 A 
ATOM     76  C   UNL A   1      48.539  25.765  25.116  1.00  0.00     0.001 A 
ATOM     77  C   UNL A   1      48.845  26.274  23.855  1.00  0.00     0.000 A 
ENDBRANCH  59  72
ENDBRANCH  33  34
ENDBRANCH  26  28
ENDBRANCH  25  26
ENDBRANCH  24  25
ENDBRANCH  23  24
ENDBRANCH  22  23
ENDBRANCH   1  22
TORSDOF 18
ENDMDL
MODEL 3
REMARK VINA RESULT:      -8.0      0.947      5.995
REMARK SMILES CCOC(=O)c1ccc(-c2ccc(C(=O)OCCOCCOC(=O)c3ccc(-c4c5nc(c(-c6ccccc6)c6ccc([nH]6)c(-c6ccccc6)c6nc(c(-c7ccccc7)c7ccc4[nH]7)C=C6)C=C5)cc3)o2)cc1
REMARK SMILES IDX 18 1 17 2 16 3 14 4 15 5 13 6 10 7 11 8 73 9 12 10 9 11 6 12
REMARK SMILES IDX 7 13 75 14 8 15 74 16 4 17 5 18 3 19 2 20 1 21 19 22 20 23
REMARK SMILES IDX 21 24 22 25 23 26 24 27 25 28 26 29 72 30 27 31 71 32 28 33
REMARK SMILES IDX 29 34 30 35 65 36 31 37 70 38 64 39 66 40 32 41 69 42 63 43
REMARK SMILES IDX 62 44 33 46 55 47 40 48 54 49 41 50 44 51 53 52 67 53 42 54
REMARK SMILES IDX 43 55 52 57 68 58 45 59 34 60 35 61 39 62 36 63 38 64 37 65
REMARK SMILES IDX 56 66 57 67 61 68 58 69 60 70 59 71 46 72 47 73 51 74 48 75
REMARK SMILES IDX 50 76 49 77
REMARK H PARENT 66 45 44 56
REMARK Flexibility Score: inf
ROOT
ATOM      1  C   UNL A   1      32.773  36.007  32.148  1.00  0.00     0.202 C 
ENDROOT
BRANCH   1   2
ATOM      2  C   UNL A   1      33.941  36.301  33.094  1.00  0.00     0.261 C 
BRANCH   2   3
ATOM      3  O   UNL A   1      34.986  35.332  32.901  1.00  0.00    -0.457 OA
BRANCH   3   4
ATOM      4  C   UNL A   1      35.353  34.619  34.006  1.00  0.00     0.374 C 
ATOM      5  O   UNL A   1      35.142  34.962  35.162  1.00  0.00    -0.242 OA
BRANCH   4   6
ATOM      6  C   UNL A   1      35.928  33.360  33.588  1.00  0.00     0.212 A 
ATOM      7  C   UNL A   1      37.386  31.717  33.712  1.00  0.00     0.135 A 
ATOM      8  C   UNL A   1      36.456  31.330  32.774  1.00  0.00     0.052 A 
ATOM      9  O   UNL A   1      37.083  32.948  34.200  1.00  0.00    -0.449 OA
ATOM     10  C   UNL A   1      35.509  32.382  32.702  1.00  0.00     0.059 A 
BRANCH   7  11
ATOM     11  C   UNL A   1      38.571  31.093  34.259  1.00  0.00     0.017 A 
ATOM     12  C   UNL A   1      40.752  29.765  35.414  1.00  0.00     0.060 A 
ATOM     13  C   UNL A   1      40.215  30.900  36.034  1.00  0.00     0.016 A 
ATOM     14  C   UNL A   1      40.217  29.312  34.201  1.00  0.00     0.016 A 
ATOM     15  C   UNL A   1      39.135  31.568  35.450  1.00  0.00     0.013 A 
ATOM     16  C   UNL A   1      39.127  29.972  33.631  1.00  0.00     0.013 A 
BRANCH  12  17
ATOM     17  C   UNL A   1      41.813  29.007  36.114  1.00  0.00     0.338 C 
ATOM     18  O   UNL A   1      42.960  29.408  36.219  1.00  0.00    -0.246 OA
BRANCH  17  19
ATOM     19  O   UNL A   1      41.308  27.850  36.607  1.00  0.00    -0.462 OA
BRANCH  19  20
ATOM     20  C   UNL A   1      42.196  26.723  36.592  1.00  0.00     0.230 C 
ATOM     21  C   UNL A   1      42.184  25.995  35.260  1.00  0.00     0.049 C 
ENDBRANCH  19  20
ENDBRANCH  17  19
ENDBRANCH  12  17
ENDBRANCH   7  11
ENDBRANCH   4   6
ENDBRANCH   3   4
ENDBRANCH   2   3
ENDBRANCH   1   2
BRANCH   1  22
ATOM     22  O   UNL A   1      32.508  37.045  31.203  1.00  0.00    -0.374 OA
BRANCH  22  23
ATOM     23  C   UNL A   1      33.300  37.039  30.013  1.00  0.00     0.202 C 
BRANCH  23  24
ATOM     24  C   UNL A   1      32.699  36.250  28.846  1.00  0.00     0.261 C 
BRANCH  24  25
ATOM     25  O   UNL A   1      33.714  35.514  28.141  1.00  0.00    -0.460 OA
BRANCH  25  26
ATOM     26  C   UNL A   1      33.541  34.170  28.135  1.00  0.00     0.338 C 
ATOM     27  O   UNL A   1      32.517  33.558  27.884  1.00  0.00    -0.246 OA
BRANCH  26  28
ATOM     28  C   UNL A   1      34.837  33.492  28.332  1.00  0.00     0.060 A 
ATOM     29  C   UNL A   1      34.810  32.213  28.899  1.00  0.00     0.016 A 
ATOM     30  C   UNL A   1      36.057  34.108  28.034  1.00  0.00     0.016 A 
ATOM     31  C   UNL A   1      36.001  31.566  29.223  1.00  0.00     0.010 A 
ATOM     32  C   UNL A   1      37.252  33.459  28.364  1.00  0.00     0.010 A 
ATOM     33  C   UNL A   1      37.228  32.201  28.993  1.00  0.00    -0.014 A 
BRANCH  33  34
ATOM     34  C   UNL A   1      38.469  31.602  29.539  1.00  0.00     0.031 A 
ATOM     35  C   UNL A   1      39.247  32.349  30.587  1.00  0.00     0.074 A 
ATOM     36  C   UNL A   1      38.878  30.383  29.141  1.00  0.00     0.049 A 
ATOM     37  N   UNL A   1      40.342  31.999  31.213  1.00  0.00    -0.248 NA
ATOM     38  C   UNL A   1      38.719  33.665  30.985  1.00  0.00     0.031 C 
ATOM     39  C   UNL A   1      38.196  29.540  28.161  1.00  0.00     0.029 A 
ATOM     40  N   UNL A   1      39.970  29.645  29.522  1.00  0.00    -0.354 N 
ATOM     41  C   UNL A   1      40.634  33.048  32.076  1.00  0.00     0.074 A 
ATOM     42  C   UNL A   1      39.621  34.061  31.870  1.00  0.00     0.031 C 
ATOM     43  C   UNL A   1      38.887  28.395  28.017  1.00  0.00     0.029 A 
ATOM     44  C   UNL A   1      40.069  28.437  28.875  1.00  0.00     0.049 A 
ATOM     45  H   UNL A   1      40.620  29.952  30.194  1.00  0.00     0.167 HD
ATOM     46  C   UNL A   1      41.649  33.158  32.966  1.00  0.00     0.031 A 
ATOM     47  C   UNL A   1      41.013  27.480  28.958  1.00  0.00     0.031 A 
ATOM     48  C   UNL A   1      42.666  32.161  33.168  1.00  0.00     0.049 A 
ATOM     49  C   UNL A   1      42.170  27.657  29.904  1.00  0.00     0.074 A 
ATOM     50  C   UNL A   1      43.725  32.176  34.059  1.00  0.00     0.029 A 
ATOM     51  N   UNL A   1      42.755  30.973  32.461  1.00  0.00    -0.354 N 
ATOM     52  N   UNL A   1      42.416  28.640  30.736  1.00  0.00    -0.248 NA
ATOM     53  C   UNL A   1      43.175  26.583  29.927  1.00  0.00     0.031 C 
ATOM     54  C   UNL A   1      44.484  31.019  33.857  1.00  0.00     0.029 A 
ATOM     55  C   UNL A   1      43.867  30.259  32.876  1.00  0.00     0.049 A 
ATOM     56  H   UNL A   1      42.122  30.679  31.767  1.00  0.00     0.167 HD
ATOM     57  C   UNL A   1      43.587  28.292  31.397  1.00  0.00     0.074 A 
ATOM     58  C   UNL A   1      43.994  27.002  30.881  1.00  0.00     0.031 C 
ATOM     59  C   UNL A   1      44.262  28.979  32.352  1.00  0.00     0.031 A 
BRANCH  46  60
ATOM     60  C   UNL A   1      41.724  34.423  33.772  1.00  0.00    -0.014 A 
ATOM     61  C   UNL A   1      42.531  35.498  33.365  1.00  0.00     0.009 A 
ATOM     62  C   UNL A   1      40.955  34.553  34.938  1.00  0.00     0.009 A 
ATOM     63  C   UNL A   1      42.588  36.667  34.128  1.00  0.00     0.001 A 
ATOM     64  C   UNL A   1      40.995  35.732  35.685  1.00  0.00     0.001 A 
ATOM     65  C   UNL A   1      41.817  36.783  35.285  1.00  0.00     0.000 A 
ENDBRANCH  46  60
BRANCH  47  66
ATOM     66  C   UNL A   1      40.914  26.265  28.111  1.00  0.00    -0.014 A 
ATOM     67  C   UNL A   1      40.023  25.232  28.442  1.00  0.00     0.009 A 
ATOM     68  C   UNL A   1      41.726  26.124  26.975  1.00  0.00     0.009 A 
ATOM     69  C   UNL A   1      39.967  24.072  27.665  1.00  0.00     0.001 A 
ATOM     70  C   UNL A   1      41.648  24.975  26.186  1.00  0.00     0.001 A 
ATOM     71  C   UNL A   1      40.775  23.947  26.536  1.00  0.00     0.000 A 
ENDBRANCH  47  66
BRANCH  59  72
ATOM     72  C   UNL A   1      45.494  28.334  32.922  1.00  0.00    -0.014 A 
ATOM     73  C   UNL A   1      46.762  28.570  32.368  1.00  0.00     0.009 A 
ATOM     74  C   UNL A   1      45.387  27.509  34.053  1.00  0.00     0.009 A 
ATOM     75  C   UNL A   1      47.895  27.966  32.917  1.00  0.00     0.001 A 
ATOM     76  C   UNL A   1      46.524  26.927  34.615  1.00  0.00     0.001 A 
ATOM     77  C   UNL A   1      47.775  27.148  34.043  1.00  0.00     0.000 A 
ENDBRANCH  59  72
ENDBRANCH  33  34
ENDBRANCH  26  28
ENDBRANCH  25  26
ENDBRANCH  24  25
ENDBRANCH  23  24
ENDBRANCH  22  23
ENDBRANCH   1  22
TORSDOF 18
ENDMDL
