MODEL 1
REMARK VINA RESULT:     -10.2      0.000      0.000
REMARK SMILES CCNC(=O)c1cccc(-c2ccc(Cl)c(C(=O)OCCOCCOC(=O)c3ccc(-c4c5nc(c(-c6ccccc6)c6ccc([nH]6)c(-c6ccccc6)c6nc(c(-c7ccccc7)c7ccc4[nH]7)C=C6)C=C5)cc3)c2)c1
REMARK SMILES IDX 21 1 20 2 19 3 17 4 18 5 16 6 11 7 12 8 76 9 13 10 14 11
REMARK SMILES IDX 15 12 10 13 6 14 7 15 77 16 8 17 9 18 4 19 3 20 5 22 2 23
REMARK SMILES IDX 1 24 22 25 23 26 24 27 25 28 26 29 27 30 28 31 29 32 75 33
REMARK SMILES IDX 30 34 74 35 31 36 32 37 33 38 68 39 34 40 73 41 67 42 69 43
REMARK SMILES IDX 35 44 72 45 66 46 65 47 36 49 58 50 43 51 57 52 44 53 47 54
REMARK SMILES IDX 56 55 70 56 45 57 46 58 55 60 71 61 48 62 37 63 38 64 42 65
REMARK SMILES IDX 39 66 41 67 40 68 59 69 60 70 64 71 61 72 63 73 62 74 49 75
REMARK SMILES IDX 50 76 54 77 51 78 53 79 52 80
REMARK H PARENT 3 21 69 48 47 59
REMARK Flexibility Score: inf
ROOT
ATOM      1  C   UNL A   1      43.225  18.694  25.488  1.00  0.00     0.202 C 
ENDROOT
BRANCH   1   2
ATOM      2  C   UNL A   1      43.015  20.079  26.103  1.00  0.00     0.261 C 
BRANCH   2   3
ATOM      3  O   UNL A   1      41.674  20.528  25.853  1.00  0.00    -0.460 OA
BRANCH   3   4
ATOM      4  C   UNL A   1      40.875  20.617  26.945  1.00  0.00     0.339 C 
ATOM      5  O   UNL A   1      40.783  19.809  27.850  1.00  0.00    -0.246 OA
BRANCH   4   6
ATOM      6  C   UNL A   1      40.174  21.919  26.905  1.00  0.00     0.079 A 
ATOM      7  C   UNL A   1      38.295  23.254  26.062  1.00  0.00    -0.017 A 
ATOM      8  C   UNL A   1      38.766  24.327  26.839  1.00  0.00     0.010 A 
ATOM      9  C   UNL A   1      39.027  22.054  26.101  1.00  0.00     0.026 A 
ATOM     10  C   UNL A   1      39.927  24.212  27.611  1.00  0.00     0.022 A 
ATOM     11  C   UNL A   1      40.635  23.011  27.645  1.00  0.00     0.055 A 
ATOM     12  Cl  UNL A   1      42.100  22.986  28.557  1.00  0.00    -0.083 Cl
BRANCH   7  13
ATOM     13  C   UNL A   1      37.041  23.367  25.289  1.00  0.00    -0.018 A 
ATOM     14  C   UNL A   1      34.817  24.345  25.017  1.00  0.00     0.040 A 
ATOM     15  C   UNL A   1      34.685  23.741  23.766  1.00  0.00     0.014 A 
ATOM     16  C   UNL A   1      35.963  24.118  25.787  1.00  0.00     0.022 A 
ATOM     17  C   UNL A   1      35.722  22.957  23.268  1.00  0.00     0.001 A 
ATOM     18  C   UNL A   1      36.891  22.781  24.019  1.00  0.00     0.009 A 
BRANCH  14  19
ATOM     19  C   UNL A   1      33.711  25.183  25.528  1.00  0.00     0.251 C 
ATOM     20  N   UNL A   1      32.567  24.609  26.026  1.00  0.00    -0.352 N 
ATOM     21  H   UNL A   1      31.833  25.238  26.206  1.00  0.00     0.163 HD
ATOM     22  O   UNL A   1      33.823  26.406  25.510  1.00  0.00    -0.269 OA
BRANCH  20  23
ATOM     23  C   UNL A   1      32.268  23.217  26.329  1.00  0.00     0.112 C 
ATOM     24  C   UNL A   1      30.817  23.047  26.737  1.00  0.00     0.027 C 
ENDBRANCH  20  23
ENDBRANCH  14  19
ENDBRANCH   7  13
ENDBRANCH   4   6
ENDBRANCH   3   4
ENDBRANCH   2   3
ENDBRANCH   1   2
BRANCH   1  25
ATOM     25  O   UNL A   1      44.425  18.515  24.734  1.00  0.00    -0.374 OA
BRANCH  25  26
ATOM     26  C   UNL A   1      45.655  18.894  25.351  1.00  0.00     0.202 C 
BRANCH  26  27
ATOM     27  C   UNL A   1      46.393  20.091  24.737  1.00  0.00     0.261 C 
BRANCH  27  28
ATOM     28  O   UNL A   1      46.083  21.331  25.396  1.00  0.00    -0.460 OA
BRANCH  28  29
ATOM     29  C   UNL A   1      45.279  22.161  24.686  1.00  0.00     0.338 C 
ATOM     30  O   UNL A   1      44.737  21.935  23.617  1.00  0.00    -0.246 OA
BRANCH  29  31
ATOM     31  C   UNL A   1      44.991  23.375  25.472  1.00  0.00     0.060 A 
ATOM     32  C   UNL A   1      44.470  24.480  24.788  1.00  0.00     0.016 A 
ATOM     33  C   UNL A   1      45.298  23.459  26.831  1.00  0.00     0.016 A 
ATOM     34  C   UNL A   1      44.294  25.691  25.452  1.00  0.00     0.010 A 
ATOM     35  C   UNL A   1      45.129  24.679  27.494  1.00  0.00     0.010 A 
ATOM     36  C   UNL A   1      44.657  25.808  26.800  1.00  0.00    -0.014 A 
BRANCH  36  37
ATOM     37  C   UNL A   1      44.666  27.142  27.446  1.00  0.00     0.031 A 
ATOM     38  C   UNL A   1      43.370  27.728  27.936  1.00  0.00     0.074 A 
ATOM     39  C   UNL A   1      45.817  27.817  27.614  1.00  0.00     0.049 A 
ATOM     40  N   UNL A   1      43.145  28.889  28.496  1.00  0.00    -0.248 NA
ATOM     41  C   UNL A   1      42.169  26.893  27.773  1.00  0.00     0.031 C 
ATOM     42  C   UNL A   1      47.142  27.340  27.223  1.00  0.00     0.029 A 
ATOM     43  N   UNL A   1      46.049  29.056  28.155  1.00  0.00    -0.354 N 
ATOM     44  C   UNL A   1      41.778  28.928  28.744  1.00  0.00     0.074 A 
ATOM     45  C   UNL A   1      41.222  27.688  28.249  1.00  0.00     0.031 C 
ATOM     46  C   UNL A   1      48.051  28.281  27.531  1.00  0.00     0.029 A 
ATOM     47  C   UNL A   1      47.368  29.437  28.107  1.00  0.00     0.049 A 
ATOM     48  H   UNL A   1      45.340  29.618  28.541  1.00  0.00     0.167 HD
ATOM     49  C   UNL A   1      41.052  29.907  29.333  1.00  0.00     0.031 A 
ATOM     50  C   UNL A   1      47.953  30.596  28.464  1.00  0.00     0.031 A 
ATOM     51  C   UNL A   1      41.602  31.148  29.813  1.00  0.00     0.049 A 
ATOM     52  C   UNL A   1      47.111  31.703  29.041  1.00  0.00     0.074 A 
ATOM     53  C   UNL A   1      40.949  32.195  30.440  1.00  0.00     0.029 A 
ATOM     54  N   UNL A   1      42.935  31.512  29.708  1.00  0.00    -0.354 N 
ATOM     55  N   UNL A   1      45.824  31.717  29.297  1.00  0.00    -0.248 NA
ATOM     56  C   UNL A   1      47.806  32.952  29.384  1.00  0.00     0.031 C 
ATOM     57  C   UNL A   1      41.878  33.217  30.663  1.00  0.00     0.029 A 
ATOM     58  C   UNL A   1      43.120  32.780  30.230  1.00  0.00     0.049 A 
ATOM     59  H   UNL A   1      43.644  30.952  29.318  1.00  0.00     0.167 HD
ATOM     60  C   UNL A   1      45.562  32.962  29.855  1.00  0.00     0.074 A 
ATOM     61  C   UNL A   1      46.824  33.669  29.915  1.00  0.00     0.031 C 
ATOM     62  C   UNL A   1      44.382  33.473  30.283  1.00  0.00     0.031 A 
BRANCH  49  63
ATOM     63  C   UNL A   1      39.570  29.690  29.460  1.00  0.00    -0.014 A 
ATOM     64  C   UNL A   1      38.690  30.022  28.417  1.00  0.00     0.009 A 
ATOM     65  C   UNL A   1      39.050  29.114  30.629  1.00  0.00     0.009 A 
ATOM     66  C   UNL A   1      37.317  29.811  28.557  1.00  0.00     0.001 A 
ATOM     67  C   UNL A   1      37.679  28.878  30.755  1.00  0.00     0.001 A 
ATOM     68  C   UNL A   1      36.814  29.235  29.723  1.00  0.00     0.000 A 
ENDBRANCH  49  63
BRANCH  50  69
ATOM     69  C   UNL A   1      49.414  30.785  28.268  1.00  0.00    -0.014 A 
ATOM     70  C   UNL A   1      50.323  30.438  29.279  1.00  0.00     0.009 A 
ATOM     71  C   UNL A   1      49.905  31.330  27.071  1.00  0.00     0.009 A 
ATOM     72  C   UNL A   1      51.692  30.659  29.104  1.00  0.00     0.001 A 
ATOM     73  C   UNL A   1      51.275  31.522  26.888  1.00  0.00     0.001 A 
ATOM     74  C   UNL A   1      52.168  31.196  27.908  1.00  0.00     0.000 A 
ENDBRANCH  50  69
BRANCH  62  75
ATOM     75  C   UNL A   1      44.404  34.848  30.890  1.00  0.00    -0.014 A 
ATOM     76  C   UNL A   1      44.207  35.996  30.107  1.00  0.00     0.009 A 
ATOM     77  C   UNL A   1      44.580  34.992  32.276  1.00  0.00     0.009 A 
ATOM     78  C   UNL A   1      44.219  37.262  30.697  1.00  0.00     0.001 A 
ATOM     79  C   UNL A   1      44.561  36.257  32.866  1.00  0.00     0.001 A 
ATOM     80  C   UNL A   1      44.390  37.391  32.075  1.00  0.00     0.000 A 
ENDBRANCH  62  75
ENDBRANCH  36  37
ENDBRANCH  29  31
ENDBRANCH  28  29
ENDBRANCH  27  28
ENDBRANCH  26  27
ENDBRANCH  25  26
ENDBRANCH   1  25
TORSDOF 17
ENDMDL
MODEL 2
REMARK VINA RESULT:     -10.1      3.309      8.308
REMARK SMILES CCNC(=O)c1cccc(-c2ccc(Cl)c(C(=O)OCCOCCOC(=O)c3ccc(-c4c5nc(c(-c6ccccc6)c6ccc([nH]6)c(-c6ccccc6)c6nc(c(-c7ccccc7)c7ccc4[nH]7)C=C6)C=C5)cc3)c2)c1
REMARK SMILES IDX 21 1 20 2 19 3 17 4 18 5 16 6 11 7 12 8 76 9 13 10 14 11
REMARK SMILES IDX 15 12 10 13 6 14 7 15 77 16 8 17 9 18 4 19 3 20 5 22 2 23
REMARK SMILES IDX 1 24 22 25 23 26 24 27 25 28 26 29 27 30 28 31 29 32 75 33
REMARK SMILES IDX 30 34 74 35 31 36 32 37 33 38 68 39 34 40 73 41 67 42 69 43
REMARK SMILES IDX 35 44 72 45 66 46 65 47 36 49 58 50 43 51 57 52 44 53 47 54
REMARK SMILES IDX 56 55 70 56 45 57 46 58 55 60 71 61 48 62 37 63 38 64 42 65
REMARK SMILES IDX 39 66 41 67 40 68 59 69 60 70 64 71 61 72 63 73 62 74 49 75
REMARK SMILES IDX 50 76 54 77 51 78 53 79 52 80
REMARK H PARENT 3 21 69 48 47 59
REMARK Flexibility Score: inf
ROOT
ATOM      1  C   UNL A   1      34.180  22.918  27.001  1.00  0.00     0.202 C 
ENDROOT
BRANCH   1   2
ATOM      2  C   UNL A   1      33.327  23.521  25.883  1.00  0.00     0.261 C 
BRANCH   2   3
ATOM      3  O   UNL A   1      33.316  24.953  25.991  1.00  0.00    -0.460 OA
BRANCH   3   4
ATOM      4  C   UNL A   1      32.141  25.499  26.388  1.00  0.00     0.339 C 
ATOM      5  O   UNL A   1      31.219  24.927  26.941  1.00  0.00    -0.246 OA
BRANCH   4   6
ATOM      6  C   UNL A   1      32.183  26.951  26.109  1.00  0.00     0.079 A 
ATOM      7  C   UNL A   1      33.254  29.123  26.503  1.00  0.00    -0.017 A 
ATOM      8  C   UNL A   1      32.359  29.683  25.575  1.00  0.00     0.010 A 
ATOM      9  C   UNL A   1      33.139  27.746  26.765  1.00  0.00     0.026 A 
ATOM     10  C   UNL A   1      31.380  28.906  24.948  1.00  0.00     0.022 A 
ATOM     11  C   UNL A   1      31.287  27.540  25.213  1.00  0.00     0.055 A 
ATOM     12  Cl  UNL A   1      29.998  26.677  24.457  1.00  0.00    -0.083 Cl
BRANCH   7  13
ATOM     13  C   UNL A   1      34.317  29.940  27.124  1.00  0.00    -0.018 A 
ATOM     14  C   UNL A   1      35.046  32.064  28.090  1.00  0.00     0.040 A 
ATOM     15  C   UNL A   1      36.267  31.498  28.459  1.00  0.00     0.014 A 
ATOM     16  C   UNL A   1      34.105  31.304  27.388  1.00  0.00     0.022 A 
ATOM     17  C   UNL A   1      36.519  30.160  28.171  1.00  0.00     0.001 A 
ATOM     18  C   UNL A   1      35.549  29.388  27.519  1.00  0.00     0.009 A 
BRANCH  14  19
ATOM     19  C   UNL A   1      34.789  33.485  28.411  1.00  0.00     0.251 C 
ATOM     20  N   UNL A   1      34.543  33.880  29.703  1.00  0.00    -0.352 N 
ATOM     21  H   UNL A   1      34.241  34.811  29.801  1.00  0.00     0.163 HD
ATOM     22  O   UNL A   1      34.800  34.318  27.509  1.00  0.00    -0.269 OA
BRANCH  20  23
ATOM     23  C   UNL A   1      34.659  33.141  30.951  1.00  0.00     0.112 C 
ATOM     24  C   UNL A   1      34.367  34.031  32.143  1.00  0.00     0.027 C 
ENDBRANCH  20  23
ENDBRANCH  14  19
ENDBRANCH   7  13
ENDBRANCH   4   6
ENDBRANCH   3   4
ENDBRANCH   2   3
ENDBRANCH   1   2
BRANCH   1  25
ATOM     25  O   UNL A   1      34.936  21.756  26.660  1.00  0.00    -0.374 OA
BRANCH  25  26
ATOM     26  C   UNL A   1      35.309  21.588  25.292  1.00  0.00     0.202 C 
BRANCH  26  27
ATOM     27  C   UNL A   1      36.652  20.898  25.023  1.00  0.00     0.261 C 
BRANCH  27  28
ATOM     28  O   UNL A   1      37.758  21.817  25.031  1.00  0.00    -0.460 OA
BRANCH  28  29
ATOM     29  C   UNL A   1      38.791  21.450  25.830  1.00  0.00     0.338 C 
ATOM     30  O   UNL A   1      39.311  20.350  25.912  1.00  0.00    -0.246 OA
BRANCH  29  31
ATOM     31  C   UNL A   1      39.348  22.635  26.507  1.00  0.00     0.060 A 
ATOM     32  C   UNL A   1      38.833  23.886  26.148  1.00  0.00     0.016 A 
ATOM     33  C   UNL A   1      40.403  22.533  27.414  1.00  0.00     0.016 A 
ATOM     34  C   UNL A   1      39.402  25.049  26.663  1.00  0.00     0.010 A 
ATOM     35  C   UNL A   1      40.980  23.702  27.923  1.00  0.00     0.010 A 
ATOM     36  C   UNL A   1      40.504  24.965  27.524  1.00  0.00    -0.014 A 
BRANCH  36  37
ATOM     37  C   UNL A   1      41.236  26.196  27.903  1.00  0.00     0.031 A 
ATOM     38  C   UNL A   1      42.596  26.452  27.311  1.00  0.00     0.074 A 
ATOM     39  C   UNL A   1      40.690  27.089  28.747  1.00  0.00     0.049 A 
ATOM     40  N   UNL A   1      43.422  27.443  27.531  1.00  0.00    -0.248 NA
ATOM     41  C   UNL A   1      43.088  25.457  26.344  1.00  0.00     0.031 C 
ATOM     42  C   UNL A   1      39.364  26.978  29.353  1.00  0.00     0.029 A 
ATOM     43  N   UNL A   1      41.193  28.264  29.245  1.00  0.00    -0.354 N 
ATOM     44  C   UNL A   1      44.534  27.187  26.738  1.00  0.00     0.074 A 
ATOM     45  C   UNL A   1      44.289  25.936  26.054  1.00  0.00     0.031 C 
ATOM     46  C   UNL A   1      39.160  28.042  30.149  1.00  0.00     0.029 A 
ATOM     47  C   UNL A   1      40.353  28.887  30.135  1.00  0.00     0.049 A 
ATOM     48  H   UNL A   1      42.071  28.626  28.988  1.00  0.00     0.167 HD
ATOM     49  C   UNL A   1      45.657  27.930  26.590  1.00  0.00     0.031 A 
ATOM     50  C   UNL A   1      40.536  29.998  30.874  1.00  0.00     0.031 A 
ATOM     51  C   UNL A   1      45.908  29.167  27.280  1.00  0.00     0.049 A 
ATOM     52  C   UNL A   1      41.827  30.762  30.753  1.00  0.00     0.074 A 
ATOM     53  C   UNL A   1      47.009  30.001  27.183  1.00  0.00     0.029 A 
ATOM     54  N   UNL A   1      45.050  29.742  28.204  1.00  0.00    -0.354 N 
ATOM     55  N   UNL A   1      42.860  30.526  29.979  1.00  0.00    -0.248 NA
ATOM     56  C   UNL A   1      41.976  31.950  31.607  1.00  0.00     0.031 C 
ATOM     57  C   UNL A   1      46.842  31.051  28.092  1.00  0.00     0.029 A 
ATOM     58  C   UNL A   1      45.610  30.903  28.708  1.00  0.00     0.049 A 
ATOM     59  H   UNL A   1      44.173  29.378  28.465  1.00  0.00     0.167 HD
ATOM     60  C   UNL A   1      43.765  31.549  30.232  1.00  0.00     0.074 A 
ATOM     61  C   UNL A   1      43.155  32.415  31.218  1.00  0.00     0.031 C 
ATOM     62  C   UNL A   1      44.992  31.755  29.692  1.00  0.00     0.031 A 
BRANCH  49  63
ATOM     63  C   UNL A   1      46.720  27.401  25.667  1.00  0.00    -0.014 A 
ATOM     64  C   UNL A   1      47.609  26.394  26.077  1.00  0.00     0.009 A 
ATOM     65  C   UNL A   1      46.812  27.896  24.358  1.00  0.00     0.009 A 
ATOM     66  C   UNL A   1      48.589  25.918  25.202  1.00  0.00     0.001 A 
ATOM     67  C   UNL A   1      47.774  27.399  23.477  1.00  0.00     0.001 A 
ATOM     68  C   UNL A   1      48.667  26.418  23.902  1.00  0.00     0.000 A 
ENDBRANCH  49  63
BRANCH  50  69
ATOM     69  C   UNL A   1      39.477  30.450  31.814  1.00  0.00    -0.014 A 
ATOM     70  C   UNL A   1      39.403  29.928  33.114  1.00  0.00     0.009 A 
ATOM     71  C   UNL A   1      38.523  31.396  31.406  1.00  0.00     0.009 A 
ATOM     72  C   UNL A   1      38.379  30.325  33.977  1.00  0.00     0.001 A 
ATOM     73  C   UNL A   1      37.519  31.812  32.281  1.00  0.00     0.001 A 
ATOM     74  C   UNL A   1      37.440  31.270  33.563  1.00  0.00     0.000 A 
ENDBRANCH  50  69
BRANCH  62  75
ATOM     75  C   UNL A   1      45.740  32.984  30.126  1.00  0.00    -0.014 A 
ATOM     76  C   UNL A   1      46.633  32.952  31.208  1.00  0.00     0.009 A 
ATOM     77  C   UNL A   1      45.581  34.182  29.411  1.00  0.00     0.009 A 
ATOM     78  C   UNL A   1      47.327  34.104  31.585  1.00  0.00     0.001 A 
ATOM     79  C   UNL A   1      46.298  35.324  29.772  1.00  0.00     0.001 A 
ATOM     80  C   UNL A   1      47.163  35.287  30.864  1.00  0.00     0.000 A 
ENDBRANCH  62  75
ENDBRANCH  36  37
ENDBRANCH  29  31
ENDBRANCH  28  29
ENDBRANCH  27  28
ENDBRANCH  26  27
ENDBRANCH  25  26
ENDBRANCH   1  25
TORSDOF 17
ENDMDL
MODEL 3
REMARK VINA RESULT:     -10.0      3.910      9.647
REMARK SMILES CCNC(=O)c1cccc(-c2ccc(Cl)c(C(=O)OCCOCCOC(=O)c3ccc(-c4c5nc(c(-c6ccccc6)c6ccc([nH]6)c(-c6ccccc6)c6nc(c(-c7ccccc7)c7ccc4[nH]7)C=C6)C=C5)cc3)c2)c1
REMARK SMILES IDX 21 1 20 2 19 3 17 4 18 5 16 6 11 7 12 8 76 9 13 10 14 11
REMARK SMILES IDX 15 12 10 13 6 14 7 15 77 16 8 17 9 18 4 19 3 20 5 22 2 23
REMARK SMILES IDX 1 24 22 25 23 26 24 27 25 28 26 29 27 30 28 31 29 32 75 33
REMARK SMILES IDX 30 34 74 35 31 36 32 37 33 38 68 39 34 40 73 41 67 42 69 43
REMARK SMILES IDX 35 44 72 45 66 46 65 47 36 49 58 50 43 51 57 52 44 53 47 54
REMARK SMILES IDX 56 55 70 56 45 57 46 58 55 60 71 61 48 62 37 63 38 64 42 65
REMARK SMILES IDX 39 66 41 67 40 68 59 69 60 70 64 71 61 72 63 73 62 74 49 75
REMARK SMILES IDX 50 76 54 77 51 78 53 79 52 80
REMARK H PARENT 3 21 69 48 47 59
REMARK Flexibility Score: inf
ROOT
ATOM      1  C   UNL A   1      33.668  35.056  31.465  1.00  0.00     0.202 C 
ENDROOT
BRANCH   1   2
ATOM      2  C   UNL A   1      33.934  35.123  29.960  1.00  0.00     0.261 C 
BRANCH   2   3
ATOM      3  O   UNL A   1      33.821  33.812  29.384  1.00  0.00    -0.460 OA
BRANCH   3   4
ATOM      4  C   UNL A   1      34.320  33.681  28.130  1.00  0.00     0.339 C 
ATOM      5  O   UNL A   1      34.373  34.541  27.271  1.00  0.00    -0.246 OA
BRANCH   4   6
ATOM      6  C   UNL A   1      34.878  32.318  27.990  1.00  0.00     0.079 A 
ATOM      7  C   UNL A   1      34.503  29.953  27.453  1.00  0.00    -0.017 A 
ATOM      8  C   UNL A   1      35.878  29.737  27.644  1.00  0.00     0.010 A 
ATOM      9  C   UNL A   1      34.018  31.259  27.644  1.00  0.00     0.026 A 
ATOM     10  C   UNL A   1      36.732  30.777  28.025  1.00  0.00     0.022 A 
ATOM     11  C   UNL A   1      36.236  32.068  28.201  1.00  0.00     0.055 A 
ATOM     12  Cl  UNL A   1      37.345  33.270  28.752  1.00  0.00    -0.083 Cl
BRANCH   7  13
ATOM     13  C   UNL A   1      33.616  28.860  27.002  1.00  0.00    -0.018 A 
ATOM     14  C   UNL A   1      33.315  26.757  25.793  1.00  0.00     0.040 A 
ATOM     15  C   UNL A   1      31.998  26.665  26.245  1.00  0.00     0.014 A 
ATOM     16  C   UNL A   1      34.095  27.868  26.130  1.00  0.00     0.022 A 
ATOM     17  C   UNL A   1      31.486  27.657  27.076  1.00  0.00     0.001 A 
ATOM     18  C   UNL A   1      32.291  28.737  27.457  1.00  0.00     0.009 A 
BRANCH  14  19
ATOM     19  C   UNL A   1      33.849  25.690  24.918  1.00  0.00     0.251 C 
ATOM     20  N   UNL A   1      33.674  25.745  23.557  1.00  0.00    -0.352 N 
ATOM     21  H   UNL A   1      33.932  24.928  23.074  1.00  0.00     0.163 HD
ATOM     22  O   UNL A   1      34.458  24.749  25.419  1.00  0.00    -0.269 OA
BRANCH  20  23
ATOM     23  C   UNL A   1      33.169  26.819  22.715  1.00  0.00     0.112 C 
ATOM     24  C   UNL A   1      31.683  26.662  22.460  1.00  0.00     0.027 C 
ENDBRANCH  20  23
ENDBRANCH  14  19
ENDBRANCH   7  13
ENDBRANCH   4   6
ENDBRANCH   3   4
ENDBRANCH   2   3
ENDBRANCH   1   2
BRANCH   1  25
ATOM     25  O   UNL A   1      34.315  33.997  32.172  1.00  0.00    -0.374 OA
BRANCH  25  26
ATOM     26  C   UNL A   1      34.363  34.085  33.597  1.00  0.00     0.202 C 
BRANCH  26  27
ATOM     27  C   UNL A   1      35.535  33.381  34.292  1.00  0.00     0.261 C 
BRANCH  27  28
ATOM     28  O   UNL A   1      36.388  32.682  33.369  1.00  0.00    -0.460 OA
BRANCH  28  29
ATOM     29  C   UNL A   1      37.312  31.880  33.953  1.00  0.00     0.338 C 
ATOM     30  O   UNL A   1      37.396  31.579  35.131  1.00  0.00    -0.246 OA
BRANCH  29  31
ATOM     31  C   UNL A   1      38.155  31.250  32.919  1.00  0.00     0.060 A 
ATOM     32  C   UNL A   1      39.269  30.520  33.350  1.00  0.00     0.016 A 
ATOM     33  C   UNL A   1      37.907  31.435  31.558  1.00  0.00     0.016 A 
ATOM     34  C   UNL A   1      40.169  30.007  32.418  1.00  0.00     0.010 A 
ATOM     35  C   UNL A   1      38.817  30.927  30.625  1.00  0.00     0.010 A 
ATOM     36  C   UNL A   1      39.968  30.240  31.052  1.00  0.00    -0.014 A 
BRANCH  36  37
ATOM     37  C   UNL A   1      41.028  29.877  30.081  1.00  0.00     0.031 A 
ATOM     38  C   UNL A   1      40.927  28.571  29.340  1.00  0.00     0.074 A 
ATOM     39  C   UNL A   1      42.057  30.709  29.845  1.00  0.00     0.049 A 
ATOM     40  N   UNL A   1      41.756  28.043  28.476  1.00  0.00    -0.248 NA
ATOM     41  C   UNL A   1      39.732  27.754  29.609  1.00  0.00     0.031 C 
ATOM     42  C   UNL A   1      42.246  32.019  30.465  1.00  0.00     0.029 A 
ATOM     43  N   UNL A   1      43.144  30.565  29.020  1.00  0.00    -0.354 N 
ATOM     44  C   UNL A   1      41.189  26.830  28.106  1.00  0.00     0.074 A 
ATOM     45  C   UNL A   1      39.962  26.687  28.858  1.00  0.00     0.031 C 
ATOM     46  C   UNL A   1      43.387  32.558  30.003  1.00  0.00     0.029 A 
ATOM     47  C   UNL A   1      44.024  31.617  29.084  1.00  0.00     0.049 A 
ATOM     48  H   UNL A   1      43.279  29.783  28.438  1.00  0.00     0.167 HD
ATOM     49  C   UNL A   1      41.648  25.917  27.216  1.00  0.00     0.031 A 
ATOM     50  C   UNL A   1      45.220  31.790  28.488  1.00  0.00     0.031 A 
ATOM     51  C   UNL A   1      42.877  26.051  26.479  1.00  0.00     0.049 A 
ATOM     52  C   UNL A   1      45.748  30.723  27.567  1.00  0.00     0.074 A 
ATOM     53  C   UNL A   1      43.418  25.187  25.541  1.00  0.00     0.029 A 
ATOM     54  N   UNL A   1      43.760  27.112  26.603  1.00  0.00    -0.354 N 
ATOM     55  N   UNL A   1      45.190  29.593  27.203  1.00  0.00    -0.248 NA
ATOM     56  C   UNL A   1      47.071  30.960  26.970  1.00  0.00     0.031 C 
ATOM     57  C   UNL A   1      44.657  25.699  25.142  1.00  0.00     0.029 A 
ATOM     58  C   UNL A   1      44.857  26.910  25.783  1.00  0.00     0.049 A 
ATOM     59  H   UNL A   1      43.627  27.892  27.188  1.00  0.00     0.167 HD
ATOM     60  C   UNL A   1      46.079  28.999  26.315  1.00  0.00     0.074 A 
ATOM     61  C   UNL A   1      47.205  29.900  26.184  1.00  0.00     0.031 C 
ATOM     62  C   UNL A   1      45.971  27.815  25.664  1.00  0.00     0.031 A 
BRANCH  49  63
ATOM     63  C   UNL A   1      40.832  24.671  27.020  1.00  0.00    -0.014 A 
ATOM     64  C   UNL A   1      41.362  23.399  27.290  1.00  0.00     0.009 A 
ATOM     65  C   UNL A   1      39.501  24.773  26.587  1.00  0.00     0.009 A 
ATOM     66  C   UNL A   1      40.585  22.254  27.099  1.00  0.00     0.001 A 
ATOM     67  C   UNL A   1      38.717  23.629  26.425  1.00  0.00     0.001 A 
ATOM     68  C   UNL A   1      39.262  22.371  26.672  1.00  0.00     0.000 A 
ENDBRANCH  49  63
BRANCH  50  69
ATOM     69  C   UNL A   1      46.016  33.015  28.758  1.00  0.00    -0.014 A 
ATOM     70  C   UNL A   1      45.868  34.157  27.955  1.00  0.00     0.009 A 
ATOM     71  C   UNL A   1      46.943  33.042  29.812  1.00  0.00     0.009 A 
ATOM     72  C   UNL A   1      46.652  35.290  28.187  1.00  0.00     0.001 A 
ATOM     73  C   UNL A   1      47.703  34.186  30.059  1.00  0.00     0.001 A 
ATOM     74  C   UNL A   1      47.565  35.306  29.241  1.00  0.00     0.000 A 
ENDBRANCH  50  69
BRANCH  62  75
ATOM     75  C   UNL A   1      47.081  27.442  24.721  1.00  0.00    -0.014 A 
ATOM     76  C   UNL A   1      47.100  27.902  23.396  1.00  0.00     0.009 A 
ATOM     77  C   UNL A   1      48.147  26.654  25.182  1.00  0.00     0.009 A 
ATOM     78  C   UNL A   1      48.149  27.552  22.542  1.00  0.00     0.001 A 
ATOM     79  C   UNL A   1      49.209  26.330  24.335  1.00  0.00     0.001 A 
ATOM     80  C   UNL A   1      49.204  26.772  23.014  1.00  0.00     0.000 A 
ENDBRANCH  62  75
ENDBRANCH  36  37
ENDBRANCH  29  31
ENDBRANCH  28  29
ENDBRANCH  27  28
ENDBRANCH  26  27
ENDBRANCH  25  26
ENDBRANCH   1  25
TORSDOF 17
ENDMDL
