MODEL 1
REMARK VINA RESULT:      -7.7      0.000      0.000
REMARK SMILES CCC[C@@](C)(C/C=C/c1ccccc1)C(=O)OCCOCCOC(=O)c1ccc(-c2c3nc(c(-c4ccccc4)c4ccc([nH]4)c(-c4ccccc4)c4nc(c(-c5ccccc5)c5ccc2[nH]5)C=C4)C=C3)cc1
REMARK SMILES IDX 19 1 18 2 17 3 15 4 16 5 4 6 5 7 3 8 2 9 1 10 6 11 7 12 8 13
REMARK SMILES IDX 9 14 10 15 14 16 11 17 13 18 12 19 20 20 21 21 22 22 23 23
REMARK SMILES IDX 24 24 25 25 26 26 27 27 73 28 28 29 72 30 29 31 30 32 31 33
REMARK SMILES IDX 66 34 32 35 71 36 65 37 67 38 33 39 70 40 64 41 63 42 34 44
REMARK SMILES IDX 56 45 41 46 55 47 42 48 45 49 54 50 68 51 43 52 44 53 53 55
REMARK SMILES IDX 69 56 46 57 35 58 36 59 40 60 37 61 39 62 38 63 57 64 58 65
REMARK SMILES IDX 62 66 59 67 61 68 60 69 47 70 48 71 52 72 49 73 51 74 50 75
REMARK H PARENT 67 43 45 54
REMARK Flexibility Score: inf
ROOT
ATOM      1  C   UNL A   1      35.093  34.576  33.682  1.00  0.00     0.202 C 
ENDROOT
BRANCH   1   2
ATOM      2  C   UNL A   1      36.447  34.332  34.362  1.00  0.00     0.261 C 
BRANCH   2   3
ATOM      3  O   UNL A   1      37.054  33.065  34.048  1.00  0.00    -0.463 OA
BRANCH   3   4
ATOM      4  C   UNL A   1      38.193  32.783  34.733  1.00  0.00     0.312 C 
ATOM      5  O   UNL A   1      38.783  33.601  35.433  1.00  0.00    -0.252 OA
BRANCH   4   6
ATOM      6  C   UNL A   1      38.709  31.346  34.551  1.00  0.00     0.069 C 
ATOM      7  C   UNL A   1      38.160  30.572  35.779  1.00  0.00     0.024 C 
BRANCH   6   8
ATOM      8  C   UNL A   1      38.165  30.722  33.232  1.00  0.00     0.018 C 
BRANCH   8   9
ATOM      9  C   UNL A   1      37.582  29.302  33.245  1.00  0.00    -0.002 C 
ATOM     10  C   UNL A   1      38.324  28.320  32.345  1.00  0.00     0.004 C 
ENDBRANCH   8   9
ENDBRANCH   6   8
BRANCH   6  11
ATOM     11  C   UNL A   1      40.275  31.204  34.638  1.00  0.00     0.046 C 
BRANCH  11  12
ATOM     12  C   UNL A   1      40.863  29.910  35.161  1.00  0.00    -0.025 C 
ATOM     13  C   UNL A   1      41.596  29.061  34.421  1.00  0.00     0.004 C 
BRANCH  13  14
ATOM     14  C   UNL A   1      42.158  27.771  34.875  1.00  0.00    -0.026 A 
ATOM     15  C   UNL A   1      42.352  27.576  36.251  1.00  0.00     0.008 A 
ATOM     16  C   UNL A   1      42.615  26.774  33.998  1.00  0.00     0.008 A 
ATOM     17  C   UNL A   1      43.029  26.450  36.731  1.00  0.00     0.001 A 
ATOM     18  C   UNL A   1      43.296  25.650  34.477  1.00  0.00     0.001 A 
ATOM     19  C   UNL A   1      43.516  25.496  35.843  1.00  0.00     0.000 A 
ENDBRANCH  13  14
ENDBRANCH  11  12
ENDBRANCH   6  11
ENDBRANCH   4   6
ENDBRANCH   3   4
ENDBRANCH   2   3
ENDBRANCH   1   2
BRANCH   1  20
ATOM     20  O   UNL A   1      34.963  35.765  32.910  1.00  0.00    -0.374 OA
BRANCH  20  21
ATOM     21  C   UNL A   1      33.667  36.373  32.868  1.00  0.00     0.202 C 
BRANCH  21  22
ATOM     22  C   UNL A   1      32.834  36.093  31.615  1.00  0.00     0.261 C 
BRANCH  22  23
ATOM     23  O   UNL A   1      33.677  36.054  30.449  1.00  0.00    -0.460 OA
BRANCH  23  24
ATOM     24  C   UNL A   1      33.374  35.049  29.601  1.00  0.00     0.338 C 
ATOM     25  O   UNL A   1      32.403  34.954  28.872  1.00  0.00    -0.246 OA
BRANCH  24  26
ATOM     26  C   UNL A   1      34.540  34.157  29.495  1.00  0.00     0.060 A 
ATOM     27  C   UNL A   1      34.708  33.197  30.498  1.00  0.00     0.016 A 
ATOM     28  C   UNL A   1      35.521  34.355  28.523  1.00  0.00     0.016 A 
ATOM     29  C   UNL A   1      35.896  32.471  30.571  1.00  0.00     0.010 A 
ATOM     30  C   UNL A   1      36.711  33.619  28.594  1.00  0.00     0.010 A 
ATOM     31  C   UNL A   1      36.923  32.709  29.647  1.00  0.00    -0.014 A 
BRANCH  31  32
ATOM     32  C   UNL A   1      38.265  32.124  29.901  1.00  0.00     0.031 A 
ATOM     33  C   UNL A   1      39.236  32.869  30.778  1.00  0.00     0.074 A 
ATOM     34  C   UNL A   1      38.590  30.910  29.424  1.00  0.00     0.049 A 
ATOM     35  N   UNL A   1      40.419  32.501  31.203  1.00  0.00    -0.248 NA
ATOM     36  C   UNL A   1      38.816  34.201  31.244  1.00  0.00     0.031 C 
ATOM     37  C   UNL A   1      37.734  30.068  28.591  1.00  0.00     0.029 A 
ATOM     38  N   UNL A   1      39.735  30.169  29.590  1.00  0.00    -0.354 N 
ATOM     39  C   UNL A   1      40.880  33.549  31.989  1.00  0.00     0.074 A 
ATOM     40  C   UNL A   1      39.868  34.583  31.955  1.00  0.00     0.031 C 
ATOM     41  C   UNL A   1      38.378  28.919  28.327  1.00  0.00     0.029 A 
ATOM     42  C   UNL A   1      39.696  28.951  28.958  1.00  0.00     0.049 A 
ATOM     43  H   UNL A   1      40.509  30.482  30.111  1.00  0.00     0.167 HD
ATOM     44  C   UNL A   1      42.036  33.644  32.689  1.00  0.00     0.031 A 
ATOM     45  C   UNL A   1      40.619  27.971  28.897  1.00  0.00     0.031 A 
ATOM     46  C   UNL A   1      43.057  32.632  32.719  1.00  0.00     0.049 A 
ATOM     47  C   UNL A   1      41.923  28.126  29.631  1.00  0.00     0.074 A 
ATOM     48  C   UNL A   1      44.258  32.638  33.408  1.00  0.00     0.029 A 
ATOM     49  N   UNL A   1      43.000  31.436  32.023  1.00  0.00    -0.354 N 
ATOM     50  N   UNL A   1      42.328  29.108  30.399  1.00  0.00    -0.248 NA
ATOM     51  C   UNL A   1      42.892  27.026  29.498  1.00  0.00     0.031 C 
ATOM     52  C   UNL A   1      44.948  31.461  33.094  1.00  0.00     0.029 A 
ATOM     53  C   UNL A   1      44.155  30.705  32.246  1.00  0.00     0.049 A 
ATOM     54  H   UNL A   1      42.250  31.149  31.454  1.00  0.00     0.167 HD
ATOM     55  C   UNL A   1      43.586  28.736  30.856  1.00  0.00     0.074 A 
ATOM     56  C   UNL A   1      43.872  27.433  30.294  1.00  0.00     0.031 C 
ATOM     57  C   UNL A   1      44.428  29.412  31.675  1.00  0.00     0.031 A 
BRANCH  44  58
ATOM     58  C   UNL A   1      42.266  34.909  33.465  1.00  0.00    -0.014 A 
ATOM     59  C   UNL A   1      41.804  35.043  34.785  1.00  0.00     0.009 A 
ATOM     60  C   UNL A   1      42.973  35.970  32.879  1.00  0.00     0.009 A 
ATOM     61  C   UNL A   1      42.021  36.228  35.491  1.00  0.00     0.001 A 
ATOM     62  C   UNL A   1      43.207  37.145  33.595  1.00  0.00     0.001 A 
ATOM     63  C   UNL A   1      42.725  37.275  34.897  1.00  0.00     0.000 A 
ENDBRANCH  44  58
BRANCH  45  64
ATOM     64  C   UNL A   1      40.344  26.743  28.108  1.00  0.00    -0.014 A 
ATOM     65  C   UNL A   1      40.836  26.607  26.800  1.00  0.00     0.009 A 
ATOM     66  C   UNL A   1      39.575  25.705  28.657  1.00  0.00     0.009 A 
ATOM     67  C   UNL A   1      40.544  25.465  26.052  1.00  0.00     0.001 A 
ATOM     68  C   UNL A   1      39.304  24.555  27.913  1.00  0.00     0.001 A 
ATOM     69  C   UNL A   1      39.782  24.439  26.609  1.00  0.00     0.000 A 
ENDBRANCH  45  64
BRANCH  57  70
ATOM     70  C   UNL A   1      45.727  28.747  32.029  1.00  0.00    -0.014 A 
ATOM     71  C   UNL A   1      45.809  27.835  33.093  1.00  0.00     0.009 A 
ATOM     72  C   UNL A   1      46.875  29.008  31.265  1.00  0.00     0.009 A 
ATOM     73  C   UNL A   1      47.024  27.221  33.403  1.00  0.00     0.001 A 
ATOM     74  C   UNL A   1      48.082  28.375  31.563  1.00  0.00     0.001 A 
ATOM     75  C   UNL A   1      48.158  27.489  32.636  1.00  0.00     0.000 A 
ENDBRANCH  57  70
ENDBRANCH  31  32
ENDBRANCH  24  26
ENDBRANCH  23  24
ENDBRANCH  22  23
ENDBRANCH  21  22
ENDBRANCH  20  21
ENDBRANCH   1  20
TORSDOF 19
ENDMDL
MODEL 2
REMARK VINA RESULT:      -7.2      5.679     10.837
REMARK SMILES CCC[C@@](C)(C/C=C/c1ccccc1)C(=O)OCCOCCOC(=O)c1ccc(-c2c3nc(c(-c4ccccc4)c4ccc([nH]4)c(-c4ccccc4)c4nc(c(-c5ccccc5)c5ccc2[nH]5)C=C4)C=C3)cc1
REMARK SMILES IDX 19 1 18 2 17 3 15 4 16 5 4 6 5 7 3 8 2 9 1 10 6 11 7 12 8 13
REMARK SMILES IDX 9 14 10 15 14 16 11 17 13 18 12 19 20 20 21 21 22 22 23 23
REMARK SMILES IDX 24 24 25 25 26 26 27 27 73 28 28 29 72 30 29 31 30 32 31 33
REMARK SMILES IDX 66 34 32 35 71 36 65 37 67 38 33 39 70 40 64 41 63 42 34 44
REMARK SMILES IDX 56 45 41 46 55 47 42 48 45 49 54 50 68 51 43 52 44 53 53 55
REMARK SMILES IDX 69 56 46 57 35 58 36 59 40 60 37 61 39 62 38 63 57 64 58 65
REMARK SMILES IDX 62 66 59 67 61 68 60 69 47 70 48 71 52 72 49 73 51 74 50 75
REMARK H PARENT 67 43 45 54
REMARK Flexibility Score: inf
ROOT
ATOM      1  C   UNL A   1      33.196  21.365  24.330  1.00  0.00     0.202 C 
ENDROOT
BRANCH   1   2
ATOM      2  C   UNL A   1      33.135  22.878  24.582  1.00  0.00     0.261 C 
BRANCH   2   3
ATOM      3  O   UNL A   1      32.460  23.627  23.554  1.00  0.00    -0.463 OA
BRANCH   3   4
ATOM      4  C   UNL A   1      33.147  24.694  23.068  1.00  0.00     0.312 C 
ATOM      5  O   UNL A   1      34.147  24.590  22.361  1.00  0.00    -0.252 OA
BRANCH   4   6
ATOM      6  C   UNL A   1      32.586  26.061  23.489  1.00  0.00     0.069 C 
ATOM      7  C   UNL A   1      33.452  27.095  22.719  1.00  0.00     0.024 C 
BRANCH   6   8
ATOM      8  C   UNL A   1      31.091  26.199  23.080  1.00  0.00     0.018 C 
BRANCH   8   9
ATOM      9  C   UNL A   1      30.152  27.087  23.910  1.00  0.00    -0.002 C 
ATOM     10  C   UNL A   1      30.070  28.528  23.421  1.00  0.00     0.004 C 
ENDBRANCH   8   9
ENDBRANCH   6   8
BRANCH   6  11
ATOM     11  C   UNL A   1      32.789  26.404  25.012  1.00  0.00     0.046 C 
BRANCH  11  12
ATOM     12  C   UNL A   1      33.540  27.665  25.384  1.00  0.00    -0.025 C 
ATOM     13  C   UNL A   1      33.528  28.218  26.609  1.00  0.00     0.004 C 
BRANCH  13  14
ATOM     14  C   UNL A   1      34.212  29.466  27.009  1.00  0.00    -0.026 A 
ATOM     15  C   UNL A   1      35.592  29.418  27.261  1.00  0.00     0.008 A 
ATOM     16  C   UNL A   1      33.539  30.671  27.263  1.00  0.00     0.008 A 
ATOM     17  C   UNL A   1      36.265  30.518  27.801  1.00  0.00     0.001 A 
ATOM     18  C   UNL A   1      34.211  31.771  27.807  1.00  0.00     0.001 A 
ATOM     19  C   UNL A   1      35.571  31.689  28.090  1.00  0.00     0.000 A 
ENDBRANCH  13  14
ENDBRANCH  11  12
ENDBRANCH   6  11
ENDBRANCH   4   6
ENDBRANCH   3   4
ENDBRANCH   2   3
ENDBRANCH   1   2
BRANCH   1  20
ATOM     20  O   UNL A   1      34.483  20.757  24.368  1.00  0.00    -0.374 OA
BRANCH  20  21
ATOM     21  C   UNL A   1      35.577  21.577  24.795  1.00  0.00     0.202 C 
BRANCH  21  22
ATOM     22  C   UNL A   1      36.865  20.840  25.165  1.00  0.00     0.261 C 
BRANCH  22  23
ATOM     23  O   UNL A   1      38.001  21.713  25.032  1.00  0.00    -0.460 OA
BRANCH  23  24
ATOM     24  C   UNL A   1      39.024  21.391  25.852  1.00  0.00     0.338 C 
ATOM     25  O   UNL A   1      39.679  20.365  25.860  1.00  0.00    -0.246 OA
BRANCH  24  26
ATOM     26  C   UNL A   1      39.414  22.591  26.610  1.00  0.00     0.060 A 
ATOM     27  C   UNL A   1      38.837  23.807  26.229  1.00  0.00     0.016 A 
ATOM     28  C   UNL A   1      40.428  22.549  27.568  1.00  0.00     0.016 A 
ATOM     29  C   UNL A   1      39.320  25.001  26.762  1.00  0.00     0.010 A 
ATOM     30  C   UNL A   1      40.908  23.750  28.106  1.00  0.00     0.010 A 
ATOM     31  C   UNL A   1      40.390  24.984  27.669  1.00  0.00    -0.014 A 
BRANCH  31  32
ATOM     32  C   UNL A   1      41.057  26.265  28.015  1.00  0.00     0.031 A 
ATOM     33  C   UNL A   1      42.402  26.577  27.416  1.00  0.00     0.074 A 
ATOM     34  C   UNL A   1      40.442  27.177  28.789  1.00  0.00     0.049 A 
ATOM     35  N   UNL A   1      43.118  27.669  27.509  1.00  0.00    -0.248 NA
ATOM     36  C   UNL A   1      43.021  25.520  26.597  1.00  0.00     0.031 C 
ATOM     37  C   UNL A   1      39.127  27.019  29.405  1.00  0.00     0.029 A 
ATOM     38  N   UNL A   1      40.848  28.432  29.174  1.00  0.00    -0.354 N 
ATOM     39  C   UNL A   1      44.263  27.436  26.758  1.00  0.00     0.074 A 
ATOM     40  C   UNL A   1      44.166  26.086  26.245  1.00  0.00     0.031 C 
ATOM     41  C   UNL A   1      38.827  28.139  30.083  1.00  0.00     0.029 A 
ATOM     42  C   UNL A   1      39.934  29.086  29.962  1.00  0.00     0.049 A 
ATOM     43  H   UNL A   1      41.712  28.824  28.910  1.00  0.00     0.167 HD
ATOM     44  C   UNL A   1      45.301  28.269  26.505  1.00  0.00     0.031 A 
ATOM     45  C   UNL A   1      39.983  30.311  30.521  1.00  0.00     0.031 A 
ATOM     46  C   UNL A   1      45.418  29.606  27.021  1.00  0.00     0.049 A 
ATOM     47  C   UNL A   1      41.176  31.196  30.278  1.00  0.00     0.074 A 
ATOM     48  C   UNL A   1      46.429  30.528  26.810  1.00  0.00     0.029 A 
ATOM     49  N   UNL A   1      44.493  30.210  27.857  1.00  0.00    -0.354 N 
ATOM     50  N   UNL A   1      42.233  30.972  29.537  1.00  0.00    -0.248 NA
ATOM     51  C   UNL A   1      41.171  32.509  30.941  1.00  0.00     0.031 C 
ATOM     52  C   UNL A   1      46.137  31.676  27.555  1.00  0.00     0.029 A 
ATOM     53  C   UNL A   1      44.923  31.484  28.192  1.00  0.00     0.049 A 
ATOM     54  H   UNL A   1      43.657  29.796  28.168  1.00  0.00     0.167 HD
ATOM     55  C   UNL A   1      43.008  32.122  29.627  1.00  0.00     0.074 A 
ATOM     56  C   UNL A   1      42.293  33.047  30.481  1.00  0.00     0.031 C 
ATOM     57  C   UNL A   1      44.203  32.391  29.047  1.00  0.00     0.031 A 
BRANCH  44  58
ATOM     58  C   UNL A   1      46.410  27.740  25.642  1.00  0.00    -0.014 A 
ATOM     59  C   UNL A   1      47.432  26.944  26.184  1.00  0.00     0.009 A 
ATOM     60  C   UNL A   1      46.421  28.020  24.267  1.00  0.00     0.009 A 
ATOM     61  C   UNL A   1      48.460  26.464  25.370  1.00  0.00     0.001 A 
ATOM     62  C   UNL A   1      47.437  27.521  23.452  1.00  0.00     0.001 A 
ATOM     63  C   UNL A   1      48.459  26.750  24.004  1.00  0.00     0.000 A 
ENDBRANCH  44  58
BRANCH  45  64
ATOM     64  C   UNL A   1      38.861  30.782  31.373  1.00  0.00    -0.014 A 
ATOM     65  C   UNL A   1      37.752  31.427  30.804  1.00  0.00     0.009 A 
ATOM     66  C   UNL A   1      38.903  30.600  32.764  1.00  0.00     0.009 A 
ATOM     67  C   UNL A   1      36.718  31.899  31.615  1.00  0.00     0.001 A 
ATOM     68  C   UNL A   1      37.856  31.053  33.569  1.00  0.00     0.001 A 
ATOM     69  C   UNL A   1      36.769  31.709  32.995  1.00  0.00     0.000 A 
ENDBRANCH  45  64
BRANCH  57  70
ATOM     70  C   UNL A   1      44.802  33.744  29.301  1.00  0.00    -0.014 A 
ATOM     71  C   UNL A   1      44.482  34.843  28.489  1.00  0.00     0.009 A 
ATOM     72  C   UNL A   1      45.671  33.930  30.388  1.00  0.00     0.009 A 
ATOM     73  C   UNL A   1      45.044  36.096  28.744  1.00  0.00     0.001 A 
ATOM     74  C   UNL A   1      46.213  35.188  30.654  1.00  0.00     0.001 A 
ATOM     75  C   UNL A   1      45.906  36.267  29.827  1.00  0.00     0.000 A 
ENDBRANCH  57  70
ENDBRANCH  31  32
ENDBRANCH  24  26
ENDBRANCH  23  24
ENDBRANCH  22  23
ENDBRANCH  21  22
ENDBRANCH  20  21
ENDBRANCH   1  20
TORSDOF 19
ENDMDL
MODEL 3
REMARK VINA RESULT:      -7.2      4.780      8.630
REMARK SMILES CCC[C@@](C)(C/C=C/c1ccccc1)C(=O)OCCOCCOC(=O)c1ccc(-c2c3nc(c(-c4ccccc4)c4ccc([nH]4)c(-c4ccccc4)c4nc(c(-c5ccccc5)c5ccc2[nH]5)C=C4)C=C3)cc1
REMARK SMILES IDX 19 1 18 2 17 3 15 4 16 5 4 6 5 7 3 8 2 9 1 10 6 11 7 12 8 13
REMARK SMILES IDX 9 14 10 15 14 16 11 17 13 18 12 19 20 20 21 21 22 22 23 23
REMARK SMILES IDX 24 24 25 25 26 26 27 27 73 28 28 29 72 30 29 31 30 32 31 33
REMARK SMILES IDX 66 34 32 35 71 36 65 37 67 38 33 39 70 40 64 41 63 42 34 44
REMARK SMILES IDX 56 45 41 46 55 47 42 48 45 49 54 50 68 51 43 52 44 53 53 55
REMARK SMILES IDX 69 56 46 57 35 58 36 59 40 60 37 61 39 62 38 63 57 64 58 65
REMARK SMILES IDX 62 66 59 67 61 68 60 69 47 70 48 71 52 72 49 73 51 74 50 75
REMARK H PARENT 67 43 45 54
REMARK Flexibility Score: inf
ROOT
ATOM      1  C   UNL A   1      32.463  30.039  27.082  1.00  0.00     0.202 C 
ENDROOT
BRANCH   1   2
ATOM      2  C   UNL A   1      32.760  28.575  26.729  1.00  0.00     0.261 C 
BRANCH   2   3
ATOM      3  O   UNL A   1      32.046  28.082  25.580  1.00  0.00    -0.463 OA
BRANCH   3   4
ATOM      4  C   UNL A   1      31.318  26.954  25.791  1.00  0.00     0.312 C 
ATOM      5  O   UNL A   1      30.826  26.659  26.877  1.00  0.00    -0.252 OA
BRANCH   4   6
ATOM      6  C   UNL A   1      31.166  26.051  24.557  1.00  0.00     0.069 C 
ATOM      7  C   UNL A   1      32.472  26.271  23.746  1.00  0.00     0.024 C 
BRANCH   6   8
ATOM      8  C   UNL A   1      31.034  24.557  24.973  1.00  0.00     0.018 C 
BRANCH   8   9
ATOM      9  C   UNL A   1      31.014  23.465  23.894  1.00  0.00    -0.002 C 
ATOM     10  C   UNL A   1      32.122  22.428  24.041  1.00  0.00     0.004 C 
ENDBRANCH   8   9
ENDBRANCH   6   8
BRANCH   6  11
ATOM     11  C   UNL A   1      30.000  26.471  23.585  1.00  0.00     0.046 C 
BRANCH  11  12
ATOM     12  C   UNL A   1      29.949  27.898  23.079  1.00  0.00    -0.025 C 
ATOM     13  C   UNL A   1      28.840  28.656  23.069  1.00  0.00     0.004 C 
BRANCH  13  14
ATOM     14  C   UNL A   1      28.732  30.036  22.551  1.00  0.00    -0.026 A 
ATOM     15  C   UNL A   1      28.979  31.100  23.432  1.00  0.00     0.008 A 
ATOM     16  C   UNL A   1      28.284  30.345  21.257  1.00  0.00     0.008 A 
ATOM     17  C   UNL A   1      28.733  32.423  23.052  1.00  0.00     0.001 A 
ATOM     18  C   UNL A   1      28.034  31.668  20.877  1.00  0.00     0.001 A 
ATOM     19  C   UNL A   1      28.244  32.706  21.780  1.00  0.00     0.000 A 
ENDBRANCH  13  14
ENDBRANCH  11  12
ENDBRANCH   6  11
ENDBRANCH   4   6
ENDBRANCH   3   4
ENDBRANCH   2   3
ENDBRANCH   1   2
BRANCH   1  20
ATOM     20  O   UNL A   1      31.741  30.801  26.121  1.00  0.00    -0.374 OA
BRANCH  20  21
ATOM     21  C   UNL A   1      31.255  32.082  26.540  1.00  0.00     0.202 C 
BRANCH  21  22
ATOM     22  C   UNL A   1      32.320  33.141  26.832  1.00  0.00     0.261 C 
BRANCH  22  23
ATOM     23  O   UNL A   1      32.157  33.665  28.162  1.00  0.00    -0.460 OA
BRANCH  23  24
ATOM     24  C   UNL A   1      33.187  34.440  28.564  1.00  0.00     0.338 C 
ATOM     25  O   UNL A   1      33.149  35.598  28.936  1.00  0.00    -0.246 OA
BRANCH  24  26
ATOM     26  C   UNL A   1      34.378  33.590  28.725  1.00  0.00     0.060 A 
ATOM     27  C   UNL A   1      34.212  32.369  29.389  1.00  0.00     0.016 A 
ATOM     28  C   UNL A   1      35.648  34.043  28.369  1.00  0.00     0.016 A 
ATOM     29  C   UNL A   1      35.330  31.624  29.759  1.00  0.00     0.010 A 
ATOM     30  C   UNL A   1      36.770  33.288  28.736  1.00  0.00     0.010 A 
ATOM     31  C   UNL A   1      36.618  32.100  29.476  1.00  0.00    -0.014 A 
BRANCH  31  32
ATOM     32  C   UNL A   1      37.784  31.431  30.106  1.00  0.00     0.031 A 
ATOM     33  C   UNL A   1      38.090  31.702  31.555  1.00  0.00     0.074 A 
ATOM     34  C   UNL A   1      38.517  30.533  29.425  1.00  0.00     0.049 A 
ATOM     35  N   UNL A   1      38.999  31.159  32.326  1.00  0.00    -0.248 NA
ATOM     36  C   UNL A   1      37.257  32.713  32.228  1.00  0.00     0.031 C 
ATOM     37  C   UNL A   1      38.310  30.152  28.030  1.00  0.00     0.029 A 
ATOM     38  N   UNL A   1      39.582  29.766  29.831  1.00  0.00    -0.354 N 
ATOM     39  C   UNL A   1      38.844  31.755  33.571  1.00  0.00     0.074 A 
ATOM     40  C   UNL A   1      37.778  32.726  33.446  1.00  0.00     0.031 C 
ATOM     41  C   UNL A   1      39.211  29.213  27.696  1.00  0.00     0.029 A 
ATOM     42  C   UNL A   1      40.068  28.939  28.848  1.00  0.00     0.049 A 
ATOM     43  H   UNL A   1      39.960  29.805  30.739  1.00  0.00     0.167 HD
ATOM     44  C   UNL A   1      39.516  31.512  34.722  1.00  0.00     0.031 A 
ATOM     45  C   UNL A   1      41.088  28.059  28.875  1.00  0.00     0.031 A 
ATOM     46  C   UNL A   1      40.586  30.561  34.856  1.00  0.00     0.049 A 
ATOM     47  C   UNL A   1      41.862  27.851  30.149  1.00  0.00     0.074 A 
ATOM     48  C   UNL A   1      41.320  30.241  35.986  1.00  0.00     0.029 A 
ATOM     49  N   UNL A   1      41.081  29.783  33.823  1.00  0.00    -0.354 N 
ATOM     50  N   UNL A   1      41.679  28.398  31.326  1.00  0.00    -0.248 NA
ATOM     51  C   UNL A   1      42.977  26.894  30.096  1.00  0.00     0.031 C 
ATOM     52  C   UNL A   1      42.289  29.297  35.625  1.00  0.00     0.029 A 
ATOM     53  C   UNL A   1      42.127  28.999  34.282  1.00  0.00     0.049 A 
ATOM     54  H   UNL A   1      40.740  29.786  32.900  1.00  0.00     0.167 HD
ATOM     55  C   UNL A   1      42.639  27.835  32.158  1.00  0.00     0.074 A 
ATOM     56  C   UNL A   1      43.393  26.894  31.356  1.00  0.00     0.031 C 
ATOM     57  C   UNL A   1      42.871  28.072  33.471  1.00  0.00     0.031 A 
BRANCH  44  58
ATOM     58  C   UNL A   1      39.121  32.313  35.929  1.00  0.00    -0.014 A 
ATOM     59  C   UNL A   1      39.675  33.581  36.169  1.00  0.00     0.009 A 
ATOM     60  C   UNL A   1      38.165  31.806  36.822  1.00  0.00     0.009 A 
ATOM     61  C   UNL A   1      39.302  34.311  37.299  1.00  0.00     0.001 A 
ATOM     62  C   UNL A   1      37.777  32.548  37.939  1.00  0.00     0.001 A 
ATOM     63  C   UNL A   1      38.350  33.796  38.180  1.00  0.00     0.000 A 
ENDBRANCH  44  58
BRANCH  45  64
ATOM     64  C   UNL A   1      41.442  27.297  27.650  1.00  0.00    -0.014 A 
ATOM     65  C   UNL A   1      41.028  25.966  27.490  1.00  0.00     0.009 A 
ATOM     66  C   UNL A   1      42.210  27.897  26.640  1.00  0.00     0.009 A 
ATOM     67  C   UNL A   1      41.394  25.245  26.352  1.00  0.00     0.001 A 
ATOM     68  C   UNL A   1      42.555  27.181  25.493  1.00  0.00     0.001 A 
ATOM     69  C   UNL A   1      42.154  25.853  25.353  1.00  0.00     0.000 A 
ENDBRANCH  45  64
BRANCH  57  70
ATOM     70  C   UNL A   1      43.971  27.288  34.128  1.00  0.00    -0.014 A 
ATOM     71  C   UNL A   1      45.280  27.789  34.196  1.00  0.00     0.009 A 
ATOM     72  C   UNL A   1      43.685  26.047  34.719  1.00  0.00     0.009 A 
ATOM     73  C   UNL A   1      46.287  27.048  34.817  1.00  0.00     0.001 A 
ATOM     74  C   UNL A   1      44.689  25.319  35.359  1.00  0.00     0.001 A 
ATOM     75  C   UNL A   1      45.990  25.816  35.400  1.00  0.00     0.000 A 
ENDBRANCH  57  70
ENDBRANCH  31  32
ENDBRANCH  24  26
ENDBRANCH  23  24
ENDBRANCH  22  23
ENDBRANCH  21  22
ENDBRANCH  20  21
ENDBRANCH   1  20
TORSDOF 19
ENDMDL
