MODEL 1
REMARK VINA RESULT:     -12.4      0.000      0.000
REMARK SMILES O=C(OCCOCCOC(=O)[C@H]1[C@H]2CC[C@H](CC2)[C@@H]1C(=O)Nc1sc2c(c1C(=O)N1CCCCC1)CCCC2)c1ccc(-c2c3nc(c(-c4ccccc4)c4ccc([nH]4)c(-c4ccccc4)c4nc(c(-c5ccccc5)c5ccc2[nH]5)C=C4)C=C3)cc1
REMARK SMILES IDX 7 1 6 2 5 3 4 4 3 5 2 6 1 7 40 8 41 9 87 10 42 11 86 12
REMARK SMILES IDX 43 13 44 14 45 15 80 16 46 17 85 18 79 19 81 20 47 21 84 22
REMARK SMILES IDX 78 23 77 24 48 26 70 27 55 28 69 29 56 30 59 31 68 32 82 33
REMARK SMILES IDX 57 34 58 35 67 37 83 38 60 39 49 40 50 41 54 42 51 43 53 44
REMARK SMILES IDX 52 45 71 46 72 47 76 48 73 49 75 50 74 51 61 52 62 53 66 54
REMARK SMILES IDX 63 55 65 56 64 57 8 58 9 59 10 60 11 61 12 62 13 63 19 64
REMARK SMILES IDX 18 65 14 66 16 67 17 68 15 69 20 70 21 71 22 72 23 74 24 75
REMARK SMILES IDX 27 76 25 77 26 78 39 79 36 80 38 81 37 82 28 83 29 84 30 85
REMARK SMILES IDX 31 86 35 87 32 88 34 89 33 90
REMARK H PARENT 81 25 59 36 22 73
REMARK Flexibility Score: inf
ROOT
ATOM      1  C   UNL A   1      34.047  30.020  27.332  1.00  0.00     0.202 C 
ENDROOT
BRANCH   1   2
ATOM      2  O   UNL A   1      32.625  30.109  27.346  1.00  0.00    -0.374 OA
BRANCH   2   3
ATOM      3  C   UNL A   1      32.042  31.049  26.441  1.00  0.00     0.202 C 
BRANCH   3   4
ATOM      4  C   UNL A   1      31.398  32.219  27.185  1.00  0.00     0.261 C 
BRANCH   4   5
ATOM      5  O   UNL A   1      32.201  33.406  27.067  1.00  0.00    -0.460 OA
BRANCH   5   6
ATOM      6  C   UNL A   1      32.924  34.005  28.045  1.00  0.00     0.338 C 
ATOM      7  O   UNL A   1      32.441  34.988  28.607  1.00  0.00    -0.246 OA
BRANCH   6   8
ATOM      8  C   UNL A   1      34.248  33.504  28.547  1.00  0.00     0.060 A 
ATOM      9  C   UNL A   1      35.502  33.813  28.014  1.00  0.00     0.016 A 
ATOM     10  C   UNL A   1      34.213  32.714  29.712  1.00  0.00     0.016 A 
ATOM     11  C   UNL A   1      36.674  33.350  28.589  1.00  0.00     0.010 A 
ATOM     12  C   UNL A   1      35.390  32.246  30.305  1.00  0.00     0.010 A 
ATOM     13  C   UNL A   1      36.624  32.559  29.730  1.00  0.00    -0.014 A 
BRANCH  13  14
ATOM     14  C   UNL A   1      37.892  31.974  30.188  1.00  0.00     0.031 A 
ATOM     15  C   UNL A   1      38.541  32.572  31.396  1.00  0.00     0.074 A 
ATOM     16  C   UNL A   1      38.320  30.822  29.646  1.00  0.00     0.049 A 
ATOM     17  N   UNL A   1      39.629  32.207  32.016  1.00  0.00    -0.248 NA
ATOM     18  C   UNL A   1      37.853  33.724  32.007  1.00  0.00     0.031 C 
ATOM     19  C   UNL A   1      37.648  30.100  28.561  1.00  0.00     0.029 A 
ATOM     20  N   UNL A   1      39.388  30.028  29.965  1.00  0.00    -0.354 N 
ATOM     21  C   UNL A   1      39.762  33.086  33.082  1.00  0.00     0.074 A 
ATOM     22  C   UNL A   1      38.654  34.012  33.021  1.00  0.00     0.031 C 
ATOM     23  C   UNL A   1      38.308  28.953  28.325  1.00  0.00     0.029 A 
ATOM     24  C   UNL A   1      39.476  28.893  29.197  1.00  0.00     0.049 A 
ATOM     25  H   UNL A   1      40.029  30.249  30.678  1.00  0.00     0.167 HD
ATOM     26  C   UNL A   1      40.729  33.113  34.025  1.00  0.00     0.031 A 
ATOM     27  C   UNL A   1      40.418  27.933  29.190  1.00  0.00     0.031 A 
ATOM     28  C   UNL A   1      41.834  32.196  34.041  1.00  0.00     0.049 A 
ATOM     29  C   UNL A   1      41.553  28.061  30.170  1.00  0.00     0.074 A 
ATOM     30  C   UNL A   1      42.943  32.184  34.864  1.00  0.00     0.029 A 
ATOM     31  N   UNL A   1      41.956  31.115  33.177  1.00  0.00    -0.354 N 
ATOM     32  N   UNL A   1      41.728  28.953  31.117  1.00  0.00    -0.248 NA
ATOM     33  C   UNL A   1      42.623  27.062  30.076  1.00  0.00     0.031 C 
ATOM     34  C   UNL A   1      43.758  31.116  34.469  1.00  0.00     0.029 A 
ATOM     35  C   UNL A   1      43.129  30.432  33.439  1.00  0.00     0.049 A 
ATOM     36  H   UNL A   1      41.304  30.871  32.481  1.00  0.00     0.167 HD
ATOM     37  C   UNL A   1      42.923  28.619  31.739  1.00  0.00     0.074 A 
ATOM     38  C   UNL A   1      43.410  27.422  31.080  1.00  0.00     0.031 C 
ATOM     39  C   UNL A   1      43.570  29.245  32.753  1.00  0.00     0.031 A 
BRANCH  26  40
ATOM     40  C   UNL A   1      40.652  34.215  35.040  1.00  0.00    -0.014 A 
ATOM     41  C   UNL A   1      39.982  34.041  36.262  1.00  0.00     0.009 A 
ATOM     42  C   UNL A   1      41.216  35.466  34.747  1.00  0.00     0.009 A 
ATOM     43  C   UNL A   1      39.844  35.111  37.151  1.00  0.00     0.001 A 
ATOM     44  C   UNL A   1      41.097  36.526  35.647  1.00  0.00     0.001 A 
ATOM     45  C   UNL A   1      40.401  36.351  36.843  1.00  0.00     0.000 A 
ENDBRANCH  26  40
BRANCH  27  46
ATOM     46  C   UNL A   1      40.375  26.832  28.188  1.00  0.00    -0.014 A 
ATOM     47  C   UNL A   1      40.978  26.963  26.929  1.00  0.00     0.009 A 
ATOM     48  C   UNL A   1      39.690  25.640  28.484  1.00  0.00     0.009 A 
ATOM     49  C   UNL A   1      40.868  25.942  25.979  1.00  0.00     0.001 A 
ATOM     50  C   UNL A   1      39.610  24.608  27.547  1.00  0.00     0.001 A 
ATOM     51  C   UNL A   1      40.188  24.765  26.290  1.00  0.00     0.000 A 
ENDBRANCH  27  46
BRANCH  39  52
ATOM     52  C   UNL A   1      44.853  28.620  33.213  1.00  0.00    -0.014 A 
ATOM     53  C   UNL A   1      44.854  27.555  34.127  1.00  0.00     0.009 A 
ATOM     54  C   UNL A   1      46.072  29.081  32.696  1.00  0.00     0.009 A 
ATOM     55  C   UNL A   1      46.059  26.989  34.544  1.00  0.00     0.001 A 
ATOM     56  C   UNL A   1      47.272  28.494  33.090  1.00  0.00     0.001 A 
ATOM     57  C   UNL A   1      47.265  27.455  34.022  1.00  0.00     0.000 A 
ENDBRANCH  39  52
ENDBRANCH  13  14
ENDBRANCH   6   8
ENDBRANCH   5   6
ENDBRANCH   4   5
ENDBRANCH   3   4
ENDBRANCH   2   3
ENDBRANCH   1   2
BRANCH   1  58
ATOM     58  C   UNL A   1      34.471  28.646  26.826  1.00  0.00     0.261 C 
BRANCH  58  59
ATOM     59  O   UNL A   1      33.315  27.796  26.725  1.00  0.00    -0.463 OA
BRANCH  59  60
ATOM     60  C   UNL A   1      33.386  26.865  25.739  1.00  0.00     0.310 C 
ATOM     61  O   UNL A   1      34.401  26.216  25.454  1.00  0.00    -0.252 OA
BRANCH  60  62
ATOM     62  C   UNL A   1      32.083  26.795  24.965  1.00  0.00     0.115 C 
ATOM     63  C   UNL A   1      31.925  28.182  24.293  1.00  0.00     0.004 C 
ATOM     64  C   UNL A   1      32.094  25.678  23.879  1.00  0.00     0.096 C 
ATOM     65  C   UNL A   1      33.139  28.489  23.377  1.00  0.00     0.005 C 
ATOM     66  C   UNL A   1      30.693  28.124  23.392  1.00  0.00     0.005 C 
ATOM     67  C   UNL A   1      32.183  26.326  22.472  1.00  0.00     0.002 C 
ATOM     68  C   UNL A   1      33.418  27.275  22.458  1.00  0.00     0.005 C 
ATOM     69  C   UNL A   1      31.032  27.279  22.162  1.00  0.00     0.005 C 
BRANCH  64  70
ATOM     70  C   UNL A   1      31.194  24.440  24.208  1.00  0.00     0.229 C 
ATOM     71  O   UNL A   1      29.978  24.561  23.950  1.00  0.00    -0.274 OA
ATOM     72  N   UNL A   1      31.533  23.179  24.596  1.00  0.00    -0.317 N 
ATOM     73  H   UNL A   1      30.781  22.543  24.590  1.00  0.00     0.170 HD
BRANCH  72  74
ATOM     74  C   UNL A   1      32.724  22.632  24.995  1.00  0.00     0.108 A 
ATOM     75  S   UNL A   1      33.367  23.214  26.471  1.00  0.00    -0.122 S 
ATOM     76  C   UNL A   1      33.315  21.395  24.707  1.00  0.00     0.078 A 
ATOM     77  C   UNL A   1      34.872  22.562  26.014  1.00  0.00     0.011 A 
ATOM     78  C   UNL A   1      34.698  21.475  25.174  1.00  0.00    -0.019 A 
ATOM     79  C   UNL A   1      36.189  23.150  26.416  1.00  0.00     0.047 C 
ATOM     80  C   UNL A   1      35.885  20.674  24.729  1.00  0.00     0.037 C 
ATOM     81  C   UNL A   1      37.255  22.734  25.388  1.00  0.00     0.006 C 
ATOM     82  C   UNL A   1      37.244  21.221  25.195  1.00  0.00     0.005 C 
BRANCH  76  83
ATOM     83  C   UNL A   1      32.656  20.428  23.809  1.00  0.00     0.257 C 
ATOM     84  O   UNL A   1      32.049  20.843  22.812  1.00  0.00    -0.269 OA
ATOM     85  N   UNL A   1      32.750  19.054  24.033  1.00  0.00    -0.339 N 
ATOM     86  C   UNL A   1      32.576  18.176  22.882  1.00  0.00     0.120 C 
ATOM     87  C   UNL A   1      32.598  18.380  25.323  1.00  0.00     0.120 C 
ATOM     88  C   UNL A   1      33.632  17.080  22.919  1.00  0.00     0.022 C 
ATOM     89  C   UNL A   1      33.522  17.156  25.444  1.00  0.00     0.022 C 
ATOM     90  C   UNL A   1      33.511  16.262  24.203  1.00  0.00     0.004 C 
ENDBRANCH  76  83
ENDBRANCH  72  74
ENDBRANCH  64  70
ENDBRANCH  60  62
ENDBRANCH  59  60
ENDBRANCH  58  59
ENDBRANCH   1  58
TORSDOF 17
ENDMDL
MODEL 2
REMARK VINA RESULT:     -12.3      3.923      9.587
REMARK SMILES O=C(OCCOCCOC(=O)[C@H]1[C@H]2CC[C@H](CC2)[C@@H]1C(=O)Nc1sc2c(c1C(=O)N1CCCCC1)CCCC2)c1ccc(-c2c3nc(c(-c4ccccc4)c4ccc([nH]4)c(-c4ccccc4)c4nc(c(-c5ccccc5)c5ccc2[nH]5)C=C4)C=C3)cc1
REMARK SMILES IDX 7 1 6 2 5 3 4 4 3 5 2 6 1 7 40 8 41 9 87 10 42 11 86 12
REMARK SMILES IDX 43 13 44 14 45 15 80 16 46 17 85 18 79 19 81 20 47 21 84 22
REMARK SMILES IDX 78 23 77 24 48 26 70 27 55 28 69 29 56 30 59 31 68 32 82 33
REMARK SMILES IDX 57 34 58 35 67 37 83 38 60 39 49 40 50 41 54 42 51 43 53 44
REMARK SMILES IDX 52 45 71 46 72 47 76 48 73 49 75 50 74 51 61 52 62 53 66 54
REMARK SMILES IDX 63 55 65 56 64 57 8 58 9 59 10 60 11 61 12 62 13 63 19 64
REMARK SMILES IDX 18 65 14 66 16 67 17 68 15 69 20 70 21 71 22 72 23 74 24 75
REMARK SMILES IDX 27 76 25 77 26 78 39 79 36 80 38 81 37 82 28 83 29 84 30 85
REMARK SMILES IDX 31 86 35 87 32 88 34 89 33 90
REMARK H PARENT 81 25 59 36 22 73
REMARK Flexibility Score: inf
ROOT
ATOM      1  C   UNL A   1      36.064  21.178  25.285  1.00  0.00     0.202 C 
ENDROOT
BRANCH   1   2
ATOM      2  O   UNL A   1      37.113  20.836  24.383  1.00  0.00    -0.374 OA
BRANCH   2   3
ATOM      3  C   UNL A   1      37.881  19.678  24.716  1.00  0.00     0.202 C 
BRANCH   3   4
ATOM      4  C   UNL A   1      38.878  19.970  25.838  1.00  0.00     0.261 C 
BRANCH   4   5
ATOM      5  O   UNL A   1      40.027  19.110  25.738  1.00  0.00    -0.460 OA
BRANCH   5   6
ATOM      6  C   UNL A   1      41.310  19.422  26.043  1.00  0.00     0.338 C 
ATOM      7  O   UNL A   1      42.180  18.575  25.836  1.00  0.00    -0.246 OA
BRANCH   6   8
ATOM      8  C   UNL A   1      41.759  20.763  26.547  1.00  0.00     0.060 A 
ATOM      9  C   UNL A   1      41.963  21.115  27.883  1.00  0.00     0.016 A 
ATOM     10  C   UNL A   1      42.075  21.723  25.566  1.00  0.00     0.016 A 
ATOM     11  C   UNL A   1      42.441  22.364  28.245  1.00  0.00     0.010 A 
ATOM     12  C   UNL A   1      42.564  22.985  25.918  1.00  0.00     0.010 A 
ATOM     13  C   UNL A   1      42.735  23.306  27.266  1.00  0.00    -0.014 A 
BRANCH  13  14
ATOM     14  C   UNL A   1      43.082  24.657  27.729  1.00  0.00     0.031 A 
ATOM     15  C   UNL A   1      44.514  25.080  27.641  1.00  0.00     0.074 A 
ATOM     16  C   UNL A   1      42.099  25.526  28.023  1.00  0.00     0.049 A 
ATOM     17  N   UNL A   1      45.057  26.228  27.941  1.00  0.00    -0.248 NA
ATOM     18  C   UNL A   1      45.461  24.080  27.115  1.00  0.00     0.031 C 
ATOM     19  C   UNL A   1      40.665  25.222  27.982  1.00  0.00     0.029 A 
ATOM     20  N   UNL A   1      42.152  26.850  28.362  1.00  0.00    -0.354 N 
ATOM     21  C   UNL A   1      46.407  26.086  27.649  1.00  0.00     0.074 A 
ATOM     22  C   UNL A   1      46.607  24.740  27.162  1.00  0.00     0.031 C 
ATOM     23  C   UNL A   1      39.974  26.341  28.259  1.00  0.00     0.029 A 
ATOM     24  C   UNL A   1      40.915  27.416  28.554  1.00  0.00     0.049 A 
ATOM     25  H   UNL A   1      42.994  27.350  28.458  1.00  0.00     0.167 HD
ATOM     26  C   UNL A   1      47.389  27.005  27.782  1.00  0.00     0.031 A 
ATOM     27  C   UNL A   1      40.593  28.660  28.951  1.00  0.00     0.031 A 
ATOM     28  C   UNL A   1      47.163  28.326  28.296  1.00  0.00     0.049 A 
ATOM     29  C   UNL A   1      41.719  29.623  29.213  1.00  0.00     0.074 A 
ATOM     30  C   UNL A   1      48.082  29.314  28.594  1.00  0.00     0.029 A 
ATOM     31  N   UNL A   1      45.905  28.839  28.587  1.00  0.00    -0.354 N 
ATOM     32  N   UNL A   1      43.008  29.455  29.029  1.00  0.00    -0.248 NA
ATOM     33  C   UNL A   1      41.352  30.940  29.745  1.00  0.00     0.031 C 
ATOM     34  C   UNL A   1      47.380  30.412  29.104  1.00  0.00     0.029 A 
ATOM     35  C   UNL A   1      46.023  30.128  29.072  1.00  0.00     0.049 A 
ATOM     36  H   UNL A   1      45.055  28.356  28.467  1.00  0.00     0.167 HD
ATOM     37  C   UNL A   1      43.607  30.645  29.415  1.00  0.00     0.074 A 
ATOM     38  C   UNL A   1      42.533  31.538  29.810  1.00  0.00     0.031 C 
ATOM     39  C   UNL A   1      44.921  30.975  29.453  1.00  0.00     0.031 A 
BRANCH  26  40
ATOM     40  C   UNL A   1      48.781  26.561  27.437  1.00  0.00    -0.014 A 
ATOM     41  C   UNL A   1      49.324  26.776  26.159  1.00  0.00     0.009 A 
ATOM     42  C   UNL A   1      49.541  25.868  28.390  1.00  0.00     0.009 A 
ATOM     43  C   UNL A   1      50.586  26.271  25.834  1.00  0.00     0.001 A 
ATOM     44  C   UNL A   1      50.812  25.385  28.070  1.00  0.00     0.001 A 
ATOM     45  C   UNL A   1      51.328  25.577  26.789  1.00  0.00     0.000 A 
ENDBRANCH  26  40
BRANCH  27  46
ATOM     46  C   UNL A   1      39.173  29.036  29.200  1.00  0.00    -0.014 A 
ATOM     47  C   UNL A   1      38.552  28.777  30.431  1.00  0.00     0.009 A 
ATOM     48  C   UNL A   1      38.415  29.633  28.178  1.00  0.00     0.009 A 
ATOM     49  C   UNL A   1      37.200  29.078  30.620  1.00  0.00     0.001 A 
ATOM     50  C   UNL A   1      37.074  29.964  28.381  1.00  0.00     0.001 A 
ATOM     51  C   UNL A   1      36.463  29.674  29.598  1.00  0.00     0.000 A 
ENDBRANCH  27  46
BRANCH  39  52
ATOM     52  C   UNL A   1      45.249  32.365  29.913  1.00  0.00    -0.014 A 
ATOM     53  C   UNL A   1      45.258  33.442  29.015  1.00  0.00     0.009 A 
ATOM     54  C   UNL A   1      45.516  32.599  31.270  1.00  0.00     0.009 A 
ATOM     55  C   UNL A   1      45.566  34.727  29.464  1.00  0.00     0.001 A 
ATOM     56  C   UNL A   1      45.794  33.888  31.720  1.00  0.00     0.001 A 
ATOM     57  C   UNL A   1      45.829  34.948  30.816  1.00  0.00     0.000 A 
ENDBRANCH  39  52
ENDBRANCH  13  14
ENDBRANCH   6   8
ENDBRANCH   5   6
ENDBRANCH   4   5
ENDBRANCH   3   4
ENDBRANCH   2   3
ENDBRANCH   1   2
BRANCH   1  58
ATOM     58  C   UNL A   1      34.798  20.416  24.911  1.00  0.00     0.261 C 
BRANCH  58  59
ATOM     59  O   UNL A   1      33.868  21.314  24.280  1.00  0.00    -0.463 OA
BRANCH  59  60
ATOM     60  C   UNL A   1      32.589  21.203  24.725  1.00  0.00     0.310 C 
ATOM     61  O   UNL A   1      32.025  20.133  24.987  1.00  0.00    -0.252 OA
BRANCH  60  62
ATOM     62  C   UNL A   1      31.910  22.559  24.763  1.00  0.00     0.115 C 
ATOM     63  C   UNL A   1      31.344  22.698  26.199  1.00  0.00     0.004 C 
ATOM     64  C   UNL A   1      32.896  23.727  24.467  1.00  0.00     0.096 C 
ATOM     65  C   UNL A   1      32.477  22.576  27.250  1.00  0.00     0.005 C 
ATOM     66  C   UNL A   1      30.762  24.104  26.335  1.00  0.00     0.005 C 
ATOM     67  C   UNL A   1      33.174  24.514  25.776  1.00  0.00     0.002 C 
ATOM     68  C   UNL A   1      33.657  23.497  26.853  1.00  0.00     0.005 C 
ATOM     69  C   UNL A   1      31.920  25.101  26.417  1.00  0.00     0.005 C 
BRANCH  64  70
ATOM     70  C   UNL A   1      32.700  24.410  23.072  1.00  0.00     0.229 C 
ATOM     71  O   UNL A   1      32.595  23.640  22.095  1.00  0.00    -0.274 OA
ATOM     72  N   UNL A   1      32.474  25.714  22.749  1.00  0.00    -0.317 N 
ATOM     73  H   UNL A   1      32.234  25.857  21.806  1.00  0.00     0.170 HD
BRANCH  72  74
ATOM     74  C   UNL A   1      32.520  26.863  23.494  1.00  0.00     0.108 A 
ATOM     75  S   UNL A   1      34.048  27.625  23.616  1.00  0.00    -0.122 S 
ATOM     76  C   UNL A   1      31.527  27.800  23.809  1.00  0.00     0.078 A 
ATOM     77  C   UNL A   1      33.452  28.494  24.954  1.00  0.00     0.011 A 
ATOM     78  C   UNL A   1      32.080  28.657  24.857  1.00  0.00    -0.019 A 
ATOM     79  C   UNL A   1      34.303  28.940  26.101  1.00  0.00     0.047 C 
ATOM     80  C   UNL A   1      31.351  29.485  25.871  1.00  0.00     0.037 C 
ATOM     81  C   UNL A   1      33.413  29.118  27.343  1.00  0.00     0.006 C 
ATOM     82  C   UNL A   1      32.224  30.017  27.020  1.00  0.00     0.005 C 
BRANCH  76  83
ATOM     83  C   UNL A   1      30.140  27.624  23.341  1.00  0.00     0.257 C 
ATOM     84  O   UNL A   1      29.611  26.506  23.419  1.00  0.00    -0.269 OA
ATOM     85  N   UNL A   1      29.396  28.704  22.864  1.00  0.00    -0.339 N 
ATOM     86  C   UNL A   1      27.944  28.601  22.941  1.00  0.00     0.120 C 
ATOM     87  C   UNL A   1      29.871  29.734  21.939  1.00  0.00     0.120 C 
ATOM     88  C   UNL A   1      27.371  29.921  23.440  1.00  0.00     0.022 C 
ATOM     89  C   UNL A   1      29.256  31.110  22.248  1.00  0.00     0.022 C 
ATOM     90  C   UNL A   1      27.748  31.060  22.495  1.00  0.00     0.004 C 
ENDBRANCH  76  83
ENDBRANCH  72  74
ENDBRANCH  64  70
ENDBRANCH  60  62
ENDBRANCH  59  60
ENDBRANCH  58  59
ENDBRANCH   1  58
TORSDOF 17
ENDMDL
MODEL 3
REMARK VINA RESULT:     -12.2      2.684      8.052
REMARK SMILES O=C(OCCOCCOC(=O)[C@H]1[C@H]2CC[C@H](CC2)[C@@H]1C(=O)Nc1sc2c(c1C(=O)N1CCCCC1)CCCC2)c1ccc(-c2c3nc(c(-c4ccccc4)c4ccc([nH]4)c(-c4ccccc4)c4nc(c(-c5ccccc5)c5ccc2[nH]5)C=C4)C=C3)cc1
REMARK SMILES IDX 7 1 6 2 5 3 4 4 3 5 2 6 1 7 40 8 41 9 87 10 42 11 86 12
REMARK SMILES IDX 43 13 44 14 45 15 80 16 46 17 85 18 79 19 81 20 47 21 84 22
REMARK SMILES IDX 78 23 77 24 48 26 70 27 55 28 69 29 56 30 59 31 68 32 82 33
REMARK SMILES IDX 57 34 58 35 67 37 83 38 60 39 49 40 50 41 54 42 51 43 53 44
REMARK SMILES IDX 52 45 71 46 72 47 76 48 73 49 75 50 74 51 61 52 62 53 66 54
REMARK SMILES IDX 63 55 65 56 64 57 8 58 9 59 10 60 11 61 12 62 13 63 19 64
REMARK SMILES IDX 18 65 14 66 16 67 17 68 15 69 20 70 21 71 22 72 23 74 24 75
REMARK SMILES IDX 27 76 25 77 26 78 39 79 36 80 38 81 37 82 28 83 29 84 30 85
REMARK SMILES IDX 31 86 35 87 32 88 34 89 33 90
REMARK H PARENT 81 25 59 36 22 73
REMARK Flexibility Score: inf
ROOT
ATOM      1  C   UNL A   1      33.948  20.112  25.116  1.00  0.00     0.202 C 
ENDROOT
BRANCH   1   2
ATOM      2  O   UNL A   1      35.051  20.894  24.664  1.00  0.00    -0.374 OA
BRANCH   2   3
ATOM      3  C   UNL A   1      36.335  20.529  25.174  1.00  0.00     0.202 C 
BRANCH   3   4
ATOM      4  C   UNL A   1      37.435  21.441  24.628  1.00  0.00     0.261 C 
BRANCH   4   5
ATOM      5  O   UNL A   1      37.731  22.497  25.557  1.00  0.00    -0.460 OA
BRANCH   5   6
ATOM      6  C   UNL A   1      38.904  22.713  26.202  1.00  0.00     0.338 C 
ATOM      7  O   UNL A   1      39.695  21.775  26.303  1.00  0.00    -0.246 OA
BRANCH   6   8
ATOM      8  C   UNL A   1      39.342  24.045  26.740  1.00  0.00     0.060 A 
ATOM      9  C   UNL A   1      40.079  25.010  26.050  1.00  0.00     0.016 A 
ATOM     10  C   UNL A   1      38.894  24.371  28.035  1.00  0.00     0.016 A 
ATOM     11  C   UNL A   1      40.381  26.239  26.614  1.00  0.00     0.010 A 
ATOM     12  C   UNL A   1      39.186  25.610  28.613  1.00  0.00     0.010 A 
ATOM     13  C   UNL A   1      39.944  26.541  27.898  1.00  0.00    -0.014 A 
BRANCH  13  14
ATOM     14  C   UNL A   1      40.437  27.794  28.489  1.00  0.00     0.031 A 
ATOM     15  C   UNL A   1      39.464  28.917  28.659  1.00  0.00     0.074 A 
ATOM     16  C   UNL A   1      41.666  27.827  29.033  1.00  0.00     0.049 A 
ATOM     17  N   UNL A   1      39.645  30.094  29.192  1.00  0.00    -0.248 NA
ATOM     18  C   UNL A   1      38.089  28.670  28.187  1.00  0.00     0.031 C 
ATOM     19  C   UNL A   1      42.616  26.710  29.038  1.00  0.00     0.029 A 
ATOM     20  N   UNL A   1      42.306  28.815  29.730  1.00  0.00    -0.354 N 
ATOM     21  C   UNL A   1      38.413  30.729  29.114  1.00  0.00     0.074 A 
ATOM     22  C   UNL A   1      37.495  29.818  28.470  1.00  0.00     0.031 C 
ATOM     23  C   UNL A   1      43.710  27.070  29.731  1.00  0.00     0.029 A 
ATOM     24  C   UNL A   1      43.559  28.455  30.163  1.00  0.00     0.049 A 
ATOM     25  H   UNL A   1      41.907  29.697  29.905  1.00  0.00     0.167 HD
ATOM     26  C   UNL A   1      38.086  31.968  29.542  1.00  0.00     0.031 A 
ATOM     27  C   UNL A   1      44.484  29.184  30.813  1.00  0.00     0.031 A 
ATOM     28  C   UNL A   1      39.029  32.862  30.152  1.00  0.00     0.049 A 
ATOM     29  C   UNL A   1      44.133  30.605  31.164  1.00  0.00     0.074 A 
ATOM     30  C   UNL A   1      38.864  34.182  30.524  1.00  0.00     0.029 A 
ATOM     31  N   UNL A   1      40.331  32.506  30.482  1.00  0.00    -0.354 N 
ATOM     32  N   UNL A   1      42.995  31.238  31.000  1.00  0.00    -0.248 NA
ATOM     33  C   UNL A   1      45.191  31.415  31.778  1.00  0.00     0.031 C 
ATOM     34  C   UNL A   1      40.082  34.637  31.043  1.00  0.00     0.029 A 
ATOM     35  C   UNL A   1      40.986  33.585  31.045  1.00  0.00     0.049 A 
ATOM     36  H   UNL A   1      40.729  31.617  30.337  1.00  0.00     0.167 HD
ATOM     37  C   UNL A   1      43.195  32.518  31.497  1.00  0.00     0.074 A 
ATOM     38  C   UNL A   1      44.556  32.557  31.999  1.00  0.00     0.031 C 
ATOM     39  C   UNL A   1      42.344  33.573  31.529  1.00  0.00     0.031 A 
BRANCH  26  40
ATOM     40  C   UNL A   1      36.680  32.424  29.280  1.00  0.00    -0.014 A 
ATOM     41  C   UNL A   1      36.322  33.039  28.069  1.00  0.00     0.009 A 
ATOM     42  C   UNL A   1      35.710  32.283  30.283  1.00  0.00     0.009 A 
ATOM     43  C   UNL A   1      35.029  33.538  27.885  1.00  0.00     0.001 A 
ATOM     44  C   UNL A   1      34.413  32.761  30.088  1.00  0.00     0.001 A 
ATOM     45  C   UNL A   1      34.077  33.398  28.894  1.00  0.00     0.000 A 
ENDBRANCH  26  40
BRANCH  27  46
ATOM     46  C   UNL A   1      45.834  28.623  31.097  1.00  0.00    -0.014 A 
ATOM     47  C   UNL A   1      46.874  28.710  30.160  1.00  0.00     0.009 A 
ATOM     48  C   UNL A   1      46.078  27.960  32.312  1.00  0.00     0.009 A 
ATOM     49  C   UNL A   1      48.115  28.117  30.420  1.00  0.00     0.001 A 
ATOM     50  C   UNL A   1      47.327  27.399  32.584  1.00  0.00     0.001 A 
ATOM     51  C   UNL A   1      48.341  27.466  31.632  1.00  0.00     0.000 A 
ENDBRANCH  27  46
BRANCH  39  52
ATOM     52  C   UNL A   1      42.864  34.834  32.151  1.00  0.00    -0.014 A 
ATOM     53  C   UNL A   1      43.619  35.752  31.406  1.00  0.00     0.009 A 
ATOM     54  C   UNL A   1      42.563  35.120  33.490  1.00  0.00     0.009 A 
ATOM     55  C   UNL A   1      44.095  36.919  32.004  1.00  0.00     0.001 A 
ATOM     56  C   UNL A   1      43.013  36.301  34.077  1.00  0.00     0.001 A 
ATOM     57  C   UNL A   1      43.788  37.194  33.337  1.00  0.00     0.000 A 
ENDBRANCH  39  52
ENDBRANCH  13  14
ENDBRANCH   6   8
ENDBRANCH   5   6
ENDBRANCH   4   5
ENDBRANCH   3   4
ENDBRANCH   2   3
ENDBRANCH   1   2
BRANCH   1  58
ATOM     58  C   UNL A   1      32.732  20.385  24.238  1.00  0.00     0.261 C 
BRANCH  58  59
ATOM     59  O   UNL A   1      32.609  21.801  24.017  1.00  0.00    -0.463 OA
BRANCH  59  60
ATOM     60  C   UNL A   1      31.700  22.418  24.816  1.00  0.00     0.310 C 
ATOM     61  O   UNL A   1      30.763  21.847  25.389  1.00  0.00    -0.252 OA
BRANCH  60  62
ATOM     62  C   UNL A   1      31.926  23.918  24.835  1.00  0.00     0.115 C 
ATOM     63  C   UNL A   1      31.943  24.315  26.332  1.00  0.00     0.004 C 
ATOM     64  C   UNL A   1      33.271  24.326  24.163  1.00  0.00     0.096 C 
ATOM     65  C   UNL A   1      33.052  23.543  27.092  1.00  0.00     0.005 C 
ATOM     66  C   UNL A   1      32.300  25.798  26.415  1.00  0.00     0.005 C 
ATOM     67  C   UNL A   1      34.278  24.779  25.253  1.00  0.00     0.002 C 
ATOM     68  C   UNL A   1      34.385  23.640  26.310  1.00  0.00     0.005 C 
ATOM     69  C   UNL A   1      33.787  25.958  26.090  1.00  0.00     0.005 C 
BRANCH  64  70
ATOM     70  C   UNL A   1      33.119  25.037  22.776  1.00  0.00     0.229 C 
ATOM     71  O   UNL A   1      33.121  24.291  21.775  1.00  0.00    -0.274 OA
ATOM     72  N   UNL A   1      32.834  26.334  22.474  1.00  0.00    -0.317 N 
ATOM     73  H   UNL A   1      32.644  26.490  21.521  1.00  0.00     0.170 HD
BRANCH  72  74
ATOM     74  C   UNL A   1      32.765  27.461  23.249  1.00  0.00     0.108 A 
ATOM     75  S   UNL A   1      34.202  28.382  23.376  1.00  0.00    -0.122 S 
ATOM     76  C   UNL A   1      31.680  28.275  23.600  1.00  0.00     0.078 A 
ATOM     77  C   UNL A   1      33.533  29.146  24.743  1.00  0.00     0.011 A 
ATOM     78  C   UNL A   1      32.150  29.160  24.666  1.00  0.00    -0.019 A 
ATOM     79  C   UNL A   1      34.347  29.652  25.893  1.00  0.00     0.047 C 
ATOM     80  C   UNL A   1      31.350  29.877  25.710  1.00  0.00     0.037 C 
ATOM     81  C   UNL A   1      33.459  29.699  27.149  1.00  0.00     0.006 C 
ATOM     82  C   UNL A   1      32.175  30.471  26.863  1.00  0.00     0.005 C 
BRANCH  76  83
ATOM     83  C   UNL A   1      30.314  27.961  23.142  1.00  0.00     0.257 C 
ATOM     84  O   UNL A   1      29.914  26.790  23.186  1.00  0.00    -0.269 OA
ATOM     85  N   UNL A   1      29.447  28.967  22.713  1.00  0.00    -0.339 N 
ATOM     86  C   UNL A   1      28.017  28.700  22.803  1.00  0.00     0.120 C 
ATOM     87  C   UNL A   1      29.790  30.074  21.819  1.00  0.00     0.120 C 
ATOM     88  C   UNL A   1      27.308  29.929  23.355  1.00  0.00     0.022 C 
ATOM     89  C   UNL A   1      29.030  31.362  22.184  1.00  0.00     0.022 C 
ATOM     90  C   UNL A   1      27.541  31.135  22.447  1.00  0.00     0.004 C 
ENDBRANCH  76  83
ENDBRANCH  72  74
ENDBRANCH  64  70
ENDBRANCH  60  62
ENDBRANCH  59  60
ENDBRANCH  58  59
ENDBRANCH   1  58
TORSDOF 17
ENDMDL
