MODEL 1
REMARK VINA RESULT:      -9.3      0.000      0.000
REMARK SMILES CCCNC(=O)[C@H](C)[NH2+][C@H](C)[C@@H](C)C(=O)OCCOCCOC(=O)c1ccc(-c2c3nc(c(-c4ccccc4)c4ccc([nH]4)c(-c4ccccc4)c4nc(c(-c5ccccc5)c5ccc2[nH]5)C=C4)C=C3)cc1
REMARK SMILES IDX 17 1 16 2 14 3 15 4 12 5 13 6 10 7 11 8 9 9 7 12 8 13 5 14
REMARK SMILES IDX 4 15 6 17 3 18 2 19 1 20 18 21 19 22 20 23 21 24 22 25 23 26
REMARK SMILES IDX 24 27 25 28 26 29 72 30 27 31 71 32 28 33 29 34 30 35 65 36
REMARK SMILES IDX 31 37 70 38 64 39 66 40 32 41 69 42 63 43 62 44 33 46 55 47
REMARK SMILES IDX 40 48 54 49 41 50 44 51 53 52 67 53 42 54 43 55 52 57 68 58
REMARK SMILES IDX 45 59 34 60 35 61 39 62 36 63 38 64 37 65 56 66 57 67 61 68
REMARK SMILES IDX 58 69 60 70 59 71 46 72 47 73 51 74 48 75 50 76 49 77
REMARK H PARENT 9 10 9 11 4 16 66 45 44 56
REMARK Flexibility Score: inf
ROOT
ATOM      1  C   UNL A   1      33.770  23.245  22.412  1.00  0.00     0.261 C 
ENDROOT
BRANCH   1   2
ATOM      2  O   UNL A   1      32.751  24.245  22.690  1.00  0.00    -0.463 OA
BRANCH   2   3
ATOM      3  C   UNL A   1      33.180  25.503  22.389  1.00  0.00     0.314 C 
ATOM      4  O   UNL A   1      33.511  25.835  21.251  1.00  0.00    -0.252 OA
BRANCH   3   5
ATOM      5  C   UNL A   1      33.236  26.509  23.554  1.00  0.00     0.154 C 
ATOM      6  C   UNL A   1      32.626  25.766  24.760  1.00  0.00     0.026 C 
BRANCH   5   7
ATOM      7  C   UNL A   1      32.632  27.935  23.348  1.00  0.00     0.193 C 
ATOM      8  C   UNL A   1      33.673  28.997  22.932  1.00  0.00     0.076 C 
BRANCH   7   9
ATOM      9  N   UNL A   1      31.651  28.032  22.239  1.00  0.00    -0.333 N 
ATOM     10  H   UNL A   1      31.961  28.766  21.602  1.00  0.00     0.347 HD
ATOM     11  H   UNL A   1      31.617  27.111  21.801  1.00  0.00     0.347 HD
BRANCH   9  12
ATOM     12  C   UNL A   1      30.282  28.340  22.659  1.00  0.00     0.269 C 
ATOM     13  C   UNL A   1      29.631  27.151  23.359  1.00  0.00     0.086 C 
BRANCH  12  14
ATOM     14  C   UNL A   1      30.207  29.690  23.411  1.00  0.00     0.277 C 
ATOM     15  N   UNL A   1      29.739  30.838  22.875  1.00  0.00    -0.351 N 
ATOM     16  H   UNL A   1      30.040  31.651  23.341  1.00  0.00     0.163 HD
ATOM     17  O   UNL A   1      30.549  29.780  24.595  1.00  0.00    -0.268 OA
BRANCH  15  18
ATOM     18  C   UNL A   1      28.878  31.088  21.743  1.00  0.00     0.116 C 
BRANCH  18  19
ATOM     19  C   UNL A   1      28.271  32.486  21.810  1.00  0.00     0.018 C 
ATOM     20  C   UNL A   1      28.850  33.323  22.945  1.00  0.00     0.006 C 
ENDBRANCH  18  19
ENDBRANCH  15  18
ENDBRANCH  12  14
ENDBRANCH   9  12
ENDBRANCH   7   9
ENDBRANCH   5   7
ENDBRANCH   3   5
ENDBRANCH   2   3
ENDBRANCH   1   2
BRANCH   1  21
ATOM     21  C   UNL A   1      34.977  23.353  23.356  1.00  0.00     0.202 C 
BRANCH  21  22
ATOM     22  O   UNL A   1      35.589  22.105  23.730  1.00  0.00    -0.374 OA
BRANCH  22  23
ATOM     23  C   UNL A   1      36.992  22.187  23.957  1.00  0.00     0.202 C 
BRANCH  23  24
ATOM     24  C   UNL A   1      37.569  21.050  24.800  1.00  0.00     0.261 C 
BRANCH  24  25
ATOM     25  O   UNL A   1      37.954  21.563  26.079  1.00  0.00    -0.460 OA
BRANCH  25  26
ATOM     26  C   UNL A   1      39.292  21.563  26.251  1.00  0.00     0.338 C 
ATOM     27  O   UNL A   1      40.099  20.748  25.821  1.00  0.00    -0.246 OA
BRANCH  26  28
ATOM     28  C   UNL A   1      39.711  22.809  26.903  1.00  0.00     0.060 A 
ATOM     29  C   UNL A   1      38.997  23.955  26.544  1.00  0.00     0.016 A 
ATOM     30  C   UNL A   1      40.803  22.876  27.776  1.00  0.00     0.016 A 
ATOM     31  C   UNL A   1      39.461  25.195  26.937  1.00  0.00     0.010 A 
ATOM     32  C   UNL A   1      41.268  24.128  28.178  1.00  0.00     0.010 A 
ATOM     33  C   UNL A   1      40.643  25.284  27.683  1.00  0.00    -0.014 A 
BRANCH  33  34
ATOM     34  C   UNL A   1      41.337  26.587  27.668  1.00  0.00     0.031 A 
ATOM     35  C   UNL A   1      40.780  27.684  28.535  1.00  0.00     0.074 A 
ATOM     36  C   UNL A   1      42.517  26.706  27.040  1.00  0.00     0.049 A 
ATOM     37  N   UNL A   1      41.293  28.850  28.829  1.00  0.00    -0.248 NA
ATOM     38  C   UNL A   1      39.476  27.427  29.174  1.00  0.00     0.031 C 
ATOM     39  C   UNL A   1      43.152  25.660  26.239  1.00  0.00     0.029 A 
ATOM     40  N   UNL A   1      43.410  27.742  27.020  1.00  0.00    -0.354 N 
ATOM     41  C   UNL A   1      40.377  29.459  29.680  1.00  0.00     0.074 A 
ATOM     42  C   UNL A   1      39.261  28.556  29.831  1.00  0.00     0.031 C 
ATOM     43  C   UNL A   1      44.354  26.098  25.828  1.00  0.00     0.029 A 
ATOM     44  C   UNL A   1      44.556  27.458  26.319  1.00  0.00     0.049 A 
ATOM     45  H   UNL A   1      43.247  28.605  27.465  1.00  0.00     0.167 HD
ATOM     46  C   UNL A   1      40.467  30.662  30.291  1.00  0.00     0.031 A 
ATOM     47  C   UNL A   1      45.645  28.220  26.110  1.00  0.00     0.031 A 
ATOM     48  C   UNL A   1      41.585  31.548  30.117  1.00  0.00     0.049 A 
ATOM     49  C   UNL A   1      45.700  29.574  26.760  1.00  0.00     0.074 A 
ATOM     50  C   UNL A   1      41.787  32.806  30.654  1.00  0.00     0.029 A 
ATOM     51  N   UNL A   1      42.697  31.255  29.339  1.00  0.00    -0.354 N 
ATOM     52  N   UNL A   1      44.824  30.144  27.555  1.00  0.00    -0.248 NA
ATOM     53  C   UNL A   1      46.897  30.382  26.499  1.00  0.00     0.031 C 
ATOM     54  C   UNL A   1      43.004  33.293  30.161  1.00  0.00     0.029 A 
ATOM     55  C   UNL A   1      43.584  32.314  29.366  1.00  0.00     0.049 A 
ATOM     56  H   UNL A   1      42.833  30.416  28.843  1.00  0.00     0.167 HD
ATOM     57  C   UNL A   1      45.369  31.371  27.905  1.00  0.00     0.074 A 
ATOM     58  C   UNL A   1      46.664  31.449  27.252  1.00  0.00     0.031 C 
ATOM     59  C   UNL A   1      44.856  32.350  28.691  1.00  0.00     0.031 A 
BRANCH  46  60
ATOM     60  C   UNL A   1      39.310  31.094  31.150  1.00  0.00    -0.014 A 
ATOM     61  C   UNL A   1      38.231  31.821  30.621  1.00  0.00     0.009 A 
ATOM     62  C   UNL A   1      39.301  30.769  32.516  1.00  0.00     0.009 A 
ATOM     63  C   UNL A   1      37.186  32.243  31.450  1.00  0.00     0.001 A 
ATOM     64  C   UNL A   1      38.243  31.168  33.335  1.00  0.00     0.001 A 
ATOM     65  C   UNL A   1      37.191  31.912  32.804  1.00  0.00     0.000 A 
ENDBRANCH  46  60
BRANCH  47  66
ATOM     66  C   UNL A   1      46.752  27.711  25.258  1.00  0.00    -0.014 A 
ATOM     67  C   UNL A   1      47.736  26.855  25.775  1.00  0.00     0.009 A 
ATOM     68  C   UNL A   1      46.812  28.065  23.899  1.00  0.00     0.009 A 
ATOM     69  C   UNL A   1      48.762  26.379  24.954  1.00  0.00     0.001 A 
ATOM     70  C   UNL A   1      47.821  27.564  23.075  1.00  0.00     0.001 A 
ATOM     71  C   UNL A   1      48.801  26.728  23.605  1.00  0.00     0.000 A 
ENDBRANCH  47  66
BRANCH  59  72
ATOM     72  C   UNL A   1      45.711  33.565  28.897  1.00  0.00    -0.014 A 
ATOM     73  C   UNL A   1      46.638  33.631  29.947  1.00  0.00     0.009 A 
ATOM     74  C   UNL A   1      45.604  34.645  28.006  1.00  0.00     0.009 A 
ATOM     75  C   UNL A   1      47.414  34.776  30.128  1.00  0.00     0.001 A 
ATOM     76  C   UNL A   1      46.402  35.775  28.171  1.00  0.00     0.001 A 
ATOM     77  C   UNL A   1      47.298  35.845  29.238  1.00  0.00     0.000 A 
ENDBRANCH  59  72
ENDBRANCH  33  34
ENDBRANCH  26  28
ENDBRANCH  25  26
ENDBRANCH  24  25
ENDBRANCH  23  24
ENDBRANCH  22  23
ENDBRANCH  21  22
ENDBRANCH   1  21
TORSDOF 20
ENDMDL
MODEL 2
REMARK VINA RESULT:      -9.3      1.770      2.499
REMARK SMILES CCCNC(=O)[C@H](C)[NH2+][C@H](C)[C@@H](C)C(=O)OCCOCCOC(=O)c1ccc(-c2c3nc(c(-c4ccccc4)c4ccc([nH]4)c(-c4ccccc4)c4nc(c(-c5ccccc5)c5ccc2[nH]5)C=C4)C=C3)cc1
REMARK SMILES IDX 17 1 16 2 14 3 15 4 12 5 13 6 10 7 11 8 9 9 7 12 8 13 5 14
REMARK SMILES IDX 4 15 6 17 3 18 2 19 1 20 18 21 19 22 20 23 21 24 22 25 23 26
REMARK SMILES IDX 24 27 25 28 26 29 72 30 27 31 71 32 28 33 29 34 30 35 65 36
REMARK SMILES IDX 31 37 70 38 64 39 66 40 32 41 69 42 63 43 62 44 33 46 55 47
REMARK SMILES IDX 40 48 54 49 41 50 44 51 53 52 67 53 42 54 43 55 52 57 68 58
REMARK SMILES IDX 45 59 34 60 35 61 39 62 36 63 38 64 37 65 56 66 57 67 61 68
REMARK SMILES IDX 58 69 60 70 59 71 46 72 47 73 51 74 48 75 50 76 49 77
REMARK H PARENT 9 10 9 11 4 16 66 45 44 56
REMARK Flexibility Score: inf
ROOT
ATOM      1  C   UNL A   1      33.205  21.515  23.576  1.00  0.00     0.261 C 
ENDROOT
BRANCH   1   2
ATOM      2  O   UNL A   1      32.445  22.754  23.595  1.00  0.00    -0.463 OA
BRANCH   2   3
ATOM      3  C   UNL A   1      33.077  23.748  22.911  1.00  0.00     0.314 C 
ATOM      4  O   UNL A   1      33.930  23.522  22.052  1.00  0.00    -0.252 OA
BRANCH   3   5
ATOM      5  C   UNL A   1      32.675  25.192  23.265  1.00  0.00     0.154 C 
ATOM      6  C   UNL A   1      33.268  26.064  22.140  1.00  0.00     0.026 C 
BRANCH   5   7
ATOM      7  C   UNL A   1      33.000  25.736  24.693  1.00  0.00     0.193 C 
ATOM      8  C   UNL A   1      34.285  25.141  25.307  1.00  0.00     0.076 C 
BRANCH   7   9
ATOM      9  N   UNL A   1      33.292  27.190  24.745  1.00  0.00    -0.333 N 
ATOM     10  H   UNL A   1      34.144  27.325  25.289  1.00  0.00     0.347 HD
ATOM     11  H   UNL A   1      33.382  27.502  23.777  1.00  0.00     0.347 HD
BRANCH   9  12
ATOM     12  C   UNL A   1      32.233  28.005  25.346  1.00  0.00     0.269 C 
ATOM     13  C   UNL A   1      30.871  27.691  24.733  1.00  0.00     0.086 C 
BRANCH  12  14
ATOM     14  C   UNL A   1      32.301  27.978  26.891  1.00  0.00     0.277 C 
ATOM     15  N   UNL A   1      33.311  28.498  27.620  1.00  0.00    -0.351 N 
ATOM     16  H   UNL A   1      33.375  28.138  28.533  1.00  0.00     0.163 HD
ATOM     17  O   UNL A   1      31.381  27.496  27.561  1.00  0.00    -0.268 OA
BRANCH  15  18
ATOM     18  C   UNL A   1      34.314  29.487  27.303  1.00  0.00     0.116 C 
BRANCH  18  19
ATOM     19  C   UNL A   1      33.741  30.899  27.383  1.00  0.00     0.018 C 
ATOM     20  C   UNL A   1      34.714  31.892  28.007  1.00  0.00     0.006 C 
ENDBRANCH  18  19
ENDBRANCH  15  18
ENDBRANCH  12  14
ENDBRANCH   9  12
ENDBRANCH   7   9
ENDBRANCH   5   7
ENDBRANCH   3   5
ENDBRANCH   2   3
ENDBRANCH   1   2
BRANCH   1  21
ATOM     21  C   UNL A   1      33.401  20.921  24.980  1.00  0.00     0.202 C 
BRANCH  21  22
ATOM     22  O   UNL A   1      34.695  20.344  25.237  1.00  0.00    -0.374 OA
BRANCH  22  23
ATOM     23  C   UNL A   1      35.785  21.235  25.027  1.00  0.00     0.202 C 
BRANCH  23  24
ATOM     24  C   UNL A   1      37.158  20.566  24.983  1.00  0.00     0.261 C 
BRANCH  24  25
ATOM     25  O   UNL A   1      38.173  21.574  25.001  1.00  0.00    -0.460 OA
BRANCH  25  26
ATOM     26  C   UNL A   1      39.145  21.308  25.897  1.00  0.00     0.338 C 
ATOM     27  O   UNL A   1      39.760  20.258  26.039  1.00  0.00    -0.246 OA
BRANCH  26  28
ATOM     28  C   UNL A   1      39.519  22.536  26.608  1.00  0.00     0.060 A 
ATOM     29  C   UNL A   1      38.796  23.682  26.267  1.00  0.00     0.016 A 
ATOM     30  C   UNL A   1      40.579  22.589  27.520  1.00  0.00     0.016 A 
ATOM     31  C   UNL A   1      39.223  24.915  26.719  1.00  0.00     0.010 A 
ATOM     32  C   UNL A   1      41.006  23.833  27.983  1.00  0.00     0.010 A 
ATOM     33  C   UNL A   1      40.378  24.996  27.509  1.00  0.00    -0.014 A 
BRANCH  33  34
ATOM     34  C   UNL A   1      41.048  26.310  27.565  1.00  0.00     0.031 A 
ATOM     35  C   UNL A   1      40.435  27.369  28.442  1.00  0.00     0.074 A 
ATOM     36  C   UNL A   1      42.251  26.470  26.993  1.00  0.00     0.049 A 
ATOM     37  N   UNL A   1      40.912  28.533  28.794  1.00  0.00    -0.248 NA
ATOM     38  C   UNL A   1      39.109  27.070  29.016  1.00  0.00     0.031 C 
ATOM     39  C   UNL A   1      42.938  25.462  26.186  1.00  0.00     0.029 A 
ATOM     40  N   UNL A   1      43.125  27.521  27.044  1.00  0.00    -0.354 N 
ATOM     41  C   UNL A   1      39.951  29.099  29.625  1.00  0.00     0.074 A 
ATOM     42  C   UNL A   1      38.846  28.172  29.699  1.00  0.00     0.031 C 
ATOM     43  C   UNL A   1      44.148  25.933  25.841  1.00  0.00     0.029 A 
ATOM     44  C   UNL A   1      44.304  27.280  26.384  1.00  0.00     0.049 A 
ATOM     45  H   UNL A   1      42.927  28.366  27.508  1.00  0.00     0.167 HD
ATOM     46  C   UNL A   1      39.992  30.283  30.276  1.00  0.00     0.031 A 
ATOM     47  C   UNL A   1      45.387  28.066  26.245  1.00  0.00     0.031 A 
ATOM     48  C   UNL A   1      41.100  31.193  30.179  1.00  0.00     0.049 A 
ATOM     49  C   UNL A   1      45.389  29.400  26.940  1.00  0.00     0.074 A 
ATOM     50  C   UNL A   1      41.257  32.435  30.764  1.00  0.00     0.029 A 
ATOM     51  N   UNL A   1      42.249  30.944  29.441  1.00  0.00    -0.354 N 
ATOM     52  N   UNL A   1      44.470  29.928  27.714  1.00  0.00    -0.248 NA
ATOM     53  C   UNL A   1      46.581  30.236  26.756  1.00  0.00     0.031 C 
ATOM     54  C   UNL A   1      42.483  32.959  30.339  1.00  0.00     0.029 A 
ATOM     55  C   UNL A   1      43.114  32.017  29.539  1.00  0.00     0.049 A 
ATOM     56  H   UNL A   1      42.422  30.124  28.924  1.00  0.00     0.167 HD
ATOM     57  C   UNL A   1      44.977  31.152  28.126  1.00  0.00     0.074 A 
ATOM     58  C   UNL A   1      46.297  31.273  27.532  1.00  0.00     0.031 C 
ATOM     59  C   UNL A   1      44.413  32.096  28.921  1.00  0.00     0.031 A 
BRANCH  46  60
ATOM     60  C   UNL A   1      38.793  30.666  31.098  1.00  0.00    -0.014 A 
ATOM     61  C   UNL A   1      38.687  30.317  32.455  1.00  0.00     0.009 A 
ATOM     62  C   UNL A   1      37.745  31.387  30.503  1.00  0.00     0.009 A 
ATOM     63  C   UNL A   1      37.543  30.653  33.187  1.00  0.00     0.001 A 
ATOM     64  C   UNL A   1      36.617  31.745  31.243  1.00  0.00     0.001 A 
ATOM     65  C   UNL A   1      36.512  31.371  32.582  1.00  0.00     0.000 A 
ENDBRANCH  46  60
BRANCH  47  66
ATOM     66  C   UNL A   1      46.538  27.605  25.425  1.00  0.00    -0.014 A 
ATOM     67  C   UNL A   1      46.647  27.941  24.068  1.00  0.00     0.009 A 
ATOM     68  C   UNL A   1      47.557  26.837  26.014  1.00  0.00     0.009 A 
ATOM     69  C   UNL A   1      47.743  27.507  23.317  1.00  0.00     0.001 A 
ATOM     70  C   UNL A   1      48.665  26.429  25.270  1.00  0.00     0.001 A 
ATOM     71  C   UNL A   1      48.754  26.758  23.919  1.00  0.00     0.000 A 
ENDBRANCH  47  66
BRANCH  59  72
ATOM     72  C   UNL A   1      45.236  33.319  29.201  1.00  0.00    -0.014 A 
ATOM     73  C   UNL A   1      45.150  34.454  28.383  1.00  0.00     0.009 A 
ATOM     74  C   UNL A   1      46.086  33.340  30.318  1.00  0.00     0.009 A 
ATOM     75  C   UNL A   1      45.934  35.576  28.654  1.00  0.00     0.001 A 
ATOM     76  C   UNL A   1      46.846  34.473  30.603  1.00  0.00     0.001 A 
ATOM     77  C   UNL A   1      46.778  35.585  29.765  1.00  0.00     0.000 A 
ENDBRANCH  59  72
ENDBRANCH  33  34
ENDBRANCH  26  28
ENDBRANCH  25  26
ENDBRANCH  24  25
ENDBRANCH  23  24
ENDBRANCH  22  23
ENDBRANCH  21  22
ENDBRANCH   1  21
TORSDOF 20
ENDMDL
MODEL 3
REMARK VINA RESULT:      -9.2      2.571      6.833
REMARK SMILES CCCNC(=O)[C@H](C)[NH2+][C@H](C)[C@@H](C)C(=O)OCCOCCOC(=O)c1ccc(-c2c3nc(c(-c4ccccc4)c4ccc([nH]4)c(-c4ccccc4)c4nc(c(-c5ccccc5)c5ccc2[nH]5)C=C4)C=C3)cc1
REMARK SMILES IDX 17 1 16 2 14 3 15 4 12 5 13 6 10 7 11 8 9 9 7 12 8 13 5 14
REMARK SMILES IDX 4 15 6 17 3 18 2 19 1 20 18 21 19 22 20 23 21 24 22 25 23 26
REMARK SMILES IDX 24 27 25 28 26 29 72 30 27 31 71 32 28 33 29 34 30 35 65 36
REMARK SMILES IDX 31 37 70 38 64 39 66 40 32 41 69 42 63 43 62 44 33 46 55 47
REMARK SMILES IDX 40 48 54 49 41 50 44 51 53 52 67 53 42 54 43 55 52 57 68 58
REMARK SMILES IDX 45 59 34 60 35 61 39 62 36 63 38 64 37 65 56 66 57 67 61 68
REMARK SMILES IDX 58 69 60 70 59 71 46 72 47 73 51 74 48 75 50 76 49 77
REMARK H PARENT 9 10 9 11 4 16 66 45 44 56
REMARK Flexibility Score: inf
ROOT
ATOM      1  C   UNL A   1      35.840  23.657  24.898  1.00  0.00     0.261 C 
ENDROOT
BRANCH   1   2
ATOM      2  O   UNL A   1      34.497  23.222  25.245  1.00  0.00    -0.463 OA
BRANCH   2   3
ATOM      3  C   UNL A   1      33.683  23.165  24.153  1.00  0.00     0.314 C 
ATOM      4  O   UNL A   1      33.495  24.134  23.417  1.00  0.00    -0.252 OA
BRANCH   3   5
ATOM      5  C   UNL A   1      32.995  21.815  23.875  1.00  0.00     0.154 C 
ATOM      6  C   UNL A   1      32.165  22.041  22.596  1.00  0.00     0.026 C 
BRANCH   5   7
ATOM      7  C   UNL A   1      32.179  21.136  25.021  1.00  0.00     0.193 C 
ATOM      8  C   UNL A   1      32.909  19.951  25.687  1.00  0.00     0.076 C 
BRANCH   7   9
ATOM      9  N   UNL A   1      31.912  22.014  26.188  1.00  0.00    -0.333 N 
ATOM     10  H   UNL A   1      31.779  21.423  27.008  1.00  0.00     0.347 HD
ATOM     11  H   UNL A   1      32.715  22.638  26.271  1.00  0.00     0.347 HD
BRANCH   9  12
ATOM     12  C   UNL A   1      30.733  22.873  26.049  1.00  0.00     0.269 C 
ATOM     13  C   UNL A   1      29.580  22.384  26.920  1.00  0.00     0.086 C 
BRANCH  12  14
ATOM     14  C   UNL A   1      31.098  24.370  26.189  1.00  0.00     0.277 C 
ATOM     15  N   UNL A   1      31.014  25.273  25.189  1.00  0.00    -0.351 N 
ATOM     16  H   UNL A   1      31.562  26.079  25.328  1.00  0.00     0.163 HD
ATOM     17  O   UNL A   1      31.462  24.839  27.273  1.00  0.00    -0.268 OA
BRANCH  15  18
ATOM     18  C   UNL A   1      30.267  25.271  23.954  1.00  0.00     0.116 C 
BRANCH  18  19
ATOM     19  C   UNL A   1      29.721  26.660  23.637  1.00  0.00     0.018 C 
ATOM     20  C   UNL A   1      30.605  27.776  24.184  1.00  0.00     0.006 C 
ENDBRANCH  18  19
ENDBRANCH  15  18
ENDBRANCH  12  14
ENDBRANCH   9  12
ENDBRANCH   7   9
ENDBRANCH   5   7
ENDBRANCH   3   5
ENDBRANCH   2   3
ENDBRANCH   1   2
BRANCH   1  21
ATOM     21  C   UNL A   1      36.922  22.956  25.734  1.00  0.00     0.202 C 
BRANCH  21  22
ATOM     22  O   UNL A   1      37.898  22.207  24.987  1.00  0.00    -0.374 OA
BRANCH  22  23
ATOM     23  C   UNL A   1      37.532  20.853  24.741  1.00  0.00     0.202 C 
BRANCH  23  24
ATOM     24  C   UNL A   1      38.540  19.819  25.240  1.00  0.00     0.261 C 
BRANCH  24  25
ATOM     25  O   UNL A   1      39.403  20.430  26.203  1.00  0.00    -0.460 OA
BRANCH  25  26
ATOM     26  C   UNL A   1      40.661  19.948  26.145  1.00  0.00     0.338 C 
ATOM     27  O   UNL A   1      41.019  18.845  25.748  1.00  0.00    -0.246 OA
BRANCH  26  28
ATOM     28  C   UNL A   1      41.619  21.009  26.472  1.00  0.00     0.060 A 
ATOM     29  C   UNL A   1      41.951  21.136  27.824  1.00  0.00     0.016 A 
ATOM     30  C   UNL A   1      42.122  21.897  25.514  1.00  0.00     0.016 A 
ATOM     31  C   UNL A   1      42.668  22.238  28.247  1.00  0.00     0.010 A 
ATOM     32  C   UNL A   1      42.852  23.006  25.940  1.00  0.00     0.010 A 
ATOM     33  C   UNL A   1      43.044  23.214  27.316  1.00  0.00    -0.014 A 
BRANCH  33  34
ATOM     34  C   UNL A   1      43.367  24.550  27.854  1.00  0.00     0.031 A 
ATOM     35  C   UNL A   1      44.802  25.000  27.791  1.00  0.00     0.074 A 
ATOM     36  C   UNL A   1      42.377  25.381  28.212  1.00  0.00     0.049 A 
ATOM     37  N   UNL A   1      45.314  26.177  28.036  1.00  0.00    -0.248 NA
ATOM     38  C   UNL A   1      45.796  23.991  27.379  1.00  0.00     0.031 C 
ATOM     39  C   UNL A   1      40.956  25.037  28.231  1.00  0.00     0.029 A 
ATOM     40  N   UNL A   1      42.414  26.698  28.581  1.00  0.00    -0.354 N 
ATOM     41  C   UNL A   1      46.680  26.047  27.809  1.00  0.00     0.074 A 
ATOM     42  C   UNL A   1      46.928  24.673  27.441  1.00  0.00     0.031 C 
ATOM     43  C   UNL A   1      40.248  26.129  28.564  1.00  0.00     0.029 A 
ATOM     44  C   UNL A   1      41.170  27.236  28.803  1.00  0.00     0.049 A 
ATOM     45  H   UNL A   1      43.249  27.209  28.677  1.00  0.00     0.167 HD
ATOM     46  C   UNL A   1      47.640  26.996  27.889  1.00  0.00     0.031 A 
ATOM     47  C   UNL A   1      40.826  28.488  29.153  1.00  0.00     0.031 A 
ATOM     48  C   UNL A   1      47.370  28.356  28.267  1.00  0.00     0.049 A 
ATOM     49  C   UNL A   1      41.917  29.514  29.283  1.00  0.00     0.074 A 
ATOM     50  C   UNL A   1      48.254  29.408  28.415  1.00  0.00     0.029 A 
ATOM     51  N   UNL A   1      46.103  28.846  28.555  1.00  0.00    -0.354 N 
ATOM     52  N   UNL A   1      43.207  29.378  29.076  1.00  0.00    -0.248 NA
ATOM     53  C   UNL A   1      41.507  30.866  29.680  1.00  0.00     0.031 C 
ATOM     54  C   UNL A   1      47.525  30.526  28.839  1.00  0.00     0.029 A 
ATOM     55  C   UNL A   1      46.182  30.183  28.897  1.00  0.00     0.049 A 
ATOM     56  H   UNL A   1      45.272  28.319  28.520  1.00  0.00     0.167 HD
ATOM     57  C   UNL A   1      43.762  30.629  29.298  1.00  0.00     0.074 A 
ATOM     58  C   UNL A   1      42.662  31.516  29.633  1.00  0.00     0.031 C 
ATOM     59  C   UNL A   1      45.060  31.021  29.234  1.00  0.00     0.031 A 
BRANCH  46  60
ATOM     60  C   UNL A   1      49.058  26.575  27.612  1.00  0.00    -0.014 A 
ATOM     61  C   UNL A   1      49.598  26.616  26.316  1.00  0.00     0.009 A 
ATOM     62  C   UNL A   1      49.867  26.126  28.667  1.00  0.00     0.009 A 
ATOM     63  C   UNL A   1      50.907  26.183  26.079  1.00  0.00     0.001 A 
ATOM     64  C   UNL A   1      51.182  25.721  28.433  1.00  0.00     0.001 A 
ATOM     65  C   UNL A   1      51.699  25.741  27.138  1.00  0.00     0.000 A 
ENDBRANCH  46  60
BRANCH  47  66
ATOM     66  C   UNL A   1      39.398  28.824  29.395  1.00  0.00    -0.014 A 
ATOM     67  C   UNL A   1      38.816  28.663  30.661  1.00  0.00     0.009 A 
ATOM     68  C   UNL A   1      38.611  29.339  28.351  1.00  0.00     0.009 A 
ATOM     69  C   UNL A   1      37.475  28.995  30.871  1.00  0.00     0.001 A 
ATOM     70  C   UNL A   1      37.280  29.698  28.570  1.00  0.00     0.001 A 
ATOM     71  C   UNL A   1      36.710  29.518  29.829  1.00  0.00     0.000 A 
ENDBRANCH  47  66
BRANCH  59  72
ATOM     72  C   UNL A   1      45.340  32.468  29.512  1.00  0.00    -0.014 A 
ATOM     73  C   UNL A   1      45.441  33.401  28.469  1.00  0.00     0.009 A 
ATOM     74  C   UNL A   1      45.475  32.904  30.839  1.00  0.00     0.009 A 
ATOM     75  C   UNL A   1      45.714  34.740  28.749  1.00  0.00     0.001 A 
ATOM     76  C   UNL A   1      45.719  34.248  31.117  1.00  0.00     0.001 A 
ATOM     77  C   UNL A   1      45.851  35.162  30.072  1.00  0.00     0.000 A 
ENDBRANCH  59  72
ENDBRANCH  33  34
ENDBRANCH  26  28
ENDBRANCH  25  26
ENDBRANCH  24  25
ENDBRANCH  23  24
ENDBRANCH  22  23
ENDBRANCH  21  22
ENDBRANCH   1  21
TORSDOF 20
ENDMDL
