MODEL 1
REMARK VINA RESULT:     -10.5      0.000      0.000
REMARK SMILES O=C(OCCOCCOC(=O)[C@H]1COCCN1C(=O)c1ccc(Br)nc1)c1ccc(-c2c3nc(c(-c4ccccc4)c4ccc([nH]4)c(-c4ccccc4)c4nc(c(-c5ccccc5)c5ccc2[nH]5)C=C4)C=C3)cc1
REMARK SMILES IDX 6 1 5 2 4 3 3 4 2 5 1 6 27 7 28 8 74 9 29 10 73 11 30 12
REMARK SMILES IDX 31 13 32 14 67 15 33 16 72 17 66 18 68 19 34 20 71 21 65 22
REMARK SMILES IDX 64 23 35 25 57 26 42 27 56 28 43 29 46 30 55 31 69 32 44 33
REMARK SMILES IDX 45 34 54 36 70 37 47 38 36 39 37 40 41 41 38 42 40 43 39 44
REMARK SMILES IDX 58 45 59 46 63 47 60 48 62 49 61 50 48 51 49 52 53 53 50 54
REMARK SMILES IDX 52 55 51 56 7 57 8 58 9 59 10 60 11 61 12 62 13 63 17 64
REMARK SMILES IDX 14 65 16 66 15 67 18 68 19 69 20 70 21 71 26 72 22 73 25 74
REMARK SMILES IDX 23 75 24 76
REMARK H PARENT 68 24 46 35
REMARK Flexibility Score: inf
ROOT
ATOM      1  O   UNL A   1      36.737  20.557  24.898  1.00  0.00    -0.374 OA
ENDROOT
BRANCH   1   2
ATOM      2  C   UNL A   1      37.839  19.662  25.003  1.00  0.00     0.202 C 
BRANCH   2   3
ATOM      3  C   UNL A   1      39.065  20.240  25.704  1.00  0.00     0.261 C 
BRANCH   3   4
ATOM      4  O   UNL A   1      40.089  19.238  25.783  1.00  0.00    -0.460 OA
BRANCH   4   5
ATOM      5  C   UNL A   1      41.409  19.424  26.000  1.00  0.00     0.338 C 
ATOM      6  O   UNL A   1      42.176  18.475  25.850  1.00  0.00    -0.246 OA
BRANCH   5   7
ATOM      7  C   UNL A   1      42.000  20.743  26.370  1.00  0.00     0.060 A 
ATOM      8  C   UNL A   1      42.382  21.729  25.461  1.00  0.00     0.016 A 
ATOM      9  C   UNL A   1      42.074  21.044  27.739  1.00  0.00     0.016 A 
ATOM     10  C   UNL A   1      42.817  22.971  25.871  1.00  0.00     0.010 A 
ATOM     11  C   UNL A   1      42.494  22.303  28.170  1.00  0.00     0.010 A 
ATOM     12  C   UNL A   1      42.850  23.268  27.224  1.00  0.00    -0.014 A 
BRANCH  12  13
ATOM     13  C   UNL A   1      43.311  24.609  27.584  1.00  0.00     0.031 A 
ATOM     14  C   UNL A   1      42.310  25.585  28.097  1.00  0.00     0.074 A 
ATOM     15  C   UNL A   1      44.635  24.845  27.607  1.00  0.00     0.049 A 
ATOM     16  N   UNL A   1      42.480  26.832  28.433  1.00  0.00    -0.248 NA
ATOM     17  C   UNL A   1      40.934  25.086  28.280  1.00  0.00     0.031 C 
ATOM     18  C   UNL A   1      45.674  23.858  27.287  1.00  0.00     0.029 A 
ATOM     19  N   UNL A   1      45.333  25.966  27.948  1.00  0.00    -0.354 N 
ATOM     20  C   UNL A   1      41.228  27.280  28.826  1.00  0.00     0.074 A 
ATOM     21  C   UNL A   1      40.311  26.170  28.718  1.00  0.00     0.031 C 
ATOM     22  C   UNL A   1      46.880  24.422  27.460  1.00  0.00     0.029 A 
ATOM     23  C   UNL A   1      46.693  25.820  27.818  1.00  0.00     0.049 A 
ATOM     24  H   UNL A   1      44.905  26.798  28.257  1.00  0.00     0.167 HD
ATOM     25  C   UNL A   1      40.888  28.529  29.209  1.00  0.00     0.031 A 
ATOM     26  C   UNL A   1      47.663  26.746  27.922  1.00  0.00     0.031 A 
ATOM     27  C   UNL A   1      41.835  29.605  29.281  1.00  0.00     0.049 A 
ATOM     28  C   UNL A   1      47.236  28.155  28.224  1.00  0.00     0.074 A 
ATOM     29  C   UNL A   1      41.617  30.936  29.579  1.00  0.00     0.029 A 
ATOM     30  N   UNL A   1      43.196  29.459  29.043  1.00  0.00    -0.354 N 
ATOM     31  N   UNL A   1      46.038  28.607  28.518  1.00  0.00    -0.248 NA
ATOM     32  C   UNL A   1      48.277  29.187  28.173  1.00  0.00     0.031 C 
ATOM     33  C   UNL A   1      42.841  31.604  29.467  1.00  0.00     0.029 A 
ATOM     34  C   UNL A   1      43.828  30.682  29.150  1.00  0.00     0.049 A 
ATOM     35  H   UNL A   1      43.644  28.608  28.831  1.00  0.00     0.167 HD
ATOM     36  C   UNL A   1      46.179  29.976  28.682  1.00  0.00     0.074 A 
ATOM     37  C   UNL A   1      47.586  30.273  28.492  1.00  0.00     0.031 C 
ATOM     38  C   UNL A   1      45.235  30.913  28.948  1.00  0.00     0.031 A 
BRANCH  25  39
ATOM     39  C   UNL A   1      39.433  28.798  29.450  1.00  0.00    -0.014 A 
ATOM     40  C   UNL A   1      38.575  29.211  28.421  1.00  0.00     0.009 A 
ATOM     41  C   UNL A   1      38.923  28.655  30.750  1.00  0.00     0.009 A 
ATOM     42  C   UNL A   1      37.235  29.500  28.697  1.00  0.00     0.001 A 
ATOM     43  C   UNL A   1      37.581  28.927  31.018  1.00  0.00     0.001 A 
ATOM     44  C   UNL A   1      36.740  29.356  29.994  1.00  0.00     0.000 A 
ENDBRANCH  25  39
BRANCH  26  45
ATOM     45  C   UNL A   1      49.078  26.406  27.615  1.00  0.00    -0.014 A 
ATOM     46  C   UNL A   1      49.560  26.410  26.299  1.00  0.00     0.009 A 
ATOM     47  C   UNL A   1      49.955  26.035  28.650  1.00  0.00     0.009 A 
ATOM     48  C   UNL A   1      50.877  26.025  26.024  1.00  0.00     0.001 A 
ATOM     49  C   UNL A   1      51.279  25.684  28.377  1.00  0.00     0.001 A 
ATOM     50  C   UNL A   1      51.735  25.665  27.062  1.00  0.00     0.000 A 
ENDBRANCH  26  45
BRANCH  38  51
ATOM     51  C   UNL A   1      45.713  32.328  29.046  1.00  0.00    -0.014 A 
ATOM     52  C   UNL A   1      45.757  33.151  27.912  1.00  0.00     0.009 A 
ATOM     53  C   UNL A   1      46.068  32.855  30.297  1.00  0.00     0.009 A 
ATOM     54  C   UNL A   1      46.172  34.477  28.026  1.00  0.00     0.001 A 
ATOM     55  C   UNL A   1      46.456  34.188  30.411  1.00  0.00     0.001 A 
ATOM     56  C   UNL A   1      46.514  34.996  29.275  1.00  0.00     0.000 A 
ENDBRANCH  38  51
ENDBRANCH  12  13
ENDBRANCH   5   7
ENDBRANCH   4   5
ENDBRANCH   3   4
ENDBRANCH   2   3
ENDBRANCH   1   2
BRANCH   1  57
ATOM     57  C   UNL A   1      37.000  21.843  24.339  1.00  0.00     0.202 C 
BRANCH  57  58
ATOM     58  C   UNL A   1      35.704  22.659  24.346  1.00  0.00     0.261 C 
BRANCH  58  59
ATOM     59  O   UNL A   1      35.405  23.086  23.006  1.00  0.00    -0.462 OA
BRANCH  59  60
ATOM     60  C   UNL A   1      34.107  23.395  22.741  1.00  0.00     0.331 C 
ATOM     61  O   UNL A   1      33.517  23.143  21.696  1.00  0.00    -0.250 OA
BRANCH  60  62
ATOM     62  C   UNL A   1      33.397  23.993  23.960  1.00  0.00     0.221 C 
ATOM     63  C   UNL A   1      33.293  25.512  23.887  1.00  0.00     0.197 C 
ATOM     64  N   UNL A   1      32.056  23.424  24.199  1.00  0.00    -0.320 N 
ATOM     65  O   UNL A   1      32.391  25.922  22.854  1.00  0.00    -0.377 OA
ATOM     66  C   UNL A   1      30.975  23.939  23.348  1.00  0.00     0.149 C 
ATOM     67  C   UNL A   1      31.060  25.460  23.125  1.00  0.00     0.181 C 
BRANCH  64  68
ATOM     68  C   UNL A   1      31.845  22.292  24.984  1.00  0.00     0.256 C 
ATOM     69  O   UNL A   1      31.222  22.284  26.029  1.00  0.00    -0.269 OA
BRANCH  68  70
ATOM     70  C   UNL A   1      32.440  21.030  24.499  1.00  0.00     0.058 A 
ATOM     71  C   UNL A   1      32.095  20.510  23.248  1.00  0.00     0.018 A 
ATOM     72  C   UNL A   1      33.233  20.272  25.344  1.00  0.00     0.126 A 
ATOM     73  C   UNL A   1      32.497  19.218  22.922  1.00  0.00     0.037 A 
ATOM     74  N   UNL A   1      33.651  19.019  25.038  1.00  0.00    -0.249 NA
ATOM     75  C   UNL A   1      33.261  18.513  23.845  1.00  0.00     0.106 A 
ATOM     76  Br  UNL A   1      33.752  16.726  23.441  1.00  0.00    -0.029 Br
ENDBRANCH  68  70
ENDBRANCH  64  68
ENDBRANCH  60  62
ENDBRANCH  59  60
ENDBRANCH  58  59
ENDBRANCH  57  58
ENDBRANCH   1  57
TORSDOF 16
ENDMDL
MODEL 2
REMARK VINA RESULT:     -10.4      5.517     10.118
REMARK SMILES O=C(OCCOCCOC(=O)[C@H]1COCCN1C(=O)c1ccc(Br)nc1)c1ccc(-c2c3nc(c(-c4ccccc4)c4ccc([nH]4)c(-c4ccccc4)c4nc(c(-c5ccccc5)c5ccc2[nH]5)C=C4)C=C3)cc1
REMARK SMILES IDX 6 1 5 2 4 3 3 4 2 5 1 6 27 7 28 8 74 9 29 10 73 11 30 12
REMARK SMILES IDX 31 13 32 14 67 15 33 16 72 17 66 18 68 19 34 20 71 21 65 22
REMARK SMILES IDX 64 23 35 25 57 26 42 27 56 28 43 29 46 30 55 31 69 32 44 33
REMARK SMILES IDX 45 34 54 36 70 37 47 38 36 39 37 40 41 41 38 42 40 43 39 44
REMARK SMILES IDX 58 45 59 46 63 47 60 48 62 49 61 50 48 51 49 52 53 53 50 54
REMARK SMILES IDX 52 55 51 56 7 57 8 58 9 59 10 60 11 61 12 62 13 63 17 64
REMARK SMILES IDX 14 65 16 66 15 67 18 68 19 69 20 70 21 71 26 72 22 73 25 74
REMARK SMILES IDX 23 75 24 76
REMARK H PARENT 68 24 46 35
REMARK Flexibility Score: inf
ROOT
ATOM      1  O   UNL A   1      32.690  30.119  26.498  1.00  0.00    -0.374 OA
ENDROOT
BRANCH   1   2
ATOM      2  C   UNL A   1      33.039  31.300  27.211  1.00  0.00     0.202 C 
BRANCH   2   3
ATOM      3  C   UNL A   1      31.918  32.330  27.325  1.00  0.00     0.261 C 
BRANCH   3   4
ATOM      4  O   UNL A   1      32.481  33.650  27.345  1.00  0.00    -0.460 OA
BRANCH   4   5
ATOM      5  C   UNL A   1      33.033  34.293  28.396  1.00  0.00     0.338 C 
ATOM      6  O   UNL A   1      32.478  35.298  28.838  1.00  0.00    -0.246 OA
BRANCH   5   7
ATOM      7  C   UNL A   1      34.267  33.821  29.090  1.00  0.00     0.060 A 
ATOM      8  C   UNL A   1      34.288  32.922  30.156  1.00  0.00     0.016 A 
ATOM      9  C   UNL A   1      35.496  34.236  28.553  1.00  0.00     0.016 A 
ATOM     10  C   UNL A   1      35.468  32.437  30.679  1.00  0.00     0.010 A 
ATOM     11  C   UNL A   1      36.698  33.741  29.060  1.00  0.00     0.010 A 
ATOM     12  C   UNL A   1      36.673  32.827  30.117  1.00  0.00    -0.014 A 
BRANCH  12  13
ATOM     13  C   UNL A   1      37.883  32.264  30.716  1.00  0.00     0.031 A 
ATOM     14  C   UNL A   1      38.555  31.133  30.019  1.00  0.00     0.074 A 
ATOM     15  C   UNL A   1      38.432  32.901  31.765  1.00  0.00     0.049 A 
ATOM     16  N   UNL A   1      39.604  30.454  30.385  1.00  0.00    -0.248 NA
ATOM     17  C   UNL A   1      37.985  30.724  28.722  1.00  0.00     0.031 C 
ATOM     18  C   UNL A   1      37.907  34.129  32.376  1.00  0.00     0.029 A 
ATOM     19  N   UNL A   1      39.566  32.633  32.475  1.00  0.00    -0.354 N 
ATOM     20  C   UNL A   1      39.796  29.510  29.387  1.00  0.00     0.074 A 
ATOM     21  C   UNL A   1      38.778  29.718  28.385  1.00  0.00     0.031 C 
ATOM     22  C   UNL A   1      38.731  34.511  33.365  1.00  0.00     0.029 A 
ATOM     23  C   UNL A   1      39.783  33.516  33.506  1.00  0.00     0.049 A 
ATOM     24  H   UNL A   1      40.169  31.883  32.270  1.00  0.00     0.167 HD
ATOM     25  C   UNL A   1      40.732  28.537  29.349  1.00  0.00     0.031 A 
ATOM     26  C   UNL A   1      40.703  33.471  34.487  1.00  0.00     0.031 A 
ATOM     27  C   UNL A   1      41.712  28.359  30.382  1.00  0.00     0.049 A 
ATOM     28  C   UNL A   1      41.649  32.303  34.486  1.00  0.00     0.074 A 
ATOM     29  C   UNL A   1      42.669  27.372  30.511  1.00  0.00     0.029 A 
ATOM     30  N   UNL A   1      41.849  29.205  31.476  1.00  0.00    -0.354 N 
ATOM     31  N   UNL A   1      41.785  31.354  33.586  1.00  0.00    -0.248 NA
ATOM     32  C   UNL A   1      42.538  32.171  35.644  1.00  0.00     0.031 C 
ATOM     33  C   UNL A   1      43.349  27.592  31.714  1.00  0.00     0.029 A 
ATOM     34  C   UNL A   1      42.850  28.744  32.307  1.00  0.00     0.049 A 
ATOM     35  H   UNL A   1      41.312  30.015  31.634  1.00  0.00     0.167 HD
ATOM     36  C   UNL A   1      42.772  30.511  34.072  1.00  0.00     0.074 A 
ATOM     37  C   UNL A   1      43.224  31.082  35.326  1.00  0.00     0.031 C 
ATOM     38  C   UNL A   1      43.254  29.358  33.545  1.00  0.00     0.031 A 
BRANCH  25  39
ATOM     39  C   UNL A   1      40.643  27.548  28.226  1.00  0.00    -0.014 A 
ATOM     40  C   UNL A   1      39.879  26.377  28.329  1.00  0.00     0.009 A 
ATOM     41  C   UNL A   1      41.368  27.790  27.049  1.00  0.00     0.009 A 
ATOM     42  C   UNL A   1      39.862  25.454  27.278  1.00  0.00     0.001 A 
ATOM     43  C   UNL A   1      41.335  26.876  25.995  1.00  0.00     0.001 A 
ATOM     44  C   UNL A   1      40.588  25.706  26.113  1.00  0.00     0.000 A 
ENDBRANCH  25  39
BRANCH  26  45
ATOM     45  C   UNL A   1      40.687  34.465  35.592  1.00  0.00    -0.014 A 
ATOM     46  C   UNL A   1      39.858  34.300  36.710  1.00  0.00     0.009 A 
ATOM     47  C   UNL A   1      41.489  35.618  35.516  1.00  0.00     0.009 A 
ATOM     48  C   UNL A   1      39.810  35.278  37.709  1.00  0.00     0.001 A 
ATOM     49  C   UNL A   1      41.466  36.577  36.531  1.00  0.00     0.001 A 
ATOM     50  C   UNL A   1      40.615  36.413  37.621  1.00  0.00     0.000 A 
ENDBRANCH  26  45
BRANCH  38  51
ATOM     51  C   UNL A   1      44.320  28.662  34.334  1.00  0.00    -0.014 A 
ATOM     52  C   UNL A   1      45.671  28.990  34.158  1.00  0.00     0.009 A 
ATOM     53  C   UNL A   1      43.958  27.712  35.301  1.00  0.00     0.009 A 
ATOM     54  C   UNL A   1      46.650  28.357  34.924  1.00  0.00     0.001 A 
ATOM     55  C   UNL A   1      44.937  27.103  36.084  1.00  0.00     0.001 A 
ATOM     56  C   UNL A   1      46.281  27.421  35.890  1.00  0.00     0.000 A 
ENDBRANCH  38  51
ENDBRANCH  12  13
ENDBRANCH   5   7
ENDBRANCH   4   5
ENDBRANCH   3   4
ENDBRANCH   2   3
ENDBRANCH   1   2
BRANCH   1  57
ATOM     57  C   UNL A   1      32.724  28.891  27.225  1.00  0.00     0.202 C 
BRANCH  57  58
ATOM     58  C   UNL A   1      31.913  27.841  26.459  1.00  0.00     0.261 C 
BRANCH  58  59
ATOM     59  O   UNL A   1      32.667  26.619  26.386  1.00  0.00    -0.462 OA
BRANCH  59  60
ATOM     60  C   UNL A   1      32.689  25.988  25.181  1.00  0.00     0.331 C 
ATOM     61  O   UNL A   1      32.842  24.783  25.013  1.00  0.00    -0.250 OA
BRANCH  60  62
ATOM     62  C   UNL A   1      32.366  26.942  24.025  1.00  0.00     0.221 C 
ATOM     63  C   UNL A   1      33.554  27.154  23.095  1.00  0.00     0.197 C 
ATOM     64  N   UNL A   1      31.192  26.529  23.230  1.00  0.00    -0.320 N 
ATOM     65  O   UNL A   1      33.853  25.966  22.355  1.00  0.00    -0.377 OA
ATOM     66  C   UNL A   1      31.421  25.459  22.250  1.00  0.00     0.149 C 
ATOM     67  C   UNL A   1      32.758  25.608  21.501  1.00  0.00     0.181 C 
BRANCH  64  68
ATOM     68  C   UNL A   1      29.892  26.919  23.544  1.00  0.00     0.256 C 
ATOM     69  O   UNL A   1      29.118  26.260  24.214  1.00  0.00    -0.269 OA
BRANCH  68  70
ATOM     70  C   UNL A   1      29.441  28.217  23.004  1.00  0.00     0.058 A 
ATOM     71  C   UNL A   1      28.106  28.614  23.118  1.00  0.00     0.018 A 
ATOM     72  C   UNL A   1      30.307  28.987  22.246  1.00  0.00     0.126 A 
ATOM     73  C   UNL A   1      27.673  29.730  22.406  1.00  0.00     0.037 A 
ATOM     74  N   UNL A   1      29.909  30.087  21.560  1.00  0.00    -0.249 NA
ATOM     75  C   UNL A   1      28.601  30.424  21.640  1.00  0.00     0.106 A 
ATOM     76  Br  UNL A   1      28.005  31.901  20.610  1.00  0.00    -0.029 Br
ENDBRANCH  68  70
ENDBRANCH  64  68
ENDBRANCH  60  62
ENDBRANCH  59  60
ENDBRANCH  58  59
ENDBRANCH  57  58
ENDBRANCH   1  57
TORSDOF 16
ENDMDL
MODEL 3
REMARK VINA RESULT:     -10.3      1.326      6.279
REMARK SMILES O=C(OCCOCCOC(=O)[C@H]1COCCN1C(=O)c1ccc(Br)nc1)c1ccc(-c2c3nc(c(-c4ccccc4)c4ccc([nH]4)c(-c4ccccc4)c4nc(c(-c5ccccc5)c5ccc2[nH]5)C=C4)C=C3)cc1
REMARK SMILES IDX 6 1 5 2 4 3 3 4 2 5 1 6 27 7 28 8 74 9 29 10 73 11 30 12
REMARK SMILES IDX 31 13 32 14 67 15 33 16 72 17 66 18 68 19 34 20 71 21 65 22
REMARK SMILES IDX 64 23 35 25 57 26 42 27 56 28 43 29 46 30 55 31 69 32 44 33
REMARK SMILES IDX 45 34 54 36 70 37 47 38 36 39 37 40 41 41 38 42 40 43 39 44
REMARK SMILES IDX 58 45 59 46 63 47 60 48 62 49 61 50 48 51 49 52 53 53 50 54
REMARK SMILES IDX 52 55 51 56 7 57 8 58 9 59 10 60 11 61 12 62 13 63 17 64
REMARK SMILES IDX 14 65 16 66 15 67 18 68 19 69 20 70 21 71 26 72 22 73 25 74
REMARK SMILES IDX 23 75 24 76
REMARK H PARENT 68 24 46 35
REMARK Flexibility Score: inf
ROOT
ATOM      1  O   UNL A   1      37.546  22.033  24.662  1.00  0.00    -0.374 OA
ENDROOT
BRANCH   1   2
ATOM      2  C   UNL A   1      38.155  21.126  25.574  1.00  0.00     0.202 C 
BRANCH   2   3
ATOM      3  C   UNL A   1      38.773  19.891  24.927  1.00  0.00     0.261 C 
BRANCH   3   4
ATOM      4  O   UNL A   1      39.696  19.281  25.842  1.00  0.00    -0.460 OA
BRANCH   4   5
ATOM      5  C   UNL A   1      41.005  19.570  26.005  1.00  0.00     0.338 C 
ATOM      6  O   UNL A   1      41.843  18.712  25.729  1.00  0.00    -0.246 OA
BRANCH   5   7
ATOM      7  C   UNL A   1      41.500  20.901  26.462  1.00  0.00     0.060 A 
ATOM      8  C   UNL A   1      41.962  21.912  25.620  1.00  0.00     0.016 A 
ATOM      9  C   UNL A   1      41.387  21.184  27.832  1.00  0.00     0.016 A 
ATOM     10  C   UNL A   1      42.299  23.161  26.095  1.00  0.00     0.010 A 
ATOM     11  C   UNL A   1      41.707  22.450  28.326  1.00  0.00     0.010 A 
ATOM     12  C   UNL A   1      42.149  23.440  27.445  1.00  0.00    -0.014 A 
BRANCH  12  13
ATOM     13  C   UNL A   1      42.515  24.788  27.875  1.00  0.00     0.031 A 
ATOM     14  C   UNL A   1      43.962  25.132  27.964  1.00  0.00     0.074 A 
ATOM     15  C   UNL A   1      41.540  25.706  27.999  1.00  0.00     0.049 A 
ATOM     16  N   UNL A   1      44.516  26.242  28.361  1.00  0.00    -0.248 NA
ATOM     17  C   UNL A   1      44.915  24.096  27.525  1.00  0.00     0.031 C 
ATOM     18  C   UNL A   1      40.115  25.464  27.742  1.00  0.00     0.029 A 
ATOM     19  N   UNL A   1      41.600  27.029  28.329  1.00  0.00    -0.354 N 
ATOM     20  C   UNL A   1      45.882  26.025  28.261  1.00  0.00     0.074 A 
ATOM     21  C   UNL A   1      46.078  24.694  27.739  1.00  0.00     0.031 C 
ATOM     22  C   UNL A   1      39.439  26.611  27.916  1.00  0.00     0.029 A 
ATOM     23  C   UNL A   1      40.367  27.635  28.373  1.00  0.00     0.049 A 
ATOM     24  H   UNL A   1      42.442  27.503  28.516  1.00  0.00     0.167 HD
ATOM     25  C   UNL A   1      46.874  26.871  28.614  1.00  0.00     0.031 A 
ATOM     26  C   UNL A   1      40.038  28.867  28.799  1.00  0.00     0.031 A 
ATOM     27  C   UNL A   1      46.626  28.181  29.148  1.00  0.00     0.049 A 
ATOM     28  C   UNL A   1      41.154  29.738  29.305  1.00  0.00     0.074 A 
ATOM     29  C   UNL A   1      47.531  29.113  29.618  1.00  0.00     0.029 A 
ATOM     30  N   UNL A   1      45.360  28.737  29.282  1.00  0.00    -0.354 N 
ATOM     31  N   UNL A   1      42.448  29.509  29.292  1.00  0.00    -0.248 NA
ATOM     32  C   UNL A   1      40.771  31.013  29.920  1.00  0.00     0.031 C 
ATOM     33  C   UNL A   1      46.804  30.212  30.088  1.00  0.00     0.029 A 
ATOM     34  C   UNL A   1      45.453  29.986  29.863  1.00  0.00     0.049 A 
ATOM     35  H   UNL A   1      44.520  28.305  29.003  1.00  0.00     0.167 HD
ATOM     36  C   UNL A   1      43.034  30.609  29.898  1.00  0.00     0.074 A 
ATOM     37  C   UNL A   1      41.956  31.519  30.234  1.00  0.00     0.031 C 
ATOM     38  C   UNL A   1      44.340  30.845  30.174  1.00  0.00     0.031 A 
BRANCH  25  39
ATOM     39  C   UNL A   1      48.276  26.348  28.542  1.00  0.00    -0.014 A 
ATOM     40  C   UNL A   1      48.886  25.708  29.631  1.00  0.00     0.009 A 
ATOM     41  C   UNL A   1      49.008  26.527  27.358  1.00  0.00     0.009 A 
ATOM     42  C   UNL A   1      50.213  25.279  29.540  1.00  0.00     0.001 A 
ATOM     43  C   UNL A   1      50.327  26.081  27.264  1.00  0.00     0.001 A 
ATOM     44  C   UNL A   1      50.931  25.464  28.358  1.00  0.00     0.000 A 
ENDBRANCH  25  39
BRANCH  26  45
ATOM     45  C   UNL A   1      38.615  29.288  28.887  1.00  0.00    -0.014 A 
ATOM     46  C   UNL A   1      37.856  29.058  30.042  1.00  0.00     0.009 A 
ATOM     47  C   UNL A   1      37.991  29.901  27.785  1.00  0.00     0.009 A 
ATOM     48  C   UNL A   1      36.500  29.403  30.082  1.00  0.00     0.001 A 
ATOM     49  C   UNL A   1      36.647  30.277  27.839  1.00  0.00     0.001 A 
ATOM     50  C   UNL A   1      35.899  30.015  28.983  1.00  0.00     0.000 A 
ENDBRANCH  26  45
BRANCH  38  51
ATOM     51  C   UNL A   1      44.650  32.137  30.865  1.00  0.00    -0.014 A 
ATOM     52  C   UNL A   1      44.718  32.204  32.264  1.00  0.00     0.009 A 
ATOM     53  C   UNL A   1      44.931  33.281  30.103  1.00  0.00     0.009 A 
ATOM     54  C   UNL A   1      45.041  33.406  32.891  1.00  0.00     0.001 A 
ATOM     55  C   UNL A   1      45.280  34.474  30.733  1.00  0.00     0.001 A 
ATOM     56  C   UNL A   1      45.328  34.537  32.126  1.00  0.00     0.000 A 
ENDBRANCH  38  51
ENDBRANCH  12  13
ENDBRANCH   5   7
ENDBRANCH   4   5
ENDBRANCH   3   4
ENDBRANCH   2   3
ENDBRANCH   1   2
BRANCH   1  57
ATOM     57  C   UNL A   1      37.027  23.247  25.205  1.00  0.00     0.202 C 
BRANCH  57  58
ATOM     58  C   UNL A   1      35.634  23.494  24.621  1.00  0.00     0.261 C 
BRANCH  58  59
ATOM     59  O   UNL A   1      35.094  24.706  25.176  1.00  0.00    -0.462 OA
BRANCH  59  60
ATOM     60  C   UNL A   1      33.838  24.633  25.691  1.00  0.00     0.331 C 
ATOM     61  O   UNL A   1      33.093  25.588  25.883  1.00  0.00    -0.250 OA
BRANCH  60  62
ATOM     62  C   UNL A   1      33.382  23.183  25.897  1.00  0.00     0.221 C 
ATOM     63  C   UNL A   1      32.873  22.927  27.310  1.00  0.00     0.197 C 
ATOM     64  N   UNL A   1      32.363  22.742  24.924  1.00  0.00    -0.320 N 
ATOM     65  O   UNL A   1      31.637  23.608  27.548  1.00  0.00    -0.377 OA
ATOM     66  C   UNL A   1      30.987  23.185  25.185  1.00  0.00     0.149 C 
ATOM     67  C   UNL A   1      30.609  23.117  26.676  1.00  0.00     0.181 C 
BRANCH  64  68
ATOM     68  C   UNL A   1      32.689  22.170  23.696  1.00  0.00     0.256 C 
ATOM     69  O   UNL A   1      32.725  22.777  22.641  1.00  0.00    -0.269 OA
BRANCH  68  70
ATOM     70  C   UNL A   1      32.993  20.725  23.698  1.00  0.00     0.058 A 
ATOM     71  C   UNL A   1      32.190  19.824  22.996  1.00  0.00     0.018 A 
ATOM     72  C   UNL A   1      33.992  20.232  24.521  1.00  0.00     0.126 A 
ATOM     73  C   UNL A   1      32.371  18.458  23.202  1.00  0.00     0.037 A 
ATOM     74  N   UNL A   1      34.197  18.907  24.720  1.00  0.00    -0.249 NA
ATOM     75  C   UNL A   1      33.373  18.051  24.073  1.00  0.00     0.106 A 
ATOM     76  Br  UNL A   1      33.580  16.197  24.416  1.00  0.00    -0.029 Br
ENDBRANCH  68  70
ENDBRANCH  64  68
ENDBRANCH  60  62
ENDBRANCH  59  60
ENDBRANCH  58  59
ENDBRANCH  57  58
ENDBRANCH   1  57
TORSDOF 16
ENDMDL
