MODEL 1
REMARK VINA RESULT:     -10.8      0.000      0.000
REMARK SMILES O=C(OCCOCCOC(=O)[C@H]1CC=CC[C@@H]1C(=O)NC1CCCCC1)c1ccc(-c2c3nc(c(-c4ccccc4)c4ccc([nH]4)c(-c4ccccc4)c4nc(c(-c5ccccc5)c5ccc2[nH]5)C=C4)C=C3)cc1
REMARK SMILES IDX 6 1 5 2 4 3 3 4 2 5 1 6 27 7 28 8 74 9 29 10 73 11 30 12
REMARK SMILES IDX 31 13 32 14 67 15 33 16 72 17 66 18 68 19 34 20 71 21 65 22
REMARK SMILES IDX 64 23 35 25 57 26 42 27 56 28 43 29 46 30 55 31 69 32 44 33
REMARK SMILES IDX 45 34 54 36 70 37 47 38 36 39 37 40 41 41 38 42 40 43 39 44
REMARK SMILES IDX 58 45 59 46 63 47 60 48 62 49 61 50 48 51 49 52 53 53 50 54
REMARK SMILES IDX 52 55 51 56 7 57 8 58 9 59 10 60 11 61 12 62 13 63 17 64
REMARK SMILES IDX 14 65 16 66 15 67 18 68 19 69 20 70 21 72 22 73 26 74 23 75
REMARK SMILES IDX 25 76 24 77
REMARK H PARENT 68 24 46 35 20 71
REMARK Flexibility Score: inf
ROOT
ATOM      1  O   UNL A   1      31.910  30.813  26.417  1.00  0.00    -0.374 OA
ENDROOT
BRANCH   1   2
ATOM      2  C   UNL A   1      31.429  32.079  26.866  1.00  0.00     0.202 C 
BRANCH   2   3
ATOM      3  C   UNL A   1      32.428  33.235  26.833  1.00  0.00     0.261 C 
BRANCH   3   4
ATOM      4  O   UNL A   1      32.217  34.093  27.964  1.00  0.00    -0.460 OA
BRANCH   4   5
ATOM      5  C   UNL A   1      33.183  34.682  28.707  1.00  0.00     0.338 C 
ATOM      6  O   UNL A   1      33.043  35.846  29.073  1.00  0.00    -0.246 OA
BRANCH   5   7
ATOM      7  C   UNL A   1      34.381  33.931  29.172  1.00  0.00     0.060 A 
ATOM      8  C   UNL A   1      34.330  32.705  29.832  1.00  0.00     0.016 A 
ATOM      9  C   UNL A   1      35.641  34.469  28.880  1.00  0.00     0.016 A 
ATOM     10  C   UNL A   1      35.450  32.031  30.222  1.00  0.00     0.010 A 
ATOM     11  C   UNL A   1      36.800  33.789  29.259  1.00  0.00     0.010 A 
ATOM     12  C   UNL A   1      36.688  32.567  29.929  1.00  0.00    -0.014 A 
BRANCH  12  13
ATOM     13  C   UNL A   1      37.799  31.841  30.532  1.00  0.00     0.031 A 
ATOM     14  C   UNL A   1      38.000  32.011  31.998  1.00  0.00     0.074 A 
ATOM     15  C   UNL A   1      38.373  30.857  29.821  1.00  0.00     0.049 A 
ATOM     16  N   UNL A   1      38.922  31.505  32.762  1.00  0.00    -0.248 NA
ATOM     17  C   UNL A   1      37.013  32.850  32.708  1.00  0.00     0.031 C 
ATOM     18  C   UNL A   1      38.007  30.478  28.446  1.00  0.00     0.029 A 
ATOM     19  N   UNL A   1      39.327  29.950  30.170  1.00  0.00    -0.354 N 
ATOM     20  C   UNL A   1      38.669  32.015  34.027  1.00  0.00     0.074 A 
ATOM     21  C   UNL A   1      37.490  32.844  33.942  1.00  0.00     0.031 C 
ATOM     22  C   UNL A   1      38.718  29.400  28.085  1.00  0.00     0.029 A 
ATOM     23  C   UNL A   1      39.654  29.087  29.153  1.00  0.00     0.049 A 
ATOM     24  H   UNL A   1      39.740  29.916  31.062  1.00  0.00     0.167 HD
ATOM     25  C   UNL A   1      39.401  31.820  35.144  1.00  0.00     0.031 A 
ATOM     26  C   UNL A   1      40.654  28.194  29.093  1.00  0.00     0.031 A 
ATOM     27  C   UNL A   1      40.570  30.987  35.151  1.00  0.00     0.049 A 
ATOM     28  C   UNL A   1      41.543  28.102  30.300  1.00  0.00     0.074 A 
ATOM     29  C   UNL A   1      41.484  30.774  36.160  1.00  0.00     0.029 A 
ATOM     30  N   UNL A   1      40.974  30.216  34.063  1.00  0.00    -0.354 N 
ATOM     31  N   UNL A   1      41.413  28.700  31.464  1.00  0.00    -0.248 NA
ATOM     32  C   UNL A   1      42.724  27.245  30.186  1.00  0.00     0.031 C 
ATOM     33  C   UNL A   1      42.472  29.917  35.664  1.00  0.00     0.029 A 
ATOM     34  C   UNL A   1      42.137  29.541  34.369  1.00  0.00     0.049 A 
ATOM     35  H   UNL A   1      40.499  30.163  33.203  1.00  0.00     0.167 HD
ATOM     36  C   UNL A   1      42.490  28.284  32.228  1.00  0.00     0.074 A 
ATOM     37  C   UNL A   1      43.246  27.361  31.398  1.00  0.00     0.031 C 
ATOM     38  C   UNL A   1      42.836  28.631  33.493  1.00  0.00     0.031 A 
BRANCH  25  39
ATOM     39  C   UNL A   1      39.023  32.627  36.349  1.00  0.00    -0.014 A 
ATOM     40  C   UNL A   1      39.564  33.898  36.599  1.00  0.00     0.009 A 
ATOM     41  C   UNL A   1      38.162  32.060  37.302  1.00  0.00     0.009 A 
ATOM     42  C   UNL A   1      39.279  34.565  37.795  1.00  0.00     0.001 A 
ATOM     43  C   UNL A   1      37.858  32.738  38.482  1.00  0.00     0.001 A 
ATOM     44  C   UNL A   1      38.426  33.985  38.733  1.00  0.00     0.000 A 
ENDBRANCH  25  39
BRANCH  26  45
ATOM     45  C   UNL A   1      40.926  27.442  27.839  1.00  0.00    -0.014 A 
ATOM     46  C   UNL A   1      41.741  27.976  26.831  1.00  0.00     0.009 A 
ATOM     47  C   UNL A   1      40.356  26.171  27.638  1.00  0.00     0.009 A 
ATOM     48  C   UNL A   1      41.957  27.268  25.645  1.00  0.00     0.001 A 
ATOM     49  C   UNL A   1      40.600  25.451  26.468  1.00  0.00     0.001 A 
ATOM     50  C   UNL A   1      41.392  26.006  25.465  1.00  0.00     0.000 A 
ENDBRANCH  26  45
BRANCH  38  51
ATOM     51  C   UNL A   1      44.057  27.966  34.050  1.00  0.00    -0.014 A 
ATOM     52  C   UNL A   1      43.977  26.724  34.697  1.00  0.00     0.009 A 
ATOM     53  C   UNL A   1      45.307  28.576  33.875  1.00  0.00     0.009 A 
ATOM     54  C   UNL A   1      45.132  26.119  35.189  1.00  0.00     0.001 A 
ATOM     55  C   UNL A   1      46.463  27.952  34.337  1.00  0.00     0.001 A 
ATOM     56  C   UNL A   1      46.373  26.730  35.001  1.00  0.00     0.000 A 
ENDBRANCH  38  51
ENDBRANCH  12  13
ENDBRANCH   5   7
ENDBRANCH   4   5
ENDBRANCH   3   4
ENDBRANCH   2   3
ENDBRANCH   1   2
BRANCH   1  57
ATOM     57  C   UNL A   1      33.067  30.301  27.076  1.00  0.00     0.202 C 
BRANCH  57  58
ATOM     58  C   UNL A   1      33.590  29.079  26.330  1.00  0.00     0.261 C 
BRANCH  58  59
ATOM     59  O   UNL A   1      33.251  27.906  27.084  1.00  0.00    -0.463 OA
BRANCH  59  60
ATOM     60  C   UNL A   1      32.025  27.374  26.838  1.00  0.00     0.310 C 
ATOM     61  O   UNL A   1      31.028  27.566  27.512  1.00  0.00    -0.252 OA
BRANCH  60  62
ATOM     62  C   UNL A   1      32.022  26.484  25.606  1.00  0.00     0.115 C 
ATOM     63  C   UNL A   1      33.258  25.632  25.316  1.00  0.00     0.043 C 
ATOM     64  C   UNL A   1      30.736  25.669  25.570  1.00  0.00     0.096 C 
ATOM     65  C   UNL A   1      33.350  24.427  26.188  1.00  0.00    -0.030 C 
ATOM     66  C   UNL A   1      30.856  24.382  26.448  1.00  0.00     0.041 C 
ATOM     67  C   UNL A   1      32.253  23.874  26.716  1.00  0.00    -0.030 C 
BRANCH  64  68
ATOM     68  C   UNL A   1      30.309  25.397  24.133  1.00  0.00     0.224 C 
ATOM     69  O   UNL A   1      30.516  24.300  23.606  1.00  0.00    -0.275 OA
ATOM     70  N   UNL A   1      29.614  26.297  23.379  1.00  0.00    -0.353 N 
ATOM     71  H   UNL A   1      29.138  25.847  22.644  1.00  0.00     0.163 HD
BRANCH  70  72
ATOM     72  C   UNL A   1      29.371  27.760  23.353  1.00  0.00     0.082 C 
ATOM     73  C   UNL A   1      30.335  28.618  22.511  1.00  0.00     0.025 C 
ATOM     74  C   UNL A   1      27.865  28.036  23.181  1.00  0.00     0.025 C 
ATOM     75  C   UNL A   1      29.812  29.992  22.066  1.00  0.00     0.002 C 
ATOM     76  C   UNL A   1      27.546  29.511  22.995  1.00  0.00     0.002 C 
ATOM     77  C   UNL A   1      28.312  30.060  21.805  1.00  0.00     0.000 C 
ENDBRANCH  70  72
ENDBRANCH  64  68
ENDBRANCH  60  62
ENDBRANCH  59  60
ENDBRANCH  58  59
ENDBRANCH  57  58
ENDBRANCH   1  57
TORSDOF 16
ENDMDL
MODEL 2
REMARK VINA RESULT:     -10.6      6.453     11.531
REMARK SMILES O=C(OCCOCCOC(=O)[C@H]1CC=CC[C@@H]1C(=O)NC1CCCCC1)c1ccc(-c2c3nc(c(-c4ccccc4)c4ccc([nH]4)c(-c4ccccc4)c4nc(c(-c5ccccc5)c5ccc2[nH]5)C=C4)C=C3)cc1
REMARK SMILES IDX 6 1 5 2 4 3 3 4 2 5 1 6 27 7 28 8 74 9 29 10 73 11 30 12
REMARK SMILES IDX 31 13 32 14 67 15 33 16 72 17 66 18 68 19 34 20 71 21 65 22
REMARK SMILES IDX 64 23 35 25 57 26 42 27 56 28 43 29 46 30 55 31 69 32 44 33
REMARK SMILES IDX 45 34 54 36 70 37 47 38 36 39 37 40 41 41 38 42 40 43 39 44
REMARK SMILES IDX 58 45 59 46 63 47 60 48 62 49 61 50 48 51 49 52 53 53 50 54
REMARK SMILES IDX 52 55 51 56 7 57 8 58 9 59 10 60 11 61 12 62 13 63 17 64
REMARK SMILES IDX 14 65 16 66 15 67 18 68 19 69 20 70 21 72 22 73 26 74 23 75
REMARK SMILES IDX 25 76 24 77
REMARK H PARENT 68 24 46 35 20 71
REMARK Flexibility Score: inf
ROOT
ATOM      1  O   UNL A   1      41.721  20.877  26.661  1.00  0.00    -0.374 OA
ENDROOT
BRANCH   1   2
ATOM      2  C   UNL A   1      41.531  19.540  26.200  1.00  0.00     0.202 C 
BRANCH   2   3
ATOM      3  C   UNL A   1      42.798  18.726  25.937  1.00  0.00     0.261 C 
BRANCH   3   4
ATOM      4  O   UNL A   1      43.316  19.038  24.636  1.00  0.00    -0.460 OA
BRANCH   4   5
ATOM      5  C   UNL A   1      44.487  19.664  24.375  1.00  0.00     0.338 C 
ATOM      6  O   UNL A   1      45.343  19.097  23.702  1.00  0.00    -0.246 OA
BRANCH   5   7
ATOM      7  C   UNL A   1      44.742  21.065  24.812  1.00  0.00     0.060 A 
ATOM      8  C   UNL A   1      45.320  21.412  26.031  1.00  0.00     0.016 A 
ATOM      9  C   UNL A   1      44.428  22.094  23.915  1.00  0.00     0.016 A 
ATOM     10  C   UNL A   1      45.563  22.706  26.388  1.00  0.00     0.010 A 
ATOM     11  C   UNL A   1      44.681  23.424  24.257  1.00  0.00     0.010 A 
ATOM     12  C   UNL A   1      45.253  23.714  25.499  1.00  0.00    -0.014 A 
BRANCH  12  13
ATOM     13  C   UNL A   1      45.409  25.054  26.053  1.00  0.00     0.031 A 
ATOM     14  C   UNL A   1      46.715  25.732  25.826  1.00  0.00     0.074 A 
ATOM     15  C   UNL A   1      44.305  25.703  26.460  1.00  0.00     0.049 A 
ATOM     16  N   UNL A   1      47.114  26.900  26.234  1.00  0.00    -0.248 NA
ATOM     17  C   UNL A   1      47.703  25.003  25.004  1.00  0.00     0.031 C 
ATOM     18  C   UNL A   1      42.940  25.150  26.442  1.00  0.00     0.029 A 
ATOM     19  N   UNL A   1      44.137  26.983  26.894  1.00  0.00    -0.354 N 
ATOM     20  C   UNL A   1      48.418  27.020  25.780  1.00  0.00     0.074 A 
ATOM     21  C   UNL A   1      48.740  25.825  25.036  1.00  0.00     0.031 C 
ATOM     22  C   UNL A   1      42.078  26.101  26.828  1.00  0.00     0.029 A 
ATOM     23  C   UNL A   1      42.836  27.280  27.217  1.00  0.00     0.049 A 
ATOM     24  H   UNL A   1      44.874  27.630  26.967  1.00  0.00     0.167 HD
ATOM     25  C   UNL A   1      49.269  28.041  26.012  1.00  0.00     0.031 A 
ATOM     26  C   UNL A   1      42.346  28.370  27.827  1.00  0.00     0.031 A 
ATOM     27  C   UNL A   1      48.881  29.197  26.769  1.00  0.00     0.049 A 
ATOM     28  C   UNL A   1      43.342  29.430  28.204  1.00  0.00     0.074 A 
ATOM     29  C   UNL A   1      49.648  30.262  27.192  1.00  0.00     0.029 A 
ATOM     30  N   UNL A   1      47.581  29.427  27.215  1.00  0.00    -0.354 N 
ATOM     31  N   UNL A   1      44.624  29.491  27.920  1.00  0.00    -0.248 NA
ATOM     32  C   UNL A   1      42.841  30.550  29.003  1.00  0.00     0.031 C 
ATOM     33  C   UNL A   1      48.822  31.109  27.940  1.00  0.00     0.029 A 
ATOM     34  C   UNL A   1      47.527  30.607  27.926  1.00  0.00     0.049 A 
ATOM     35  H   UNL A   1      46.815  28.832  27.047  1.00  0.00     0.167 HD
ATOM     36  C   UNL A   1      45.086  30.663  28.496  1.00  0.00     0.074 A 
ATOM     37  C   UNL A   1      43.934  31.291  29.122  1.00  0.00     0.031 C 
ATOM     38  C   UNL A   1      46.341  31.176  28.520  1.00  0.00     0.031 A 
BRANCH  25  39
ATOM     39  C   UNL A   1      50.688  27.854  25.565  1.00  0.00    -0.014 A 
ATOM     40  C   UNL A   1      51.670  27.303  26.402  1.00  0.00     0.009 A 
ATOM     41  C   UNL A   1      51.065  28.321  24.295  1.00  0.00     0.009 A 
ATOM     42  C   UNL A   1      53.006  27.258  25.991  1.00  0.00     0.001 A 
ATOM     43  C   UNL A   1      52.394  28.251  23.876  1.00  0.00     0.001 A 
ATOM     44  C   UNL A   1      53.366  27.731  24.729  1.00  0.00     0.000 A 
ENDBRANCH  25  39
BRANCH  26  45
ATOM     45  C   UNL A   1      40.912  28.445  28.213  1.00  0.00    -0.014 A 
ATOM     46  C   UNL A   1      39.974  29.107  27.409  1.00  0.00     0.009 A 
ATOM     47  C   UNL A   1      40.470  27.855  29.412  1.00  0.00     0.009 A 
ATOM     48  C   UNL A   1      38.636  29.197  27.807  1.00  0.00     0.001 A 
ATOM     49  C   UNL A   1      39.128  27.915  29.790  1.00  0.00     0.001 A 
ATOM     50  C   UNL A   1      38.213  28.597  28.993  1.00  0.00     0.000 A 
ENDBRANCH  26  45
BRANCH  38  51
ATOM     51  C   UNL A   1      46.501  32.498  29.206  1.00  0.00    -0.014 A 
ATOM     52  C   UNL A   1      46.310  33.704  28.515  1.00  0.00     0.009 A 
ATOM     53  C   UNL A   1      46.798  32.525  30.576  1.00  0.00     0.009 A 
ATOM     54  C   UNL A   1      46.447  34.919  29.183  1.00  0.00     0.001 A 
ATOM     55  C   UNL A   1      46.900  33.740  31.248  1.00  0.00     0.001 A 
ATOM     56  C   UNL A   1      46.734  34.935  30.549  1.00  0.00     0.000 A 
ENDBRANCH  38  51
ENDBRANCH  12  13
ENDBRANCH   5   7
ENDBRANCH   4   5
ENDBRANCH   3   4
ENDBRANCH   2   3
ENDBRANCH   1   2
BRANCH   1  57
ATOM     57  C   UNL A   1      40.928  21.885  26.038  1.00  0.00     0.202 C 
BRANCH  57  58
ATOM     58  C   UNL A   1      39.499  21.819  26.563  1.00  0.00     0.261 C 
BRANCH  58  59
ATOM     59  O   UNL A   1      38.606  22.170  25.496  1.00  0.00    -0.463 OA
BRANCH  59  60
ATOM     60  C   UNL A   1      37.573  21.314  25.278  1.00  0.00     0.310 C 
ATOM     61  O   UNL A   1      37.644  20.274  24.648  1.00  0.00    -0.252 OA
BRANCH  60  62
ATOM     62  C   UNL A   1      36.280  21.801  25.911  1.00  0.00     0.115 C 
ATOM     63  C   UNL A   1      36.083  23.304  26.109  1.00  0.00     0.043 C 
ATOM     64  C   UNL A   1      35.094  21.149  25.213  1.00  0.00     0.096 C 
ATOM     65  C   UNL A   1      35.734  24.016  24.846  1.00  0.00    -0.030 C 
ATOM     66  C   UNL A   1      34.702  21.927  23.916  1.00  0.00     0.041 C 
ATOM     67  C   UNL A   1      35.121  23.377  23.844  1.00  0.00    -0.030 C 
BRANCH  64  68
ATOM     68  C   UNL A   1      33.937  20.950  26.184  1.00  0.00     0.224 C 
ATOM     69  O   UNL A   1      33.884  21.578  27.247  1.00  0.00    -0.275 OA
ATOM     70  N   UNL A   1      32.868  20.147  25.914  1.00  0.00    -0.353 N 
ATOM     71  H   UNL A   1      32.090  20.399  26.463  1.00  0.00     0.163 HD
BRANCH  70  72
ATOM     72  C   UNL A   1      32.544  19.002  25.030  1.00  0.00     0.082 C 
ATOM     73  C   UNL A   1      32.420  19.291  23.521  1.00  0.00     0.025 C 
ATOM     74  C   UNL A   1      33.384  17.775  25.435  1.00  0.00     0.025 C 
ATOM     75  C   UNL A   1      32.602  18.091  22.580  1.00  0.00     0.002 C 
ATOM     76  C   UNL A   1      33.221  16.600  24.483  1.00  0.00     0.002 C 
ATOM     77  C   UNL A   1      33.575  17.025  23.070  1.00  0.00     0.000 C 
ENDBRANCH  70  72
ENDBRANCH  64  68
ENDBRANCH  60  62
ENDBRANCH  59  60
ENDBRANCH  58  59
ENDBRANCH  57  58
ENDBRANCH   1  57
TORSDOF 16
ENDMDL
MODEL 3
REMARK VINA RESULT:     -10.6      4.084      8.840
REMARK SMILES O=C(OCCOCCOC(=O)[C@H]1CC=CC[C@@H]1C(=O)NC1CCCCC1)c1ccc(-c2c3nc(c(-c4ccccc4)c4ccc([nH]4)c(-c4ccccc4)c4nc(c(-c5ccccc5)c5ccc2[nH]5)C=C4)C=C3)cc1
REMARK SMILES IDX 6 1 5 2 4 3 3 4 2 5 1 6 27 7 28 8 74 9 29 10 73 11 30 12
REMARK SMILES IDX 31 13 32 14 67 15 33 16 72 17 66 18 68 19 34 20 71 21 65 22
REMARK SMILES IDX 64 23 35 25 57 26 42 27 56 28 43 29 46 30 55 31 69 32 44 33
REMARK SMILES IDX 45 34 54 36 70 37 47 38 36 39 37 40 41 41 38 42 40 43 39 44
REMARK SMILES IDX 58 45 59 46 63 47 60 48 62 49 61 50 48 51 49 52 53 53 50 54
REMARK SMILES IDX 52 55 51 56 7 57 8 58 9 59 10 60 11 61 12 62 13 63 17 64
REMARK SMILES IDX 14 65 16 66 15 67 18 68 19 69 20 70 21 72 22 73 26 74 23 75
REMARK SMILES IDX 25 76 24 77
REMARK H PARENT 68 24 46 35 20 71
REMARK Flexibility Score: inf
ROOT
ATOM      1  O   UNL A   1      41.404  21.178  26.856  1.00  0.00    -0.374 OA
ENDROOT
BRANCH   1   2
ATOM      2  C   UNL A   1      42.574  20.671  26.216  1.00  0.00     0.202 C 
BRANCH   2   3
ATOM      3  C   UNL A   1      43.402  21.680  25.420  1.00  0.00     0.261 C 
BRANCH   3   4
ATOM      4  O   UNL A   1      42.651  22.888  25.236  1.00  0.00    -0.460 OA
BRANCH   4   5
ATOM      5  C   UNL A   1      43.116  24.148  25.411  1.00  0.00     0.338 C 
ATOM      6  O   UNL A   1      43.947  24.603  24.630  1.00  0.00    -0.246 OA
BRANCH   5   7
ATOM      7  C   UNL A   1      42.586  25.038  26.480  1.00  0.00     0.060 A 
ATOM      8  C   UNL A   1      43.011  26.347  26.690  1.00  0.00     0.016 A 
ATOM      9  C   UNL A   1      41.558  24.541  27.291  1.00  0.00     0.016 A 
ATOM     10  C   UNL A   1      42.485  27.145  27.664  1.00  0.00     0.010 A 
ATOM     11  C   UNL A   1      40.997  25.346  28.286  1.00  0.00     0.010 A 
ATOM     12  C   UNL A   1      41.471  26.650  28.458  1.00  0.00    -0.014 A 
BRANCH  12  13
ATOM     13  C   UNL A   1      41.104  27.532  29.559  1.00  0.00     0.031 A 
ATOM     14  C   UNL A   1      42.023  27.570  30.731  1.00  0.00     0.074 A 
ATOM     15  C   UNL A   1      40.155  28.458  29.339  1.00  0.00     0.049 A 
ATOM     16  N   UNL A   1      41.911  28.241  31.838  1.00  0.00    -0.248 NA
ATOM     17  C   UNL A   1      43.252  26.756  30.632  1.00  0.00     0.031 C 
ATOM     18  C   UNL A   1      39.408  28.625  28.082  1.00  0.00     0.029 A 
ATOM     19  N   UNL A   1      39.707  29.474  30.127  1.00  0.00    -0.354 N 
ATOM     20  C   UNL A   1      43.015  27.882  32.596  1.00  0.00     0.074 A 
ATOM     21  C   UNL A   1      43.806  26.959  31.817  1.00  0.00     0.031 C 
ATOM     22  C   UNL A   1      38.612  29.699  28.186  1.00  0.00     0.029 A 
ATOM     23  C   UNL A   1      38.716  30.220  29.540  1.00  0.00     0.049 A 
ATOM     24  H   UNL A   1      40.059  29.656  31.028  1.00  0.00     0.167 HD
ATOM     25  C   UNL A   1      43.300  28.276  33.855  1.00  0.00     0.031 A 
ATOM     26  C   UNL A   1      37.943  31.173  30.082  1.00  0.00     0.031 A 
ATOM     27  C   UNL A   1      42.460  29.192  34.573  1.00  0.00     0.049 A 
ATOM     28  C   UNL A   1      38.189  31.490  31.530  1.00  0.00     0.074 A 
ATOM     29  C   UNL A   1      42.541  29.604  35.886  1.00  0.00     0.029 A 
ATOM     30  N   UNL A   1      41.368  29.844  34.006  1.00  0.00    -0.354 N 
ATOM     31  N   UNL A   1      39.138  31.040  32.320  1.00  0.00    -0.248 NA
ATOM     32  C   UNL A   1      37.252  32.415  32.171  1.00  0.00     0.031 C 
ATOM     33  C   UNL A   1      41.464  30.464  36.128  1.00  0.00     0.029 A 
ATOM     34  C   UNL A   1      40.753  30.642  34.948  1.00  0.00     0.049 A 
ATOM     35  H   UNL A   1      41.078  29.748  33.070  1.00  0.00     0.167 HD
ATOM     36  C   UNL A   1      38.922  31.634  33.552  1.00  0.00     0.074 A 
ATOM     37  C   UNL A   1      37.764  32.498  33.390  1.00  0.00     0.031 C 
ATOM     38  C   UNL A   1      39.602  31.482  34.715  1.00  0.00     0.031 A 
BRANCH  25  39
ATOM     39  C   UNL A   1      44.460  27.605  34.527  1.00  0.00    -0.014 A 
ATOM     40  C   UNL A   1      45.759  28.134  34.485  1.00  0.00     0.009 A 
ATOM     41  C   UNL A   1      44.255  26.364  35.152  1.00  0.00     0.009 A 
ATOM     42  C   UNL A   1      46.833  27.416  35.021  1.00  0.00     0.001 A 
ATOM     43  C   UNL A   1      45.324  25.661  35.710  1.00  0.00     0.001 A 
ATOM     44  C   UNL A   1      46.614  26.182  35.633  1.00  0.00     0.000 A 
ENDBRANCH  25  39
BRANCH  26  45
ATOM     45  C   UNL A   1      36.824  31.776  29.309  1.00  0.00    -0.014 A 
ATOM     46  C   UNL A   1      36.947  33.039  28.715  1.00  0.00     0.009 A 
ATOM     47  C   UNL A   1      35.607  31.083  29.169  1.00  0.00     0.009 A 
ATOM     48  C   UNL A   1      35.871  33.604  28.022  1.00  0.00     0.001 A 
ATOM     49  C   UNL A   1      34.547  31.633  28.447  1.00  0.00     0.001 A 
ATOM     50  C   UNL A   1      34.675  32.900  27.884  1.00  0.00     0.000 A 
ENDBRANCH  26  45
BRANCH  38  51
ATOM     51  C   UNL A   1      39.128  32.308  35.871  1.00  0.00    -0.014 A 
ATOM     52  C   UNL A   1      39.600  33.612  36.075  1.00  0.00     0.009 A 
ATOM     53  C   UNL A   1      38.157  31.780  36.734  1.00  0.00     0.009 A 
ATOM     54  C   UNL A   1      39.127  34.364  37.149  1.00  0.00     0.001 A 
ATOM     55  C   UNL A   1      37.661  32.547  37.785  1.00  0.00     0.001 A 
ATOM     56  C   UNL A   1      38.153  33.833  37.997  1.00  0.00     0.000 A 
ENDBRANCH  38  51
ENDBRANCH  12  13
ENDBRANCH   5   7
ENDBRANCH   4   5
ENDBRANCH   3   4
ENDBRANCH   2   3
ENDBRANCH   1   2
BRANCH   1  57
ATOM     57  C   UNL A   1      40.166  20.565  26.501  1.00  0.00     0.202 C 
BRANCH  57  58
ATOM     58  C   UNL A   1      39.230  21.602  25.894  1.00  0.00     0.261 C 
BRANCH  58  59
ATOM     59  O   UNL A   1      38.089  20.922  25.351  1.00  0.00    -0.463 OA
BRANCH  59  60
ATOM     60  C   UNL A   1      37.141  21.711  24.781  1.00  0.00     0.310 C 
ATOM     61  O   UNL A   1      37.223  22.222  23.677  1.00  0.00    -0.252 OA
BRANCH  60  62
ATOM     62  C   UNL A   1      35.935  21.906  25.685  1.00  0.00     0.115 C 
ATOM     63  C   UNL A   1      35.611  23.316  26.178  1.00  0.00     0.043 C 
ATOM     64  C   UNL A   1      34.723  21.214  25.075  1.00  0.00     0.096 C 
ATOM     65  C   UNL A   1      34.967  24.163  25.134  1.00  0.00    -0.030 C 
ATOM     66  C   UNL A   1      34.024  22.126  24.016  1.00  0.00     0.041 C 
ATOM     67  C   UNL A   1      34.260  23.612  24.141  1.00  0.00    -0.030 C 
BRANCH  64  68
ATOM     68  C   UNL A   1      33.787  20.704  26.163  1.00  0.00     0.224 C 
ATOM     69  O   UNL A   1      33.728  21.262  27.263  1.00  0.00    -0.275 OA
ATOM     70  N   UNL A   1      32.914  19.673  25.971  1.00  0.00    -0.353 N 
ATOM     71  H   UNL A   1      32.178  19.708  26.625  1.00  0.00     0.163 HD
BRANCH  70  72
ATOM     72  C   UNL A   1      32.758  18.515  25.058  1.00  0.00     0.082 C 
ATOM     73  C   UNL A   1      32.506  18.822  23.569  1.00  0.00     0.025 C 
ATOM     74  C   UNL A   1      33.827  17.451  25.377  1.00  0.00     0.025 C 
ATOM     75  C   UNL A   1      32.853  17.704  22.575  1.00  0.00     0.002 C 
ATOM     76  C   UNL A   1      33.831  16.296  24.389  1.00  0.00     0.002 C 
ATOM     77  C   UNL A   1      34.028  16.821  22.979  1.00  0.00     0.000 C 
ENDBRANCH  70  72
ENDBRANCH  64  68
ENDBRANCH  60  62
ENDBRANCH  59  60
ENDBRANCH  58  59
ENDBRANCH  57  58
ENDBRANCH   1  57
TORSDOF 16
ENDMDL
