MODEL 1
REMARK VINA RESULT:      -8.6      0.000      0.000
REMARK SMILES Cc1cc(C(=O)N[C@@H](Cc2ccccc2)C(=O)OCCOCCOC(=O)c2ccc(-c3c4nc(c(-c5ccccc5)c5ccc([nH]5)c(-c5ccccc5)c5nc(c(-c6ccccc6)c6ccc3[nH]6)C=C5)C=C4)cc2)c(C)o1
REMARK SMILES IDX 21 1 20 2 19 3 18 4 16 5 17 6 8 7 7 8 5 9 6 10 4 12 1 13
REMARK SMILES IDX 2 14 3 15 77 16 75 17 76 18 9 19 10 20 11 21 15 22 12 23
REMARK SMILES IDX 14 24 13 25 22 26 23 27 24 28 25 29 26 30 27 31 28 32 74 33
REMARK SMILES IDX 29 34 73 35 30 36 31 37 32 38 67 39 33 40 72 41 66 42 68 43
REMARK SMILES IDX 34 44 71 45 65 46 64 47 35 49 57 50 42 51 56 52 43 53 46 54
REMARK SMILES IDX 55 55 69 56 44 57 45 58 54 60 70 61 47 62 36 63 37 64 41 65
REMARK SMILES IDX 38 66 40 67 39 68 58 69 59 70 63 71 60 72 62 73 61 74 48 75
REMARK SMILES IDX 49 76 53 77 50 78 52 79 51 80
REMARK H PARENT 7 11 68 48 46 59
REMARK Flexibility Score: inf
ROOT
ATOM      1  O   UNL A   1      34.181  35.728  32.557  1.00  0.00    -0.374 OA
ENDROOT
BRANCH   1   2
ATOM      2  C   UNL A   1      33.644  34.749  33.448  1.00  0.00     0.202 C 
BRANCH   2   3
ATOM      3  C   UNL A   1      34.460  33.463  33.601  1.00  0.00     0.261 C 
BRANCH   3   4
ATOM      4  O   UNL A   1      35.401  33.583  34.678  1.00  0.00    -0.462 OA
BRANCH   4   5
ATOM      5  C   UNL A   1      36.708  33.734  34.319  1.00  0.00     0.329 C 
ATOM      6  O   UNL A   1      37.200  34.767  33.879  1.00  0.00    -0.250 OA
BRANCH   5   7
ATOM      7  C   UNL A   1      37.487  32.412  34.428  1.00  0.00     0.197 C 
BRANCH   7   8
ATOM      8  N   UNL A   1      37.333  31.753  35.734  1.00  0.00    -0.338 N 
ATOM      9  C   UNL A   1      38.193  31.535  36.776  1.00  0.00     0.255 C 
ATOM     10  O   UNL A   1      37.780  30.828  37.695  1.00  0.00    -0.269 OA
ATOM     11  H   UNL A   1      36.430  31.395  35.890  1.00  0.00     0.164 HD
BRANCH   9  12
ATOM     12  C   UNL A   1      39.521  32.133  36.814  1.00  0.00     0.081 A 
ATOM     13  C   UNL A   1      43.186  32.705  36.438  1.00  0.00     0.087 C 
ATOM     14  C   UNL A   1      41.725  32.612  36.629  1.00  0.00     0.101 A 
ATOM     15  C   UNL A   1      40.798  31.611  36.436  1.00  0.00     0.059 A 
ATOM     16  O   UNL A   1      41.104  33.737  37.059  1.00  0.00    -0.466 OA
ATOM     17  C   UNL A   1      39.774  33.462  37.145  1.00  0.00     0.113 A 
ATOM     18  C   UNL A   1      38.934  34.616  37.539  1.00  0.00     0.088 C 
ENDBRANCH   9  12
ENDBRANCH   7   8
BRANCH   7  19
ATOM     19  C   UNL A   1      37.062  31.483  33.273  1.00  0.00     0.072 C 
BRANCH  19  20
ATOM     20  C   UNL A   1      38.026  30.346  33.003  1.00  0.00    -0.045 A 
ATOM     21  C   UNL A   1      37.554  29.128  32.494  1.00  0.00     0.004 A 
ATOM     22  C   UNL A   1      39.388  30.473  33.305  1.00  0.00     0.004 A 
ATOM     23  C   UNL A   1      38.423  28.053  32.309  1.00  0.00     0.000 A 
ATOM     24  C   UNL A   1      40.253  29.392  33.133  1.00  0.00     0.000 A 
ATOM     25  C   UNL A   1      39.771  28.182  32.637  1.00  0.00     0.000 A 
ENDBRANCH  19  20
ENDBRANCH   7  19
ENDBRANCH   5   7
ENDBRANCH   4   5
ENDBRANCH   3   4
ENDBRANCH   2   3
ENDBRANCH   1   2
BRANCH   1  26
ATOM     26  C   UNL A   1      33.281  36.694  32.012  1.00  0.00     0.202 C 
BRANCH  26  27
ATOM     27  C   UNL A   1      32.660  36.375  30.645  1.00  0.00     0.261 C 
BRANCH  27  28
ATOM     28  O   UNL A   1      33.636  36.019  29.647  1.00  0.00    -0.460 OA
BRANCH  28  29
ATOM     29  C   UNL A   1      33.380  34.857  29.001  1.00  0.00     0.338 C 
ATOM     30  O   UNL A   1      32.382  34.570  28.351  1.00  0.00    -0.246 OA
BRANCH  29  31
ATOM     31  C   UNL A   1      34.554  33.969  29.035  1.00  0.00     0.060 A 
ATOM     32  C   UNL A   1      34.729  33.172  30.173  1.00  0.00     0.016 A 
ATOM     33  C   UNL A   1      35.535  34.012  28.041  1.00  0.00     0.016 A 
ATOM     34  C   UNL A   1      35.908  32.451  30.347  1.00  0.00     0.010 A 
ATOM     35  C   UNL A   1      36.723  33.294  28.222  1.00  0.00     0.010 A 
ATOM     36  C   UNL A   1      36.930  32.541  29.392  1.00  0.00    -0.014 A 
BRANCH  36  37
ATOM     37  C   UNL A   1      38.259  31.955  29.691  1.00  0.00     0.031 A 
ATOM     38  C   UNL A   1      39.249  32.745  30.503  1.00  0.00     0.074 A 
ATOM     39  C   UNL A   1      38.571  30.714  29.275  1.00  0.00     0.049 A 
ATOM     40  N   UNL A   1      40.462  32.422  30.875  1.00  0.00    -0.248 NA
ATOM     41  C   UNL A   1      38.813  34.075  30.957  1.00  0.00     0.031 C 
ATOM     42  C   UNL A   1      37.688  29.829  28.519  1.00  0.00     0.029 A 
ATOM     43  N   UNL A   1      39.726  29.989  29.433  1.00  0.00    -0.354 N 
ATOM     44  C   UNL A   1      40.938  33.510  31.598  1.00  0.00     0.074 A 
ATOM     45  C   UNL A   1      39.891  34.510  31.591  1.00  0.00     0.031 C 
ATOM     46  C   UNL A   1      38.336  28.676  28.275  1.00  0.00     0.029 A 
ATOM     47  C   UNL A   1      39.686  28.757  28.830  1.00  0.00     0.049 A 
ATOM     48  H   UNL A   1      40.507  30.321  29.932  1.00  0.00     0.167 HD
ATOM     49  C   UNL A   1      42.134  33.662  32.215  1.00  0.00     0.031 A 
ATOM     50  C   UNL A   1      40.636  27.808  28.724  1.00  0.00     0.031 A 
ATOM     51  C   UNL A   1      43.181  32.675  32.214  1.00  0.00     0.049 A 
ATOM     52  C   UNL A   1      41.982  28.028  29.357  1.00  0.00     0.074 A 
ATOM     53  C   UNL A   1      44.419  32.732  32.831  1.00  0.00     0.029 A 
ATOM     54  N   UNL A   1      43.116  31.458  31.557  1.00  0.00    -0.354 N 
ATOM     55  N   UNL A   1      42.407  29.048  30.063  1.00  0.00    -0.248 NA
ATOM     56  C   UNL A   1      42.978  26.959  29.185  1.00  0.00     0.031 C 
ATOM     57  C   UNL A   1      45.125  31.569  32.501  1.00  0.00     0.029 A 
ATOM     58  C   UNL A   1      44.304  30.766  31.725  1.00  0.00     0.049 A 
ATOM     59  H   UNL A   1      42.340  31.132  31.046  1.00  0.00     0.167 HD
ATOM     60  C   UNL A   1      43.708  28.735  30.438  1.00  0.00     0.074 A 
ATOM     61  C   UNL A   1      43.999  27.425  29.892  1.00  0.00     0.031 C 
ATOM     62  C   UNL A   1      44.582  29.466  31.172  1.00  0.00     0.031 A 
BRANCH  49  63
ATOM     63  C   UNL A   1      42.386  34.970  32.912  1.00  0.00    -0.014 A 
ATOM     64  C   UNL A   1      43.172  35.973  32.322  1.00  0.00     0.009 A 
ATOM     65  C   UNL A   1      41.808  35.210  34.168  1.00  0.00     0.009 A 
ATOM     66  C   UNL A   1      43.402  37.175  32.994  1.00  0.00     0.001 A 
ATOM     67  C   UNL A   1      42.019  36.422  34.826  1.00  0.00     0.001 A 
ATOM     68  C   UNL A   1      42.824  37.400  34.243  1.00  0.00     0.000 A 
ENDBRANCH  49  63
BRANCH  50  69
ATOM     69  C   UNL A   1      40.351  26.563  27.966  1.00  0.00    -0.014 A 
ATOM     70  C   UNL A   1      40.768  26.423  26.634  1.00  0.00     0.009 A 
ATOM     71  C   UNL A   1      39.658  25.505  28.577  1.00  0.00     0.009 A 
ATOM     72  C   UNL A   1      40.479  25.257  25.922  1.00  0.00     0.001 A 
ATOM     73  C   UNL A   1      39.394  24.330  27.870  1.00  0.00     0.001 A 
ATOM     74  C   UNL A   1      39.798  24.209  26.542  1.00  0.00     0.000 A 
ENDBRANCH  50  69
BRANCH  62  75
ATOM     75  C   UNL A   1      45.926  28.855  31.454  1.00  0.00    -0.014 A 
ATOM     76  C   UNL A   1      46.111  27.963  32.522  1.00  0.00     0.009 A 
ATOM     77  C   UNL A   1      47.011  29.142  30.612  1.00  0.00     0.009 A 
ATOM     78  C   UNL A   1      47.365  27.394  32.756  1.00  0.00     0.001 A 
ATOM     79  C   UNL A   1      48.256  28.553  30.833  1.00  0.00     0.001 A 
ATOM     80  C   UNL A   1      48.435  27.685  31.910  1.00  0.00     0.000 A 
ENDBRANCH  62  75
ENDBRANCH  36  37
ENDBRANCH  29  31
ENDBRANCH  28  29
ENDBRANCH  27  28
ENDBRANCH  26  27
ENDBRANCH   1  26
TORSDOF 18
ENDMDL
MODEL 2
REMARK VINA RESULT:      -8.4      6.063     11.304
REMARK SMILES Cc1cc(C(=O)N[C@@H](Cc2ccccc2)C(=O)OCCOCCOC(=O)c2ccc(-c3c4nc(c(-c5ccccc5)c5ccc([nH]5)c(-c5ccccc5)c5nc(c(-c6ccccc6)c6ccc3[nH]6)C=C5)C=C4)cc2)c(C)o1
REMARK SMILES IDX 21 1 20 2 19 3 18 4 16 5 17 6 8 7 7 8 5 9 6 10 4 12 1 13
REMARK SMILES IDX 2 14 3 15 77 16 75 17 76 18 9 19 10 20 11 21 15 22 12 23
REMARK SMILES IDX 14 24 13 25 22 26 23 27 24 28 25 29 26 30 27 31 28 32 74 33
REMARK SMILES IDX 29 34 73 35 30 36 31 37 32 38 67 39 33 40 72 41 66 42 68 43
REMARK SMILES IDX 34 44 71 45 65 46 64 47 35 49 57 50 42 51 56 52 43 53 46 54
REMARK SMILES IDX 55 55 69 56 44 57 45 58 54 60 70 61 47 62 36 63 37 64 41 65
REMARK SMILES IDX 38 66 40 67 39 68 58 69 59 70 63 71 60 72 62 73 61 74 48 75
REMARK SMILES IDX 49 76 53 77 50 78 52 79 51 80
REMARK H PARENT 7 11 68 48 46 59
REMARK Flexibility Score: inf
ROOT
ATOM      1  O   UNL A   1      35.377  21.414  25.277  1.00  0.00    -0.374 OA
ENDROOT
BRANCH   1   2
ATOM      2  C   UNL A   1      34.831  21.570  26.588  1.00  0.00     0.202 C 
BRANCH   2   3
ATOM      3  C   UNL A   1      33.323  21.822  26.660  1.00  0.00     0.261 C 
BRANCH   3   4
ATOM      4  O   UNL A   1      33.052  23.165  27.089  1.00  0.00    -0.462 OA
BRANCH   4   5
ATOM      5  C   UNL A   1      31.753  23.571  27.006  1.00  0.00     0.329 C 
ATOM      6  O   UNL A   1      30.819  23.065  27.616  1.00  0.00    -0.250 OA
BRANCH   5   7
ATOM      7  C   UNL A   1      31.569  24.686  25.962  1.00  0.00     0.197 C 
BRANCH   7   8
ATOM      8  N   UNL A   1      30.731  24.283  24.822  1.00  0.00    -0.338 N 
ATOM      9  C   UNL A   1      30.740  24.615  23.494  1.00  0.00     0.255 C 
ATOM     10  O   UNL A   1      29.807  24.191  22.812  1.00  0.00    -0.269 OA
ATOM     11  H   UNL A   1      30.021  23.646  25.062  1.00  0.00     0.164 HD
BRANCH   9  12
ATOM     12  C   UNL A   1      31.813  25.406  22.907  1.00  0.00     0.081 A 
ATOM     13  C   UNL A   1      34.037  28.237  21.940  1.00  0.00     0.087 C 
ATOM     14  C   UNL A   1      33.249  27.030  22.261  1.00  0.00     0.101 A 
ATOM     15  C   UNL A   1      32.069  26.812  22.938  1.00  0.00     0.059 A 
ATOM     16  O   UNL A   1      33.768  25.849  21.849  1.00  0.00    -0.466 OA
ATOM     17  C   UNL A   1      32.922  24.865  22.260  1.00  0.00     0.113 A 
ATOM     18  C   UNL A   1      33.380  23.492  21.947  1.00  0.00     0.088 C 
ENDBRANCH   9  12
ENDBRANCH   7   8
BRANCH   7  19
ATOM     19  C   UNL A   1      31.006  25.940  26.661  1.00  0.00     0.072 C 
BRANCH  19  20
ATOM     20  C   UNL A   1      31.972  27.105  26.721  1.00  0.00    -0.045 A 
ATOM     21  C   UNL A   1      31.552  28.343  27.226  1.00  0.00     0.004 A 
ATOM     22  C   UNL A   1      33.278  26.981  26.228  1.00  0.00     0.004 A 
ATOM     23  C   UNL A   1      32.413  29.440  27.220  1.00  0.00     0.000 A 
ATOM     24  C   UNL A   1      34.133  28.083  26.210  1.00  0.00     0.000 A 
ATOM     25  C   UNL A   1      33.701  29.313  26.704  1.00  0.00     0.000 A 
ENDBRANCH  19  20
ENDBRANCH   7  19
ENDBRANCH   5   7
ENDBRANCH   4   5
ENDBRANCH   3   4
ENDBRANCH   2   3
ENDBRANCH   1   2
BRANCH   1  26
ATOM     26  C   UNL A   1      36.044  20.187  24.979  1.00  0.00     0.202 C 
BRANCH  26  27
ATOM     27  C   UNL A   1      37.578  20.223  24.925  1.00  0.00     0.261 C 
BRANCH  27  28
ATOM     28  O   UNL A   1      38.136  21.452  25.430  1.00  0.00    -0.460 OA
BRANCH  28  29
ATOM     29  C   UNL A   1      39.302  21.303  26.101  1.00  0.00     0.338 C 
ATOM     30  O   UNL A   1      40.042  20.326  26.103  1.00  0.00    -0.246 OA
BRANCH  29  31
ATOM     31  C   UNL A   1      39.697  22.564  26.752  1.00  0.00     0.060 A 
ATOM     32  C   UNL A   1      39.030  23.730  26.359  1.00  0.00     0.016 A 
ATOM     33  C   UNL A   1      40.784  22.628  27.626  1.00  0.00     0.016 A 
ATOM     34  C   UNL A   1      39.479  24.974  26.799  1.00  0.00     0.010 A 
ATOM     35  C   UNL A   1      41.239  23.879  28.061  1.00  0.00     0.010 A 
ATOM     36  C   UNL A   1      40.612  25.058  27.619  1.00  0.00    -0.014 A 
BRANCH  36  37
ATOM     37  C   UNL A   1      41.212  26.385  27.898  1.00  0.00     0.031 A 
ATOM     38  C   UNL A   1      42.549  26.731  27.301  1.00  0.00     0.074 A 
ATOM     39  C   UNL A   1      40.557  27.291  28.645  1.00  0.00     0.049 A 
ATOM     40  N   UNL A   1      43.251  27.831  27.418  1.00  0.00    -0.248 NA
ATOM     41  C   UNL A   1      43.178  25.702  26.460  1.00  0.00     0.031 C 
ATOM     42  C   UNL A   1      39.239  27.098  29.246  1.00  0.00     0.029 A 
ATOM     43  N   UNL A   1      40.922  28.559  29.027  1.00  0.00    -0.354 N 
ATOM     44  C   UNL A   1      44.406  27.623  26.674  1.00  0.00     0.074 A 
ATOM     45  C   UNL A   1      44.322  26.283  26.131  1.00  0.00     0.031 C 
ATOM     46  C   UNL A   1      38.905  28.209  29.925  1.00  0.00     0.029 A 
ATOM     47  C   UNL A   1      39.998  29.176  29.831  1.00  0.00     0.049 A 
ATOM     48  H   UNL A   1      41.765  28.984  28.749  1.00  0.00     0.167 HD
ATOM     49  C   UNL A   1      45.441  28.469  26.460  1.00  0.00     0.031 A 
ATOM     50  C   UNL A   1      40.035  30.378  30.438  1.00  0.00     0.031 A 
ATOM     51  C   UNL A   1      45.535  29.795  27.008  1.00  0.00     0.049 A 
ATOM     52  C   UNL A   1      41.228  31.273  30.242  1.00  0.00     0.074 A 
ATOM     53  C   UNL A   1      46.537  30.734  26.828  1.00  0.00     0.029 A 
ATOM     54  N   UNL A   1      44.597  30.367  27.852  1.00  0.00    -0.354 N 
ATOM     55  N   UNL A   1      42.299  31.076  29.513  1.00  0.00    -0.248 NA
ATOM     56  C   UNL A   1      41.212  32.563  30.950  1.00  0.00     0.031 C 
ATOM     57  C   UNL A   1      46.229  31.856  27.607  1.00  0.00     0.029 A 
ATOM     58  C   UNL A   1      45.010  31.635  28.228  1.00  0.00     0.049 A 
ATOM     59  H   UNL A   1      43.761  29.936  28.142  1.00  0.00     0.167 HD
ATOM     60  C   UNL A   1      43.072  32.223  29.653  1.00  0.00     0.074 A 
ATOM     61  C   UNL A   1      42.341  33.117  30.529  1.00  0.00     0.031 C 
ATOM     62  C   UNL A   1      44.276  32.511  29.104  1.00  0.00     0.031 A 
BRANCH  49  63
ATOM     63  C   UNL A   1      46.581  27.962  25.620  1.00  0.00    -0.014 A 
ATOM     64  C   UNL A   1      46.569  28.083  24.222  1.00  0.00     0.009 A 
ATOM     65  C   UNL A   1      47.694  27.377  26.243  1.00  0.00     0.009 A 
ATOM     66  C   UNL A   1      47.634  27.594  23.462  1.00  0.00     0.001 A 
ATOM     67  C   UNL A   1      48.769  26.912  25.483  1.00  0.00     0.001 A 
ATOM     68  C   UNL A   1      48.734  27.012  24.093  1.00  0.00     0.000 A 
ENDBRANCH  49  63
BRANCH  50  69
ATOM     69  C   UNL A   1      38.909  30.799  31.310  1.00  0.00    -0.014 A 
ATOM     70  C   UNL A   1      37.822  31.512  30.783  1.00  0.00     0.009 A 
ATOM     71  C   UNL A   1      38.919  30.489  32.679  1.00  0.00     0.009 A 
ATOM     72  C   UNL A   1      36.777  31.922  31.613  1.00  0.00     0.001 A 
ATOM     73  C   UNL A   1      37.860  30.877  33.501  1.00  0.00     0.001 A 
ATOM     74  C   UNL A   1      36.793  31.599  32.970  1.00  0.00     0.000 A 
ENDBRANCH  50  69
BRANCH  62  75
ATOM     75  C   UNL A   1      44.869  33.858  29.407  1.00  0.00    -0.014 A 
ATOM     76  C   UNL A   1      45.698  34.056  30.522  1.00  0.00     0.009 A 
ATOM     77  C   UNL A   1      44.631  34.935  28.538  1.00  0.00     0.009 A 
ATOM     78  C   UNL A   1      46.252  35.312  30.776  1.00  0.00     0.001 A 
ATOM     79  C   UNL A   1      45.206  36.183  28.780  1.00  0.00     0.001 A 
ATOM     80  C   UNL A   1      46.010  36.373  29.903  1.00  0.00     0.000 A 
ENDBRANCH  62  75
ENDBRANCH  36  37
ENDBRANCH  29  31
ENDBRANCH  28  29
ENDBRANCH  27  28
ENDBRANCH  26  27
ENDBRANCH   1  26
TORSDOF 18
ENDMDL
MODEL 3
REMARK VINA RESULT:      -8.3      5.877     11.403
REMARK SMILES Cc1cc(C(=O)N[C@@H](Cc2ccccc2)C(=O)OCCOCCOC(=O)c2ccc(-c3c4nc(c(-c5ccccc5)c5ccc([nH]5)c(-c5ccccc5)c5nc(c(-c6ccccc6)c6ccc3[nH]6)C=C5)C=C4)cc2)c(C)o1
REMARK SMILES IDX 21 1 20 2 19 3 18 4 16 5 17 6 8 7 7 8 5 9 6 10 4 12 1 13
REMARK SMILES IDX 2 14 3 15 77 16 75 17 76 18 9 19 10 20 11 21 15 22 12 23
REMARK SMILES IDX 14 24 13 25 22 26 23 27 24 28 25 29 26 30 27 31 28 32 74 33
REMARK SMILES IDX 29 34 73 35 30 36 31 37 32 38 67 39 33 40 72 41 66 42 68 43
REMARK SMILES IDX 34 44 71 45 65 46 64 47 35 49 57 50 42 51 56 52 43 53 46 54
REMARK SMILES IDX 55 55 69 56 44 57 45 58 54 60 70 61 47 62 36 63 37 64 41 65
REMARK SMILES IDX 38 66 40 67 39 68 58 69 59 70 63 71 60 72 62 73 61 74 48 75
REMARK SMILES IDX 49 76 53 77 50 78 52 79 51 80
REMARK H PARENT 7 11 68 48 46 59
REMARK Flexibility Score: inf
ROOT
ATOM      1  O   UNL A   1      37.125  21.073  25.274  1.00  0.00    -0.374 OA
ENDROOT
BRANCH   1   2
ATOM      2  C   UNL A   1      37.614  22.396  25.055  1.00  0.00     0.202 C 
BRANCH   2   3
ATOM      3  C   UNL A   1      36.621  23.530  25.321  1.00  0.00     0.261 C 
BRANCH   3   4
ATOM      4  O   UNL A   1      35.276  23.097  25.069  1.00  0.00    -0.462 OA
BRANCH   4   5
ATOM      5  C   UNL A   1      34.342  23.473  25.988  1.00  0.00     0.329 C 
ATOM      6  O   UNL A   1      34.252  23.020  27.123  1.00  0.00    -0.250 OA
BRANCH   5   7
ATOM      7  C   UNL A   1      33.328  24.469  25.399  1.00  0.00     0.197 C 
BRANCH   7   8
ATOM      8  N   UNL A   1      32.335  23.835  24.517  1.00  0.00    -0.338 N 
ATOM      9  C   UNL A   1      31.350  24.335  23.710  1.00  0.00     0.255 C 
ATOM     10  O   UNL A   1      30.594  23.516  23.188  1.00  0.00    -0.269 OA
ATOM     11  H   UNL A   1      32.390  22.852  24.507  1.00  0.00     0.164 HD
BRANCH   9  12
ATOM     12  C   UNL A   1      31.218  25.763  23.453  1.00  0.00     0.081 A 
ATOM     13  C   UNL A   1      30.103  29.318  23.572  1.00  0.00     0.087 C 
ATOM     14  C   UNL A   1      30.647  27.952  23.439  1.00  0.00     0.101 A 
ATOM     15  C   UNL A   1      30.305  26.731  23.977  1.00  0.00     0.059 A 
ATOM     16  O   UNL A   1      31.741  27.817  22.650  1.00  0.00    -0.466 OA
ATOM     17  C   UNL A   1      32.105  26.506  22.679  1.00  0.00     0.113 A 
ATOM     18  C   UNL A   1      33.336  26.195  21.916  1.00  0.00     0.088 C 
ENDBRANCH   9  12
ENDBRANCH   7   8
BRANCH   7  19
ATOM     19  C   UNL A   1      32.651  25.237  26.551  1.00  0.00     0.072 C 
BRANCH  19  20
ATOM     20  C   UNL A   1      32.816  26.741  26.477  1.00  0.00    -0.045 A 
ATOM     21  C   UNL A   1      31.901  27.583  27.125  1.00  0.00     0.004 A 
ATOM     22  C   UNL A   1      33.847  27.314  25.721  1.00  0.00     0.004 A 
ATOM     23  C   UNL A   1      32.004  28.968  27.003  1.00  0.00     0.000 A 
ATOM     24  C   UNL A   1      33.940  28.700  25.589  1.00  0.00     0.000 A 
ATOM     25  C   UNL A   1      33.018  29.527  26.228  1.00  0.00     0.000 A 
ENDBRANCH  19  20
ENDBRANCH   7  19
ENDBRANCH   5   7
ENDBRANCH   4   5
ENDBRANCH   3   4
ENDBRANCH   2   3
ENDBRANCH   1   2
BRANCH   1  26
ATOM     26  C   UNL A   1      37.916  19.985  24.791  1.00  0.00     0.202 C 
BRANCH  26  27
ATOM     27  C   UNL A   1      38.958  19.400  25.754  1.00  0.00     0.261 C 
BRANCH  27  28
ATOM     28  O   UNL A   1      40.281  19.333  25.189  1.00  0.00    -0.460 OA
BRANCH  28  29
ATOM     29  C   UNL A   1      41.283  19.464  26.089  1.00  0.00     0.338 C 
ATOM     30  O   UNL A   1      42.146  18.641  26.370  1.00  0.00    -0.246 OA
BRANCH  29  31
ATOM     31  C   UNL A   1      41.328  20.834  26.628  1.00  0.00     0.060 A 
ATOM     32  C   UNL A   1      41.631  21.870  25.736  1.00  0.00     0.016 A 
ATOM     33  C   UNL A   1      41.212  21.088  27.997  1.00  0.00     0.016 A 
ATOM     34  C   UNL A   1      41.869  23.157  26.213  1.00  0.00     0.010 A 
ATOM     35  C   UNL A   1      41.460  22.380  28.476  1.00  0.00     0.010 A 
ATOM     36  C   UNL A   1      41.826  23.410  27.591  1.00  0.00    -0.014 A 
BRANCH  36  37
ATOM     37  C   UNL A   1      42.297  24.719  28.105  1.00  0.00     0.031 A 
ATOM     38  C   UNL A   1      41.307  25.834  28.307  1.00  0.00     0.074 A 
ATOM     39  C   UNL A   1      43.590  24.905  28.427  1.00  0.00     0.049 A 
ATOM     40  N   UNL A   1      41.506  27.052  28.743  1.00  0.00    -0.248 NA
ATOM     41  C   UNL A   1      39.906  25.535  27.972  1.00  0.00     0.031 C 
ATOM     42  C   UNL A   1      44.641  23.895  28.321  1.00  0.00     0.029 A 
ATOM     43  N   UNL A   1      44.234  26.017  28.909  1.00  0.00    -0.354 N 
ATOM     44  C   UNL A   1      40.260  27.667  28.728  1.00  0.00     0.074 A 
ATOM     45  C   UNL A   1      39.316  26.696  28.216  1.00  0.00     0.031 C 
ATOM     46  C   UNL A   1      45.804  24.436  28.723  1.00  0.00     0.029 A 
ATOM     47  C   UNL A   1      45.583  25.835  29.085  1.00  0.00     0.049 A 
ATOM     48  H   UNL A   1      43.773  26.863  29.109  1.00  0.00     0.167 HD
ATOM     49  C   UNL A   1      39.929  28.924  29.108  1.00  0.00     0.031 A 
ATOM     50  C   UNL A   1      46.535  26.704  29.478  1.00  0.00     0.031 A 
ATOM     51  C   UNL A   1      40.865  29.897  29.606  1.00  0.00     0.049 A 
ATOM     52  C   UNL A   1      46.155  28.117  29.828  1.00  0.00     0.074 A 
ATOM     53  C   UNL A   1      40.619  31.189  30.036  1.00  0.00     0.029 A 
ATOM     54  N   UNL A   1      42.229  29.687  29.729  1.00  0.00    -0.354 N 
ATOM     55  N   UNL A   1      44.969  28.676  29.838  1.00  0.00    -0.248 NA
ATOM     56  C   UNL A   1      47.247  29.017  30.230  1.00  0.00     0.031 C 
ATOM     57  C   UNL A   1      41.843  31.779  30.370  1.00  0.00     0.029 A 
ATOM     58  C   UNL A   1      42.844  30.835  30.200  1.00  0.00     0.049 A 
ATOM     59  H   UNL A   1      42.693  28.845  29.515  1.00  0.00     0.167 HD
ATOM     60  C   UNL A   1      45.168  29.982  30.268  1.00  0.00     0.074 A 
ATOM     61  C   UNL A   1      46.587  30.129  30.520  1.00  0.00     0.031 C 
ATOM     62  C   UNL A   1      44.256  30.970  30.441  1.00  0.00     0.031 A 
BRANCH  49  63
ATOM     63  C   UNL A   1      38.489  29.331  28.960  1.00  0.00    -0.014 A 
ATOM     64  C   UNL A   1      37.979  29.779  27.731  1.00  0.00     0.009 A 
ATOM     65  C   UNL A   1      37.626  29.240  30.062  1.00  0.00     0.009 A 
ATOM     66  C   UNL A   1      36.641  30.162  27.621  1.00  0.00     0.001 A 
ATOM     67  C   UNL A   1      36.283  29.600  29.942  1.00  0.00     0.001 A 
ATOM     68  C   UNL A   1      35.793  30.070  28.725  1.00  0.00     0.000 A 
ENDBRANCH  49  63
BRANCH  50  69
ATOM     69  C   UNL A   1      47.952  26.264  29.542  1.00  0.00    -0.014 A 
ATOM     70  C   UNL A   1      48.488  25.742  30.729  1.00  0.00     0.009 A 
ATOM     71  C   UNL A   1      48.777  26.368  28.411  1.00  0.00     0.009 A 
ATOM     72  C   UNL A   1      49.826  25.351  30.787  1.00  0.00     0.001 A 
ATOM     73  C   UNL A   1      50.108  25.951  28.465  1.00  0.00     0.001 A 
ATOM     74  C   UNL A   1      50.634  25.449  29.653  1.00  0.00     0.000 A 
ENDBRANCH  50  69
BRANCH  62  75
ATOM     75  C   UNL A   1      44.758  32.290  30.956  1.00  0.00    -0.014 A 
ATOM     76  C   UNL A   1      44.857  32.546  32.332  1.00  0.00     0.009 A 
ATOM     77  C   UNL A   1      45.182  33.274  30.049  1.00  0.00     0.009 A 
ATOM     78  C   UNL A   1      45.342  33.774  32.788  1.00  0.00     0.001 A 
ATOM     79  C   UNL A   1      45.690  34.490  30.508  1.00  0.00     0.001 A 
ATOM     80  C   UNL A   1      45.762  34.742  31.877  1.00  0.00     0.000 A 
ENDBRANCH  62  75
ENDBRANCH  36  37
ENDBRANCH  29  31
ENDBRANCH  28  29
ENDBRANCH  27  28
ENDBRANCH  26  27
ENDBRANCH   1  26
TORSDOF 18
ENDMDL
