MODEL 1
REMARK VINA RESULT:     -10.3      0.000      0.000
REMARK SMILES CCCc1cc(OC(F)(F)F)cc2c1O[C@@H](C(F)(F)F)C(C(=O)OCCOCCOC(=O)c1ccc(-c3c4nc(c(-c5ccccc5)c5ccc([nH]5)c(-c5ccccc5)c5nc(c(-c6ccccc6)c6ccc3[nH]6)C=C5)C=C4)cc1)=C2
REMARK SMILES IDX 27 1 26 2 25 3 24 4 22 5 23 6 21 7 4 8 5 9 14 10 6 11 13 12
REMARK SMILES IDX 15 13 12 14 81 15 16 16 3 17 2 18 1 19 7 20 8 21 9 22 10 23
REMARK SMILES IDX 11 24 17 25 18 26 19 27 20 28 28 29 29 30 30 31 31 32 32 33
REMARK SMILES IDX 33 34 34 35 80 36 35 37 79 38 36 39 37 40 38 41 73 42 39 43
REMARK SMILES IDX 78 44 72 45 74 46 40 47 77 48 71 49 70 50 41 52 63 53 48 54
REMARK SMILES IDX 62 55 49 56 52 57 61 58 75 59 50 60 51 61 60 63 76 64 53 65
REMARK SMILES IDX 42 66 43 67 47 68 44 69 46 70 45 71 64 72 65 73 69 74 66 75
REMARK SMILES IDX 68 76 67 77 54 78 55 79 59 80 56 81 58 82 57 83
REMARK H PARENT 74 51 52 62
REMARK Flexibility Score: inf
ROOT
ATOM      1  O   UNL A   1      33.809  35.384  31.734  1.00  0.00    -0.374 OA
ENDROOT
BRANCH   1   2
ATOM      2  C   UNL A   1      33.884  34.819  30.428  1.00  0.00     0.202 C 
BRANCH   2   3
ATOM      3  C   UNL A   1      34.967  33.767  30.182  1.00  0.00     0.261 C 
BRANCH   3   4
ATOM      4  O   UNL A   1      34.420  32.589  29.569  1.00  0.00    -0.460 OA
BRANCH   4   5
ATOM      5  C   UNL A   1      34.598  32.521  28.230  1.00  0.00     0.338 C 
ATOM      6  O   UNL A   1      35.256  33.281  27.539  1.00  0.00    -0.246 OA
BRANCH   5   7
ATOM      7  C   UNL A   1      33.975  31.305  27.690  1.00  0.00     0.087 C 
ATOM      8  C   UNL A   1      33.186  28.131  25.141  1.00  0.00    -0.002 A 
ATOM      9  C   UNL A   1      32.025  28.145  24.350  1.00  0.00     0.054 A 
ATOM     10  C   UNL A   1      33.368  29.144  26.089  1.00  0.00     0.131 A 
ATOM     11  C   UNL A   1      31.078  29.164  24.492  1.00  0.00     0.130 A 
ATOM     12  C   UNL A   1      32.473  30.215  26.182  1.00  0.00     0.021 A 
ATOM     13  O   UNL A   1      34.509  29.072  26.837  1.00  0.00    -0.475 OA
ATOM     14  C   UNL A   1      31.315  30.202  25.403  1.00  0.00     0.058 A 
ATOM     15  C   UNL A   1      32.876  31.408  26.928  1.00  0.00     0.027 C 
ATOM     16  C   UNL A   1      34.633  29.974  27.955  1.00  0.00     0.316 C 
BRANCH   8  17
ATOM     17  C   UNL A   1      34.254  27.082  24.911  1.00  0.00     0.039 C 
BRANCH  17  18
ATOM     18  C   UNL A   1      34.017  25.771  25.678  1.00  0.00     0.001 C 
ATOM     19  C   UNL A   1      34.419  24.502  24.935  1.00  0.00     0.004 C 
ENDBRANCH  17  18
ENDBRANCH   8  17
BRANCH  11  20
ATOM     20  O   UNL A   1      29.914  29.291  23.786  1.00  0.00    -0.406 OA
BRANCH  20  21
ATOM     21  C   UNL A   1      29.345  28.117  23.230  1.00  0.00     0.573 C 
ATOM     22  F   UNL A   1      29.969  27.768  22.086  1.00  0.00    -0.132 F 
ATOM     23  F   UNL A   1      29.395  27.090  24.105  1.00  0.00    -0.132 F 
ATOM     24  F   UNL A   1      28.046  28.360  22.943  1.00  0.00    -0.132 F 
ENDBRANCH  20  21
ENDBRANCH  11  20
BRANCH  16  25
ATOM     25  C   UNL A   1      36.107  29.959  28.397  1.00  0.00     0.430 C 
ATOM     26  F   UNL A   1      36.717  28.806  28.039  1.00  0.00    -0.167 F 
ATOM     27  F   UNL A   1      36.791  30.953  27.766  1.00  0.00    -0.167 F 
ATOM     28  F   UNL A   1      36.267  30.151  29.720  1.00  0.00    -0.167 F 
ENDBRANCH  16  25
ENDBRANCH   5   7
ENDBRANCH   4   5
ENDBRANCH   3   4
ENDBRANCH   2   3
ENDBRANCH   1   2
BRANCH   1  29
ATOM     29  C   UNL A   1      34.020  34.530  32.857  1.00  0.00     0.202 C 
BRANCH  29  30
ATOM     30  C   UNL A   1      35.273  34.762  33.710  1.00  0.00     0.261 C 
BRANCH  30  31
ATOM     31  O   UNL A   1      36.461  34.220  33.110  1.00  0.00    -0.460 OA
BRANCH  31  32
ATOM     32  C   UNL A   1      36.921  33.089  33.698  1.00  0.00     0.338 C 
ATOM     33  O   UNL A   1      36.649  32.667  34.811  1.00  0.00    -0.246 OA
BRANCH  32  34
ATOM     34  C   UNL A   1      37.692  32.295  32.727  1.00  0.00     0.060 A 
ATOM     35  C   UNL A   1      38.457  31.229  33.222  1.00  0.00     0.016 A 
ATOM     36  C   UNL A   1      37.744  32.643  31.378  1.00  0.00     0.016 A 
ATOM     37  C   UNL A   1      39.317  30.537  32.375  1.00  0.00     0.010 A 
ATOM     38  C   UNL A   1      38.619  31.957  30.532  1.00  0.00     0.010 A 
ATOM     39  C   UNL A   1      39.436  30.928  31.035  1.00  0.00    -0.014 A 
BRANCH  39  40
ATOM     40  C   UNL A   1      40.533  30.376  30.208  1.00  0.00     0.031 A 
ATOM     41  C   UNL A   1      41.766  31.211  29.993  1.00  0.00     0.074 A 
ATOM     42  C   UNL A   1      40.446  29.145  29.676  1.00  0.00     0.049 A 
ATOM     43  N   UNL A   1      42.823  30.956  29.266  1.00  0.00    -0.248 NA
ATOM     44  C   UNL A   1      41.811  32.507  30.691  1.00  0.00     0.031 C 
ATOM     45  C   UNL A   1      39.330  28.219  29.861  1.00  0.00     0.029 A 
ATOM     46  N   UNL A   1      41.320  28.466  28.866  1.00  0.00    -0.354 N 
ATOM     47  C   UNL A   1      43.652  32.061  29.411  1.00  0.00     0.074 A 
ATOM     48  C   UNL A   1      42.967  33.000  30.273  1.00  0.00     0.031 C 
ATOM     49  C   UNL A   1      39.582  27.092  29.172  1.00  0.00     0.029 A 
ATOM     50  C   UNL A   1      40.858  27.233  28.473  1.00  0.00     0.049 A 
ATOM     51  H   UNL A   1      42.194  28.826  28.592  1.00  0.00     0.167 HD
ATOM     52  C   UNL A   1      44.878  32.274  28.877  1.00  0.00     0.031 A 
ATOM     53  C   UNL A   1      41.396  26.335  27.628  1.00  0.00     0.031 A 
ATOM     54  C   UNL A   1      45.554  31.347  28.010  1.00  0.00     0.049 A 
ATOM     55  C   UNL A   1      42.722  26.632  26.980  1.00  0.00     0.074 A 
ATOM     56  C   UNL A   1      46.800  31.470  27.420  1.00  0.00     0.029 A 
ATOM     57  N   UNL A   1      45.037  30.126  27.607  1.00  0.00    -0.354 N 
ATOM     58  N   UNL A   1      43.503  27.675  27.132  1.00  0.00    -0.248 NA
ATOM     59  C   UNL A   1      43.244  25.623  26.046  1.00  0.00     0.031 C 
ATOM     60  C   UNL A   1      47.014  30.344  26.619  1.00  0.00     0.029 A 
ATOM     61  C   UNL A   1      45.928  29.496  26.758  1.00  0.00     0.049 A 
ATOM     62  H   UNL A   1      44.165  29.763  27.884  1.00  0.00     0.167 HD
ATOM     63  C   UNL A   1      44.620  27.431  26.343  1.00  0.00     0.074 A 
ATOM     64  C   UNL A   1      44.420  26.139  25.720  1.00  0.00     0.031 C 
ATOM     65  C   UNL A   1      45.718  28.205  26.154  1.00  0.00     0.031 A 
BRANCH  52  66
ATOM     66  C   UNL A   1      45.550  33.582  29.189  1.00  0.00    -0.014 A 
ATOM     67  C   UNL A   1      45.299  34.732  28.426  1.00  0.00     0.009 A 
ATOM     68  C   UNL A   1      46.423  33.670  30.285  1.00  0.00     0.009 A 
ATOM     69  C   UNL A   1      45.933  35.937  28.735  1.00  0.00     0.001 A 
ATOM     70  C   UNL A   1      47.035  34.882  30.609  1.00  0.00     0.001 A 
ATOM     71  C   UNL A   1      46.796  36.013  29.828  1.00  0.00     0.000 A 
ENDBRANCH  52  66
BRANCH  53  72
ATOM     72  C   UNL A   1      40.674  25.073  27.321  1.00  0.00    -0.014 A 
ATOM     73  C   UNL A   1      39.533  25.080  26.504  1.00  0.00     0.009 A 
ATOM     74  C   UNL A   1      41.108  23.854  27.867  1.00  0.00     0.009 A 
ATOM     75  C   UNL A   1      38.827  23.899  26.264  1.00  0.00     0.001 A 
ATOM     76  C   UNL A   1      40.418  22.671  27.601  1.00  0.00     0.001 A 
ATOM     77  C   UNL A   1      39.272  22.695  26.808  1.00  0.00     0.000 A 
ENDBRANCH  53  72
BRANCH  65  78
ATOM     78  C   UNL A   1      46.810  27.656  25.282  1.00  0.00    -0.014 A 
ATOM     79  C   UNL A   1      47.768  26.762  25.782  1.00  0.00     0.009 A 
ATOM     80  C   UNL A   1      46.845  28.001  23.920  1.00  0.00     0.009 A 
ATOM     81  C   UNL A   1      48.758  26.247  24.942  1.00  0.00     0.001 A 
ATOM     82  C   UNL A   1      47.818  27.463  23.077  1.00  0.00     0.001 A 
ATOM     83  C   UNL A   1      48.779  26.594  23.591  1.00  0.00     0.000 A 
ENDBRANCH  65  78
ENDBRANCH  39  40
ENDBRANCH  32  34
ENDBRANCH  31  32
ENDBRANCH  30  31
ENDBRANCH  29  30
ENDBRANCH   1  29
TORSDOF 19
ENDMDL
MODEL 2
REMARK VINA RESULT:     -10.3      2.683      7.552
REMARK SMILES CCCc1cc(OC(F)(F)F)cc2c1O[C@@H](C(F)(F)F)C(C(=O)OCCOCCOC(=O)c1ccc(-c3c4nc(c(-c5ccccc5)c5ccc([nH]5)c(-c5ccccc5)c5nc(c(-c6ccccc6)c6ccc3[nH]6)C=C5)C=C4)cc1)=C2
REMARK SMILES IDX 27 1 26 2 25 3 24 4 22 5 23 6 21 7 4 8 5 9 14 10 6 11 13 12
REMARK SMILES IDX 15 13 12 14 81 15 16 16 3 17 2 18 1 19 7 20 8 21 9 22 10 23
REMARK SMILES IDX 11 24 17 25 18 26 19 27 20 28 28 29 29 30 30 31 31 32 32 33
REMARK SMILES IDX 33 34 34 35 80 36 35 37 79 38 36 39 37 40 38 41 73 42 39 43
REMARK SMILES IDX 78 44 72 45 74 46 40 47 77 48 71 49 70 50 41 52 63 53 48 54
REMARK SMILES IDX 62 55 49 56 52 57 61 58 75 59 50 60 51 61 60 63 76 64 53 65
REMARK SMILES IDX 42 66 43 67 47 68 44 69 46 70 45 71 64 72 65 73 69 74 66 75
REMARK SMILES IDX 68 76 67 77 54 78 55 79 59 80 56 81 58 82 57 83
REMARK H PARENT 74 51 52 62
REMARK Flexibility Score: inf
ROOT
ATOM      1  O   UNL A   1      34.619  30.416  27.499  1.00  0.00    -0.374 OA
ENDROOT
BRANCH   1   2
ATOM      2  C   UNL A   1      33.861  29.527  26.682  1.00  0.00     0.202 C 
BRANCH   2   3
ATOM      3  C   UNL A   1      32.340  29.683  26.702  1.00  0.00     0.261 C 
BRANCH   3   4
ATOM      4  O   UNL A   1      31.700  28.653  25.932  1.00  0.00    -0.460 OA
BRANCH   4   5
ATOM      5  C   UNL A   1      31.822  27.410  26.449  1.00  0.00     0.338 C 
ATOM      6  O   UNL A   1      31.378  27.013  27.514  1.00  0.00    -0.246 OA
BRANCH   5   7
ATOM      7  C   UNL A   1      32.477  26.514  25.487  1.00  0.00     0.087 C 
ATOM      8  C   UNL A   1      33.655  23.021  23.586  1.00  0.00    -0.002 A 
ATOM      9  C   UNL A   1      34.970  22.553  23.741  1.00  0.00     0.054 A 
ATOM     10  C   UNL A   1      33.314  24.267  24.125  1.00  0.00     0.131 A 
ATOM     11  C   UNL A   1      35.918  23.309  24.439  1.00  0.00     0.130 A 
ATOM     12  C   UNL A   1      34.226  24.992  24.899  1.00  0.00     0.021 A 
ATOM     13  O   UNL A   1      32.024  24.675  23.934  1.00  0.00    -0.475 OA
ATOM     14  C   UNL A   1      35.535  24.523  25.025  1.00  0.00     0.058 A 
ATOM     15  C   UNL A   1      33.732  26.100  25.718  1.00  0.00     0.027 C 
ATOM     16  C   UNL A   1      31.693  26.031  24.293  1.00  0.00     0.316 C 
BRANCH   8  17
ATOM     17  C   UNL A   1      32.608  22.153  22.919  1.00  0.00     0.039 C 
BRANCH  17  18
ATOM     18  C   UNL A   1      32.362  20.813  23.632  1.00  0.00     0.001 C 
ATOM     19  C   UNL A   1      32.148  20.909  25.139  1.00  0.00     0.004 C 
ENDBRANCH  17  18
ENDBRANCH   8  17
BRANCH  11  20
ATOM     20  O   UNL A   1      37.223  22.967  24.658  1.00  0.00    -0.406 OA
BRANCH  20  21
ATOM     21  C   UNL A   1      37.484  21.842  25.482  1.00  0.00     0.573 C 
ATOM     22  F   UNL A   1      38.490  22.094  26.345  1.00  0.00    -0.132 F 
ATOM     23  F   UNL A   1      36.380  21.474  26.168  1.00  0.00    -0.132 F 
ATOM     24  F   UNL A   1      37.855  20.807  24.695  1.00  0.00    -0.132 F 
ENDBRANCH  20  21
ENDBRANCH  11  20
BRANCH  16  25
ATOM     25  C   UNL A   1      30.157  26.134  24.334  1.00  0.00     0.430 C 
ATOM     26  F   UNL A   1      29.742  27.395  24.076  1.00  0.00    -0.167 F 
ATOM     27  F   UNL A   1      29.613  25.356  23.360  1.00  0.00    -0.167 F 
ATOM     28  F   UNL A   1      29.629  25.726  25.504  1.00  0.00    -0.167 F 
ENDBRANCH  16  25
ENDBRANCH   5   7
ENDBRANCH   4   5
ENDBRANCH   3   4
ENDBRANCH   2   3
ENDBRANCH   1   2
BRANCH   1  29
ATOM     29  C   UNL A   1      33.980  31.587  28.002  1.00  0.00     0.202 C 
BRANCH  29  30
ATOM     30  C   UNL A   1      34.581  32.256  29.244  1.00  0.00     0.261 C 
BRANCH  30  31
ATOM     31  O   UNL A   1      36.005  32.084  29.333  1.00  0.00    -0.460 OA
BRANCH  31  32
ATOM     32  C   UNL A   1      36.411  31.269  30.336  1.00  0.00     0.338 C 
ATOM     33  O   UNL A   1      35.846  31.060  31.399  1.00  0.00    -0.246 OA
BRANCH  32  34
ATOM     34  C   UNL A   1      37.584  30.489  29.909  1.00  0.00     0.060 A 
ATOM     35  C   UNL A   1      38.467  30.045  30.903  1.00  0.00     0.016 A 
ATOM     36  C   UNL A   1      37.867  30.279  28.559  1.00  0.00     0.016 A 
ATOM     37  C   UNL A   1      39.664  29.432  30.548  1.00  0.00     0.010 A 
ATOM     38  C   UNL A   1      39.076  29.676  28.204  1.00  0.00     0.010 A 
ATOM     39  C   UNL A   1      39.995  29.285  29.196  1.00  0.00    -0.014 A 
BRANCH  39  40
ATOM     40  C   UNL A   1      41.369  28.883  28.819  1.00  0.00     0.031 A 
ATOM     41  C   UNL A   1      41.619  27.456  28.413  1.00  0.00     0.074 A 
ATOM     42  C   UNL A   1      42.375  29.775  28.815  1.00  0.00     0.049 A 
ATOM     43  N   UNL A   1      42.744  26.868  28.097  1.00  0.00    -0.248 NA
ATOM     44  C   UNL A   1      40.441  26.574  28.357  1.00  0.00     0.031 C 
ATOM     45  C   UNL A   1      42.247  31.196  29.133  1.00  0.00     0.029 A 
ATOM     46  N   UNL A   1      43.707  29.607  28.534  1.00  0.00    -0.354 N 
ATOM     47  C   UNL A   1      42.412  25.550  27.815  1.00  0.00     0.074 A 
ATOM     48  C   UNL A   1      40.986  25.415  28.021  1.00  0.00     0.031 C 
ATOM     49  C   UNL A   1      43.459  31.772  29.039  1.00  0.00     0.029 A 
ATOM     50  C   UNL A   1      44.448  30.754  28.690  1.00  0.00     0.049 A 
ATOM     51  H   UNL A   1      44.095  28.749  28.249  1.00  0.00     0.167 HD
ATOM     52  C   UNL A   1      43.221  24.541  27.415  1.00  0.00     0.031 A 
ATOM     53  C   UNL A   1      45.775  30.949  28.585  1.00  0.00     0.031 A 
ATOM     54  C   UNL A   1      44.640  24.671  27.221  1.00  0.00     0.049 A 
ATOM     55  C   UNL A   1      46.666  29.790  28.222  1.00  0.00     0.074 A 
ATOM     56  C   UNL A   1      45.547  23.708  26.814  1.00  0.00     0.029 A 
ATOM     57  N   UNL A   1      45.358  25.839  27.425  1.00  0.00    -0.354 N 
ATOM     58  N   UNL A   1      46.340  28.550  27.947  1.00  0.00    -0.248 NA
ATOM     59  C   UNL A   1      48.110  30.062  28.149  1.00  0.00     0.031 C 
ATOM     60  C   UNL A   1      46.822  24.281  26.822  1.00  0.00     0.029 A 
ATOM     61  C   UNL A   1      46.700  25.615  27.175  1.00  0.00     0.049 A 
ATOM     62  H   UNL A   1      44.970  26.698  27.706  1.00  0.00     0.167 HD
ATOM     63  C   UNL A   1      47.531  27.905  27.635  1.00  0.00     0.074 A 
ATOM     64  C   UNL A   1      48.585  28.893  27.746  1.00  0.00     0.031 C 
ATOM     65  C   UNL A   1      47.734  26.612  27.282  1.00  0.00     0.031 A 
BRANCH  52  66
ATOM     66  C   UNL A   1      42.590  23.194  27.196  1.00  0.00    -0.014 A 
ATOM     67  C   UNL A   1      42.250  22.748  25.909  1.00  0.00     0.009 A 
ATOM     68  C   UNL A   1      42.364  22.346  28.291  1.00  0.00     0.009 A 
ATOM     69  C   UNL A   1      41.667  21.493  25.728  1.00  0.00     0.001 A 
ATOM     70  C   UNL A   1      41.805  21.080  28.104  1.00  0.00     0.001 A 
ATOM     71  C   UNL A   1      41.450  20.658  26.824  1.00  0.00     0.000 A 
ENDBRANCH  52  66
BRANCH  53  72
ATOM     72  C   UNL A   1      46.356  32.291  28.850  1.00  0.00    -0.014 A 
ATOM     73  C   UNL A   1      46.519  33.219  27.810  1.00  0.00     0.009 A 
ATOM     74  C   UNL A   1      46.775  32.642  30.143  1.00  0.00     0.009 A 
ATOM     75  C   UNL A   1      47.116  34.458  28.054  1.00  0.00     0.001 A 
ATOM     76  C   UNL A   1      47.343  33.893  30.390  1.00  0.00     0.001 A 
ATOM     77  C   UNL A   1      47.523  34.796  29.344  1.00  0.00     0.000 A 
ENDBRANCH  53  72
BRANCH  65  78
ATOM     78  C   UNL A   1      49.137  26.201  26.939  1.00  0.00    -0.014 A 
ATOM     79  C   UNL A   1      49.619  26.263  25.623  1.00  0.00     0.009 A 
ATOM     80  C   UNL A   1      50.007  25.795  27.965  1.00  0.00     0.009 A 
ATOM     81  C   UNL A   1      50.936  25.898  25.337  1.00  0.00     0.001 A 
ATOM     82  C   UNL A   1      51.331  25.458  27.680  1.00  0.00     0.001 A 
ATOM     83  C   UNL A   1      51.792  25.501  26.365  1.00  0.00     0.000 A 
ENDBRANCH  65  78
ENDBRANCH  39  40
ENDBRANCH  32  34
ENDBRANCH  31  32
ENDBRANCH  30  31
ENDBRANCH  29  30
ENDBRANCH   1  29
TORSDOF 19
ENDMDL
MODEL 3
REMARK VINA RESULT:     -10.3      3.571      9.217
REMARK SMILES CCCc1cc(OC(F)(F)F)cc2c1O[C@@H](C(F)(F)F)C(C(=O)OCCOCCOC(=O)c1ccc(-c3c4nc(c(-c5ccccc5)c5ccc([nH]5)c(-c5ccccc5)c5nc(c(-c6ccccc6)c6ccc3[nH]6)C=C5)C=C4)cc1)=C2
REMARK SMILES IDX 27 1 26 2 25 3 24 4 22 5 23 6 21 7 4 8 5 9 14 10 6 11 13 12
REMARK SMILES IDX 15 13 12 14 81 15 16 16 3 17 2 18 1 19 7 20 8 21 9 22 10 23
REMARK SMILES IDX 11 24 17 25 18 26 19 27 20 28 28 29 29 30 30 31 31 32 32 33
REMARK SMILES IDX 33 34 34 35 80 36 35 37 79 38 36 39 37 40 38 41 73 42 39 43
REMARK SMILES IDX 78 44 72 45 74 46 40 47 77 48 71 49 70 50 41 52 63 53 48 54
REMARK SMILES IDX 62 55 49 56 52 57 61 58 75 59 50 60 51 61 60 63 76 64 53 65
REMARK SMILES IDX 42 66 43 67 47 68 44 69 46 70 45 71 64 72 65 73 69 74 66 75
REMARK SMILES IDX 68 76 67 77 54 78 55 79 59 80 56 81 58 82 57 83
REMARK H PARENT 74 51 52 62
REMARK Flexibility Score: inf
ROOT
ATOM      1  O   UNL A   1      38.491  21.494  25.905  1.00  0.00    -0.374 OA
ENDROOT
BRANCH   1   2
ATOM      2  C   UNL A   1      37.648  22.462  25.288  1.00  0.00     0.202 C 
BRANCH   2   3
ATOM      3  C   UNL A   1      36.198  22.537  25.770  1.00  0.00     0.261 C 
BRANCH   3   4
ATOM      4  O   UNL A   1      35.280  22.224  24.711  1.00  0.00    -0.460 OA
BRANCH   4   5
ATOM      5  C   UNL A   1      35.118  23.211  23.800  1.00  0.00     0.338 C 
ATOM      6  O   UNL A   1      35.642  23.285  22.701  1.00  0.00    -0.246 OA
BRANCH   5   7
ATOM      7  C   UNL A   1      34.104  24.170  24.255  1.00  0.00     0.087 C 
ATOM      8  C   UNL A   1      31.283  27.208  24.147  1.00  0.00    -0.002 A 
ATOM      9  C   UNL A   1      31.598  28.471  24.677  1.00  0.00     0.054 A 
ATOM     10  C   UNL A   1      32.196  26.160  24.311  1.00  0.00     0.131 A 
ATOM     11  C   UNL A   1      32.812  28.683  25.338  1.00  0.00     0.130 A 
ATOM     12  C   UNL A   1      33.449  26.380  24.893  1.00  0.00     0.021 A 
ATOM     13  O   UNL A   1      31.831  24.954  23.784  1.00  0.00    -0.475 OA
ATOM     14  C   UNL A   1      33.737  27.635  25.433  1.00  0.00     0.058 A 
ATOM     15  C   UNL A   1      34.489  25.363  24.734  1.00  0.00     0.027 C 
ATOM     16  C   UNL A   1      32.647  23.810  24.109  1.00  0.00     0.316 C 
BRANCH   8  17
ATOM     17  C   UNL A   1      30.014  27.012  23.343  1.00  0.00     0.039 C 
BRANCH  17  18
ATOM     18  C   UNL A   1      29.172  28.289  23.185  1.00  0.00     0.001 C 
ATOM     19  C   UNL A   1      29.591  29.206  22.041  1.00  0.00     0.004 C 
ENDBRANCH  17  18
ENDBRANCH   8  17
BRANCH  11  20
ATOM     20  O   UNL A   1      33.235  29.858  25.895  1.00  0.00    -0.406 OA
BRANCH  20  21
ATOM     21  C   UNL A   1      32.673  30.241  27.140  1.00  0.00     0.573 C 
ATOM     22  F   UNL A   1      33.525  31.019  27.839  1.00  0.00    -0.132 F 
ATOM     23  F   UNL A   1      31.503  30.891  26.967  1.00  0.00    -0.132 F 
ATOM     24  F   UNL A   1      32.431  29.126  27.866  1.00  0.00    -0.132 F 
ENDBRANCH  20  21
ENDBRANCH  11  20
BRANCH  16  25
ATOM     25  C   UNL A   1      32.265  22.682  23.134  1.00  0.00     0.430 C 
ATOM     26  F   UNL A   1      32.601  21.469  23.630  1.00  0.00    -0.167 F 
ATOM     27  F   UNL A   1      30.915  22.653  22.963  1.00  0.00    -0.167 F 
ATOM     28  F   UNL A   1      32.812  22.827  21.912  1.00  0.00    -0.167 F 
ENDBRANCH  16  25
ENDBRANCH   5   7
ENDBRANCH   4   5
ENDBRANCH   3   4
ENDBRANCH   2   3
ENDBRANCH   1   2
BRANCH   1  29
ATOM     29  C   UNL A   1      38.776  20.290  25.195  1.00  0.00     0.202 C 
BRANCH  29  30
ATOM     30  C   UNL A   1      39.741  19.287  25.839  1.00  0.00     0.261 C 
BRANCH  30  31
ATOM     31  O   UNL A   1      41.052  19.323  25.252  1.00  0.00    -0.460 OA
BRANCH  31  32
ATOM     32  C   UNL A   1      42.062  19.474  26.142  1.00  0.00     0.338 C 
ATOM     33  O   UNL A   1      42.943  18.672  26.411  1.00  0.00    -0.246 OA
BRANCH  32  34
ATOM     34  C   UNL A   1      42.081  20.855  26.652  1.00  0.00     0.060 A 
ATOM     35  C   UNL A   1      42.315  21.885  25.730  1.00  0.00     0.016 A 
ATOM     36  C   UNL A   1      41.969  21.131  28.015  1.00  0.00     0.016 A 
ATOM     37  C   UNL A   1      42.489  23.192  26.174  1.00  0.00     0.010 A 
ATOM     38  C   UNL A   1      42.157  22.441  28.461  1.00  0.00     0.010 A 
ATOM     39  C   UNL A   1      42.456  23.469  27.547  1.00  0.00    -0.014 A 
BRANCH  39  40
ATOM     40  C   UNL A   1      42.901  24.793  28.036  1.00  0.00     0.031 A 
ATOM     41  C   UNL A   1      41.866  25.854  28.293  1.00  0.00     0.074 A 
ATOM     42  C   UNL A   1      44.201  25.043  28.270  1.00  0.00     0.049 A 
ATOM     43  N   UNL A   1      42.027  27.096  28.670  1.00  0.00    -0.248 NA
ATOM     44  C   UNL A   1      40.460  25.461  28.098  1.00  0.00     0.031 C 
ATOM     45  C   UNL A   1      45.290  24.080  28.115  1.00  0.00     0.029 A 
ATOM     46  N   UNL A   1      44.821  26.193  28.689  1.00  0.00    -0.354 N 
ATOM     47  C   UNL A   1      40.749  27.634  28.747  1.00  0.00     0.074 A 
ATOM     48  C   UNL A   1      39.824  26.594  28.354  1.00  0.00     0.031 C 
ATOM     49  C   UNL A   1      46.450  24.684  28.425  1.00  0.00     0.029 A 
ATOM     50  C   UNL A   1      46.188  26.081  28.765  1.00  0.00     0.049 A 
ATOM     51  H   UNL A   1      44.334  27.018  28.913  1.00  0.00     0.167 HD
ATOM     52  C   UNL A   1      40.377  28.882  29.116  1.00  0.00     0.031 A 
ATOM     53  C   UNL A   1      47.119  27.009  29.054  1.00  0.00     0.031 A 
ATOM     54  C   UNL A   1      41.297  29.920  29.496  1.00  0.00     0.049 A 
ATOM     55  C   UNL A   1      46.685  28.414  29.380  1.00  0.00     0.074 A 
ATOM     56  C   UNL A   1      41.018  31.218  29.890  1.00  0.00     0.029 A 
ATOM     57  N   UNL A   1      42.675  29.778  29.525  1.00  0.00    -0.354 N 
ATOM     58  N   UNL A   1      45.473  28.909  29.460  1.00  0.00    -0.248 NA
ATOM     59  C   UNL A   1      47.751  29.388  29.661  1.00  0.00     0.031 C 
ATOM     60  C   UNL A   1      42.233  31.876  30.108  1.00  0.00     0.029 A 
ATOM     61  C   UNL A   1      43.263  30.971  29.907  1.00  0.00     0.049 A 
ATOM     62  H   UNL A   1      43.163  28.952  29.305  1.00  0.00     0.167 HD
ATOM     63  C   UNL A   1      45.630  30.238  29.834  1.00  0.00     0.074 A 
ATOM     64  C   UNL A   1      47.053  30.470  29.973  1.00  0.00     0.031 C 
ATOM     65  C   UNL A   1      44.680  31.182  30.049  1.00  0.00     0.031 A 
BRANCH  52  66
ATOM     66  C   UNL A   1      38.908  29.202  29.092  1.00  0.00    -0.014 A 
ATOM     67  C   UNL A   1      38.282  29.663  27.924  1.00  0.00     0.009 A 
ATOM     68  C   UNL A   1      38.136  29.008  30.247  1.00  0.00     0.009 A 
ATOM     69  C   UNL A   1      36.916  29.952  27.923  1.00  0.00     0.001 A 
ATOM     70  C   UNL A   1      36.765  29.272  30.236  1.00  0.00     0.001 A 
ATOM     71  C   UNL A   1      36.158  29.752  29.076  1.00  0.00     0.000 A 
ENDBRANCH  52  66
BRANCH  53  72
ATOM     72  C   UNL A   1      48.561  26.653  29.027  1.00  0.00    -0.014 A 
ATOM     73  C   UNL A   1      49.214  26.219  30.191  1.00  0.00     0.009 A 
ATOM     74  C   UNL A   1      49.301  26.772  27.840  1.00  0.00     0.009 A 
ATOM     75  C   UNL A   1      50.583  25.939  30.172  1.00  0.00     0.001 A 
ATOM     76  C   UNL A   1      50.662  26.462  27.817  1.00  0.00     0.001 A 
ATOM     77  C   UNL A   1      51.304  26.055  28.986  1.00  0.00     0.000 A 
ENDBRANCH  53  72
BRANCH  65  78
ATOM     78  C   UNL A   1      45.142  32.535  30.507  1.00  0.00    -0.014 A 
ATOM     79  C   UNL A   1      45.337  32.822  31.867  1.00  0.00     0.009 A 
ATOM     80  C   UNL A   1      45.437  33.523  29.553  1.00  0.00     0.009 A 
ATOM     81  C   UNL A   1      45.792  34.082  32.263  1.00  0.00     0.001 A 
ATOM     82  C   UNL A   1      45.917  34.772  29.951  1.00  0.00     0.001 A 
ATOM     83  C   UNL A   1      46.086  35.053  31.306  1.00  0.00     0.000 A 
ENDBRANCH  65  78
ENDBRANCH  39  40
ENDBRANCH  32  34
ENDBRANCH  31  32
ENDBRANCH  30  31
ENDBRANCH  29  30
ENDBRANCH   1  29
TORSDOF 19
ENDMDL
