MODEL 1
REMARK VINA RESULT:     -10.6      0.000      0.000
REMARK SMILES CCCCCCNC(=O)Oc1cccc(-c2ccc([C@@H](C)C(=O)OCCOCCOC(=O)c3ccc(-c4c5nc(c(-c6ccccc6)c6ccc([nH]6)c(-c6ccccc6)c6nc(c(-c7ccccc7)c7ccc4[nH]7)C=C6)C=C5)cc3)cc2O)c1
REMARK SMILES IDX 22 1 23 2 20 3 21 4 19 5 16 6 17 7 82 8 18 9 81 10 15 11
REMARK SMILES IDX 11 12 12 13 84 14 13 15 14 16 10 17 8 18 7 19 9 21 6 22 5 23
REMARK SMILES IDX 4 24 3 25 2 26 1 27 83 28 24 30 25 31 26 32 27 33 28 34
REMARK SMILES IDX 29 35 30 36 31 37 32 38 33 39 34 40 80 41 35 42 79 43 36 44
REMARK SMILES IDX 37 45 38 46 73 47 39 48 78 49 72 50 74 51 40 52 77 53 71 54
REMARK SMILES IDX 70 55 41 57 63 58 48 59 62 60 49 61 52 62 61 63 75 64 50 65
REMARK SMILES IDX 51 66 60 68 76 69 53 70 42 71 43 72 47 73 44 74 46 75 45 76
REMARK SMILES IDX 64 77 65 78 69 79 66 80 68 81 67 82 54 83 55 84 59 85 56 86
REMARK SMILES IDX 58 87 57 88
REMARK H PARENT 7 20 83 29 74 56 52 67
REMARK Flexibility Score: inf
ROOT
ATOM      1  C   UNL A   1      40.891  20.255  26.551  1.00  0.00     0.313 C 
ATOM      2  O   UNL A   1      40.507  19.818  27.633  1.00  0.00    -0.252 OA
ENDROOT
BRANCH   1   3
ATOM      3  C   UNL A   1      40.671  21.705  26.151  1.00  0.00     0.126 C 
ATOM      4  C   UNL A   1      41.579  22.597  26.995  1.00  0.00     0.025 C 
BRANCH   3   5
ATOM      5  C   UNL A   1      39.241  22.232  26.109  1.00  0.00    -0.030 A 
ATOM      6  C   UNL A   1      36.587  23.247  25.752  1.00  0.00     0.024 A 
ATOM      7  C   UNL A   1      37.570  23.978  26.444  1.00  0.00     0.013 A 
ATOM      8  C   UNL A   1      36.960  21.980  25.276  1.00  0.00     0.123 A 
ATOM      9  C   UNL A   1      38.874  23.485  26.614  1.00  0.00     0.005 A 
ATOM     10  C   UNL A   1      38.251  21.475  25.460  1.00  0.00     0.051 A 
BRANCH   6  11
ATOM     11  C   UNL A   1      35.259  23.842  25.503  1.00  0.00    -0.011 A 
ATOM     12  C   UNL A   1      33.784  25.354  24.302  1.00  0.00     0.133 A 
ATOM     13  C   UNL A   1      32.729  25.054  25.162  1.00  0.00     0.047 A 
ATOM     14  C   UNL A   1      35.041  24.763  24.464  1.00  0.00     0.056 A 
ATOM     15  C   UNL A   1      32.925  24.132  26.184  1.00  0.00     0.004 A 
ATOM     16  C   UNL A   1      34.178  23.534  26.353  1.00  0.00     0.009 A 
BRANCH  12  17
ATOM     17  O   UNL A   1      33.554  26.370  23.359  1.00  0.00    -0.410 OA
BRANCH  17  18
ATOM     18  C   UNL A   1      32.882  26.041  22.192  1.00  0.00     0.412 C 
ATOM     19  N   UNL A   1      31.776  26.811  21.969  1.00  0.00    -0.321 N 
ATOM     20  H   UNL A   1      31.279  26.632  21.137  1.00  0.00     0.167 HD
ATOM     21  O   UNL A   1      33.198  25.148  21.408  1.00  0.00    -0.224 OA
BRANCH  19  22
ATOM     22  C   UNL A   1      31.251  27.862  22.820  1.00  0.00     0.119 C 
BRANCH  22  23
ATOM     23  C   UNL A   1      29.891  28.371  22.340  1.00  0.00     0.021 C 
BRANCH  23  24
ATOM     24  C   UNL A   1      29.898  29.793  21.763  1.00  0.00     0.002 C 
BRANCH  24  25
ATOM     25  C   UNL A   1      28.602  30.591  21.946  1.00  0.00    -0.000 C 
BRANCH  25  26
ATOM     26  C   UNL A   1      27.903  30.413  23.296  1.00  0.00    -0.003 C 
ATOM     27  C   UNL A   1      27.318  31.704  23.848  1.00  0.00     0.004 C 
ENDBRANCH  25  26
ENDBRANCH  24  25
ENDBRANCH  23  24
ENDBRANCH  22  23
ENDBRANCH  19  22
ENDBRANCH  17  18
ENDBRANCH  12  17
ENDBRANCH   6  11
BRANCH   8  28
ATOM     28  O   UNL A   1      36.115  21.176  24.554  1.00  0.00    -0.507 OA
ATOM     29  H   UNL A   1      36.195  21.129  23.621  1.00  0.00     0.293 HD
ENDBRANCH   8  28
ENDBRANCH   3   5
ENDBRANCH   1   3
BRANCH   1  30
ATOM     30  O   UNL A   1      41.502  19.505  25.597  1.00  0.00    -0.463 OA
BRANCH  30  31
ATOM     31  C   UNL A   1      42.632  18.730  26.035  1.00  0.00     0.261 C 
BRANCH  31  32
ATOM     32  C   UNL A   1      43.933  19.258  25.426  1.00  0.00     0.202 C 
BRANCH  32  33
ATOM     33  O   UNL A   1      43.831  20.460  24.663  1.00  0.00    -0.374 OA
BRANCH  33  34
ATOM     34  C   UNL A   1      44.537  21.606  25.141  1.00  0.00     0.202 C 
BRANCH  34  35
ATOM     35  C   UNL A   1      44.860  22.696  24.112  1.00  0.00     0.261 C 
BRANCH  35  36
ATOM     36  O   UNL A   1      44.115  23.907  24.340  1.00  0.00    -0.460 OA
BRANCH  36  37
ATOM     37  C   UNL A   1      44.774  24.848  25.057  1.00  0.00     0.338 C 
ATOM     38  O   UNL A   1      45.891  25.289  24.853  1.00  0.00    -0.246 OA
BRANCH  37  39
ATOM     39  C   UNL A   1      43.870  25.446  26.060  1.00  0.00     0.060 A 
ATOM     40  C   UNL A   1      43.493  26.780  25.865  1.00  0.00     0.016 A 
ATOM     41  C   UNL A   1      43.470  24.756  27.206  1.00  0.00     0.016 A 
ATOM     42  C   UNL A   1      42.771  27.454  26.845  1.00  0.00     0.010 A 
ATOM     43  C   UNL A   1      42.746  25.436  28.194  1.00  0.00     0.010 A 
ATOM     44  C   UNL A   1      42.431  26.799  28.037  1.00  0.00    -0.014 A 
BRANCH  44  45
ATOM     45  C   UNL A   1      41.894  27.596  29.167  1.00  0.00     0.031 A 
ATOM     46  C   UNL A   1      42.625  27.586  30.483  1.00  0.00     0.074 A 
ATOM     47  C   UNL A   1      40.808  28.375  29.009  1.00  0.00     0.049 A 
ATOM     48  N   UNL A   1      42.355  28.238  31.587  1.00  0.00    -0.248 NA
ATOM     49  C   UNL A   1      43.819  26.730  30.565  1.00  0.00     0.031 C 
ATOM     50  C   UNL A   1      40.039  28.513  27.773  1.00  0.00     0.029 A 
ATOM     51  N   UNL A   1      40.173  29.205  29.897  1.00  0.00    -0.354 N 
ATOM     52  C   UNL A   1      43.341  27.868  32.493  1.00  0.00     0.074 A 
ATOM     53  C   UNL A   1      44.195  26.911  31.823  1.00  0.00     0.031 C 
ATOM     54  C   UNL A   1      39.036  29.384  27.981  1.00  0.00     0.029 A 
ATOM     55  C   UNL A   1      39.076  29.840  29.370  1.00  0.00     0.049 A 
ATOM     56  H   UNL A   1      40.475  29.333  30.826  1.00  0.00     0.167 HD
ATOM     57  C   UNL A   1      43.529  28.293  33.764  1.00  0.00     0.031 A 
ATOM     58  C   UNL A   1      38.199  30.686  29.942  1.00  0.00     0.031 A 
ATOM     59  C   UNL A   1      42.677  29.236  34.440  1.00  0.00     0.049 A 
ATOM     60  C   UNL A   1      38.382  31.082  31.383  1.00  0.00     0.074 A 
ATOM     61  C   UNL A   1      42.795  29.739  35.724  1.00  0.00     0.029 A 
ATOM     62  N   UNL A   1      41.545  29.811  33.887  1.00  0.00    -0.354 N 
ATOM     63  N   UNL A   1      39.335  30.747  32.219  1.00  0.00    -0.248 NA
ATOM     64  C   UNL A   1      37.370  31.984  31.954  1.00  0.00     0.031 C 
ATOM     65  C   UNL A   1      41.701  30.575  35.968  1.00  0.00     0.029 A 
ATOM     66  C   UNL A   1      40.937  30.641  34.814  1.00  0.00     0.049 A 
ATOM     67  H   UNL A   1      41.220  29.654  32.971  1.00  0.00     0.167 HD
ATOM     68  C   UNL A   1      39.054  31.418  33.404  1.00  0.00     0.074 A 
ATOM     69  C   UNL A   1      37.849  32.188  33.175  1.00  0.00     0.031 C 
ATOM     70  C   UNL A   1      39.736  31.399  34.575  1.00  0.00     0.031 A 
BRANCH  57  71
ATOM     71  C   UNL A   1      44.688  27.708  34.522  1.00  0.00    -0.014 A 
ATOM     72  C   UNL A   1      44.552  26.527  35.270  1.00  0.00     0.009 A 
ATOM     73  C   UNL A   1      45.942  28.337  34.469  1.00  0.00     0.009 A 
ATOM     74  C   UNL A   1      45.640  26.009  35.977  1.00  0.00     0.001 A 
ATOM     75  C   UNL A   1      47.034  27.802  35.155  1.00  0.00     0.001 A 
ATOM     76  C   UNL A   1      46.879  26.644  35.916  1.00  0.00     0.000 A 
ENDBRANCH  57  71
BRANCH  58  77
ATOM     77  C   UNL A   1      37.054  31.213  29.154  1.00  0.00    -0.014 A 
ATOM     78  C   UNL A   1      37.019  32.557  28.752  1.00  0.00     0.009 A 
ATOM     79  C   UNL A   1      35.983  30.373  28.812  1.00  0.00     0.009 A 
ATOM     80  C   UNL A   1      35.924  33.053  28.041  1.00  0.00     0.001 A 
ATOM     81  C   UNL A   1      34.902  30.865  28.077  1.00  0.00     0.001 A 
ATOM     82  C   UNL A   1      34.869  32.207  27.700  1.00  0.00     0.000 A 
ENDBRANCH  58  77
BRANCH  70  83
ATOM     83  C   UNL A   1      39.216  32.264  35.690  1.00  0.00    -0.014 A 
ATOM     84  C   UNL A   1      38.305  31.768  36.635  1.00  0.00     0.009 A 
ATOM     85  C   UNL A   1      39.681  33.582  35.820  1.00  0.00     0.009 A 
ATOM     86  C   UNL A   1      37.845  32.587  37.670  1.00  0.00     0.001 A 
ATOM     87  C   UNL A   1      39.243  34.389  36.871  1.00  0.00     0.001 A 
ATOM     88  C   UNL A   1      38.319  33.894  37.790  1.00  0.00     0.000 A 
ENDBRANCH  70  83
ENDBRANCH  44  45
ENDBRANCH  37  39
ENDBRANCH  36  37
ENDBRANCH  35  36
ENDBRANCH  34  35
ENDBRANCH  33  34
ENDBRANCH  32  33
ENDBRANCH  31  32
ENDBRANCH  30  31
ENDBRANCH   1  30
TORSDOF 24
ENDMDL
MODEL 2
REMARK VINA RESULT:     -10.3      3.783      8.997
REMARK SMILES CCCCCCNC(=O)Oc1cccc(-c2ccc([C@@H](C)C(=O)OCCOCCOC(=O)c3ccc(-c4c5nc(c(-c6ccccc6)c6ccc([nH]6)c(-c6ccccc6)c6nc(c(-c7ccccc7)c7ccc4[nH]7)C=C6)C=C5)cc3)cc2O)c1
REMARK SMILES IDX 22 1 23 2 20 3 21 4 19 5 16 6 17 7 82 8 18 9 81 10 15 11
REMARK SMILES IDX 11 12 12 13 84 14 13 15 14 16 10 17 8 18 7 19 9 21 6 22 5 23
REMARK SMILES IDX 4 24 3 25 2 26 1 27 83 28 24 30 25 31 26 32 27 33 28 34
REMARK SMILES IDX 29 35 30 36 31 37 32 38 33 39 34 40 80 41 35 42 79 43 36 44
REMARK SMILES IDX 37 45 38 46 73 47 39 48 78 49 72 50 74 51 40 52 77 53 71 54
REMARK SMILES IDX 70 55 41 57 63 58 48 59 62 60 49 61 52 62 61 63 75 64 50 65
REMARK SMILES IDX 51 66 60 68 76 69 53 70 42 71 43 72 47 73 44 74 46 75 45 76
REMARK SMILES IDX 64 77 65 78 69 79 66 80 68 81 67 82 54 83 55 84 59 85 56 86
REMARK SMILES IDX 58 87 57 88
REMARK H PARENT 7 20 83 29 74 56 52 67
REMARK Flexibility Score: inf
ROOT
ATOM      1  C   UNL A   1      34.845  24.019  24.068  1.00  0.00     0.313 C 
ATOM      2  O   UNL A   1      35.421  23.949  22.985  1.00  0.00    -0.252 OA
ENDROOT
BRANCH   1   3
ATOM      3  C   UNL A   1      33.400  24.481  24.175  1.00  0.00     0.126 C 
ATOM      4  C   UNL A   1      32.704  24.251  22.836  1.00  0.00     0.025 C 
BRANCH   3   5
ATOM      5  C   UNL A   1      33.129  25.880  24.722  1.00  0.00    -0.030 A 
ATOM      6  C   UNL A   1      32.897  28.539  25.757  1.00  0.00     0.024 A 
ATOM      7  C   UNL A   1      32.505  27.417  26.510  1.00  0.00     0.013 A 
ATOM      8  C   UNL A   1      33.374  28.294  24.459  1.00  0.00     0.123 A 
ATOM      9  C   UNL A   1      32.624  26.111  26.007  1.00  0.00     0.005 A 
ATOM     10  C   UNL A   1      33.476  26.998  23.945  1.00  0.00     0.051 A 
BRANCH   6  11
ATOM     11  C   UNL A   1      32.854  29.887  26.358  1.00  0.00    -0.011 A 
ATOM     12  C   UNL A   1      33.748  31.601  27.831  1.00  0.00     0.133 A 
ATOM     13  C   UNL A   1      32.649  32.423  27.588  1.00  0.00     0.047 A 
ATOM     14  C   UNL A   1      33.858  30.343  27.230  1.00  0.00     0.056 A 
ATOM     15  C   UNL A   1      31.657  31.992  26.713  1.00  0.00     0.004 A 
ATOM     16  C   UNL A   1      31.759  30.736  26.107  1.00  0.00     0.009 A 
BRANCH  12  17
ATOM     17  O   UNL A   1      34.660  32.045  28.803  1.00  0.00    -0.410 OA
BRANCH  17  18
ATOM     18  C   UNL A   1      35.220  33.304  28.649  1.00  0.00     0.412 C 
ATOM     19  N   UNL A   1      35.084  34.096  29.754  1.00  0.00    -0.321 N 
ATOM     20  H   UNL A   1      35.490  34.992  29.702  1.00  0.00     0.167 HD
ATOM     21  O   UNL A   1      35.783  33.720  27.639  1.00  0.00    -0.224 OA
BRANCH  19  22
ATOM     22  C   UNL A   1      34.408  33.765  30.994  1.00  0.00     0.119 C 
BRANCH  22  23
ATOM     23  C   UNL A   1      34.980  32.507  31.648  1.00  0.00     0.021 C 
BRANCH  23  24
ATOM     24  C   UNL A   1      36.206  32.742  32.542  1.00  0.00     0.002 C 
BRANCH  24  25
ATOM     25  C   UNL A   1      37.544  32.253  31.976  1.00  0.00    -0.000 C 
BRANCH  25  26
ATOM     26  C   UNL A   1      38.421  33.329  31.333  1.00  0.00    -0.003 C 
ATOM     27  C   UNL A   1      38.666  33.102  29.849  1.00  0.00     0.004 C 
ENDBRANCH  25  26
ENDBRANCH  24  25
ENDBRANCH  23  24
ENDBRANCH  22  23
ENDBRANCH  19  22
ENDBRANCH  17  18
ENDBRANCH  12  17
ENDBRANCH   6  11
BRANCH   8  28
ATOM     28  O   UNL A   1      33.824  29.290  23.630  1.00  0.00    -0.507 OA
ATOM     29  H   UNL A   1      34.460  29.097  22.968  1.00  0.00     0.293 HD
ENDBRANCH   8  28
ENDBRANCH   3   5
ENDBRANCH   1   3
BRANCH   1  30
ATOM     30  O   UNL A   1      35.426  23.741  25.263  1.00  0.00    -0.463 OA
BRANCH  30  31
ATOM     31  C   UNL A   1      35.062  22.485  25.862  1.00  0.00     0.261 C 
BRANCH  31  32
ATOM     32  C   UNL A   1      35.362  21.317  24.920  1.00  0.00     0.202 C 
BRANCH  32  33
ATOM     33  O   UNL A   1      36.357  20.391  25.357  1.00  0.00    -0.374 OA
BRANCH  33  34
ATOM     34  C   UNL A   1      37.689  20.579  24.877  1.00  0.00     0.202 C 
BRANCH  34  35
ATOM     35  C   UNL A   1      38.748  19.590  25.376  1.00  0.00     0.261 C 
BRANCH  35  36
ATOM     36  O   UNL A   1      39.620  20.167  26.365  1.00  0.00    -0.460 OA
BRANCH  36  37
ATOM     37  C   UNL A   1      40.931  19.861  26.210  1.00  0.00     0.338 C 
ATOM     38  O   UNL A   1      41.404  18.834  25.756  1.00  0.00    -0.246 OA
BRANCH  37  39
ATOM     39  C   UNL A   1      41.765  21.045  26.497  1.00  0.00     0.060 A 
ATOM     40  C   UNL A   1      41.989  21.356  27.844  1.00  0.00     0.016 A 
ATOM     41  C   UNL A   1      42.242  21.881  25.486  1.00  0.00     0.016 A 
ATOM     42  C   UNL A   1      42.634  22.540  28.190  1.00  0.00     0.010 A 
ATOM     43  C   UNL A   1      42.889  23.074  25.835  1.00  0.00     0.010 A 
ATOM     44  C   UNL A   1      43.049  23.429  27.188  1.00  0.00    -0.014 A 
BRANCH  44  45
ATOM     45  C   UNL A   1      43.497  24.789  27.576  1.00  0.00     0.031 A 
ATOM     46  C   UNL A   1      42.468  25.814  27.971  1.00  0.00     0.074 A 
ATOM     47  C   UNL A   1      44.806  25.092  27.643  1.00  0.00     0.049 A 
ATOM     48  N   UNL A   1      42.639  27.046  28.381  1.00  0.00    -0.248 NA
ATOM     49  C   UNL A   1      41.060  25.394  27.898  1.00  0.00     0.031 C 
ATOM     50  C   UNL A   1      45.904  24.177  27.335  1.00  0.00     0.029 A 
ATOM     51  N   UNL A   1      45.430  26.260  28.003  1.00  0.00    -0.354 N 
ATOM     52  C   UNL A   1      41.364  27.547  28.610  1.00  0.00     0.074 A 
ATOM     53  C   UNL A   1      40.428  26.500  28.261  1.00  0.00     0.031 C 
ATOM     54  C   UNL A   1      47.070  24.818  27.526  1.00  0.00     0.029 A 
ATOM     55  C   UNL A   1      46.800  26.193  27.940  1.00  0.00     0.049 A 
ATOM     56  H   UNL A   1      44.942  27.069  28.281  1.00  0.00     0.167 HD
ATOM     57  C   UNL A   1      41.001  28.765  29.077  1.00  0.00     0.031 A 
ATOM     58  C   UNL A   1      47.731  27.136  28.182  1.00  0.00     0.031 A 
ATOM     59  C   UNL A   1      41.926  29.815  29.414  1.00  0.00     0.049 A 
ATOM     60  C   UNL A   1      47.300  28.509  28.623  1.00  0.00     0.074 A 
ATOM     61  C   UNL A   1      41.654  31.078  29.909  1.00  0.00     0.029 A 
ATOM     62  N   UNL A   1      43.302  29.724  29.282  1.00  0.00    -0.354 N 
ATOM     63  N   UNL A   1      46.092  28.961  28.862  1.00  0.00    -0.248 NA
ATOM     64  C   UNL A   1      48.365  29.499  28.838  1.00  0.00     0.031 C 
ATOM     65  C   UNL A   1      42.863  31.772  30.023  1.00  0.00     0.029 A 
ATOM     66  C   UNL A   1      43.892  30.920  29.657  1.00  0.00     0.049 A 
ATOM     67  H   UNL A   1      43.789  28.928  28.968  1.00  0.00     0.167 HD
ATOM     68  C   UNL A   1      46.254  30.275  29.282  1.00  0.00     0.074 A 
ATOM     69  C   UNL A   1      47.677  30.545  29.277  1.00  0.00     0.031 C 
ATOM     70  C   UNL A   1      45.308  31.177  29.644  1.00  0.00     0.031 A 
BRANCH  57  71
ATOM     71  C   UNL A   1      39.530  29.039  29.217  1.00  0.00    -0.014 A 
ATOM     72  C   UNL A   1      38.834  28.713  30.392  1.00  0.00     0.009 A 
ATOM     73  C   UNL A   1      38.833  29.653  28.164  1.00  0.00     0.009 A 
ATOM     74  C   UNL A   1      37.463  28.965  30.495  1.00  0.00     0.001 A 
ATOM     75  C   UNL A   1      37.470  29.928  28.280  1.00  0.00     0.001 A 
ATOM     76  C   UNL A   1      36.784  29.575  29.442  1.00  0.00     0.000 A 
ENDBRANCH  57  71
BRANCH  58  77
ATOM     77  C   UNL A   1      49.172  26.820  28.000  1.00  0.00    -0.014 A 
ATOM     78  C   UNL A   1      49.750  26.822  26.722  1.00  0.00     0.009 A 
ATOM     79  C   UNL A   1      49.972  26.500  29.108  1.00  0.00     0.009 A 
ATOM     80  C   UNL A   1      51.096  26.490  26.556  1.00  0.00     0.001 A 
ATOM     81  C   UNL A   1      51.325  26.196  28.941  1.00  0.00     0.001 A 
ATOM     82  C   UNL A   1      51.884  26.182  27.665  1.00  0.00     0.000 A 
ENDBRANCH  58  77
BRANCH  70  83
ATOM     83  C   UNL A   1      45.782  32.530  30.097  1.00  0.00    -0.014 A 
ATOM     84  C   UNL A   1      46.078  32.788  31.444  1.00  0.00     0.009 A 
ATOM     85  C   UNL A   1      45.975  33.550  29.151  1.00  0.00     0.009 A 
ATOM     86  C   UNL A   1      46.529  34.050  31.839  1.00  0.00     0.001 A 
ATOM     87  C   UNL A   1      46.452  34.801  29.544  1.00  0.00     0.001 A 
ATOM     88  C   UNL A   1      46.720  35.053  30.888  1.00  0.00     0.000 A 
ENDBRANCH  70  83
ENDBRANCH  44  45
ENDBRANCH  37  39
ENDBRANCH  36  37
ENDBRANCH  35  36
ENDBRANCH  34  35
ENDBRANCH  33  34
ENDBRANCH  32  33
ENDBRANCH  31  32
ENDBRANCH  30  31
ENDBRANCH   1  30
TORSDOF 24
ENDMDL
MODEL 3
REMARK VINA RESULT:     -10.1      1.608      5.873
REMARK SMILES CCCCCCNC(=O)Oc1cccc(-c2ccc([C@@H](C)C(=O)OCCOCCOC(=O)c3ccc(-c4c5nc(c(-c6ccccc6)c6ccc([nH]6)c(-c6ccccc6)c6nc(c(-c7ccccc7)c7ccc4[nH]7)C=C6)C=C5)cc3)cc2O)c1
REMARK SMILES IDX 22 1 23 2 20 3 21 4 19 5 16 6 17 7 82 8 18 9 81 10 15 11
REMARK SMILES IDX 11 12 12 13 84 14 13 15 14 16 10 17 8 18 7 19 9 21 6 22 5 23
REMARK SMILES IDX 4 24 3 25 2 26 1 27 83 28 24 30 25 31 26 32 27 33 28 34
REMARK SMILES IDX 29 35 30 36 31 37 32 38 33 39 34 40 80 41 35 42 79 43 36 44
REMARK SMILES IDX 37 45 38 46 73 47 39 48 78 49 72 50 74 51 40 52 77 53 71 54
REMARK SMILES IDX 70 55 41 57 63 58 48 59 62 60 49 61 52 62 61 63 75 64 50 65
REMARK SMILES IDX 51 66 60 68 76 69 53 70 42 71 43 72 47 73 44 74 46 75 45 76
REMARK SMILES IDX 64 77 65 78 69 79 66 80 68 81 67 82 54 83 55 84 59 85 56 86
REMARK SMILES IDX 58 87 57 88
REMARK H PARENT 7 20 83 29 74 56 52 67
REMARK Flexibility Score: inf
ROOT
ATOM      1  C   UNL A   1      41.117  20.445  26.836  1.00  0.00     0.313 C 
ATOM      2  O   UNL A   1      40.788  19.806  27.833  1.00  0.00    -0.252 OA
ENDROOT
BRANCH   1   3
ATOM      3  C   UNL A   1      40.827  21.932  26.708  1.00  0.00     0.126 C 
ATOM      4  C   UNL A   1      41.360  22.651  27.945  1.00  0.00     0.025 C 
BRANCH   3   5
ATOM      5  C   UNL A   1      39.403  22.362  26.372  1.00  0.00    -0.030 A 
ATOM      6  C   UNL A   1      36.800  23.148  25.473  1.00  0.00     0.024 A 
ATOM      7  C   UNL A   1      37.649  24.044  26.149  1.00  0.00     0.013 A 
ATOM      8  C   UNL A   1      37.276  21.839  25.293  1.00  0.00     0.123 A 
ATOM      9  C   UNL A   1      38.929  23.663  26.585  1.00  0.00     0.005 A 
ATOM     10  C   UNL A   1      38.541  21.448  25.743  1.00  0.00     0.051 A 
BRANCH   6  11
ATOM     11  C   UNL A   1      35.505  23.615  24.939  1.00  0.00    -0.011 A 
ATOM     12  C   UNL A   1      34.158  24.661  23.209  1.00  0.00     0.133 A 
ATOM     13  C   UNL A   1      33.028  24.618  24.023  1.00  0.00     0.047 A 
ATOM     14  C   UNL A   1      35.390  24.170  23.653  1.00  0.00     0.056 A 
ATOM     15  C   UNL A   1      33.123  24.055  25.291  1.00  0.00     0.004 A 
ATOM     16  C   UNL A   1      34.350  23.560  25.743  1.00  0.00     0.009 A 
BRANCH  12  17
ATOM     17  O   UNL A   1      34.023  25.337  21.985  1.00  0.00    -0.410 OA
BRANCH  17  18
ATOM     18  C   UNL A   1      32.827  25.986  21.722  1.00  0.00     0.412 C 
ATOM     19  N   UNL A   1      32.880  27.332  21.947  1.00  0.00    -0.321 N 
ATOM     20  H   UNL A   1      32.061  27.842  21.749  1.00  0.00     0.167 HD
ATOM     21  O   UNL A   1      31.789  25.451  21.337  1.00  0.00    -0.224 OA
BRANCH  19  22
ATOM     22  C   UNL A   1      34.009  28.095  22.444  1.00  0.00     0.119 C 
BRANCH  22  23
ATOM     23  C   UNL A   1      33.651  28.923  23.680  1.00  0.00     0.021 C 
BRANCH  23  24
ATOM     24  C   UNL A   1      33.256  28.104  24.916  1.00  0.00     0.002 C 
BRANCH  24  25
ATOM     25  C   UNL A   1      31.816  28.291  25.405  1.00  0.00    -0.000 C 
BRANCH  25  26
ATOM     26  C   UNL A   1      30.796  27.293  24.850  1.00  0.00    -0.003 C 
ATOM     27  C   UNL A   1      30.307  26.291  25.885  1.00  0.00     0.004 C 
ENDBRANCH  25  26
ENDBRANCH  24  25
ENDBRANCH  23  24
ENDBRANCH  22  23
ENDBRANCH  19  22
ENDBRANCH  17  18
ENDBRANCH  12  17
ENDBRANCH   6  11
BRANCH   8  28
ATOM     28  O   UNL A   1      36.570  20.874  24.621  1.00  0.00    -0.507 OA
ATOM     29  H   UNL A   1      35.712  20.633  24.912  1.00  0.00     0.293 HD
ENDBRANCH   8  28
ENDBRANCH   3   5
ENDBRANCH   1   3
BRANCH   1  30
ATOM     30  O   UNL A   1      41.722  19.904  25.747  1.00  0.00    -0.463 OA
BRANCH  30  31
ATOM     31  C   UNL A   1      43.030  19.345  25.967  1.00  0.00     0.261 C 
BRANCH  31  32
ATOM     32  C   UNL A   1      44.092  20.093  25.159  1.00  0.00     0.202 C 
BRANCH  32  33
ATOM     33  O   UNL A   1      43.705  21.357  24.621  1.00  0.00    -0.374 OA
BRANCH  33  34
ATOM     34  C   UNL A   1      44.692  22.389  24.589  1.00  0.00     0.202 C 
BRANCH  34  35
ATOM     35  C   UNL A   1      44.180  23.834  24.619  1.00  0.00     0.261 C 
BRANCH  35  36
ATOM     36  O   UNL A   1      43.789  24.253  25.938  1.00  0.00    -0.460 OA
BRANCH  36  37
ATOM     37  C   UNL A   1      44.612  25.167  26.507  1.00  0.00     0.338 C 
ATOM     38  O   UNL A   1      45.784  25.376  26.244  1.00  0.00    -0.246 OA
BRANCH  37  39
ATOM     39  C   UNL A   1      43.843  26.055  27.402  1.00  0.00     0.060 A 
ATOM     40  C   UNL A   1      44.238  27.397  27.462  1.00  0.00     0.016 A 
ATOM     41  C   UNL A   1      42.823  25.577  28.226  1.00  0.00     0.016 A 
ATOM     42  C   UNL A   1      43.660  28.254  28.394  1.00  0.00     0.010 A 
ATOM     43  C   UNL A   1      42.244  26.440  29.166  1.00  0.00     0.010 A 
ATOM     44  C   UNL A   1      42.691  27.770  29.284  1.00  0.00    -0.014 A 
BRANCH  44  45
ATOM     45  C   UNL A   1      42.278  28.619  30.427  1.00  0.00     0.031 A 
ATOM     46  C   UNL A   1      41.041  29.467  30.300  1.00  0.00     0.074 A 
ATOM     47  C   UNL A   1      42.952  28.588  31.591  1.00  0.00     0.049 A 
ATOM     48  N   UNL A   1      40.477  30.252  31.185  1.00  0.00    -0.248 NA
ATOM     49  C   UNL A   1      40.345  29.424  29.004  1.00  0.00     0.031 C 
ATOM     50  C   UNL A   1      44.135  27.772  31.862  1.00  0.00     0.029 A 
ATOM     51  N   UNL A   1      42.725  29.256  32.768  1.00  0.00    -0.354 N 
ATOM     52  C   UNL A   1      39.366  30.796  30.553  1.00  0.00     0.074 A 
ATOM     53  C   UNL A   1      39.353  30.281  29.200  1.00  0.00     0.031 C 
ATOM     54  C   UNL A   1      44.528  27.985  33.129  1.00  0.00     0.029 A 
ATOM     55  C   UNL A   1      43.643  28.971  33.748  1.00  0.00     0.049 A 
ATOM     56  H   UNL A   1      41.975  29.882  32.897  1.00  0.00     0.167 HD
ATOM     57  C   UNL A   1      38.434  31.641  31.052  1.00  0.00     0.031 A 
ATOM     58  C   UNL A   1      43.762  29.455  34.999  1.00  0.00     0.031 A 
ATOM     59  C   UNL A   1      38.448  32.166  32.392  1.00  0.00     0.049 A 
ATOM     60  C   UNL A   1      42.758  30.455  35.506  1.00  0.00     0.074 A 
ATOM     61  C   UNL A   1      37.537  33.017  32.995  1.00  0.00     0.029 A 
ATOM     62  N   UNL A   1      39.426  31.895  33.334  1.00  0.00    -0.354 N 
ATOM     63  N   UNL A   1      41.697  30.940  34.908  1.00  0.00    -0.248 NA
ATOM     64  C   UNL A   1      42.965  30.967  36.869  1.00  0.00     0.031 C 
ATOM     65  C   UNL A   1      37.996  33.306  34.283  1.00  0.00     0.029 A 
ATOM     66  C   UNL A   1      39.160  32.586  34.504  1.00  0.00     0.049 A 
ATOM     67  H   UNL A   1      40.198  31.300  33.193  1.00  0.00     0.167 HD
ATOM     68  C   UNL A   1      41.096  31.790  35.828  1.00  0.00     0.074 A 
ATOM     69  C   UNL A   1      41.903  31.745  37.030  1.00  0.00     0.031 C 
ATOM     70  C   UNL A   1      39.973  32.536  35.691  1.00  0.00     0.031 A 
BRANCH  57  71
ATOM     71  C   UNL A   1      37.334  32.079  30.126  1.00  0.00    -0.014 A 
ATOM     72  C   UNL A   1      36.078  31.450  30.133  1.00  0.00     0.009 A 
ATOM     73  C   UNL A   1      37.551  33.153  29.247  1.00  0.00     0.009 A 
ATOM     74  C   UNL A   1      35.075  31.865  29.253  1.00  0.00     0.001 A 
ATOM     75  C   UNL A   1      36.537  33.583  28.389  1.00  0.00     0.001 A 
ATOM     76  C   UNL A   1      35.304  32.933  28.386  1.00  0.00     0.000 A 
ENDBRANCH  57  71
BRANCH  58  77
ATOM     77  C   UNL A   1      44.886  29.009  35.863  1.00  0.00    -0.014 A 
ATOM     78  C   UNL A   1      46.114  29.687  35.849  1.00  0.00     0.009 A 
ATOM     79  C   UNL A   1      44.736  27.890  36.699  1.00  0.00     0.009 A 
ATOM     80  C   UNL A   1      47.176  29.242  36.639  1.00  0.00     0.001 A 
ATOM     81  C   UNL A   1      45.792  27.464  37.508  1.00  0.00     0.001 A 
ATOM     82  C   UNL A   1      47.013  28.134  37.471  1.00  0.00     0.000 A 
ENDBRANCH  58  77
BRANCH  70  83
ATOM     83  C   UNL A   1      39.529  33.342  36.882  1.00  0.00    -0.014 A 
ATOM     84  C   UNL A   1      39.947  34.668  37.063  1.00  0.00     0.009 A 
ATOM     85  C   UNL A   1      38.644  32.773  37.812  1.00  0.00     0.009 A 
ATOM     86  C   UNL A   1      39.512  35.400  38.171  1.00  0.00     0.001 A 
ATOM     87  C   UNL A   1      38.188  33.516  38.902  1.00  0.00     0.001 A 
ATOM     88  C   UNL A   1      38.629  34.825  39.086  1.00  0.00     0.000 A 
ENDBRANCH  70  83
ENDBRANCH  44  45
ENDBRANCH  37  39
ENDBRANCH  36  37
ENDBRANCH  35  36
ENDBRANCH  34  35
ENDBRANCH  33  34
ENDBRANCH  32  33
ENDBRANCH  31  32
ENDBRANCH  30  31
ENDBRANCH   1  30
TORSDOF 24
ENDMDL
