MODEL 1
REMARK VINA RESULT:      -9.5      0.000      0.000
REMARK SMILES C=CCCC[C@@]1(C(=O)OCCOCCOC(=O)c2ccc(-c3c4nc(c(-c5ccccc5)c5ccc([nH]5)c(-c5ccccc5)c5nc(c(-c6ccccc6)c6ccc3[nH]6)C=C5)C=C4)cc2)CCCN(C(=O)OC(C)(C)C)C1
REMARK SMILES IDX 11 1 10 2 9 3 7 4 8 5 6 6 66 7 77 8 67 9 69 10 68 11 5 12
REMARK SMILES IDX 4 13 3 14 2 15 1 16 70 17 71 18 72 19 73 20 74 21 75 22
REMARK SMILES IDX 76 23 12 24 13 25 14 26 15 27 16 28 17 29 18 30 19 31 65 32
REMARK SMILES IDX 20 33 64 34 21 35 22 36 23 37 58 38 24 39 63 40 57 41 59 42
REMARK SMILES IDX 25 43 62 44 56 45 55 46 26 48 48 49 33 50 47 51 34 52 37 53
REMARK SMILES IDX 46 54 60 55 35 56 36 57 45 59 61 60 38 61 27 62 28 63 32 64
REMARK SMILES IDX 29 65 31 66 30 67 49 68 50 69 54 70 51 71 53 72 52 73 39 74
REMARK SMILES IDX 40 75 44 76 41 77 43 78 42 79
REMARK H PARENT 59 47 37 58
REMARK Flexibility Score: inf
ROOT
ATOM      1  C   UNL A   1      37.547  23.567  25.686  1.00  0.00     0.202 C 
ENDROOT
BRANCH   1   2
ATOM      2  C   UNL A   1      36.118  24.107  25.536  1.00  0.00     0.261 C 
BRANCH   2   3
ATOM      3  O   UNL A   1      35.088  23.099  25.570  1.00  0.00    -0.463 OA
BRANCH   3   4
ATOM      4  C   UNL A   1      34.530  22.849  24.353  1.00  0.00     0.313 C 
ATOM      5  O   UNL A   1      34.839  23.457  23.339  1.00  0.00    -0.252 OA
BRANCH   4   6
ATOM      6  C   UNL A   1      33.433  21.791  24.410  1.00  0.00     0.086 C 
ATOM      7  C   UNL A   1      32.571  21.752  23.116  1.00  0.00     0.022 C 
ATOM      8  C   UNL A   1      32.464  22.120  25.556  1.00  0.00     0.141 C 
ATOM      9  C   UNL A   1      31.669  22.982  22.900  1.00  0.00     0.023 C 
ATOM     10  N   UNL A   1      31.790  23.393  25.357  1.00  0.00    -0.307 N 
ATOM     11  C   UNL A   1      30.978  23.523  24.158  1.00  0.00     0.123 C 
BRANCH   6  12
ATOM     12  C   UNL A   1      34.078  20.397  24.680  1.00  0.00     0.021 C 
BRANCH  12  13
ATOM     13  C   UNL A   1      33.187  19.145  24.863  1.00  0.00     0.005 C 
BRANCH  13  14
ATOM     14  C   UNL A   1      32.455  18.495  23.679  1.00  0.00     0.027 C 
BRANCH  14  15
ATOM     15  C   UNL A   1      33.144  17.362  22.980  1.00  0.00    -0.035 C 
ATOM     16  C   UNL A   1      34.101  16.649  23.590  1.00  0.00     0.004 C 
ENDBRANCH  14  15
ENDBRANCH  13  14
ENDBRANCH  12  13
ENDBRANCH   6  12
BRANCH  10  17
ATOM     17  C   UNL A   1      31.881  24.320  26.387  1.00  0.00     0.410 C 
ATOM     18  O   UNL A   1      31.088  24.344  27.321  1.00  0.00    -0.224 OA
BRANCH  17  19
ATOM     19  O   UNL A   1      32.926  25.184  26.268  1.00  0.00    -0.444 OA
BRANCH  19  20
ATOM     20  C   UNL A   1      32.685  26.458  25.601  1.00  0.00     0.106 C 
ATOM     21  C   UNL A   1      33.191  26.455  24.150  1.00  0.00     0.056 C 
ATOM     22  C   UNL A   1      31.203  26.861  25.688  1.00  0.00     0.056 C 
ATOM     23  C   UNL A   1      33.505  27.496  26.382  1.00  0.00     0.056 C 
ENDBRANCH  19  20
ENDBRANCH  17  19
ENDBRANCH  10  17
ENDBRANCH   4   6
ENDBRANCH   3   4
ENDBRANCH   2   3
ENDBRANCH   1   2
BRANCH   1  24
ATOM     24  O   UNL A   1      37.697  22.198  26.072  1.00  0.00    -0.374 OA
BRANCH  24  25
ATOM     25  C   UNL A   1      37.908  21.287  24.992  1.00  0.00     0.202 C 
BRANCH  25  26
ATOM     26  C   UNL A   1      38.854  20.131  25.303  1.00  0.00     0.261 C 
BRANCH  26  27
ATOM     27  O   UNL A   1      39.737  20.522  26.362  1.00  0.00    -0.460 OA
BRANCH  27  28
ATOM     28  C   UNL A   1      41.007  20.088  26.195  1.00  0.00     0.338 C 
ATOM     29  O   UNL A   1      41.372  19.035  25.699  1.00  0.00    -0.246 OA
BRANCH  28  30
ATOM     30  C   UNL A   1      41.942  21.171  26.550  1.00  0.00     0.060 A 
ATOM     31  C   UNL A   1      42.116  21.437  27.915  1.00  0.00     0.016 A 
ATOM     32  C   UNL A   1      42.616  21.924  25.584  1.00  0.00     0.016 A 
ATOM     33  C   UNL A   1      42.874  22.527  28.318  1.00  0.00     0.010 A 
ATOM     34  C   UNL A   1      43.377  23.019  25.988  1.00  0.00     0.010 A 
ATOM     35  C   UNL A   1      43.445  23.359  27.349  1.00  0.00    -0.014 A 
BRANCH  35  36
ATOM     36  C   UNL A   1      43.870  24.719  27.741  1.00  0.00     0.031 A 
ATOM     37  C   UNL A   1      42.794  25.717  28.072  1.00  0.00     0.074 A 
ATOM     38  C   UNL A   1      45.169  25.037  27.844  1.00  0.00     0.049 A 
ATOM     39  N   UNL A   1      42.901  26.978  28.397  1.00  0.00    -0.248 NA
ATOM     40  C   UNL A   1      41.403  25.225  28.021  1.00  0.00     0.031 C 
ATOM     41  C   UNL A   1      46.288  24.125  27.608  1.00  0.00     0.029 A 
ATOM     42  N   UNL A   1      45.763  26.225  28.177  1.00  0.00    -0.354 N 
ATOM     43  C   UNL A   1      41.599  27.429  28.575  1.00  0.00     0.074 A 
ATOM     44  C   UNL A   1      40.716  26.323  28.288  1.00  0.00     0.031 C 
ATOM     45  C   UNL A   1      47.438  24.793  27.798  1.00  0.00     0.029 A 
ATOM     46  C   UNL A   1      47.133  26.182  28.132  1.00  0.00     0.049 A 
ATOM     47  H   UNL A   1      45.256  27.032  28.424  1.00  0.00     0.167 HD
ATOM     48  C   UNL A   1      41.177  28.658  28.952  1.00  0.00     0.031 A 
ATOM     49  C   UNL A   1      48.033  27.166  28.320  1.00  0.00     0.031 A 
ATOM     50  C   UNL A   1      42.066  29.752  29.227  1.00  0.00     0.049 A 
ATOM     51  C   UNL A   1      47.536  28.546  28.662  1.00  0.00     0.074 A 
ATOM     52  C   UNL A   1      41.755  31.041  29.618  1.00  0.00     0.029 A 
ATOM     53  N   UNL A   1      43.448  29.679  29.135  1.00  0.00    -0.354 N 
ATOM     54  N   UNL A   1      46.305  28.965  28.834  1.00  0.00    -0.248 NA
ATOM     55  C   UNL A   1      48.556  29.588  28.845  1.00  0.00     0.031 C 
ATOM     56  C   UNL A   1      42.948  31.764  29.709  1.00  0.00     0.029 A 
ATOM     57  C   UNL A   1      44.005  30.907  29.441  1.00  0.00     0.049 A 
ATOM     58  H   UNL A   1      43.958  28.873  28.889  1.00  0.00     0.167 HD
ATOM     59  C   UNL A   1      46.402  30.305  29.180  1.00  0.00     0.074 A 
ATOM     60  C   UNL A   1      47.816  30.628  29.202  1.00  0.00     0.031 C 
ATOM     61  C   UNL A   1      45.416  31.194  29.461  1.00  0.00     0.031 A 
BRANCH  48  62
ATOM     62  C   UNL A   1      39.693  28.884  29.045  1.00  0.00    -0.014 A 
ATOM     63  C   UNL A   1      38.952  29.351  27.947  1.00  0.00     0.009 A 
ATOM     64  C   UNL A   1      39.023  28.612  30.248  1.00  0.00     0.009 A 
ATOM     65  C   UNL A   1      37.578  29.573  28.064  1.00  0.00     0.001 A 
ATOM     66  C   UNL A   1      37.645  28.807  30.353  1.00  0.00     0.001 A 
ATOM     67  C   UNL A   1      36.925  29.296  29.265  1.00  0.00     0.000 A 
ENDBRANCH  48  62
BRANCH  49  68
ATOM     68  C   UNL A   1      49.486  26.887  28.175  1.00  0.00    -0.014 A 
ATOM     69  C   UNL A   1      50.259  26.514  29.283  1.00  0.00     0.009 A 
ATOM     70  C   UNL A   1      50.109  27.002  26.922  1.00  0.00     0.009 A 
ATOM     71  C   UNL A   1      51.631  26.287  29.145  1.00  0.00     0.001 A 
ATOM     72  C   UNL A   1      51.474  26.744  26.781  1.00  0.00     0.001 A 
ATOM     73  C   UNL A   1      52.235  26.397  27.895  1.00  0.00     0.000 A 
ENDBRANCH  49  68
BRANCH  61  74
ATOM     74  C   UNL A   1      45.833  32.579  29.866  1.00  0.00    -0.014 A 
ATOM     75  C   UNL A   1      46.108  32.900  31.204  1.00  0.00     0.009 A 
ATOM     76  C   UNL A   1      46.007  33.561  28.878  1.00  0.00     0.009 A 
ATOM     77  C   UNL A   1      46.517  34.190  31.546  1.00  0.00     0.001 A 
ATOM     78  C   UNL A   1      46.446  34.840  29.220  1.00  0.00     0.001 A 
ATOM     79  C   UNL A   1      46.691  35.156  30.555  1.00  0.00     0.000 A 
ENDBRANCH  61  74
ENDBRANCH  35  36
ENDBRANCH  28  30
ENDBRANCH  27  28
ENDBRANCH  26  27
ENDBRANCH  25  26
ENDBRANCH  24  25
ENDBRANCH   1  24
TORSDOF 21
ENDMDL
MODEL 2
REMARK VINA RESULT:      -9.5      0.661      5.893
REMARK SMILES C=CCCC[C@@]1(C(=O)OCCOCCOC(=O)c2ccc(-c3c4nc(c(-c5ccccc5)c5ccc([nH]5)c(-c5ccccc5)c5nc(c(-c6ccccc6)c6ccc3[nH]6)C=C5)C=C4)cc2)CCCN(C(=O)OC(C)(C)C)C1
REMARK SMILES IDX 11 1 10 2 9 3 7 4 8 5 6 6 66 7 77 8 67 9 69 10 68 11 5 12
REMARK SMILES IDX 4 13 3 14 2 15 1 16 70 17 71 18 72 19 73 20 74 21 75 22
REMARK SMILES IDX 76 23 12 24 13 25 14 26 15 27 16 28 17 29 18 30 19 31 65 32
REMARK SMILES IDX 20 33 64 34 21 35 22 36 23 37 58 38 24 39 63 40 57 41 59 42
REMARK SMILES IDX 25 43 62 44 56 45 55 46 26 48 48 49 33 50 47 51 34 52 37 53
REMARK SMILES IDX 46 54 60 55 35 56 36 57 45 59 61 60 38 61 27 62 28 63 32 64
REMARK SMILES IDX 29 65 31 66 30 67 49 68 50 69 54 70 51 71 53 72 52 73 39 74
REMARK SMILES IDX 40 75 44 76 41 77 43 78 42 79
REMARK H PARENT 59 47 37 58
REMARK Flexibility Score: inf
ROOT
ATOM      1  C   UNL A   1      37.300  23.415  25.658  1.00  0.00     0.202 C 
ENDROOT
BRANCH   1   2
ATOM      2  C   UNL A   1      35.778  23.615  25.627  1.00  0.00     0.261 C 
BRANCH   2   3
ATOM      3  O   UNL A   1      35.015  22.401  25.486  1.00  0.00    -0.463 OA
BRANCH   3   4
ATOM      4  C   UNL A   1      34.383  22.291  24.284  1.00  0.00     0.313 C 
ATOM      5  O   UNL A   1      34.741  22.895  23.283  1.00  0.00    -0.252 OA
BRANCH   4   6
ATOM      6  C   UNL A   1      33.146  21.401  24.344  1.00  0.00     0.086 C 
ATOM      7  C   UNL A   1      32.312  21.447  23.032  1.00  0.00     0.022 C 
ATOM      8  C   UNL A   1      32.211  21.899  25.457  1.00  0.00     0.141 C 
ATOM      9  C   UNL A   1      31.598  22.784  22.762  1.00  0.00     0.023 C 
ATOM     10  N   UNL A   1      31.730  23.247  25.209  1.00  0.00    -0.307 N 
ATOM     11  C   UNL A   1      30.968  23.455  23.988  1.00  0.00     0.123 C 
BRANCH   6  12
ATOM     12  C   UNL A   1      33.581  19.939  24.667  1.00  0.00     0.021 C 
BRANCH  12  13
ATOM     13  C   UNL A   1      32.656  18.751  24.310  1.00  0.00     0.005 C 
BRANCH  13  14
ATOM     14  C   UNL A   1      32.950  17.828  23.118  1.00  0.00     0.027 C 
BRANCH  14  15
ATOM     15  C   UNL A   1      33.920  16.707  23.336  1.00  0.00    -0.035 C 
ATOM     16  C   UNL A   1      34.583  16.578  24.494  1.00  0.00     0.004 C 
ENDBRANCH  14  15
ENDBRANCH  13  14
ENDBRANCH  12  13
ENDBRANCH   6  12
BRANCH  10  17
ATOM     17  C   UNL A   1      31.932  24.183  26.215  1.00  0.00     0.410 C 
ATOM     18  O   UNL A   1      31.443  24.062  27.332  1.00  0.00    -0.224 OA
BRANCH  17  19
ATOM     19  O   UNL A   1      32.722  25.230  25.851  1.00  0.00    -0.444 OA
BRANCH  19  20
ATOM     20  C   UNL A   1      32.103  26.546  25.745  1.00  0.00     0.106 C 
ATOM     21  C   UNL A   1      32.506  27.469  26.906  1.00  0.00     0.056 C 
ATOM     22  C   UNL A   1      32.393  27.190  24.378  1.00  0.00     0.056 C 
ATOM     23  C   UNL A   1      30.590  26.302  25.842  1.00  0.00     0.056 C 
ENDBRANCH  19  20
ENDBRANCH  17  19
ENDBRANCH  10  17
ENDBRANCH   4   6
ENDBRANCH   3   4
ENDBRANCH   2   3
ENDBRANCH   1   2
BRANCH   1  24
ATOM     24  O   UNL A   1      37.810  22.171  25.172  1.00  0.00    -0.374 OA
BRANCH  24  25
ATOM     25  C   UNL A   1      38.932  21.656  25.892  1.00  0.00     0.202 C 
BRANCH  25  26
ATOM     26  C   UNL A   1      39.367  20.252  25.484  1.00  0.00     0.261 C 
BRANCH  26  27
ATOM     27  O   UNL A   1      40.146  19.678  26.542  1.00  0.00    -0.460 OA
BRANCH  27  28
ATOM     28  C   UNL A   1      41.439  19.465  26.207  1.00  0.00     0.338 C 
ATOM     29  O   UNL A   1      41.902  18.510  25.606  1.00  0.00    -0.246 OA
BRANCH  28  30
ATOM     30  C   UNL A   1      42.228  20.668  26.528  1.00  0.00     0.060 A 
ATOM     31  C   UNL A   1      42.264  21.065  27.871  1.00  0.00     0.016 A 
ATOM     32  C   UNL A   1      42.899  21.406  25.547  1.00  0.00     0.016 A 
ATOM     33  C   UNL A   1      42.874  22.260  28.226  1.00  0.00     0.010 A 
ATOM     34  C   UNL A   1      43.511  22.606  25.902  1.00  0.00     0.010 A 
ATOM     35  C   UNL A   1      43.435  23.065  27.228  1.00  0.00    -0.014 A 
BRANCH  35  36
ATOM     36  C   UNL A   1      43.687  24.490  27.522  1.00  0.00     0.031 A 
ATOM     37  C   UNL A   1      45.104  24.984  27.419  1.00  0.00     0.074 A 
ATOM     38  C   UNL A   1      42.680  25.324  27.825  1.00  0.00     0.049 A 
ATOM     39  N   UNL A   1      45.592  26.170  27.668  1.00  0.00    -0.248 NA
ATOM     40  C   UNL A   1      46.112  23.999  26.980  1.00  0.00     0.031 C 
ATOM     41  C   UNL A   1      41.265  24.959  27.888  1.00  0.00     0.029 A 
ATOM     42  N   UNL A   1      42.702  26.657  28.136  1.00  0.00    -0.354 N 
ATOM     43  C   UNL A   1      46.957  26.070  27.430  1.00  0.00     0.074 A 
ATOM     44  C   UNL A   1      47.230  24.702  27.053  1.00  0.00     0.031 C 
ATOM     45  C   UNL A   1      40.553  26.047  28.227  1.00  0.00     0.029 A 
ATOM     46  C   UNL A   1      41.465  27.168  28.438  1.00  0.00     0.049 A 
ATOM     47  H   UNL A   1      43.526  27.196  28.145  1.00  0.00     0.167 HD
ATOM     48  C   UNL A   1      47.900  27.036  27.513  1.00  0.00     0.031 A 
ATOM     49  C   UNL A   1      41.121  28.400  28.856  1.00  0.00     0.031 A 
ATOM     50  C   UNL A   1      47.616  28.391  27.897  1.00  0.00     0.049 A 
ATOM     51  C   UNL A   1      42.199  29.440  29.016  1.00  0.00     0.074 A 
ATOM     52  C   UNL A   1      48.489  29.457  28.014  1.00  0.00     0.029 A 
ATOM     53  N   UNL A   1      46.354  28.861  28.229  1.00  0.00    -0.354 N 
ATOM     54  N   UNL A   1      43.487  29.340  28.785  1.00  0.00    -0.248 NA
ATOM     55  C   UNL A   1      41.774  30.765  29.487  1.00  0.00     0.031 C 
ATOM     56  C   UNL A   1      47.762  30.560  28.472  1.00  0.00     0.029 A 
ATOM     57  C   UNL A   1      46.427  30.199  28.574  1.00  0.00     0.049 A 
ATOM     58  H   UNL A   1      45.529  28.324  28.222  1.00  0.00     0.167 HD
ATOM     59  C   UNL A   1      44.019  30.595  29.046  1.00  0.00     0.074 A 
ATOM     60  C   UNL A   1      42.913  31.441  29.446  1.00  0.00     0.031 C 
ATOM     61  C   UNL A   1      45.306  31.016  28.960  1.00  0.00     0.031 A 
BRANCH  48  62
ATOM     62  C   UNL A   1      49.322  26.645  27.221  1.00  0.00    -0.014 A 
ATOM     63  C   UNL A   1      49.867  26.769  25.933  1.00  0.00     0.009 A 
ATOM     64  C   UNL A   1      50.135  26.158  28.256  1.00  0.00     0.009 A 
ATOM     65  C   UNL A   1      51.185  26.379  25.681  1.00  0.00     0.001 A 
ATOM     66  C   UNL A   1      51.461  25.798  28.009  1.00  0.00     0.001 A 
ATOM     67  C   UNL A   1      51.983  25.899  26.720  1.00  0.00     0.000 A 
ENDBRANCH  48  62
BRANCH  49  68
ATOM     68  C   UNL A   1      39.701  28.714  29.166  1.00  0.00    -0.014 A 
ATOM     69  C   UNL A   1      39.181  28.491  30.449  1.00  0.00     0.009 A 
ATOM     70  C   UNL A   1      38.855  29.233  28.173  1.00  0.00     0.009 A 
ATOM     71  C   UNL A   1      37.837  28.756  30.724  1.00  0.00     0.001 A 
ATOM     72  C   UNL A   1      37.519  29.526  28.459  1.00  0.00     0.001 A 
ATOM     73  C   UNL A   1      37.010  29.278  29.731  1.00  0.00     0.000 A 
ENDBRANCH  49  68
BRANCH  61  74
ATOM     74  C   UNL A   1      45.576  32.464  29.252  1.00  0.00    -0.014 A 
ATOM     75  C   UNL A   1      45.492  33.442  28.250  1.00  0.00     0.009 A 
ATOM     76  C   UNL A   1      45.866  32.858  30.569  1.00  0.00     0.009 A 
ATOM     77  C   UNL A   1      45.725  34.784  28.557  1.00  0.00     0.001 A 
ATOM     78  C   UNL A   1      46.067  34.203  30.877  1.00  0.00     0.001 A 
ATOM     79  C   UNL A   1      46.006  35.164  29.869  1.00  0.00     0.000 A 
ENDBRANCH  61  74
ENDBRANCH  35  36
ENDBRANCH  28  30
ENDBRANCH  27  28
ENDBRANCH  26  27
ENDBRANCH  25  26
ENDBRANCH  24  25
ENDBRANCH   1  24
TORSDOF 21
ENDMDL
MODEL 3
REMARK VINA RESULT:      -9.4      2.481      7.076
REMARK SMILES C=CCCC[C@@]1(C(=O)OCCOCCOC(=O)c2ccc(-c3c4nc(c(-c5ccccc5)c5ccc([nH]5)c(-c5ccccc5)c5nc(c(-c6ccccc6)c6ccc3[nH]6)C=C5)C=C4)cc2)CCCN(C(=O)OC(C)(C)C)C1
REMARK SMILES IDX 11 1 10 2 9 3 7 4 8 5 6 6 66 7 77 8 67 9 69 10 68 11 5 12
REMARK SMILES IDX 4 13 3 14 2 15 1 16 70 17 71 18 72 19 73 20 74 21 75 22
REMARK SMILES IDX 76 23 12 24 13 25 14 26 15 27 16 28 17 29 18 30 19 31 65 32
REMARK SMILES IDX 20 33 64 34 21 35 22 36 23 37 58 38 24 39 63 40 57 41 59 42
REMARK SMILES IDX 25 43 62 44 56 45 55 46 26 48 48 49 33 50 47 51 34 52 37 53
REMARK SMILES IDX 46 54 60 55 35 56 36 57 45 59 61 60 38 61 27 62 28 63 32 64
REMARK SMILES IDX 29 65 31 66 30 67 49 68 50 69 54 70 51 71 53 72 52 73 39 74
REMARK SMILES IDX 40 75 44 76 41 77 43 78 42 79
REMARK H PARENT 59 47 37 58
REMARK Flexibility Score: inf
ROOT
ATOM      1  C   UNL A   1      34.441  22.266  24.600  1.00  0.00     0.202 C 
ENDROOT
BRANCH   1   2
ATOM      2  C   UNL A   1      33.884  23.373  23.694  1.00  0.00     0.261 C 
BRANCH   2   3
ATOM      3  O   UNL A   1      32.879  24.203  24.309  1.00  0.00    -0.463 OA
BRANCH   3   4
ATOM      4  C   UNL A   1      33.110  25.538  24.162  1.00  0.00     0.313 C 
ATOM      5  O   UNL A   1      33.709  26.011  23.207  1.00  0.00    -0.252 OA
BRANCH   4   6
ATOM      6  C   UNL A   1      32.613  26.360  25.347  1.00  0.00     0.086 C 
ATOM      7  C   UNL A   1      31.780  25.516  26.353  1.00  0.00     0.022 C 
ATOM      8  C   UNL A   1      31.675  27.468  24.844  1.00  0.00     0.141 C 
ATOM      9  C   UNL A   1      30.409  25.049  25.830  1.00  0.00     0.023 C 
ATOM     10  N   UNL A   1      30.490  26.931  24.196  1.00  0.00    -0.307 N 
ATOM     11  C   UNL A   1      29.631  26.081  25.004  1.00  0.00     0.123 C 
BRANCH   6  12
ATOM     12  C   UNL A   1      33.833  27.018  26.061  1.00  0.00     0.021 C 
BRANCH  12  13
ATOM     13  C   UNL A   1      34.046  28.550  25.993  1.00  0.00     0.005 C 
BRANCH  13  14
ATOM     14  C   UNL A   1      34.031  29.424  27.255  1.00  0.00     0.027 C 
BRANCH  14  15
ATOM     15  C   UNL A   1      35.315  29.560  28.017  1.00  0.00    -0.035 C 
ATOM     16  C   UNL A   1      36.449  29.929  27.405  1.00  0.00     0.004 C 
ENDBRANCH  14  15
ENDBRANCH  13  14
ENDBRANCH  12  13
ENDBRANCH   6  12
BRANCH  10  17
ATOM     17  C   UNL A   1      30.219  27.379  22.909  1.00  0.00     0.410 C 
ATOM     18  O   UNL A   1      30.889  27.038  21.941  1.00  0.00    -0.224 OA
BRANCH  17  19
ATOM     19  O   UNL A   1      29.148  28.214  22.824  1.00  0.00    -0.444 OA
BRANCH  19  20
ATOM     20  C   UNL A   1      29.395  29.606  22.465  1.00  0.00     0.106 C 
ATOM     21  C   UNL A   1      30.788  29.803  21.845  1.00  0.00     0.056 C 
ATOM     22  C   UNL A   1      28.283  30.153  21.555  1.00  0.00     0.056 C 
ATOM     23  C   UNL A   1      29.354  30.389  23.786  1.00  0.00     0.056 C 
ENDBRANCH  19  20
ENDBRANCH  17  19
ENDBRANCH  10  17
ENDBRANCH   4   6
ENDBRANCH   3   4
ENDBRANCH   2   3
ENDBRANCH   1   2
BRANCH   1  24
ATOM     24  O   UNL A   1      35.747  21.765  24.301  1.00  0.00    -0.374 OA
BRANCH  24  25
ATOM     25  C   UNL A   1      36.111  20.574  24.999  1.00  0.00     0.202 C 
BRANCH  25  26
ATOM     26  C   UNL A   1      37.604  20.257  24.994  1.00  0.00     0.261 C 
BRANCH  26  27
ATOM     27  O   UNL A   1      38.337  21.454  25.285  1.00  0.00    -0.460 OA
BRANCH  27  28
ATOM     28  C   UNL A   1      39.415  21.250  26.074  1.00  0.00     0.338 C 
ATOM     29  O   UNL A   1      40.132  20.263  26.110  1.00  0.00    -0.246 OA
BRANCH  28  30
ATOM     30  C   UNL A   1      39.728  22.493  26.801  1.00  0.00     0.060 A 
ATOM     31  C   UNL A   1      38.935  23.612  26.516  1.00  0.00     0.016 A 
ATOM     32  C   UNL A   1      40.778  22.578  27.720  1.00  0.00     0.016 A 
ATOM     33  C   UNL A   1      39.257  24.848  27.060  1.00  0.00     0.010 A 
ATOM     34  C   UNL A   1      41.103  23.818  28.267  1.00  0.00     0.010 A 
ATOM     35  C   UNL A   1      40.385  24.962  27.879  1.00  0.00    -0.014 A 
BRANCH  35  36
ATOM     36  C   UNL A   1      40.971  26.300  28.101  1.00  0.00     0.031 A 
ATOM     37  C   UNL A   1      42.319  26.580  27.494  1.00  0.00     0.074 A 
ATOM     38  C   UNL A   1      40.303  27.246  28.778  1.00  0.00     0.049 A 
ATOM     39  N   UNL A   1      43.062  27.651  27.579  1.00  0.00    -0.248 NA
ATOM     40  C   UNL A   1      42.913  25.498  26.686  1.00  0.00     0.031 C 
ATOM     41  C   UNL A   1      38.965  27.095  29.350  1.00  0.00     0.029 A 
ATOM     42  N   UNL A   1      40.667  28.527  29.097  1.00  0.00    -0.354 N 
ATOM     43  C   UNL A   1      44.211  27.367  26.851  1.00  0.00     0.074 A 
ATOM     44  C   UNL A   1      44.087  26.014  26.360  1.00  0.00     0.031 C 
ATOM     45  C   UNL A   1      38.624  28.243  29.959  1.00  0.00     0.029 A 
ATOM     46  C   UNL A   1      39.731  29.190  29.849  1.00  0.00     0.049 A 
ATOM     47  H   UNL A   1      41.519  28.931  28.815  1.00  0.00     0.167 HD
ATOM     48  C   UNL A   1      45.273  28.168  26.606  1.00  0.00     0.031 A 
ATOM     49  C   UNL A   1      39.781  30.417  30.400  1.00  0.00     0.031 A 
ATOM     50  C   UNL A   1      45.388  29.509  27.106  1.00  0.00     0.049 A 
ATOM     51  C   UNL A   1      41.008  31.262  30.179  1.00  0.00     0.074 A 
ATOM     52  C   UNL A   1      46.416  30.415  26.923  1.00  0.00     0.029 A 
ATOM     53  N   UNL A   1      44.433  30.133  27.895  1.00  0.00    -0.354 N 
ATOM     54  N   UNL A   1      42.088  30.989  29.485  1.00  0.00    -0.248 NA
ATOM     55  C   UNL A   1      41.019  32.587  30.812  1.00  0.00     0.031 C 
ATOM     56  C   UNL A   1      46.107  31.570  27.648  1.00  0.00     0.029 A 
ATOM     57  C   UNL A   1      44.857  31.407  28.227  1.00  0.00     0.049 A 
ATOM     58  H   UNL A   1      43.580  29.731  28.178  1.00  0.00     0.167 HD
ATOM     59  C   UNL A   1      42.889  32.119  29.567  1.00  0.00     0.074 A 
ATOM     60  C   UNL A   1      42.166  33.085  30.371  1.00  0.00     0.031 C 
ATOM     61  C   UNL A   1      44.111  32.347  29.023  1.00  0.00     0.031 A 
BRANCH  48  62
ATOM     62  C   UNL A   1      46.404  27.593  25.798  1.00  0.00    -0.014 A 
ATOM     63  C   UNL A   1      47.401  26.801  26.391  1.00  0.00     0.009 A 
ATOM     64  C   UNL A   1      46.465  27.837  24.417  1.00  0.00     0.009 A 
ATOM     65  C   UNL A   1      48.453  26.296  25.623  1.00  0.00     0.001 A 
ATOM     66  C   UNL A   1      47.501  27.305  23.647  1.00  0.00     0.001 A 
ATOM     67  C   UNL A   1      48.499  26.543  24.251  1.00  0.00     0.000 A 
ENDBRANCH  48  62
BRANCH  49  68
ATOM     68  C   UNL A   1      38.646  30.913  31.222  1.00  0.00    -0.014 A 
ATOM     69  C   UNL A   1      38.586  30.646  32.597  1.00  0.00     0.009 A 
ATOM     70  C   UNL A   1      37.609  31.651  30.630  1.00  0.00     0.009 A 
ATOM     71  C   UNL A   1      37.499  31.086  33.357  1.00  0.00     0.001 A 
ATOM     72  C   UNL A   1      36.539  32.117  31.397  1.00  0.00     0.001 A 
ATOM     73  C   UNL A   1      36.480  31.825  32.758  1.00  0.00     0.000 A 
ENDBRANCH  49  68
BRANCH  61  74
ATOM     74  C   UNL A   1      44.716  33.704  29.236  1.00  0.00    -0.014 A 
ATOM     75  C   UNL A   1      44.455  34.769  28.360  1.00  0.00     0.009 A 
ATOM     76  C   UNL A   1      45.516  33.932  30.367  1.00  0.00     0.009 A 
ATOM     77  C   UNL A   1      45.013  36.027  28.597  1.00  0.00     0.001 A 
ATOM     78  C   UNL A   1      46.046  35.197  30.617  1.00  0.00     0.001 A 
ATOM     79  C   UNL A   1      45.801  36.241  29.727  1.00  0.00     0.000 A 
ENDBRANCH  61  74
ENDBRANCH  35  36
ENDBRANCH  28  30
ENDBRANCH  27  28
ENDBRANCH  26  27
ENDBRANCH  25  26
ENDBRANCH  24  25
ENDBRANCH   1  24
TORSDOF 21
ENDMDL
