MODEL 1
REMARK VINA RESULT:     -11.0      0.000      0.000
REMARK SMILES Cc1cc(OC(F)(F)F)cc2c1O[C@@H](C(F)(F)F)C(C(=O)OCCOCCOC(=O)c1ccc(-c3c4nc(c(-c5ccccc5)c5ccc([nH]5)c(-c5ccccc5)c5nc(c(-c6ccccc6)c6ccc3[nH]6)C=C5)C=C4)cc1)=C2
REMARK SMILES IDX 25 1 24 2 23 3 22 4 20 5 21 6 19 7 1 8 2 9 3 10 12 11 4 12
REMARK SMILES IDX 11 13 13 14 10 15 79 16 14 17 5 18 6 19 7 20 8 21 9 22 15 23
REMARK SMILES IDX 16 24 17 25 18 26 26 27 27 28 28 29 29 30 30 31 31 32 32 33
REMARK SMILES IDX 78 34 33 35 77 36 34 37 35 38 36 39 71 40 37 41 76 42 70 43
REMARK SMILES IDX 72 44 38 45 75 46 69 47 68 48 39 50 61 51 46 52 60 53 47 54
REMARK SMILES IDX 50 55 59 56 73 57 48 58 49 59 58 61 74 62 51 63 40 64 41 65
REMARK SMILES IDX 45 66 42 67 44 68 43 69 62 70 63 71 67 72 64 73 66 74 65 75
REMARK SMILES IDX 52 76 53 77 57 78 54 79 56 80 55 81
REMARK H PARENT 72 49 50 60
REMARK Flexibility Score: inf
ROOT
ATOM      1  O   UNL A   1      37.765  20.645  25.091  1.00  0.00    -0.374 OA
ENDROOT
BRANCH   1   2
ATOM      2  C   UNL A   1      36.396  20.252  25.019  1.00  0.00     0.202 C 
BRANCH   2   3
ATOM      3  C   UNL A   1      35.388  21.359  25.333  1.00  0.00     0.261 C 
BRANCH   3   4
ATOM      4  O   UNL A   1      36.003  22.650  25.177  1.00  0.00    -0.460 OA
BRANCH   4   5
ATOM      5  C   UNL A   1      35.631  23.328  24.072  1.00  0.00     0.338 C 
ATOM      6  O   UNL A   1      36.120  23.215  22.959  1.00  0.00    -0.246 OA
BRANCH   5   7
ATOM      7  C   UNL A   1      34.457  24.171  24.358  1.00  0.00     0.087 C 
ATOM      8  C   UNL A   1      29.783  25.760  25.779  1.00  0.00     0.048 C 
ATOM      9  C   UNL A   1      31.191  26.274  25.901  1.00  0.00    -0.005 A 
ATOM     10  C   UNL A   1      31.430  27.449  26.642  1.00  0.00     0.054 A 
ATOM     11  C   UNL A   1      32.276  25.567  25.366  1.00  0.00     0.131 A 
ATOM     12  C   UNL A   1      32.729  27.927  26.826  1.00  0.00     0.130 A 
ATOM     13  C   UNL A   1      33.576  26.045  25.553  1.00  0.00     0.021 A 
ATOM     14  O   UNL A   1      32.023  24.373  24.742  1.00  0.00    -0.475 OA
ATOM     15  C   UNL A   1      33.796  27.230  26.260  1.00  0.00     0.058 A 
ATOM     16  C   UNL A   1      34.706  25.245  25.119  1.00  0.00     0.027 C 
ATOM     17  C   UNL A   1      33.071  23.819  23.888  1.00  0.00     0.316 C 
BRANCH  12  18
ATOM     18  O   UNL A   1      33.098  29.034  27.534  1.00  0.00    -0.406 OA
BRANCH  18  19
ATOM     19  C   UNL A   1      32.858  30.301  26.947  1.00  0.00     0.573 C 
ATOM     20  F   UNL A   1      33.580  31.261  27.561  1.00  0.00    -0.132 F 
ATOM     21  F   UNL A   1      33.145  30.294  25.627  1.00  0.00    -0.132 F 
ATOM     22  F   UNL A   1      31.548  30.602  27.089  1.00  0.00    -0.132 F 
ENDBRANCH  18  19
ENDBRANCH  12  18
BRANCH  17  23
ATOM     23  C   UNL A   1      32.776  24.192  22.420  1.00  0.00     0.430 C 
ATOM     24  F   UNL A   1      31.467  24.501  22.244  1.00  0.00    -0.167 F 
ATOM     25  F   UNL A   1      33.497  25.260  22.005  1.00  0.00    -0.167 F 
ATOM     26  F   UNL A   1      33.038  23.173  21.570  1.00  0.00    -0.167 F 
ENDBRANCH  17  23
ENDBRANCH   5   7
ENDBRANCH   4   5
ENDBRANCH   3   4
ENDBRANCH   2   3
ENDBRANCH   1   2
BRANCH   1  27
ATOM     27  C   UNL A   1      38.738  19.598  25.009  1.00  0.00     0.202 C 
BRANCH  27  28
ATOM     28  C   UNL A   1      39.878  19.673  26.032  1.00  0.00     0.261 C 
BRANCH  28  29
ATOM     29  O   UNL A   1      41.002  18.876  25.610  1.00  0.00    -0.460 OA
BRANCH  29  30
ATOM     30  C   UNL A   1      42.209  19.301  26.045  1.00  0.00     0.338 C 
ATOM     31  O   UNL A   1      43.287  18.736  25.921  1.00  0.00    -0.246 OA
BRANCH  30  32
ATOM     32  C   UNL A   1      42.098  20.685  26.536  1.00  0.00     0.060 A 
ATOM     33  C   UNL A   1      42.265  21.716  25.602  1.00  0.00     0.016 A 
ATOM     34  C   UNL A   1      41.915  20.974  27.890  1.00  0.00     0.016 A 
ATOM     35  C   UNL A   1      42.302  23.040  26.025  1.00  0.00     0.010 A 
ATOM     36  C   UNL A   1      41.974  22.305  28.317  1.00  0.00     0.010 A 
ATOM     37  C   UNL A   1      42.207  23.337  27.391  1.00  0.00    -0.014 A 
BRANCH  37  38
ATOM     38  C   UNL A   1      42.542  24.703  27.852  1.00  0.00     0.031 A 
ATOM     39  C   UNL A   1      43.991  25.082  27.995  1.00  0.00     0.074 A 
ATOM     40  C   UNL A   1      41.581  25.614  28.083  1.00  0.00     0.049 A 
ATOM     41  N   UNL A   1      44.514  26.224  28.357  1.00  0.00    -0.248 NA
ATOM     42  C   UNL A   1      44.981  24.038  27.675  1.00  0.00     0.031 C 
ATOM     43  C   UNL A   1      40.146  25.389  27.921  1.00  0.00     0.029 A 
ATOM     44  N   UNL A   1      41.677  26.920  28.493  1.00  0.00    -0.354 N 
ATOM     45  C   UNL A   1      45.889  26.040  28.300  1.00  0.00     0.074 A 
ATOM     46  C   UNL A   1      46.124  24.672  27.894  1.00  0.00     0.031 C 
ATOM     47  C   UNL A   1      39.493  26.525  28.225  1.00  0.00     0.029 A 
ATOM     48  C   UNL A   1      40.462  27.545  28.625  1.00  0.00     0.049 A 
ATOM     49  H   UNL A   1      42.535  27.367  28.675  1.00  0.00     0.167 HD
ATOM     50  C   UNL A   1      46.871  26.934  28.554  1.00  0.00     0.031 A 
ATOM     51  C   UNL A   1      40.165  28.794  29.031  1.00  0.00     0.031 A 
ATOM     52  C   UNL A   1      46.646  28.290  28.971  1.00  0.00     0.049 A 
ATOM     53  C   UNL A   1      41.271  29.743  29.402  1.00  0.00     0.074 A 
ATOM     54  C   UNL A   1      47.585  29.266  29.254  1.00  0.00     0.029 A 
ATOM     55  N   UNL A   1      45.399  28.857  29.167  1.00  0.00    -0.354 N 
ATOM     56  N   UNL A   1      42.567  29.555  29.349  1.00  0.00    -0.248 NA
ATOM     57  C   UNL A   1      40.877  31.074  29.888  1.00  0.00     0.031 C 
ATOM     58  C   UNL A   1      46.904  30.415  29.663  1.00  0.00     0.029 A 
ATOM     59  C   UNL A   1      45.542  30.166  29.589  1.00  0.00     0.049 A 
ATOM     60  H   UNL A   1      44.539  28.398  29.026  1.00  0.00     0.167 HD
ATOM     61  C   UNL A   1      43.142  30.746  29.773  1.00  0.00     0.074 A 
ATOM     62  C   UNL A   1      42.056  31.653  30.081  1.00  0.00     0.031 C 
ATOM     63  C   UNL A   1      44.455  31.057  29.891  1.00  0.00     0.031 A 
BRANCH  50  64
ATOM     64  C   UNL A   1      48.290  26.475  28.403  1.00  0.00    -0.014 A 
ATOM     65  C   UNL A   1      48.960  25.854  29.466  1.00  0.00     0.009 A 
ATOM     66  C   UNL A   1      48.932  26.591  27.161  1.00  0.00     0.009 A 
ATOM     67  C   UNL A   1      50.254  25.361  29.289  1.00  0.00     0.001 A 
ATOM     68  C   UNL A   1      50.219  26.082  26.983  1.00  0.00     0.001 A 
ATOM     69  C   UNL A   1      50.879  25.468  28.047  1.00  0.00     0.000 A 
ENDBRANCH  50  64
BRANCH  51  70
ATOM     70  C   UNL A   1      38.744  29.218  29.103  1.00  0.00    -0.014 A 
ATOM     71  C   UNL A   1      38.104  29.755  27.977  1.00  0.00     0.009 A 
ATOM     72  C   UNL A   1      38.012  29.052  30.289  1.00  0.00     0.009 A 
ATOM     73  C   UNL A   1      36.758  30.121  28.038  1.00  0.00     0.001 A 
ATOM     74  C   UNL A   1      36.662  29.401  30.341  1.00  0.00     0.001 A 
ATOM     75  C   UNL A   1      36.036  29.937  29.217  1.00  0.00     0.000 A 
ENDBRANCH  51  70
BRANCH  63  76
ATOM     76  C   UNL A   1      44.817  32.437  30.356  1.00  0.00    -0.014 A 
ATOM     77  C   UNL A   1      45.187  32.673  31.688  1.00  0.00     0.009 A 
ATOM     78  C   UNL A   1      44.919  33.481  29.422  1.00  0.00     0.009 A 
ATOM     79  C   UNL A   1      45.652  33.931  32.075  1.00  0.00     0.001 A 
ATOM     80  C   UNL A   1      45.403  34.731  29.808  1.00  0.00     0.001 A 
ATOM     81  C   UNL A   1      45.769  34.955  31.135  1.00  0.00     0.000 A 
ENDBRANCH  63  76
ENDBRANCH  37  38
ENDBRANCH  30  32
ENDBRANCH  29  30
ENDBRANCH  28  29
ENDBRANCH  27  28
ENDBRANCH   1  27
TORSDOF 17
ENDMDL
MODEL 2
REMARK VINA RESULT:     -10.7      3.624      9.201
REMARK SMILES Cc1cc(OC(F)(F)F)cc2c1O[C@@H](C(F)(F)F)C(C(=O)OCCOCCOC(=O)c1ccc(-c3c4nc(c(-c5ccccc5)c5ccc([nH]5)c(-c5ccccc5)c5nc(c(-c6ccccc6)c6ccc3[nH]6)C=C5)C=C4)cc1)=C2
REMARK SMILES IDX 25 1 24 2 23 3 22 4 20 5 21 6 19 7 1 8 2 9 3 10 12 11 4 12
REMARK SMILES IDX 11 13 13 14 10 15 79 16 14 17 5 18 6 19 7 20 8 21 9 22 15 23
REMARK SMILES IDX 16 24 17 25 18 26 26 27 27 28 28 29 29 30 30 31 31 32 32 33
REMARK SMILES IDX 78 34 33 35 77 36 34 37 35 38 36 39 71 40 37 41 76 42 70 43
REMARK SMILES IDX 72 44 38 45 75 46 69 47 68 48 39 50 61 51 46 52 60 53 47 54
REMARK SMILES IDX 50 55 59 56 73 57 48 58 49 59 58 61 74 62 51 63 40 64 41 65
REMARK SMILES IDX 45 66 42 67 44 68 43 69 62 70 63 71 67 72 64 73 66 74 65 75
REMARK SMILES IDX 52 76 53 77 57 78 54 79 56 80 55 81
REMARK H PARENT 72 49 50 60
REMARK Flexibility Score: inf
ROOT
ATOM      1  O   UNL A   1      32.469  30.787  26.898  1.00  0.00    -0.374 OA
ENDROOT
BRANCH   1   2
ATOM      2  C   UNL A   1      32.060  29.423  26.974  1.00  0.00     0.202 C 
BRANCH   2   3
ATOM      3  C   UNL A   1      33.187  28.425  27.245  1.00  0.00     0.261 C 
BRANCH   3   4
ATOM      4  O   UNL A   1      34.114  28.410  26.145  1.00  0.00    -0.460 OA
BRANCH   4   5
ATOM      5  C   UNL A   1      33.565  28.146  24.942  1.00  0.00     0.338 C 
ATOM      6  O   UNL A   1      33.340  28.958  24.059  1.00  0.00    -0.246 OA
BRANCH   5   7
ATOM      7  C   UNL A   1      33.358  26.696  24.780  1.00  0.00     0.087 C 
ATOM      8  C   UNL A   1      32.373  22.073  22.767  1.00  0.00     0.048 C 
ATOM      9  C   UNL A   1      33.338  22.640  23.771  1.00  0.00    -0.005 A 
ATOM     10  C   UNL A   1      34.331  21.801  24.317  1.00  0.00     0.054 A 
ATOM     11  C   UNL A   1      33.325  23.999  24.113  1.00  0.00     0.131 A 
ATOM     12  C   UNL A   1      35.282  22.303  25.209  1.00  0.00     0.130 A 
ATOM     13  C   UNL A   1      34.278  24.501  25.004  1.00  0.00     0.021 A 
ATOM     14  O   UNL A   1      32.416  24.812  23.486  1.00  0.00    -0.475 OA
ATOM     15  C   UNL A   1      35.235  23.651  25.564  1.00  0.00     0.058 A 
ATOM     16  C   UNL A   1      34.350  25.928  25.251  1.00  0.00     0.027 C 
ATOM     17  C   UNL A   1      32.156  26.122  24.079  1.00  0.00     0.316 C 
BRANCH  12  18
ATOM     18  O   UNL A   1      36.301  21.607  25.791  1.00  0.00    -0.406 OA
BRANCH  18  19
ATOM     19  C   UNL A   1      37.486  21.421  25.037  1.00  0.00     0.573 C 
ATOM     20  F   UNL A   1      37.381  22.004  23.825  1.00  0.00    -0.132 F 
ATOM     21  F   UNL A   1      38.564  21.915  25.684  1.00  0.00    -0.132 F 
ATOM     22  F   UNL A   1      37.678  20.096  24.852  1.00  0.00    -0.132 F 
ENDBRANCH  18  19
ENDBRANCH  12  18
BRANCH  17  23
ATOM     23  C   UNL A   1      30.885  26.039  24.948  1.00  0.00     0.430 C 
ATOM     24  F   UNL A   1      29.907  25.333  24.325  1.00  0.00    -0.167 F 
ATOM     25  F   UNL A   1      31.112  25.438  26.139  1.00  0.00    -0.167 F 
ATOM     26  F   UNL A   1      30.359  27.259  25.204  1.00  0.00    -0.167 F 
ENDBRANCH  17  23
ENDBRANCH   5   7
ENDBRANCH   4   5
ENDBRANCH   3   4
ENDBRANCH   2   3
ENDBRANCH   1   2
BRANCH   1  27
ATOM     27  C   UNL A   1      31.474  31.733  26.492  1.00  0.00     0.202 C 
BRANCH  27  28
ATOM     28  C   UNL A   1      31.754  33.192  26.871  1.00  0.00     0.261 C 
BRANCH  28  29
ATOM     29  O   UNL A   1      33.118  33.359  27.305  1.00  0.00    -0.460 OA
BRANCH  29  30
ATOM     30  C   UNL A   1      33.294  34.193  28.354  1.00  0.00     0.338 C 
ATOM     31  O   UNL A   1      32.521  35.046  28.765  1.00  0.00    -0.246 OA
BRANCH  30  32
ATOM     32  C   UNL A   1      34.501  33.799  29.101  1.00  0.00     0.060 A 
ATOM     33  C   UNL A   1      35.741  34.180  28.571  1.00  0.00     0.016 A 
ATOM     34  C   UNL A   1      34.431  33.009  30.250  1.00  0.00     0.016 A 
ATOM     35  C   UNL A   1      36.918  33.729  29.157  1.00  0.00     0.010 A 
ATOM     36  C   UNL A   1      35.616  32.538  30.827  1.00  0.00     0.010 A 
ATOM     37  C   UNL A   1      36.859  32.864  30.258  1.00  0.00    -0.014 A 
BRANCH  37  38
ATOM     38  C   UNL A   1      38.091  32.162  30.684  1.00  0.00     0.031 A 
ATOM     39  C   UNL A   1      38.871  32.715  31.846  1.00  0.00     0.074 A 
ATOM     40  C   UNL A   1      38.481  31.020  30.091  1.00  0.00     0.049 A 
ATOM     41  N   UNL A   1      39.960  32.253  32.404  1.00  0.00    -0.248 NA
ATOM     42  C   UNL A   1      38.347  33.943  32.469  1.00  0.00     0.031 C 
ATOM     43  C   UNL A   1      37.778  30.351  28.999  1.00  0.00     0.029 A 
ATOM     44  N   UNL A   1      39.565  30.216  30.343  1.00  0.00    -0.354 N 
ATOM     45  C   UNL A   1      40.245  33.126  33.445  1.00  0.00     0.074 A 
ATOM     46  C   UNL A   1      39.234  34.159  33.430  1.00  0.00     0.031 C 
ATOM     47  C   UNL A   1      38.449  29.232  28.675  1.00  0.00     0.029 A 
ATOM     48  C   UNL A   1      39.638  29.120  29.520  1.00  0.00     0.049 A 
ATOM     49  H   UNL A   1      40.227  30.407  31.045  1.00  0.00     0.167 HD
ATOM     50  C   UNL A   1      41.256  33.067  34.341  1.00  0.00     0.031 A 
ATOM     51  C   UNL A   1      40.562  28.143  29.450  1.00  0.00     0.031 A 
ATOM     52  C   UNL A   1      42.272  32.053  34.355  1.00  0.00     0.049 A 
ATOM     53  C   UNL A   1      41.731  28.152  30.395  1.00  0.00     0.074 A 
ATOM     54  C   UNL A   1      43.337  31.918  35.227  1.00  0.00     0.029 A 
ATOM     55  N   UNL A   1      42.349  31.005  33.454  1.00  0.00    -0.354 N 
ATOM     56  N   UNL A   1      41.993  28.985  31.372  1.00  0.00    -0.248 NA
ATOM     57  C   UNL A   1      42.732  27.087  30.231  1.00  0.00     0.031 C 
ATOM     58  C   UNL A   1      44.086  30.809  34.827  1.00  0.00     0.029 A 
ATOM     59  C   UNL A   1      43.460  30.229  33.735  1.00  0.00     0.049 A 
ATOM     60  H   UNL A   1      41.711  30.837  32.723  1.00  0.00     0.167 HD
ATOM     61  C   UNL A   1      43.173  28.537  31.951  1.00  0.00     0.074 A 
ATOM     62  C   UNL A   1      43.579  27.356  31.218  1.00  0.00     0.031 C 
ATOM     63  C   UNL A   1      43.853  29.058  33.000  1.00  0.00     0.031 A 
BRANCH  50  64
ATOM     64  C   UNL A   1      41.328  34.143  35.384  1.00  0.00    -0.014 A 
ATOM     65  C   UNL A   1      40.705  33.977  36.629  1.00  0.00     0.009 A 
ATOM     66  C   UNL A   1      42.095  35.293  35.149  1.00  0.00     0.009 A 
ATOM     67  C   UNL A   1      40.844  34.950  37.620  1.00  0.00     0.001 A 
ATOM     68  C   UNL A   1      42.247  36.255  36.147  1.00  0.00     0.001 A 
ATOM     69  C   UNL A   1      41.620  36.084  37.381  1.00  0.00     0.000 A 
ENDBRANCH  50  64
BRANCH  51  70
ATOM     70  C   UNL A   1      40.409  27.068  28.439  1.00  0.00    -0.014 A 
ATOM     71  C   UNL A   1      39.686  25.905  28.741  1.00  0.00     0.009 A 
ATOM     72  C   UNL A   1      40.957  27.216  27.155  1.00  0.00     0.009 A 
ATOM     73  C   UNL A   1      39.515  24.910  27.775  1.00  0.00     0.001 A 
ATOM     74  C   UNL A   1      40.768  26.228  26.187  1.00  0.00     0.001 A 
ATOM     75  C   UNL A   1      40.050  25.076  26.498  1.00  0.00     0.000 A 
ENDBRANCH  51  70
BRANCH  63  76
ATOM     76  C   UNL A   1      45.104  28.362  33.449  1.00  0.00    -0.014 A 
ATOM     77  C   UNL A   1      45.046  27.297  34.360  1.00  0.00     0.009 A 
ATOM     78  C   UNL A   1      46.333  28.688  32.853  1.00  0.00     0.009 A 
ATOM     79  C   UNL A   1      46.199  26.571  34.665  1.00  0.00     0.001 A 
ATOM     80  C   UNL A   1      47.479  27.948  33.146  1.00  0.00     0.001 A 
ATOM     81  C   UNL A   1      47.411  26.890  34.052  1.00  0.00     0.000 A 
ENDBRANCH  63  76
ENDBRANCH  37  38
ENDBRANCH  30  32
ENDBRANCH  29  30
ENDBRANCH  28  29
ENDBRANCH  27  28
ENDBRANCH   1  27
TORSDOF 17
ENDMDL
MODEL 3
REMARK VINA RESULT:     -10.7      2.142      6.289
REMARK SMILES Cc1cc(OC(F)(F)F)cc2c1O[C@@H](C(F)(F)F)C(C(=O)OCCOCCOC(=O)c1ccc(-c3c4nc(c(-c5ccccc5)c5ccc([nH]5)c(-c5ccccc5)c5nc(c(-c6ccccc6)c6ccc3[nH]6)C=C5)C=C4)cc1)=C2
REMARK SMILES IDX 25 1 24 2 23 3 22 4 20 5 21 6 19 7 1 8 2 9 3 10 12 11 4 12
REMARK SMILES IDX 11 13 13 14 10 15 79 16 14 17 5 18 6 19 7 20 8 21 9 22 15 23
REMARK SMILES IDX 16 24 17 25 18 26 26 27 27 28 28 29 29 30 30 31 31 32 32 33
REMARK SMILES IDX 78 34 33 35 77 36 34 37 35 38 36 39 71 40 37 41 76 42 70 43
REMARK SMILES IDX 72 44 38 45 75 46 69 47 68 48 39 50 61 51 46 52 60 53 47 54
REMARK SMILES IDX 50 55 59 56 73 57 48 58 49 59 58 61 74 62 51 63 40 64 41 65
REMARK SMILES IDX 45 66 42 67 44 68 43 69 62 70 63 71 67 72 64 73 66 74 65 75
REMARK SMILES IDX 52 76 53 77 57 78 54 79 56 80 55 81
REMARK H PARENT 72 49 50 60
REMARK Flexibility Score: inf
ROOT
ATOM      1  O   UNL A   1      37.703  22.581  24.935  1.00  0.00    -0.374 OA
ENDROOT
BRANCH   1   2
ATOM      2  C   UNL A   1      36.732  21.734  24.322  1.00  0.00     0.202 C 
BRANCH   2   3
ATOM      3  C   UNL A   1      35.291  22.240  24.404  1.00  0.00     0.261 C 
BRANCH   3   4
ATOM      4  O   UNL A   1      35.230  23.632  24.044  1.00  0.00    -0.460 OA
BRANCH   4   5
ATOM      5  C   UNL A   1      34.248  23.953  23.178  1.00  0.00     0.338 C 
ATOM      6  O   UNL A   1      34.003  23.387  22.124  1.00  0.00    -0.246 OA
BRANCH   5   7
ATOM      7  C   UNL A   1      33.417  25.040  23.725  1.00  0.00     0.087 C 
ATOM      8  C   UNL A   1      31.851  29.214  26.276  1.00  0.00     0.048 C 
ATOM      9  C   UNL A   1      31.584  28.597  24.932  1.00  0.00    -0.005 A 
ATOM     10  C   UNL A   1      30.769  29.286  24.011  1.00  0.00     0.054 A 
ATOM     11  C   UNL A   1      32.193  27.396  24.544  1.00  0.00     0.131 A 
ATOM     12  C   UNL A   1      30.543  28.773  22.731  1.00  0.00     0.130 A 
ATOM     13  C   UNL A   1      31.968  26.884  23.263  1.00  0.00     0.021 A 
ATOM     14  O   UNL A   1      33.064  26.802  25.422  1.00  0.00    -0.475 OA
ATOM     15  C   UNL A   1      31.130  27.560  22.372  1.00  0.00     0.058 A 
ATOM     16  C   UNL A   1      32.704  25.717  22.816  1.00  0.00     0.027 C 
ATOM     17  C   UNL A   1      33.417  25.405  25.186  1.00  0.00     0.316 C 
BRANCH  12  18
ATOM     18  O   UNL A   1      29.796  29.346  21.743  1.00  0.00    -0.406 OA
BRANCH  18  19
ATOM     19  C   UNL A   1      28.471  29.734  22.061  1.00  0.00     0.573 C 
ATOM     20  F   UNL A   1      28.468  30.786  22.907  1.00  0.00    -0.132 F 
ATOM     21  F   UNL A   1      27.769  30.045  20.950  1.00  0.00    -0.132 F 
ATOM     22  F   UNL A   1      27.852  28.700  22.673  1.00  0.00    -0.132 F 
ENDBRANCH  18  19
ENDBRANCH  12  18
BRANCH  17  23
ATOM     23  C   UNL A   1      32.535  24.504  26.073  1.00  0.00     0.430 C 
ATOM     24  F   UNL A   1      31.722  23.718  25.324  1.00  0.00    -0.167 F 
ATOM     25  F   UNL A   1      33.266  23.682  26.862  1.00  0.00    -0.167 F 
ATOM     26  F   UNL A   1      31.720  25.220  26.882  1.00  0.00    -0.167 F 
ENDBRANCH  17  23
ENDBRANCH   5   7
ENDBRANCH   4   5
ENDBRANCH   3   4
ENDBRANCH   2   3
ENDBRANCH   1   2
BRANCH   1  27
ATOM     27  C   UNL A   1      38.575  21.969  25.892  1.00  0.00     0.202 C 
BRANCH  27  28
ATOM     28  C   UNL A   1      39.108  20.583  25.510  1.00  0.00     0.261 C 
BRANCH  28  29
ATOM     29  O   UNL A   1      39.925  20.036  26.563  1.00  0.00    -0.460 OA
BRANCH  29  30
ATOM     30  C   UNL A   1      41.224  19.840  26.246  1.00  0.00     0.338 C 
ATOM     31  O   UNL A   1      41.703  18.913  25.607  1.00  0.00    -0.246 OA
BRANCH  30  32
ATOM     32  C   UNL A   1      42.008  21.033  26.609  1.00  0.00     0.060 A 
ATOM     33  C   UNL A   1      42.078  21.371  27.967  1.00  0.00     0.016 A 
ATOM     34  C   UNL A   1      42.596  21.850  25.641  1.00  0.00     0.016 A 
ATOM     35  C   UNL A   1      42.691  22.555  28.360  1.00  0.00     0.010 A 
ATOM     36  C   UNL A   1      43.194  23.052  26.036  1.00  0.00     0.010 A 
ATOM     37  C   UNL A   1      43.208  23.426  27.391  1.00  0.00    -0.014 A 
BRANCH  37  38
ATOM     38  C   UNL A   1      43.585  24.800  27.791  1.00  0.00     0.031 A 
ATOM     39  C   UNL A   1      42.493  25.802  28.048  1.00  0.00     0.074 A 
ATOM     40  C   UNL A   1      44.871  25.140  27.983  1.00  0.00     0.049 A 
ATOM     41  N   UNL A   1      42.589  27.049  28.431  1.00  0.00    -0.248 NA
ATOM     42  C   UNL A   1      41.109  25.333  27.862  1.00  0.00     0.031 C 
ATOM     43  C   UNL A   1      46.015  24.244  27.828  1.00  0.00     0.029 A 
ATOM     44  N   UNL A   1      45.425  26.336  28.365  1.00  0.00    -0.354 N 
ATOM     45  C   UNL A   1      41.283  27.509  28.539  1.00  0.00     0.074 A 
ATOM     46  C   UNL A   1      40.411  26.420  28.158  1.00  0.00     0.031 C 
ATOM     47  C   UNL A   1      47.139  24.923  28.117  1.00  0.00     0.029 A 
ATOM     48  C   UNL A   1      46.794  26.304  28.454  1.00  0.00     0.049 A 
ATOM     49  H   UNL A   1      44.891  27.141  28.557  1.00  0.00     0.167 HD
ATOM     50  C   UNL A   1      40.849  28.728  28.929  1.00  0.00     0.031 A 
ATOM     51  C   UNL A   1      47.670  27.279  28.762  1.00  0.00     0.031 A 
ATOM     52  C   UNL A   1      41.708  29.818  29.295  1.00  0.00     0.049 A 
ATOM     53  C   UNL A   1      47.167  28.656  29.099  1.00  0.00     0.074 A 
ATOM     54  C   UNL A   1      41.352  31.092  29.701  1.00  0.00     0.029 A 
ATOM     55  N   UNL A   1      43.091  29.764  29.295  1.00  0.00    -0.354 N 
ATOM     56  N   UNL A   1      45.931  29.080  29.193  1.00  0.00    -0.248 NA
ATOM     57  C   UNL A   1      48.178  29.689  29.374  1.00  0.00     0.031 C 
ATOM     58  C   UNL A   1      42.524  31.824  29.908  1.00  0.00     0.029 A 
ATOM     59  C   UNL A   1      43.606  30.990  29.674  1.00  0.00     0.049 A 
ATOM     60  H   UNL A   1      43.628  28.972  29.062  1.00  0.00     0.167 HD
ATOM     61  C   UNL A   1      46.013  30.418  29.556  1.00  0.00     0.074 A 
ATOM     62  C   UNL A   1      47.420  30.739  29.668  1.00  0.00     0.031 C 
ATOM     63  C   UNL A   1      45.007  31.297  29.781  1.00  0.00     0.031 A 
BRANCH  50  64
ATOM     64  C   UNL A   1      39.368  28.961  28.971  1.00  0.00    -0.014 A 
ATOM     65  C   UNL A   1      38.638  28.729  30.145  1.00  0.00     0.009 A 
ATOM     66  C   UNL A   1      38.714  29.496  27.851  1.00  0.00     0.009 A 
ATOM     67  C   UNL A   1      37.275  29.024  30.195  1.00  0.00     0.001 A 
ATOM     68  C   UNL A   1      37.355  29.806  27.910  1.00  0.00     0.001 A 
ATOM     69  C   UNL A   1      36.637  29.569  29.081  1.00  0.00     0.000 A 
ENDBRANCH  50  64
BRANCH  51  70
ATOM     70  C   UNL A   1      49.123  26.978  28.767  1.00  0.00    -0.014 A 
ATOM     71  C   UNL A   1      49.776  26.642  29.961  1.00  0.00     0.009 A 
ATOM     72  C   UNL A   1      49.855  26.990  27.569  1.00  0.00     0.009 A 
ATOM     73  C   UNL A   1      51.137  26.326  29.957  1.00  0.00     0.001 A 
ATOM     74  C   UNL A   1      51.210  26.655  27.566  1.00  0.00     0.001 A 
ATOM     75  C   UNL A   1      51.851  26.325  28.758  1.00  0.00     0.000 A 
ENDBRANCH  51  70
BRANCH  63  76
ATOM     76  C   UNL A   1      45.367  32.696  30.189  1.00  0.00    -0.014 A 
ATOM     77  C   UNL A   1      45.500  33.711  29.231  1.00  0.00     0.009 A 
ATOM     78  C   UNL A   1      45.439  33.025  31.552  1.00  0.00     0.009 A 
ATOM     79  C   UNL A   1      45.700  35.033  29.634  1.00  0.00     0.001 A 
ATOM     80  C   UNL A   1      45.619  34.350  31.951  1.00  0.00     0.001 A 
ATOM     81  C   UNL A   1      45.750  35.353  30.991  1.00  0.00     0.000 A 
ENDBRANCH  63  76
ENDBRANCH  37  38
ENDBRANCH  30  32
ENDBRANCH  29  30
ENDBRANCH  28  29
ENDBRANCH  27  28
ENDBRANCH   1  27
TORSDOF 17
ENDMDL
