MODEL 1
REMARK VINA RESULT:     -11.5      0.000      0.000
REMARK SMILES CCOC(=O)c1c(NC(=O)[C@H]2[C@@H]3CC[C@@H](C3)[C@@H]2C(=O)OCCOCCOC(=O)c2ccc(-c3c4nc(c(-c5ccccc5)c5ccc([nH]5)c(-c5ccccc5)c5nc(c(-c6ccccc6)c6ccc3[nH]6)C=C5)C=C4)cc2)sc2c1CCCC2
REMARK SMILES IDX 21 1 20 2 18 3 19 4 17 5 11 6 12 7 13 8 16 9 15 10 14 11
REMARK SMILES IDX 9 12 8 13 10 15 7 16 6 17 79 18 77 19 78 20 80 21 83 22
REMARK SMILES IDX 81 23 82 24 4 25 5 26 3 27 2 28 1 29 22 30 23 31 24 32 25 33
REMARK SMILES IDX 26 34 27 35 28 36 29 37 30 38 76 39 31 40 75 41 32 42 33 43
REMARK SMILES IDX 34 44 69 45 35 46 74 47 68 48 70 49 36 50 73 51 67 52 66 53
REMARK SMILES IDX 37 55 59 56 44 57 58 58 45 59 48 60 57 61 71 62 46 63 47 64
REMARK SMILES IDX 56 66 72 67 49 68 38 69 39 70 43 71 40 72 42 73 41 74 60 75
REMARK SMILES IDX 61 76 65 77 62 78 64 79 63 80 50 81 51 82 55 83 52 84 54 85
REMARK SMILES IDX 53 86
REMARK H PARENT 8 14 70 54 48 65
REMARK Flexibility Score: inf
ROOT
ATOM      1  C   UNL A   1      33.543  29.035  26.773  1.00  0.00     0.261 C 
ENDROOT
BRANCH   1   2
ATOM      2  O   UNL A   1      32.521  28.026  26.927  1.00  0.00    -0.463 OA
BRANCH   2   3
ATOM      3  C   UNL A   1      32.776  26.830  26.330  1.00  0.00     0.310 C 
ATOM      4  O   UNL A   1      33.890  26.405  26.056  1.00  0.00    -0.252 OA
BRANCH   3   5
ATOM      5  C   UNL A   1      31.487  26.171  25.885  1.00  0.00     0.115 C 
ATOM      6  C   UNL A   1      31.563  24.686  25.482  1.00  0.00     0.096 C 
ATOM      7  C   UNL A   1      30.601  24.624  24.255  1.00  0.00     0.003 C 
ATOM      8  C   UNL A   1      31.416  25.021  23.030  1.00  0.00     0.005 C 
ATOM      9  C   UNL A   1      29.722  25.876  24.387  1.00  0.00     0.009 C 
ATOM     10  C   UNL A   1      30.916  26.802  24.593  1.00  0.00     0.004 C 
ATOM     11  C   UNL A   1      31.798  26.472  23.357  1.00  0.00     0.005 C 
BRANCH   6  12
ATOM     12  C   UNL A   1      31.122  23.700  26.521  1.00  0.00     0.229 C 
ATOM     13  N   UNL A   1      31.808  22.556  26.785  1.00  0.00    -0.317 N 
ATOM     14  H   UNL A   1      31.297  21.966  27.386  1.00  0.00     0.170 HD
ATOM     15  O   UNL A   1      30.065  23.877  27.138  1.00  0.00    -0.274 OA
BRANCH  13  16
ATOM     16  C   UNL A   1      33.023  21.993  26.446  1.00  0.00     0.110 A 
ATOM     17  C   UNL A   1      33.609  20.868  25.876  1.00  0.00     0.098 A 
ATOM     18  C   UNL A   1      35.034  21.086  25.640  1.00  0.00    -0.017 A 
ATOM     19  S   UNL A   1      34.231  23.155  26.884  1.00  0.00    -0.122 S 
ATOM     20  C   UNL A   1      35.465  22.302  26.116  1.00  0.00     0.011 A 
ATOM     21  C   UNL A   1      35.939  20.183  24.839  1.00  0.00     0.038 C 
ATOM     22  C   UNL A   1      36.851  22.846  25.960  1.00  0.00     0.047 C 
ATOM     23  C   UNL A   1      37.403  20.645  24.831  1.00  0.00     0.005 C 
ATOM     24  C   UNL A   1      37.545  22.170  24.769  1.00  0.00     0.006 C 
BRANCH  17  25
ATOM     25  C   UNL A   1      33.001  19.649  25.368  1.00  0.00     0.341 C 
ATOM     26  O   UNL A   1      32.575  18.776  26.107  1.00  0.00    -0.246 OA
BRANCH  25  27
ATOM     27  O   UNL A   1      32.768  19.690  24.022  1.00  0.00    -0.462 OA
BRANCH  27  28
ATOM     28  C   UNL A   1      32.172  18.508  23.452  1.00  0.00     0.230 C 
ATOM     29  C   UNL A   1      33.230  17.642  22.793  1.00  0.00     0.049 C 
ENDBRANCH  27  28
ENDBRANCH  25  27
ENDBRANCH  17  25
ENDBRANCH  13  16
ENDBRANCH   6  12
ENDBRANCH   3   5
ENDBRANCH   2   3
ENDBRANCH   1   2
BRANCH   1  30
ATOM     30  C   UNL A   1      33.056  30.424  27.182  1.00  0.00     0.202 C 
BRANCH  30  31
ATOM     31  O   UNL A   1      31.816  30.800  26.581  1.00  0.00    -0.374 OA
BRANCH  31  32
ATOM     32  C   UNL A   1      31.504  32.191  26.683  1.00  0.00     0.202 C 
BRANCH  32  33
ATOM     33  C   UNL A   1      32.592  32.991  27.414  1.00  0.00     0.261 C 
BRANCH  33  34
ATOM     34  O   UNL A   1      32.056  34.218  27.946  1.00  0.00    -0.460 OA
BRANCH  34  35
ATOM     35  C   UNL A   1      32.911  34.980  28.665  1.00  0.00     0.338 C 
ATOM     36  O   UNL A   1      32.721  36.122  29.051  1.00  0.00    -0.246 OA
BRANCH  35  37
ATOM     37  C   UNL A   1      34.147  34.216  28.992  1.00  0.00     0.060 A 
ATOM     38  C   UNL A   1      34.098  33.321  30.069  1.00  0.00     0.016 A 
ATOM     39  C   UNL A   1      35.340  34.353  28.271  1.00  0.00     0.016 A 
ATOM     40  C   UNL A   1      35.240  32.620  30.460  1.00  0.00     0.010 A 
ATOM     41  C   UNL A   1      36.488  33.656  28.666  1.00  0.00     0.010 A 
ATOM     42  C   UNL A   1      36.451  32.813  29.784  1.00  0.00    -0.014 A 
BRANCH  42  43
ATOM     43  C   UNL A   1      37.688  32.189  30.302  1.00  0.00     0.031 A 
ATOM     44  C   UNL A   1      38.355  32.761  31.519  1.00  0.00     0.074 A 
ATOM     45  C   UNL A   1      38.231  31.131  29.676  1.00  0.00     0.049 A 
ATOM     46  N   UNL A   1      39.352  32.284  32.218  1.00  0.00    -0.248 NA
ATOM     47  C   UNL A   1      37.842  34.052  32.004  1.00  0.00     0.031 C 
ATOM     48  C   UNL A   1      37.723  30.522  28.449  1.00  0.00     0.029 A 
ATOM     49  N   UNL A   1      39.343  30.392  29.988  1.00  0.00    -0.354 N 
ATOM     50  C   UNL A   1      39.574  33.201  33.236  1.00  0.00     0.074 A 
ATOM     51  C   UNL A   1      38.638  34.287  33.038  1.00  0.00     0.031 C 
ATOM     52  C   UNL A   1      38.536  29.510  28.099  1.00  0.00     0.029 A 
ATOM     53  C   UNL A   1      39.604  29.390  29.090  1.00  0.00     0.049 A 
ATOM     54  H   UNL A   1      39.902  30.565  30.782  1.00  0.00     0.167 HD
ATOM     55  C   UNL A   1      40.467  33.132  34.252  1.00  0.00     0.031 A 
ATOM     56  C   UNL A   1      40.583  28.465  29.076  1.00  0.00     0.031 A 
ATOM     57  C   UNL A   1      41.408  32.058  34.430  1.00  0.00     0.049 A 
ATOM     58  C   UNL A   1      41.553  28.394  30.221  1.00  0.00     0.074 A 
ATOM     59  C   UNL A   1      42.272  31.834  35.489  1.00  0.00     0.029 A 
ATOM     60  N   UNL A   1      41.628  31.044  33.513  1.00  0.00    -0.354 N 
ATOM     61  N   UNL A   1      41.641  29.167  31.277  1.00  0.00    -0.248 NA
ATOM     62  C   UNL A   1      42.532  27.298  30.192  1.00  0.00     0.031 C 
ATOM     63  C   UNL A   1      43.056  30.716  35.184  1.00  0.00     0.029 A 
ATOM     64  C   UNL A   1      42.645  30.216  33.958  1.00  0.00     0.049 A 
ATOM     65  H   UNL A   1      41.135  30.929  32.669  1.00  0.00     0.167 HD
ATOM     66  C   UNL A   1      42.666  28.636  32.049  1.00  0.00     0.074 A 
ATOM     67  C   UNL A   1      43.164  27.472  31.346  1.00  0.00     0.031 C 
ATOM     68  C   UNL A   1      43.143  29.071  33.241  1.00  0.00     0.031 A 
BRANCH  55  69
ATOM     69  C   UNL A   1      40.473  34.251  35.255  1.00  0.00    -0.014 A 
ATOM     70  C   UNL A   1      41.275  35.388  35.068  1.00  0.00     0.009 A 
ATOM     71  C   UNL A   1      39.616  34.200  36.365  1.00  0.00     0.009 A 
ATOM     72  C   UNL A   1      41.237  36.440  35.986  1.00  0.00     0.001 A 
ATOM     73  C   UNL A   1      39.563  35.262  37.269  1.00  0.00     0.001 A 
ATOM     74  C   UNL A   1      40.378  36.379  37.083  1.00  0.00     0.000 A 
ENDBRANCH  55  69
BRANCH  56  75
ATOM     75  C   UNL A   1      40.652  27.500  27.953  1.00  0.00    -0.014 A 
ATOM     76  C   UNL A   1      41.432  27.779  26.820  1.00  0.00     0.009 A 
ATOM     77  C   UNL A   1      39.969  26.277  28.028  1.00  0.00     0.009 A 
ATOM     78  C   UNL A   1      41.516  26.852  25.778  1.00  0.00     0.001 A 
ATOM     79  C   UNL A   1      40.071  25.346  26.994  1.00  0.00     0.001 A 
ATOM     80  C   UNL A   1      40.841  25.636  25.868  1.00  0.00     0.000 A 
ENDBRANCH  56  75
BRANCH  68  81
ATOM     81  C   UNL A   1      44.255  28.279  33.866  1.00  0.00    -0.014 A 
ATOM     82  C   UNL A   1      45.599  28.620  33.647  1.00  0.00     0.009 A 
ATOM     83  C   UNL A   1      43.954  27.207  34.721  1.00  0.00     0.009 A 
ATOM     84  C   UNL A   1      46.620  27.884  34.249  1.00  0.00     0.001 A 
ATOM     85  C   UNL A   1      44.978  26.487  35.339  1.00  0.00     0.001 A 
ATOM     86  C   UNL A   1      46.309  26.821  35.098  1.00  0.00     0.000 A 
ENDBRANCH  68  81
ENDBRANCH  42  43
ENDBRANCH  35  37
ENDBRANCH  34  35
ENDBRANCH  33  34
ENDBRANCH  32  33
ENDBRANCH  31  32
ENDBRANCH  30  31
ENDBRANCH   1  30
TORSDOF 19
ENDMDL
MODEL 2
REMARK VINA RESULT:     -11.4      4.121      9.273
REMARK SMILES CCOC(=O)c1c(NC(=O)[C@H]2[C@@H]3CC[C@@H](C3)[C@@H]2C(=O)OCCOCCOC(=O)c2ccc(-c3c4nc(c(-c5ccccc5)c5ccc([nH]5)c(-c5ccccc5)c5nc(c(-c6ccccc6)c6ccc3[nH]6)C=C5)C=C4)cc2)sc2c1CCCC2
REMARK SMILES IDX 21 1 20 2 18 3 19 4 17 5 11 6 12 7 13 8 16 9 15 10 14 11
REMARK SMILES IDX 9 12 8 13 10 15 7 16 6 17 79 18 77 19 78 20 80 21 83 22
REMARK SMILES IDX 81 23 82 24 4 25 5 26 3 27 2 28 1 29 22 30 23 31 24 32 25 33
REMARK SMILES IDX 26 34 27 35 28 36 29 37 30 38 76 39 31 40 75 41 32 42 33 43
REMARK SMILES IDX 34 44 69 45 35 46 74 47 68 48 70 49 36 50 73 51 67 52 66 53
REMARK SMILES IDX 37 55 59 56 44 57 58 58 45 59 48 60 57 61 71 62 46 63 47 64
REMARK SMILES IDX 56 66 72 67 49 68 38 69 39 70 43 71 40 72 42 73 41 74 60 75
REMARK SMILES IDX 61 76 65 77 62 78 64 79 63 80 50 81 51 82 55 83 52 84 54 85
REMARK SMILES IDX 53 86
REMARK H PARENT 8 14 70 54 48 65
REMARK Flexibility Score: inf
ROOT
ATOM      1  C   UNL A   1      36.186  21.683  24.449  1.00  0.00     0.261 C 
ENDROOT
BRANCH   1   2
ATOM      2  O   UNL A   1      36.068  22.856  23.616  1.00  0.00    -0.463 OA
BRANCH   2   3
ATOM      3  C   UNL A   1      35.070  23.720  23.946  1.00  0.00     0.310 C 
ATOM      4  O   UNL A   1      35.113  24.521  24.871  1.00  0.00    -0.252 OA
BRANCH   3   5
ATOM      5  C   UNL A   1      33.827  23.437  23.130  1.00  0.00     0.115 C 
ATOM      6  C   UNL A   1      32.791  24.571  23.017  1.00  0.00     0.096 C 
ATOM      7  C   UNL A   1      31.439  23.798  23.108  1.00  0.00     0.003 C 
ATOM      8  C   UNL A   1      31.123  23.628  24.589  1.00  0.00     0.005 C 
ATOM      9  C   UNL A   1      31.797  22.346  22.759  1.00  0.00     0.009 C 
ATOM     10  C   UNL A   1      32.965  22.305  23.739  1.00  0.00     0.004 C 
ATOM     11  C   UNL A   1      32.290  22.751  25.066  1.00  0.00     0.005 C 
BRANCH   6  12
ATOM     12  C   UNL A   1      32.831  25.373  21.751  1.00  0.00     0.229 C 
ATOM     13  N   UNL A   1      32.561  26.706  21.718  1.00  0.00    -0.317 N 
ATOM     14  H   UNL A   1      32.491  27.031  20.791  1.00  0.00     0.170 HD
ATOM     15  O   UNL A   1      33.058  24.818  20.670  1.00  0.00    -0.274 OA
BRANCH  13  16
ATOM     16  C   UNL A   1      32.359  27.729  22.624  1.00  0.00     0.110 A 
ATOM     17  C   UNL A   1      31.474  28.740  22.983  1.00  0.00     0.098 A 
ATOM     18  C   UNL A   1      31.849  29.328  24.266  1.00  0.00    -0.017 A 
ATOM     19  S   UNL A   1      33.713  27.690  23.704  1.00  0.00    -0.122 S 
ATOM     20  C   UNL A   1      33.024  28.810  24.758  1.00  0.00     0.011 A 
ATOM     21  C   UNL A   1      31.005  30.285  25.073  1.00  0.00     0.038 C 
ATOM     22  C   UNL A   1      33.631  29.156  26.083  1.00  0.00     0.047 C 
ATOM     23  C   UNL A   1      31.704  30.783  26.346  1.00  0.00     0.005 C 
ATOM     24  C   UNL A   1      32.547  29.698  27.026  1.00  0.00     0.006 C 
BRANCH  17  25
ATOM     25  C   UNL A   1      30.218  29.147  22.375  1.00  0.00     0.341 C 
ATOM     26  O   UNL A   1      30.171  29.926  21.436  1.00  0.00    -0.246 OA
BRANCH  25  27
ATOM     27  O   UNL A   1      29.150  28.415  22.813  1.00  0.00    -0.462 OA
BRANCH  27  28
ATOM     28  C   UNL A   1      27.924  29.148  23.007  1.00  0.00     0.230 C 
ATOM     29  C   UNL A   1      26.822  28.225  23.495  1.00  0.00     0.049 C 
ENDBRANCH  27  28
ENDBRANCH  25  27
ENDBRANCH  17  25
ENDBRANCH  13  16
ENDBRANCH   6  12
ENDBRANCH   3   5
ENDBRANCH   2   3
ENDBRANCH   1   2
BRANCH   1  30
ATOM     30  C   UNL A   1      37.246  21.845  25.538  1.00  0.00     0.202 C 
BRANCH  30  31
ATOM     31  O   UNL A   1      38.524  21.319  25.179  1.00  0.00    -0.374 OA
BRANCH  31  32
ATOM     32  C   UNL A   1      38.574  19.894  25.082  1.00  0.00     0.202 C 
BRANCH  32  33
ATOM     33  C   UNL A   1      39.670  19.276  25.962  1.00  0.00     0.261 C 
BRANCH  33  34
ATOM     34  O   UNL A   1      40.955  19.363  25.316  1.00  0.00    -0.460 OA
BRANCH  34  35
ATOM     35  C   UNL A   1      42.025  19.490  26.134  1.00  0.00     0.338 C 
ATOM     36  O   UNL A   1      42.812  18.610  26.446  1.00  0.00    -0.246 OA
BRANCH  35  37
ATOM     37  C   UNL A   1      42.173  20.900  26.592  1.00  0.00     0.060 A 
ATOM     38  C   UNL A   1      42.425  21.879  25.623  1.00  0.00     0.016 A 
ATOM     39  C   UNL A   1      42.066  21.278  27.936  1.00  0.00     0.016 A 
ATOM     40  C   UNL A   1      42.631  23.208  25.997  1.00  0.00     0.010 A 
ATOM     41  C   UNL A   1      42.278  22.609  28.313  1.00  0.00     0.010 A 
ATOM     42  C   UNL A   1      42.596  23.573  27.348  1.00  0.00    -0.014 A 
BRANCH  42  43
ATOM     43  C   UNL A   1      42.970  24.948  27.747  1.00  0.00     0.031 A 
ATOM     44  C   UNL A   1      41.895  25.966  27.998  1.00  0.00     0.074 A 
ATOM     45  C   UNL A   1      44.262  25.298  27.860  1.00  0.00     0.049 A 
ATOM     46  N   UNL A   1      41.997  27.171  28.495  1.00  0.00    -0.248 NA
ATOM     47  C   UNL A   1      40.525  25.581  27.625  1.00  0.00     0.031 C 
ATOM     48  C   UNL A   1      45.402  24.427  27.579  1.00  0.00     0.029 A 
ATOM     49  N   UNL A   1      44.828  26.490  28.232  1.00  0.00    -0.354 N 
ATOM     50  C   UNL A   1      40.707  27.683  28.514  1.00  0.00     0.074 A 
ATOM     51  C   UNL A   1      39.843  26.675  27.937  1.00  0.00     0.031 C 
ATOM     52  C   UNL A   1      46.535  25.123  27.769  1.00  0.00     0.029 A 
ATOM     53  C   UNL A   1      46.199  26.476  28.207  1.00  0.00     0.049 A 
ATOM     54  H   UNL A   1      44.301  27.280  28.492  1.00  0.00     0.167 HD
ATOM     55  C   UNL A   1      40.281  28.879  28.987  1.00  0.00     0.031 A 
ATOM     56  C   UNL A   1      47.085  27.440  28.519  1.00  0.00     0.031 A 
ATOM     57  C   UNL A   1      41.150  29.884  29.541  1.00  0.00     0.049 A 
ATOM     58  C   UNL A   1      46.595  28.754  29.058  1.00  0.00     0.074 A 
ATOM     59  C   UNL A   1      40.807  31.077  30.155  1.00  0.00     0.029 A 
ATOM     60  N   UNL A   1      42.533  29.826  29.523  1.00  0.00    -0.354 N 
ATOM     61  N   UNL A   1      45.362  29.162  29.239  1.00  0.00    -0.248 NA
ATOM     62  C   UNL A   1      47.619  29.723  29.474  1.00  0.00     0.031 C 
ATOM     63  C   UNL A   1      41.986  31.768  30.456  1.00  0.00     0.029 A 
ATOM     64  C   UNL A   1      43.062  30.982  30.074  1.00  0.00     0.049 A 
ATOM     65  H   UNL A   1      43.063  29.076  29.170  1.00  0.00     0.167 HD
ATOM     66  C   UNL A   1      45.462  30.422  29.813  1.00  0.00     0.074 A 
ATOM     67  C   UNL A   1      46.874  30.709  29.958  1.00  0.00     0.031 C 
ATOM     68  C   UNL A   1      44.468  31.262  30.196  1.00  0.00     0.031 A 
BRANCH  55  69
ATOM     69  C   UNL A   1      38.809  29.172  28.926  1.00  0.00    -0.014 A 
ATOM     70  C   UNL A   1      37.982  28.962  30.041  1.00  0.00     0.009 A 
ATOM     71  C   UNL A   1      38.254  29.730  27.764  1.00  0.00     0.009 A 
ATOM     72  C   UNL A   1      36.623  29.281  29.985  1.00  0.00     0.001 A 
ATOM     73  C   UNL A   1      36.900  30.069  27.718  1.00  0.00     0.001 A 
ATOM     74  C   UNL A   1      36.085  29.838  28.826  1.00  0.00     0.000 A 
ENDBRANCH  55  69
BRANCH  56  75
ATOM     75  C   UNL A   1      48.535  27.167  28.372  1.00  0.00    -0.014 A 
ATOM     76  C   UNL A   1      49.261  26.584  29.422  1.00  0.00     0.009 A 
ATOM     77  C   UNL A   1      49.190  27.452  27.164  1.00  0.00     0.009 A 
ATOM     78  C   UNL A   1      50.620  26.302  29.267  1.00  0.00     0.001 A 
ATOM     79  C   UNL A   1      50.543  27.152  27.007  1.00  0.00     0.001 A 
ATOM     80  C   UNL A   1      51.258  26.581  28.059  1.00  0.00     0.000 A 
ENDBRANCH  56  75
BRANCH  68  81
ATOM     81  C   UNL A   1      44.874  32.568  30.816  1.00  0.00    -0.014 A 
ATOM     82  C   UNL A   1      44.938  33.744  30.053  1.00  0.00     0.009 A 
ATOM     83  C   UNL A   1      45.152  32.632  32.191  1.00  0.00     0.009 A 
ATOM     84  C   UNL A   1      45.301  34.953  30.650  1.00  0.00     0.001 A 
ATOM     85  C   UNL A   1      45.492  33.846  32.789  1.00  0.00     0.001 A 
ATOM     86  C   UNL A   1      45.573  35.004  32.017  1.00  0.00     0.000 A 
ENDBRANCH  68  81
ENDBRANCH  42  43
ENDBRANCH  35  37
ENDBRANCH  34  35
ENDBRANCH  33  34
ENDBRANCH  32  33
ENDBRANCH  31  32
ENDBRANCH  30  31
ENDBRANCH   1  30
TORSDOF 19
ENDMDL
MODEL 3
REMARK VINA RESULT:     -11.2      0.877      5.665
REMARK SMILES CCOC(=O)c1c(NC(=O)[C@H]2[C@@H]3CC[C@@H](C3)[C@@H]2C(=O)OCCOCCOC(=O)c2ccc(-c3c4nc(c(-c5ccccc5)c5ccc([nH]5)c(-c5ccccc5)c5nc(c(-c6ccccc6)c6ccc3[nH]6)C=C5)C=C4)cc2)sc2c1CCCC2
REMARK SMILES IDX 21 1 20 2 18 3 19 4 17 5 11 6 12 7 13 8 16 9 15 10 14 11
REMARK SMILES IDX 9 12 8 13 10 15 7 16 6 17 79 18 77 19 78 20 80 21 83 22
REMARK SMILES IDX 81 23 82 24 4 25 5 26 3 27 2 28 1 29 22 30 23 31 24 32 25 33
REMARK SMILES IDX 26 34 27 35 28 36 29 37 30 38 76 39 31 40 75 41 32 42 33 43
REMARK SMILES IDX 34 44 69 45 35 46 74 47 68 48 70 49 36 50 73 51 67 52 66 53
REMARK SMILES IDX 37 55 59 56 44 57 58 58 45 59 48 60 57 61 71 62 46 63 47 64
REMARK SMILES IDX 56 66 72 67 49 68 38 69 39 70 43 71 40 72 42 73 41 74 60 75
REMARK SMILES IDX 61 76 65 77 62 78 64 79 63 80 50 81 51 82 55 83 52 84 54 85
REMARK SMILES IDX 53 86
REMARK H PARENT 8 14 70 54 48 65
REMARK Flexibility Score: inf
ROOT
ATOM      1  C   UNL A   1      33.236  28.796  26.183  1.00  0.00     0.261 C 
ENDROOT
BRANCH   1   2
ATOM      2  O   UNL A   1      33.358  27.473  26.747  1.00  0.00    -0.463 OA
BRANCH   2   3
ATOM      3  C   UNL A   1      33.216  26.441  25.871  1.00  0.00     0.310 C 
ATOM      4  O   UNL A   1      34.117  25.968  25.191  1.00  0.00    -0.252 OA
BRANCH   3   5
ATOM      5  C   UNL A   1      31.756  26.070  25.715  1.00  0.00     0.115 C 
ATOM      6  C   UNL A   1      31.441  24.607  25.348  1.00  0.00     0.096 C 
ATOM      7  C   UNL A   1      30.258  24.763  24.343  1.00  0.00     0.003 C 
ATOM      8  C   UNL A   1      30.870  24.999  22.968  1.00  0.00     0.005 C 
ATOM      9  C   UNL A   1      29.701  26.168  24.614  1.00  0.00     0.009 C 
ATOM     10  C   UNL A   1      31.076  26.824  24.547  1.00  0.00     0.004 C 
ATOM     11  C   UNL A   1      31.601  26.335  23.168  1.00  0.00     0.005 C 
BRANCH   6  12
ATOM     12  C   UNL A   1      31.028  23.720  26.482  1.00  0.00     0.229 C 
ATOM     13  N   UNL A   1      31.686  22.571  26.793  1.00  0.00    -0.317 N 
ATOM     14  H   UNL A   1      31.191  22.047  27.465  1.00  0.00     0.170 HD
ATOM     15  O   UNL A   1      30.018  23.985  27.144  1.00  0.00    -0.274 OA
BRANCH  13  16
ATOM     16  C   UNL A   1      32.857  21.934  26.427  1.00  0.00     0.110 A 
ATOM     17  C   UNL A   1      33.358  20.838  25.733  1.00  0.00     0.098 A 
ATOM     18  C   UNL A   1      34.808  20.936  25.584  1.00  0.00    -0.017 A 
ATOM     19  S   UNL A   1      34.148  22.896  27.066  1.00  0.00    -0.122 S 
ATOM     20  C   UNL A   1      35.330  22.028  26.237  1.00  0.00     0.011 A 
ATOM     21  C   UNL A   1      35.661  20.057  24.702  1.00  0.00     0.038 C 
ATOM     22  C   UNL A   1      36.769  22.440  26.211  1.00  0.00     0.047 C 
ATOM     23  C   UNL A   1      37.161  20.361  24.814  1.00  0.00     0.005 C 
ATOM     24  C   UNL A   1      37.455  21.858  24.967  1.00  0.00     0.006 C 
BRANCH  17  25
ATOM     25  C   UNL A   1      32.661  19.767  25.040  1.00  0.00     0.341 C 
ATOM     26  O   UNL A   1      32.329  19.856  23.868  1.00  0.00    -0.246 OA
BRANCH  25  27
ATOM     27  O   UNL A   1      32.618  18.606  25.759  1.00  0.00    -0.462 OA
BRANCH  27  28
ATOM     28  C   UNL A   1      32.605  17.389  24.986  1.00  0.00     0.230 C 
ATOM     29  C   UNL A   1      33.392  16.300  25.692  1.00  0.00     0.049 C 
ENDBRANCH  27  28
ENDBRANCH  25  27
ENDBRANCH  17  25
ENDBRANCH  13  16
ENDBRANCH   6  12
ENDBRANCH   3   5
ENDBRANCH   2   3
ENDBRANCH   1   2
BRANCH   1  30
ATOM     30  C   UNL A   1      32.467  29.750  27.095  1.00  0.00     0.202 C 
BRANCH  30  31
ATOM     31  O   UNL A   1      33.038  31.058  27.172  1.00  0.00    -0.374 OA
BRANCH  31  32
ATOM     32  C   UNL A   1      32.083  32.119  27.240  1.00  0.00     0.202 C 
BRANCH  32  33
ATOM     33  C   UNL A   1      32.737  33.507  27.248  1.00  0.00     0.261 C 
BRANCH  33  34
ATOM     34  O   UNL A   1      32.421  34.217  28.462  1.00  0.00    -0.460 OA
BRANCH  34  35
ATOM     35  C   UNL A   1      33.406  34.991  28.973  1.00  0.00     0.338 C 
ATOM     36  O   UNL A   1      33.372  36.201  29.133  1.00  0.00    -0.246 OA
BRANCH  35  37
ATOM     37  C   UNL A   1      34.569  34.158  29.386  1.00  0.00     0.060 A 
ATOM     38  C   UNL A   1      34.344  33.136  30.318  1.00  0.00     0.016 A 
ATOM     39  C   UNL A   1      35.861  34.352  28.882  1.00  0.00     0.016 A 
ATOM     40  C   UNL A   1      35.405  32.360  30.788  1.00  0.00     0.010 A 
ATOM     41  C   UNL A   1      36.927  33.578  29.357  1.00  0.00     0.010 A 
ATOM     42  C   UNL A   1      36.709  32.603  30.337  1.00  0.00    -0.014 A 
BRANCH  42  43
ATOM     43  C   UNL A   1      37.845  31.884  30.955  1.00  0.00     0.031 A 
ATOM     44  C   UNL A   1      38.396  30.656  30.289  1.00  0.00     0.074 A 
ATOM     45  C   UNL A   1      38.368  32.306  32.118  1.00  0.00     0.049 A 
ATOM     46  N   UNL A   1      39.471  29.970  30.580  1.00  0.00    -0.248 NA
ATOM     47  C   UNL A   1      37.626  30.120  29.156  1.00  0.00     0.031 C 
ATOM     48  C   UNL A   1      37.882  33.441  32.901  1.00  0.00     0.029 A 
ATOM     49  N   UNL A   1      39.420  31.815  32.847  1.00  0.00    -0.354 N 
ATOM     50  C   UNL A   1      39.519  28.934  29.656  1.00  0.00     0.074 A 
ATOM     51  C   UNL A   1      38.342  29.055  28.824  1.00  0.00     0.031 C 
ATOM     52  C   UNL A   1      38.625  33.547  34.016  1.00  0.00     0.029 A 
ATOM     53  C   UNL A   1      39.648  32.504  34.011  1.00  0.00     0.049 A 
ATOM     54  H   UNL A   1      39.959  31.041  32.563  1.00  0.00     0.167 HD
ATOM     55  C   UNL A   1      40.471  27.981  29.508  1.00  0.00     0.031 A 
ATOM     56  C   UNL A   1      40.588  32.326  34.958  1.00  0.00     0.031 A 
ATOM     57  C   UNL A   1      41.629  27.857  30.354  1.00  0.00     0.049 A 
ATOM     58  C   UNL A   1      41.645  31.275  34.767  1.00  0.00     0.074 A 
ATOM     59  C   UNL A   1      42.710  27.002  30.216  1.00  0.00     0.029 A 
ATOM     60  N   UNL A   1      41.842  28.589  31.510  1.00  0.00    -0.354 N 
ATOM     61  N   UNL A   1      41.782  30.412  33.790  1.00  0.00    -0.248 NA
ATOM     62  C   UNL A   1      42.699  31.202  35.789  1.00  0.00     0.031 C 
ATOM     63  C   UNL A   1      43.549  27.178  31.322  1.00  0.00     0.029 A 
ATOM     64  C   UNL A   1      43.014  28.176  32.121  1.00  0.00     0.049 A 
ATOM     65  H   UNL A   1      41.248  29.296  31.848  1.00  0.00     0.167 HD
ATOM     66  C   UNL A   1      42.949  29.711  34.065  1.00  0.00     0.074 A 
ATOM     67  C   UNL A   1      43.487  30.256  35.295  1.00  0.00     0.031 C 
ATOM     68  C   UNL A   1      43.529  28.713  33.353  1.00  0.00     0.031 A 
BRANCH  55  69
ATOM     69  C   UNL A   1      40.302  26.993  28.390  1.00  0.00    -0.014 A 
ATOM     70  C   UNL A   1      40.832  27.243  27.114  1.00  0.00     0.009 A 
ATOM     71  C   UNL A   1      39.667  25.764  28.631  1.00  0.00     0.009 A 
ATOM     72  C   UNL A   1      40.707  26.296  26.096  1.00  0.00     0.001 A 
ATOM     73  C   UNL A   1      39.563  24.809  27.618  1.00  0.00     0.001 A 
ATOM     74  C   UNL A   1      40.077  25.078  26.350  1.00  0.00     0.000 A 
ENDBRANCH  55  69
BRANCH  56  75
ATOM     75  C   UNL A   1      40.593  33.208  36.149  1.00  0.00    -0.014 A 
ATOM     76  C   UNL A   1      39.885  32.848  37.306  1.00  0.00     0.009 A 
ATOM     77  C   UNL A   1      41.339  34.396  36.147  1.00  0.00     0.009 A 
ATOM     78  C   UNL A   1      39.916  33.669  38.435  1.00  0.00     0.001 A 
ATOM     79  C   UNL A   1      41.383  35.204  37.283  1.00  0.00     0.001 A 
ATOM     80  C   UNL A   1      40.669  34.842  38.425  1.00  0.00     0.000 A 
ENDBRANCH  56  75
BRANCH  68  81
ATOM     81  C   UNL A   1      44.816  28.150  33.883  1.00  0.00    -0.014 A 
ATOM     82  C   UNL A   1      46.055  28.650  33.457  1.00  0.00     0.009 A 
ATOM     83  C   UNL A   1      44.787  27.137  34.855  1.00  0.00     0.009 A 
ATOM     84  C   UNL A   1      47.242  28.127  33.973  1.00  0.00     0.001 A 
ATOM     85  C   UNL A   1      45.975  26.632  35.385  1.00  0.00     0.001 A 
ATOM     86  C   UNL A   1      47.202  27.122  34.940  1.00  0.00     0.000 A 
ENDBRANCH  68  81
ENDBRANCH  42  43
ENDBRANCH  35  37
ENDBRANCH  34  35
ENDBRANCH  33  34
ENDBRANCH  32  33
ENDBRANCH  31  32
ENDBRANCH  30  31
ENDBRANCH   1  30
TORSDOF 19
ENDMDL
