MODEL 1
REMARK VINA RESULT:     -11.2      0.000      0.000
REMARK SMILES COc1ccc2c(CC(=O)OCCOCCOC(=O)c3ccc(-c4c5nc(c(-c6ccccc6)c6ccc([nH]6)c(-c6ccccc6)c6nc(c(-c7ccccc7)c7ccc4[nH]7)C=C6)C=C5)cc3)c(C(=O)c3cc(C)ccn3)[nH]c2c1
REMARK SMILES IDX 13 1 12 2 11 3 9 4 10 5 8 6 7 7 3 8 4 9 80 10 5 11 79 12
REMARK SMILES IDX 6 13 78 14 68 15 2 17 1 18 69 19 70 20 71 21 72 22 77 23
REMARK SMILES IDX 73 24 76 25 74 26 75 27 14 28 15 29 16 30 17 31 18 32 19 33
REMARK SMILES IDX 20 34 21 35 67 36 22 37 66 38 23 39 24 40 25 41 60 42 26 43
REMARK SMILES IDX 65 44 59 45 61 46 27 47 64 48 58 49 57 50 28 52 50 53 35 54
REMARK SMILES IDX 49 55 36 56 39 57 48 58 62 59 37 60 38 61 47 63 63 64 40 65
REMARK SMILES IDX 29 66 30 67 34 68 31 69 33 70 32 71 51 72 52 73 56 74 53 75
REMARK SMILES IDX 55 76 54 77 41 78 42 79 46 80 43 81 45 82 44 83
REMARK H PARENT 78 16 61 51 39 62
REMARK Flexibility Score: inf
ROOT
ATOM      1  C   UNL A   1      37.288  22.396  24.756  1.00  0.00     0.202 C 
ENDROOT
BRANCH   1   2
ATOM      2  C   UNL A   1      36.149  23.166  24.070  1.00  0.00     0.261 C 
BRANCH   2   3
ATOM      3  O   UNL A   1      35.153  22.313  23.468  1.00  0.00    -0.463 OA
BRANCH   3   4
ATOM      4  C   UNL A   1      34.020  22.957  23.067  1.00  0.00     0.310 C 
ATOM      5  O   UNL A   1      34.018  23.929  22.313  1.00  0.00    -0.252 OA
BRANCH   4   6
ATOM      6  C   UNL A   1      32.725  22.303  23.504  1.00  0.00     0.161 C 
BRANCH   6   7
ATOM      7  C   UNL A   1      32.799  21.199  24.525  1.00  0.00     0.000 A 
ATOM      8  C   UNL A   1      33.051  17.017  24.193  1.00  0.00     0.120 A 
ATOM      9  C   UNL A   1      32.752  17.684  23.008  1.00  0.00     0.047 A 
ATOM     10  C   UNL A   1      33.106  17.697  25.412  1.00  0.00     0.073 A 
ATOM     11  C   UNL A   1      32.589  19.076  23.001  1.00  0.00     0.014 A 
ATOM     12  C   UNL A   1      32.974  19.091  25.378  1.00  0.00     0.050 A 
ATOM     13  C   UNL A   1      32.745  19.799  24.203  1.00  0.00     0.004 A 
ATOM     14  N   UNL A   1      33.053  20.015  26.392  1.00  0.00    -0.351 N 
ATOM     15  C   UNL A   1      33.124  21.297  25.887  1.00  0.00     0.093 A 
ATOM     16  H   UNL A   1      33.059  19.790  27.351  1.00  0.00     0.167 HD
BRANCH   8  17
ATOM     17  O   UNL A   1      33.270  15.664  24.228  1.00  0.00    -0.497 OA
ATOM     18  C   UNL A   1      32.714  15.075  25.406  1.00  0.00     0.278 C 
ENDBRANCH   8  17
BRANCH  15  19
ATOM     19  C   UNL A   1      33.490  22.482  26.668  1.00  0.00     0.227 C 
ATOM     20  O   UNL A   1      34.405  22.490  27.489  1.00  0.00    -0.285 OA
BRANCH  19  21
ATOM     21  C   UNL A   1      32.765  23.770  26.440  1.00  0.00     0.113 A 
ATOM     22  C   UNL A   1      33.437  24.940  26.115  1.00  0.00     0.036 A 
ATOM     23  N   UNL A   1      31.419  23.702  26.586  1.00  0.00    -0.253 NA
ATOM     24  C   UNL A   1      32.680  26.108  25.955  1.00  0.00    -0.047 A 
ATOM     25  C   UNL A   1      30.712  24.835  26.441  1.00  0.00     0.112 A 
ATOM     26  C   UNL A   1      33.312  27.415  25.582  1.00  0.00     0.044 C 
ATOM     27  C   UNL A   1      31.293  26.050  26.132  1.00  0.00     0.023 A 
ENDBRANCH  19  21
ENDBRANCH  15  19
ENDBRANCH   6   7
ENDBRANCH   4   6
ENDBRANCH   3   4
ENDBRANCH   2   3
ENDBRANCH   1   2
BRANCH   1  28
ATOM     28  O   UNL A   1      36.963  21.149  25.368  1.00  0.00    -0.374 OA
BRANCH  28  29
ATOM     29  C   UNL A   1      37.407  19.967  24.707  1.00  0.00     0.202 C 
BRANCH  29  30
ATOM     30  C   UNL A   1      38.699  19.329  25.222  1.00  0.00     0.261 C 
BRANCH  30  31
ATOM     31  O   UNL A   1      39.456  20.136  26.123  1.00  0.00    -0.460 OA
BRANCH  31  32
ATOM     32  C   UNL A   1      40.776  19.879  26.128  1.00  0.00     0.338 C 
ATOM     33  O   UNL A   1      41.363  18.867  25.757  1.00  0.00    -0.246 OA
BRANCH  32  34
ATOM     34  C   UNL A   1      41.479  21.070  26.595  1.00  0.00     0.060 A 
ATOM     35  C   UNL A   1      41.633  21.250  27.972  1.00  0.00     0.016 A 
ATOM     36  C   UNL A   1      41.874  22.052  25.683  1.00  0.00     0.016 A 
ATOM     37  C   UNL A   1      42.128  22.458  28.448  1.00  0.00     0.010 A 
ATOM     38  C   UNL A   1      42.378  23.259  26.163  1.00  0.00     0.010 A 
ATOM     39  C   UNL A   1      42.460  23.481  27.547  1.00  0.00    -0.014 A 
BRANCH  39  40
ATOM     40  C   UNL A   1      42.751  24.831  28.078  1.00  0.00     0.031 A 
ATOM     41  C   UNL A   1      44.182  25.234  28.299  1.00  0.00     0.074 A 
ATOM     42  C   UNL A   1      41.751  25.700  28.291  1.00  0.00     0.049 A 
ATOM     43  N   UNL A   1      44.669  26.392  28.664  1.00  0.00    -0.248 NA
ATOM     44  C   UNL A   1      45.203  24.195  28.075  1.00  0.00     0.031 C 
ATOM     45  C   UNL A   1      40.330  25.417  28.089  1.00  0.00     0.029 A 
ATOM     46  N   UNL A   1      41.781  27.004  28.710  1.00  0.00    -0.354 N 
ATOM     47  C   UNL A   1      46.047  26.224  28.709  1.00  0.00     0.074 A 
ATOM     48  C   UNL A   1      46.319  24.844  28.371  1.00  0.00     0.031 C 
ATOM     49  C   UNL A   1      39.623  26.526  28.368  1.00  0.00     0.029 A 
ATOM     50  C   UNL A   1      40.539  27.584  28.784  1.00  0.00     0.049 A 
ATOM     51  H   UNL A   1      42.613  27.480  28.934  1.00  0.00     0.167 HD
ATOM     52  C   UNL A   1      47.000  27.141  28.994  1.00  0.00     0.031 A 
ATOM     53  C   UNL A   1      40.186  28.832  29.143  1.00  0.00     0.031 A 
ATOM     54  C   UNL A   1      46.722  28.506  29.346  1.00  0.00     0.049 A 
ATOM     55  C   UNL A   1      41.263  29.821  29.496  1.00  0.00     0.074 A 
ATOM     56  C   UNL A   1      47.612  29.522  29.650  1.00  0.00     0.029 A 
ATOM     57  N   UNL A   1      45.448  29.046  29.446  1.00  0.00    -0.354 N 
ATOM     58  N   UNL A   1      42.564  29.659  29.500  1.00  0.00    -0.248 NA
ATOM     59  C   UNL A   1      40.821  31.168  29.878  1.00  0.00     0.031 C 
ATOM     60  C   UNL A   1      46.874  30.664  29.977  1.00  0.00     0.029 A 
ATOM     61  C   UNL A   1      45.527  30.375  29.826  1.00  0.00     0.049 A 
ATOM     62  H   UNL A   1      44.612  28.557  29.272  1.00  0.00     0.167 HD
ATOM     63  C   UNL A   1      43.098  30.890  29.858  1.00  0.00     0.074 A 
ATOM     64  C   UNL A   1      41.978  31.791  30.049  1.00  0.00     0.031 C 
ATOM     65  C   UNL A   1      44.397  31.247  30.012  1.00  0.00     0.031 A 
BRANCH  52  66
ATOM     66  C   UNL A   1      48.431  26.680  28.961  1.00  0.00    -0.014 A 
ATOM     67  C   UNL A   1      49.208  26.801  27.797  1.00  0.00     0.009 A 
ATOM     68  C   UNL A   1      49.015  26.134  30.114  1.00  0.00     0.009 A 
ATOM     69  C   UNL A   1      50.531  26.352  27.781  1.00  0.00     0.001 A 
ATOM     70  C   UNL A   1      50.345  25.710  30.102  1.00  0.00     0.001 A 
ATOM     71  C   UNL A   1      51.099  25.811  28.934  1.00  0.00     0.000 A 
ENDBRANCH  52  66
BRANCH  53  72
ATOM     72  C   UNL A   1      38.752  29.217  29.173  1.00  0.00    -0.014 A 
ATOM     73  C   UNL A   1      38.009  29.121  30.359  1.00  0.00     0.009 A 
ATOM     74  C   UNL A   1      38.121  29.690  28.012  1.00  0.00     0.009 A 
ATOM     75  C   UNL A   1      36.656  29.470  30.375  1.00  0.00     0.001 A 
ATOM     76  C   UNL A   1      36.776  30.063  28.038  1.00  0.00     0.001 A 
ATOM     77  C   UNL A   1      36.043  29.946  29.216  1.00  0.00     0.000 A 
ENDBRANCH  53  72
BRANCH  65  78
ATOM     78  C   UNL A   1      44.671  32.678  30.379  1.00  0.00    -0.014 A 
ATOM     79  C   UNL A   1      44.782  33.078  31.719  1.00  0.00     0.009 A 
ATOM     80  C   UNL A   1      44.850  33.630  29.364  1.00  0.00     0.009 A 
ATOM     81  C   UNL A   1      45.033  34.414  32.036  1.00  0.00     0.001 A 
ATOM     82  C   UNL A   1      45.127  34.960  29.683  1.00  0.00     0.001 A 
ATOM     83  C   UNL A   1      45.207  35.353  31.019  1.00  0.00     0.000 A 
ENDBRANCH  65  78
ENDBRANCH  39  40
ENDBRANCH  32  34
ENDBRANCH  31  32
ENDBRANCH  30  31
ENDBRANCH  29  30
ENDBRANCH  28  29
ENDBRANCH   1  28
TORSDOF 18
ENDMDL
MODEL 2
REMARK VINA RESULT:     -11.0      0.539      5.772
REMARK SMILES COc1ccc2c(CC(=O)OCCOCCOC(=O)c3ccc(-c4c5nc(c(-c6ccccc6)c6ccc([nH]6)c(-c6ccccc6)c6nc(c(-c7ccccc7)c7ccc4[nH]7)C=C6)C=C5)cc3)c(C(=O)c3cc(C)ccn3)[nH]c2c1
REMARK SMILES IDX 13 1 12 2 11 3 9 4 10 5 8 6 7 7 3 8 4 9 80 10 5 11 79 12
REMARK SMILES IDX 6 13 78 14 68 15 2 17 1 18 69 19 70 20 71 21 72 22 77 23
REMARK SMILES IDX 73 24 76 25 74 26 75 27 14 28 15 29 16 30 17 31 18 32 19 33
REMARK SMILES IDX 20 34 21 35 67 36 22 37 66 38 23 39 24 40 25 41 60 42 26 43
REMARK SMILES IDX 65 44 59 45 61 46 27 47 64 48 58 49 57 50 28 52 50 53 35 54
REMARK SMILES IDX 49 55 36 56 39 57 48 58 62 59 37 60 38 61 47 63 63 64 40 65
REMARK SMILES IDX 29 66 30 67 34 68 31 69 33 70 32 71 51 72 52 73 56 74 53 75
REMARK SMILES IDX 55 76 54 77 41 78 42 79 46 80 43 81 45 82 44 83
REMARK H PARENT 78 16 61 51 39 62
REMARK Flexibility Score: inf
ROOT
ATOM      1  C   UNL A   1      37.106  22.658  24.452  1.00  0.00     0.202 C 
ENDROOT
BRANCH   1   2
ATOM      2  C   UNL A   1      35.946  23.357  23.725  1.00  0.00     0.261 C 
BRANCH   2   3
ATOM      3  O   UNL A   1      34.930  22.449  23.249  1.00  0.00    -0.463 OA
BRANCH   3   4
ATOM      4  C   UNL A   1      33.756  23.045  22.895  1.00  0.00     0.310 C 
ATOM      5  O   UNL A   1      33.676  23.966  22.084  1.00  0.00    -0.252 OA
BRANCH   4   6
ATOM      6  C   UNL A   1      32.513  22.397  23.469  1.00  0.00     0.161 C 
BRANCH   6   7
ATOM      7  C   UNL A   1      32.692  21.287  24.471  1.00  0.00     0.000 A 
ATOM      8  C   UNL A   1      33.001  17.114  24.081  1.00  0.00     0.120 A 
ATOM      9  C   UNL A   1      32.593  17.784  22.931  1.00  0.00     0.047 A 
ATOM     10  C   UNL A   1      33.140  17.786  25.298  1.00  0.00     0.073 A 
ATOM     11  C   UNL A   1      32.402  19.172  22.949  1.00  0.00     0.014 A 
ATOM     12  C   UNL A   1      32.977  19.178  25.287  1.00  0.00     0.050 A 
ATOM     13  C   UNL A   1      32.640  19.889  24.142  1.00  0.00     0.004 A 
ATOM     14  N   UNL A   1      33.119  20.094  26.300  1.00  0.00    -0.351 N 
ATOM     15  C   UNL A   1      33.123  21.382  25.803  1.00  0.00     0.093 A 
ATOM     16  H   UNL A   1      33.207  19.863  27.254  1.00  0.00     0.167 HD
BRANCH   8  17
ATOM     17  O   UNL A   1      33.248  15.765  24.086  1.00  0.00    -0.497 OA
ATOM     18  C   UNL A   1      33.068  15.206  25.389  1.00  0.00     0.278 C 
ENDBRANCH   8  17
BRANCH  15  19
ATOM     19  C   UNL A   1      33.527  22.568  26.563  1.00  0.00     0.227 C 
ATOM     20  O   UNL A   1      34.450  22.564  27.375  1.00  0.00    -0.285 OA
BRANCH  19  21
ATOM     21  C   UNL A   1      32.834  23.871  26.323  1.00  0.00     0.113 A 
ATOM     22  C   UNL A   1      33.535  25.028  26.013  1.00  0.00     0.036 A 
ATOM     23  N   UNL A   1      31.483  23.830  26.444  1.00  0.00    -0.253 NA
ATOM     24  C   UNL A   1      32.805  26.211  25.840  1.00  0.00    -0.047 A 
ATOM     25  C   UNL A   1      30.803  24.977  26.286  1.00  0.00     0.112 A 
ATOM     26  C   UNL A   1      33.470  27.505  25.482  1.00  0.00     0.044 C 
ATOM     27  C   UNL A   1      31.414  26.180  25.991  1.00  0.00     0.023 A 
ENDBRANCH  19  21
ENDBRANCH  15  19
ENDBRANCH   6   7
ENDBRANCH   4   6
ENDBRANCH   3   4
ENDBRANCH   2   3
ENDBRANCH   1   2
BRANCH   1  28
ATOM     28  O   UNL A   1      36.788  21.527  25.262  1.00  0.00    -0.374 OA
BRANCH  28  29
ATOM     29  C   UNL A   1      37.155  20.245  24.760  1.00  0.00     0.202 C 
BRANCH  29  30
ATOM     30  C   UNL A   1      38.467  19.649  25.274  1.00  0.00     0.261 C 
BRANCH  30  31
ATOM     31  O   UNL A   1      39.299  20.553  26.002  1.00  0.00    -0.460 OA
BRANCH  31  32
ATOM     32  C   UNL A   1      40.581  20.163  26.116  1.00  0.00     0.338 C 
ATOM     33  O   UNL A   1      41.087  19.088  25.805  1.00  0.00    -0.246 OA
BRANCH  32  34
ATOM     34  C   UNL A   1      41.365  21.285  26.623  1.00  0.00     0.060 A 
ATOM     35  C   UNL A   1      41.306  21.569  27.990  1.00  0.00     0.016 A 
ATOM     36  C   UNL A   1      42.052  22.115  25.735  1.00  0.00     0.016 A 
ATOM     37  C   UNL A   1      41.888  22.737  28.467  1.00  0.00     0.010 A 
ATOM     38  C   UNL A   1      42.643  23.282  26.218  1.00  0.00     0.010 A 
ATOM     39  C   UNL A   1      42.519  23.618  27.576  1.00  0.00    -0.014 A 
BRANCH  39  40
ATOM     40  C   UNL A   1      42.914  24.958  28.060  1.00  0.00     0.031 A 
ATOM     41  C   UNL A   1      41.851  25.999  28.273  1.00  0.00     0.074 A 
ATOM     42  C   UNL A   1      44.197  25.212  28.367  1.00  0.00     0.049 A 
ATOM     43  N   UNL A   1      41.959  27.201  28.778  1.00  0.00    -0.248 NA
ATOM     44  C   UNL A   1      40.482  25.636  27.868  1.00  0.00     0.031 C 
ATOM     45  C   UNL A   1      45.302  24.267  28.218  1.00  0.00     0.029 A 
ATOM     46  N   UNL A   1      44.780  26.338  28.886  1.00  0.00    -0.354 N 
ATOM     47  C   UNL A   1      40.676  27.734  28.756  1.00  0.00     0.074 A 
ATOM     48  C   UNL A   1      39.813  26.742  28.154  1.00  0.00     0.031 C 
ATOM     49  C   UNL A   1      46.433  24.849  28.653  1.00  0.00     0.029 A 
ATOM     50  C   UNL A   1      46.130  26.208  29.092  1.00  0.00     0.049 A 
ATOM     51  H   UNL A   1      44.279  27.160  29.091  1.00  0.00     0.167 HD
ATOM     52  C   UNL A   1      40.255  28.938  29.208  1.00  0.00     0.031 A 
ATOM     53  C   UNL A   1      47.019  27.090  29.587  1.00  0.00     0.031 A 
ATOM     54  C   UNL A   1      41.122  29.926  29.790  1.00  0.00     0.049 A 
ATOM     55  C   UNL A   1      46.532  28.438  30.044  1.00  0.00     0.074 A 
ATOM     56  C   UNL A   1      40.800  31.178  30.285  1.00  0.00     0.029 A 
ATOM     57  N   UNL A   1      42.491  29.771  29.948  1.00  0.00    -0.354 N 
ATOM     58  N   UNL A   1      45.311  28.916  30.051  1.00  0.00    -0.248 NA
ATOM     59  C   UNL A   1      47.545  29.358  30.577  1.00  0.00     0.031 C 
ATOM     60  C   UNL A   1      41.982  31.797  30.703  1.00  0.00     0.029 A 
ATOM     61  C   UNL A   1      43.033  30.912  30.516  1.00  0.00     0.049 A 
ATOM     62  H   UNL A   1      43.003  28.970  29.696  1.00  0.00     0.167 HD
ATOM     63  C   UNL A   1      45.404  30.183  30.611  1.00  0.00     0.074 A 
ATOM     64  C   UNL A   1      46.800  30.390  30.946  1.00  0.00     0.031 C 
ATOM     65  C   UNL A   1      44.425  31.093  30.834  1.00  0.00     0.031 A 
BRANCH  52  66
ATOM     66  C   UNL A   1      38.793  29.256  29.062  1.00  0.00    -0.014 A 
ATOM     67  C   UNL A   1      37.905  29.106  30.140  1.00  0.00     0.009 A 
ATOM     68  C   UNL A   1      38.300  29.728  27.836  1.00  0.00     0.009 A 
ATOM     69  C   UNL A   1      36.545  29.390  29.980  1.00  0.00     0.001 A 
ATOM     70  C   UNL A   1      36.947  30.036  27.688  1.00  0.00     0.001 A 
ATOM     71  C   UNL A   1      36.069  29.859  28.756  1.00  0.00     0.000 A 
ENDBRANCH  52  66
BRANCH  53  72
ATOM     72  C   UNL A   1      48.453  26.719  29.686  1.00  0.00    -0.014 A 
ATOM     73  C   UNL A   1      49.349  27.033  28.653  1.00  0.00     0.009 A 
ATOM     74  C   UNL A   1      48.936  26.051  30.823  1.00  0.00     0.009 A 
ATOM     75  C   UNL A   1      50.694  26.667  28.747  1.00  0.00     0.001 A 
ATOM     76  C   UNL A   1      50.286  25.711  30.926  1.00  0.00     0.001 A 
ATOM     77  C   UNL A   1      51.162  26.011  29.886  1.00  0.00     0.000 A 
ENDBRANCH  53  72
BRANCH  65  78
ATOM     78  C   UNL A   1      44.829  32.381  31.495  1.00  0.00    -0.014 A 
ATOM     79  C   UNL A   1      44.828  32.514  32.892  1.00  0.00     0.009 A 
ATOM     80  C   UNL A   1      45.245  33.463  30.705  1.00  0.00     0.009 A 
ATOM     81  C   UNL A   1      45.203  33.721  33.484  1.00  0.00     0.001 A 
ATOM     82  C   UNL A   1      45.644  34.660  31.300  1.00  0.00     0.001 A 
ATOM     83  C   UNL A   1      45.612  34.792  32.688  1.00  0.00     0.000 A 
ENDBRANCH  65  78
ENDBRANCH  39  40
ENDBRANCH  32  34
ENDBRANCH  31  32
ENDBRANCH  30  31
ENDBRANCH  29  30
ENDBRANCH  28  29
ENDBRANCH   1  28
TORSDOF 18
ENDMDL
MODEL 3
REMARK VINA RESULT:     -10.9      2.536      4.934
REMARK SMILES COc1ccc2c(CC(=O)OCCOCCOC(=O)c3ccc(-c4c5nc(c(-c6ccccc6)c6ccc([nH]6)c(-c6ccccc6)c6nc(c(-c7ccccc7)c7ccc4[nH]7)C=C6)C=C5)cc3)c(C(=O)c3cc(C)ccn3)[nH]c2c1
REMARK SMILES IDX 13 1 12 2 11 3 9 4 10 5 8 6 7 7 3 8 4 9 80 10 5 11 79 12
REMARK SMILES IDX 6 13 78 14 68 15 2 17 1 18 69 19 70 20 71 21 72 22 77 23
REMARK SMILES IDX 73 24 76 25 74 26 75 27 14 28 15 29 16 30 17 31 18 32 19 33
REMARK SMILES IDX 20 34 21 35 67 36 22 37 66 38 23 39 24 40 25 41 60 42 26 43
REMARK SMILES IDX 65 44 59 45 61 46 27 47 64 48 58 49 57 50 28 52 50 53 35 54
REMARK SMILES IDX 49 55 36 56 39 57 48 58 62 59 37 60 38 61 47 63 63 64 40 65
REMARK SMILES IDX 29 66 30 67 34 68 31 69 33 70 32 71 51 72 52 73 56 74 53 75
REMARK SMILES IDX 55 76 54 77 41 78 42 79 46 80 43 81 45 82 44 83
REMARK H PARENT 78 16 61 51 39 62
REMARK Flexibility Score: inf
ROOT
ATOM      1  C   UNL A   1      35.361  22.625  25.158  1.00  0.00     0.202 C 
ENDROOT
BRANCH   1   2
ATOM      2  C   UNL A   1      35.506  24.068  25.669  1.00  0.00     0.261 C 
BRANCH   2   3
ATOM      3  O   UNL A   1      34.267  24.647  26.130  1.00  0.00    -0.463 OA
BRANCH   3   4
ATOM      4  C   UNL A   1      33.846  25.729  25.416  1.00  0.00     0.310 C 
ATOM      5  O   UNL A   1      34.236  25.991  24.279  1.00  0.00    -0.252 OA
BRANCH   4   6
ATOM      6  C   UNL A   1      32.739  26.532  26.068  1.00  0.00     0.161 C 
BRANCH   6   7
ATOM      7  C   UNL A   1      31.346  26.397  25.512  1.00  0.00     0.000 A 
ATOM      8  C   UNL A   1      29.108  28.728  22.825  1.00  0.00     0.120 A 
ATOM      9  C   UNL A   1      30.281  29.322  23.283  1.00  0.00     0.047 A 
ATOM     10  C   UNL A   1      28.657  27.516  23.353  1.00  0.00     0.073 A 
ATOM     11  C   UNL A   1      31.086  28.666  24.223  1.00  0.00     0.014 A 
ATOM     12  C   UNL A   1      29.493  26.861  24.267  1.00  0.00     0.050 A 
ATOM     13  C   UNL A   1      30.706  27.390  24.693  1.00  0.00     0.004 A 
ATOM     14  N   UNL A   1      29.347  25.645  24.888  1.00  0.00    -0.351 N 
ATOM     15  C   UNL A   1      30.520  25.263  25.506  1.00  0.00     0.093 A 
ATOM     16  H   UNL A   1      28.516  25.116  24.891  1.00  0.00     0.167 HD
BRANCH   8  17
ATOM     17  O   UNL A   1      28.323  29.317  21.867  1.00  0.00    -0.497 OA
ATOM     18  C   UNL A   1      28.788  30.629  21.544  1.00  0.00     0.278 C 
ENDBRANCH   8  17
BRANCH  15  19
ATOM     19  C   UNL A   1      30.794  23.916  26.017  1.00  0.00     0.227 C 
ATOM     20  O   UNL A   1      30.561  23.576  27.175  1.00  0.00    -0.285 OA
BRANCH  19  21
ATOM     21  C   UNL A   1      31.334  22.871  25.094  1.00  0.00     0.113 A 
ATOM     22  C   UNL A   1      31.647  21.593  25.537  1.00  0.00     0.036 A 
ATOM     23  N   UNL A   1      31.500  23.274  23.809  1.00  0.00    -0.253 NA
ATOM     24  C   UNL A   1      32.182  20.690  24.609  1.00  0.00    -0.047 A 
ATOM     25  C   UNL A   1      32.025  22.397  22.938  1.00  0.00     0.112 A 
ATOM     26  C   UNL A   1      32.531  19.283  24.987  1.00  0.00     0.044 C 
ATOM     27  C   UNL A   1      32.382  21.110  23.288  1.00  0.00     0.023 A 
ENDBRANCH  19  21
ENDBRANCH  15  19
ENDBRANCH   6   7
ENDBRANCH   4   6
ENDBRANCH   3   4
ENDBRANCH   2   3
ENDBRANCH   1   2
BRANCH   1  28
ATOM     28  O   UNL A   1      36.295  21.660  25.641  1.00  0.00    -0.374 OA
BRANCH  28  29
ATOM     29  C   UNL A   1      37.358  21.292  24.767  1.00  0.00     0.202 C 
BRANCH  29  30
ATOM     30  C   UNL A   1      38.453  20.395  25.348  1.00  0.00     0.261 C 
BRANCH  30  31
ATOM     31  O   UNL A   1      39.731  21.013  25.492  1.00  0.00    -0.460 OA
BRANCH  31  32
ATOM     32  C   UNL A   1      40.288  20.866  26.707  1.00  0.00     0.338 C 
ATOM     33  O   UNL A   1      40.626  19.832  27.276  1.00  0.00    -0.246 OA
BRANCH  32  34
ATOM     34  C   UNL A   1      40.526  22.191  27.273  1.00  0.00     0.060 A 
ATOM     35  C   UNL A   1      39.829  23.275  26.734  1.00  0.00     0.016 A 
ATOM     36  C   UNL A   1      41.515  22.369  28.243  1.00  0.00     0.016 A 
ATOM     37  C   UNL A   1      40.172  24.564  27.123  1.00  0.00     0.010 A 
ATOM     38  C   UNL A   1      41.851  23.663  28.637  1.00  0.00     0.010 A 
ATOM     39  C   UNL A   1      41.213  24.763  28.042  1.00  0.00    -0.014 A 
BRANCH  39  40
ATOM     40  C   UNL A   1      41.721  26.135  28.256  1.00  0.00     0.031 A 
ATOM     41  C   UNL A   1      42.997  26.554  27.581  1.00  0.00     0.074 A 
ATOM     42  C   UNL A   1      41.012  27.010  28.988  1.00  0.00     0.049 A 
ATOM     43  N   UNL A   1      43.571  27.729  27.552  1.00  0.00    -0.248 NA
ATOM     44  C   UNL A   1      43.721  25.511  26.833  1.00  0.00     0.031 C 
ATOM     45  C   UNL A   1      39.751  26.712  29.668  1.00  0.00     0.029 A 
ATOM     46  N   UNL A   1      41.244  28.331  29.265  1.00  0.00    -0.354 N 
ATOM     47  C   UNL A   1      44.717  27.568  26.783  1.00  0.00     0.074 A 
ATOM     48  C   UNL A   1      44.779  26.176  26.395  1.00  0.00     0.031 C 
ATOM     49  C   UNL A   1      39.311  27.829  30.273  1.00  0.00     0.029 A 
ATOM     50  C   UNL A   1      40.266  28.907  30.036  1.00  0.00     0.049 A 
ATOM     51  H   UNL A   1      42.035  28.819  28.943  1.00  0.00     0.167 HD
ATOM     52  C   UNL A   1      45.629  28.501  26.424  1.00  0.00     0.031 A 
ATOM     53  C   UNL A   1      40.155  30.169  30.493  1.00  0.00     0.031 A 
ATOM     54  C   UNL A   1      45.572  29.879  26.827  1.00  0.00     0.049 A 
ATOM     55  C   UNL A   1      41.205  31.177  30.113  1.00  0.00     0.074 A 
ATOM     56  C   UNL A   1      46.441  30.911  26.516  1.00  0.00     0.029 A 
ATOM     57  N   UNL A   1      44.584  30.417  27.639  1.00  0.00    -0.354 N 
ATOM     58  N   UNL A   1      42.265  31.021  29.357  1.00  0.00    -0.248 NA
ATOM     59  C   UNL A   1      41.032  32.537  30.638  1.00  0.00     0.031 C 
ATOM     60  C   UNL A   1      46.003  32.063  27.177  1.00  0.00     0.029 A 
ATOM     61  C   UNL A   1      44.832  31.762  27.856  1.00  0.00     0.049 A 
ATOM     62  H   UNL A   1      43.820  29.918  28.006  1.00  0.00     0.167 HD
ATOM     63  C   UNL A   1      42.871  32.268  29.293  1.00  0.00     0.074 A 
ATOM     64  C   UNL A   1      42.051  33.172  30.075  1.00  0.00     0.031 C 
ATOM     65  C   UNL A   1      44.002  32.637  28.643  1.00  0.00     0.031 A 
BRANCH  52  66
ATOM     66  C   UNL A   1      46.782  28.046  25.572  1.00  0.00    -0.014 A 
ATOM     67  C   UNL A   1      46.701  28.063  24.170  1.00  0.00     0.009 A 
ATOM     68  C   UNL A   1      47.969  27.609  26.178  1.00  0.00     0.009 A 
ATOM     69  C   UNL A   1      47.776  27.620  23.394  1.00  0.00     0.001 A 
ATOM     70  C   UNL A   1      49.050  27.191  25.401  1.00  0.00     0.001 A 
ATOM     71  C   UNL A   1      48.950  27.188  24.010  1.00  0.00     0.000 A 
ENDBRANCH  52  66
BRANCH  53  72
ATOM     72  C   UNL A   1      39.001  30.548  31.347  1.00  0.00    -0.014 A 
ATOM     73  C   UNL A   1      37.811  31.024  30.775  1.00  0.00     0.009 A 
ATOM     74  C   UNL A   1      39.083  30.428  32.743  1.00  0.00     0.009 A 
ATOM     75  C   UNL A   1      36.735  31.393  31.587  1.00  0.00     0.001 A 
ATOM     76  C   UNL A   1      37.997  30.772  33.549  1.00  0.00     0.001 A 
ATOM     77  C   UNL A   1      36.827  31.261  32.972  1.00  0.00     0.000 A 
ENDBRANCH  53  72
BRANCH  65  78
ATOM     78  C   UNL A   1      44.398  34.083  28.731  1.00  0.00    -0.014 A 
ATOM     79  C   UNL A   1      45.231  34.549  29.759  1.00  0.00     0.009 A 
ATOM     80  C   UNL A   1      43.953  34.984  27.751  1.00  0.00     0.009 A 
ATOM     81  C   UNL A   1      45.582  35.898  29.824  1.00  0.00     0.001 A 
ATOM     82  C   UNL A   1      44.326  36.327  27.803  1.00  0.00     0.001 A 
ATOM     83  C   UNL A   1      45.132  36.785  28.845  1.00  0.00     0.000 A 
ENDBRANCH  65  78
ENDBRANCH  39  40
ENDBRANCH  32  34
ENDBRANCH  31  32
ENDBRANCH  30  31
ENDBRANCH  29  30
ENDBRANCH  28  29
ENDBRANCH   1  28
TORSDOF 18
ENDMDL
