MODEL 1
REMARK VINA RESULT:     -10.4      0.000      0.000
REMARK SMILES CCn1c(C)cc(/C=C(/C(=O)OCCOCCOC(=O)c2ccc(-c3c4nc(c(-c5ccccc5)c5ccc([nH]5)c(-c5ccccc5)c5nc(c(-c6ccccc6)c6ccc3[nH]6)C=C5)C=C4)cc2)c2ccccc2)c1C
REMARK SMILES IDX 15 1 14 2 13 3 12 4 10 5 11 6 9 7 8 8 7 9 3 10 4 11 75 12
REMARK SMILES IDX 5 13 6 14 76 15 2 16 1 17 69 18 70 19 74 20 71 21 73 22
REMARK SMILES IDX 72 23 16 24 17 25 18 26 19 27 20 28 21 29 22 30 68 31 23 32
REMARK SMILES IDX 67 33 24 34 25 35 26 36 61 37 27 38 66 39 60 40 62 41 28 42
REMARK SMILES IDX 65 43 59 44 58 45 29 47 51 48 36 49 50 50 37 51 40 52 49 53
REMARK SMILES IDX 63 54 38 55 39 56 48 58 64 59 41 60 30 61 31 62 35 63 32 64
REMARK SMILES IDX 34 65 33 66 52 67 53 68 57 69 54 70 56 71 55 72 42 73 43 74
REMARK SMILES IDX 47 75 44 76 46 77 45 78
REMARK H PARENT 62 46 40 57
REMARK Flexibility Score: inf
ROOT
ATOM      1  O   UNL A   1      40.037  21.690  27.470  1.00  0.00    -0.374 OA
ENDROOT
BRANCH   1   2
ATOM      2  C   UNL A   1      39.546  22.314  26.288  1.00  0.00     0.202 C 
BRANCH   2   3
ATOM      3  C   UNL A   1      38.301  23.193  26.498  1.00  0.00     0.261 C 
BRANCH   3   4
ATOM      4  O   UNL A   1      37.749  23.636  25.244  1.00  0.00    -0.460 OA
BRANCH   4   5
ATOM      5  C   UNL A   1      36.827  22.820  24.692  1.00  0.00     0.338 C 
ATOM      6  O   UNL A   1      37.090  21.779  24.058  1.00  0.00    -0.246 OA
BRANCH   5   7
ATOM      7  C   UNL A   1      35.420  23.230  25.001  1.00  0.00     0.067 C 
ATOM      8  C   UNL A   1      35.179  24.524  25.322  1.00  0.00     0.026 C 
BRANCH   8   9
ATOM      9  C   UNL A   1      33.989  25.326  25.530  1.00  0.00    -0.004 A 
ATOM     10  N   UNL A   1      31.935  26.187  25.848  1.00  0.00    -0.349 N 
ATOM     11  C   UNL A   1      32.690  27.200  25.309  1.00  0.00     0.015 A 
ATOM     12  C   UNL A   1      32.728  25.064  26.060  1.00  0.00     0.022 A 
ATOM     13  C   UNL A   1      32.146  28.546  24.985  1.00  0.00     0.064 C 
ATOM     14  C   UNL A   1      33.959  26.697  25.121  1.00  0.00     0.031 A 
ATOM     15  C   UNL A   1      32.133  23.877  26.728  1.00  0.00     0.065 C 
BRANCH  10  16
ATOM     16  C   UNL A   1      30.496  26.253  26.091  1.00  0.00     0.118 C 
ATOM     17  C   UNL A   1      29.667  26.021  24.838  1.00  0.00     0.027 C 
ENDBRANCH  10  16
ENDBRANCH   8   9
BRANCH   7  18
ATOM     18  C   UNL A   1      34.411  22.179  24.819  1.00  0.00    -0.011 A 
ATOM     19  C   UNL A   1      34.240  21.197  25.807  1.00  0.00     0.009 A 
ATOM     20  C   UNL A   1      33.635  22.132  23.656  1.00  0.00     0.009 A 
ATOM     21  C   UNL A   1      33.230  20.242  25.676  1.00  0.00     0.001 A 
ATOM     22  C   UNL A   1      32.630  21.171  23.526  1.00  0.00     0.001 A 
ATOM     23  C   UNL A   1      32.413  20.243  24.545  1.00  0.00     0.000 A 
ENDBRANCH   7  18
ENDBRANCH   5   7
ENDBRANCH   4   5
ENDBRANCH   3   4
ENDBRANCH   2   3
ENDBRANCH   1   2
BRANCH   1  24
ATOM     24  C   UNL A   1      41.317  21.046  27.361  1.00  0.00     0.202 C 
BRANCH  24  25
ATOM     25  C   UNL A   1      42.267  21.602  26.267  1.00  0.00     0.261 C 
BRANCH  25  26
ATOM     26  O   UNL A   1      43.417  22.423  26.698  1.00  0.00    -0.460 OA
BRANCH  26  27
ATOM     27  C   UNL A   1      43.394  23.741  26.314  1.00  0.00     0.338 C 
ATOM     28  O   UNL A   1      44.242  24.237  25.562  1.00  0.00    -0.246 OA
BRANCH  27  29
ATOM     29  C   UNL A   1      42.256  24.616  26.835  1.00  0.00     0.060 A 
ATOM     30  C   UNL A   1      41.680  25.545  25.983  1.00  0.00     0.016 A 
ATOM     31  C   UNL A   1      41.946  24.798  28.204  1.00  0.00     0.016 A 
ATOM     32  C   UNL A   1      40.812  26.576  26.479  1.00  0.00     0.010 A 
ATOM     33  C   UNL A   1      41.107  25.902  28.712  1.00  0.00     0.010 A 
ATOM     34  C   UNL A   1      40.516  26.857  27.866  1.00  0.00    -0.014 A 
BRANCH  34  35
ATOM     35  C   UNL A   1      39.963  28.353  28.216  1.00  0.00     0.031 A 
ATOM     36  C   UNL A   1      41.211  29.121  28.470  1.00  0.00     0.074 A 
ATOM     37  C   UNL A   1      38.835  29.133  28.501  1.00  0.00     0.049 A 
ATOM     38  N   UNL A   1      42.028  28.721  29.398  1.00  0.00    -0.248 NA
ATOM     39  C   UNL A   1      41.768  30.094  27.530  1.00  0.00     0.031 C 
ATOM     40  C   UNL A   1      37.428  28.714  28.615  1.00  0.00     0.029 A 
ATOM     41  N   UNL A   1      38.677  30.543  28.768  1.00  0.00    -0.354 N 
ATOM     42  C   UNL A   1      43.097  29.574  29.354  1.00  0.00     0.074 A 
ATOM     43  C   UNL A   1      42.985  30.242  28.066  1.00  0.00     0.031 C 
ATOM     44  C   UNL A   1      36.588  29.783  28.772  1.00  0.00     0.029 A 
ATOM     45  C   UNL A   1      37.329  31.042  28.842  1.00  0.00     0.049 A 
ATOM     46  H   UNL A   1      39.455  31.134  28.894  1.00  0.00     0.167 HD
ATOM     47  C   UNL A   1      43.523  30.076  30.547  1.00  0.00     0.031 A 
ATOM     48  C   UNL A   1      36.822  32.330  29.017  1.00  0.00     0.031 A 
ATOM     49  C   UNL A   1      43.173  31.462  30.703  1.00  0.00     0.049 A 
ATOM     50  C   UNL A   1      37.850  33.128  29.700  1.00  0.00     0.074 A 
ATOM     51  C   UNL A   1      43.235  32.561  29.869  1.00  0.00     0.029 A 
ATOM     52  N   UNL A   1      42.254  31.761  31.685  1.00  0.00    -0.354 N 
ATOM     53  N   UNL A   1      37.999  33.044  30.986  1.00  0.00    -0.248 NA
ATOM     54  C   UNL A   1      38.605  34.200  29.058  1.00  0.00     0.031 C 
ATOM     55  C   UNL A   1      42.029  33.263  30.093  1.00  0.00     0.029 A 
ATOM     56  C   UNL A   1      41.419  32.763  31.237  1.00  0.00     0.049 A 
ATOM     57  H   UNL A   1      42.200  31.326  32.567  1.00  0.00     0.167 HD
ATOM     58  C   UNL A   1      39.200  33.641  31.202  1.00  0.00     0.074 A 
ATOM     59  C   UNL A   1      39.369  34.560  30.093  1.00  0.00     0.031 C 
ATOM     60  C   UNL A   1      40.122  32.896  31.860  1.00  0.00     0.031 A 
BRANCH  47  61
ATOM     61  C   UNL A   1      43.527  29.078  31.677  1.00  0.00    -0.014 A 
ATOM     62  C   UNL A   1      44.647  28.262  31.863  1.00  0.00     0.009 A 
ATOM     63  C   UNL A   1      42.380  28.829  32.462  1.00  0.00     0.009 A 
ATOM     64  C   UNL A   1      44.590  27.180  32.750  1.00  0.00     0.001 A 
ATOM     65  C   UNL A   1      42.310  27.728  33.313  1.00  0.00     0.001 A 
ATOM     66  C   UNL A   1      43.415  26.897  33.449  1.00  0.00     0.000 A 
ENDBRANCH  47  61
BRANCH  48  67
ATOM     67  C   UNL A   1      35.524  33.185  28.989  1.00  0.00    -0.014 A 
ATOM     68  C   UNL A   1      34.854  33.498  30.222  1.00  0.00     0.009 A 
ATOM     69  C   UNL A   1      35.180  34.022  27.921  1.00  0.00     0.009 A 
ATOM     70  C   UNL A   1      34.025  34.620  30.413  1.00  0.00     0.001 A 
ATOM     71  C   UNL A   1      34.305  35.134  28.101  1.00  0.00     0.001 A 
ATOM     72  C   UNL A   1      33.762  35.455  29.347  1.00  0.00     0.000 A 
ENDBRANCH  48  67
BRANCH  60  73
ATOM     73  C   UNL A   1      39.624  32.021  33.006  1.00  0.00    -0.014 A 
ATOM     74  C   UNL A   1      39.050  30.736  32.866  1.00  0.00     0.009 A 
ATOM     75  C   UNL A   1      39.700  32.539  34.306  1.00  0.00     0.009 A 
ATOM     76  C   UNL A   1      38.513  30.039  33.955  1.00  0.00     0.001 A 
ATOM     77  C   UNL A   1      39.212  31.819  35.405  1.00  0.00     0.001 A 
ATOM     78  C   UNL A   1      38.602  30.580  35.228  1.00  0.00     0.000 A 
ENDBRANCH  60  73
ENDBRANCH  34  35
ENDBRANCH  27  29
ENDBRANCH  26  27
ENDBRANCH  25  26
ENDBRANCH  24  25
ENDBRANCH   1  24
TORSDOF 17
ENDMDL
MODEL 2
REMARK VINA RESULT:     -10.2      3.209      8.748
REMARK SMILES CCn1c(C)cc(/C=C(/C(=O)OCCOCCOC(=O)c2ccc(-c3c4nc(c(-c5ccccc5)c5ccc([nH]5)c(-c5ccccc5)c5nc(c(-c6ccccc6)c6ccc3[nH]6)C=C5)C=C4)cc2)c2ccccc2)c1C
REMARK SMILES IDX 15 1 14 2 13 3 12 4 10 5 11 6 9 7 8 8 7 9 3 10 4 11 75 12
REMARK SMILES IDX 5 13 6 14 76 15 2 16 1 17 69 18 70 19 74 20 71 21 73 22
REMARK SMILES IDX 72 23 16 24 17 25 18 26 19 27 20 28 21 29 22 30 68 31 23 32
REMARK SMILES IDX 67 33 24 34 25 35 26 36 61 37 27 38 66 39 60 40 62 41 28 42
REMARK SMILES IDX 65 43 59 44 58 45 29 47 51 48 36 49 50 50 37 51 40 52 49 53
REMARK SMILES IDX 63 54 38 55 39 56 48 58 64 59 41 60 30 61 31 62 35 63 32 64
REMARK SMILES IDX 34 65 33 66 52 67 53 68 57 69 54 70 56 71 55 72 42 73 43 74
REMARK SMILES IDX 47 75 44 76 46 77 45 78
REMARK H PARENT 62 46 40 57
REMARK Flexibility Score: inf
ROOT
ATOM      1  O   UNL A   1      33.525  31.189  27.814  1.00  0.00    -0.374 OA
ENDROOT
BRANCH   1   2
ATOM      2  C   UNL A   1      32.705  30.416  26.943  1.00  0.00     0.202 C 
BRANCH   2   3
ATOM      3  C   UNL A   1      32.979  28.903  26.981  1.00  0.00     0.261 C 
BRANCH   3   4
ATOM      4  O   UNL A   1      33.975  28.522  26.014  1.00  0.00    -0.460 OA
BRANCH   4   5
ATOM      5  C   UNL A   1      33.536  28.394  24.744  1.00  0.00     0.338 C 
ATOM      6  O   UNL A   1      33.649  29.269  23.864  1.00  0.00    -0.246 OA
BRANCH   5   7
ATOM      7  C   UNL A   1      32.977  27.036  24.451  1.00  0.00     0.067 C 
ATOM      8  C   UNL A   1      33.820  25.976  24.447  1.00  0.00     0.026 C 
BRANCH   8   9
ATOM      9  C   UNL A   1      33.661  24.537  24.364  1.00  0.00    -0.004 A 
ATOM     10  N   UNL A   1      33.793  22.293  24.450  1.00  0.00    -0.349 N 
ATOM     11  C   UNL A   1      32.972  22.582  23.387  1.00  0.00     0.015 A 
ATOM     12  C   UNL A   1      34.158  23.466  25.102  1.00  0.00     0.022 A 
ATOM     13  C   UNL A   1      32.385  21.545  22.496  1.00  0.00     0.064 C 
ATOM     14  C   UNL A   1      32.865  23.955  23.326  1.00  0.00     0.031 A 
ATOM     15  C   UNL A   1      34.970  23.377  26.343  1.00  0.00     0.065 C 
BRANCH  10  16
ATOM     16  C   UNL A   1      34.272  20.958  24.799  1.00  0.00     0.118 C 
ATOM     17  C   UNL A   1      33.228  20.115  25.514  1.00  0.00     0.027 C 
ENDBRANCH  10  16
ENDBRANCH   8   9
BRANCH   7  18
ATOM     18  C   UNL A   1      31.519  26.984  24.293  1.00  0.00    -0.011 A 
ATOM     19  C   UNL A   1      30.898  27.731  23.279  1.00  0.00     0.009 A 
ATOM     20  C   UNL A   1      30.736  26.216  25.162  1.00  0.00     0.009 A 
ATOM     21  C   UNL A   1      29.521  27.625  23.075  1.00  0.00     0.001 A 
ATOM     22  C   UNL A   1      29.358  26.117  24.959  1.00  0.00     0.001 A 
ATOM     23  C   UNL A   1      28.756  26.803  23.903  1.00  0.00     0.000 A 
ENDBRANCH   7  18
ENDBRANCH   5   7
ENDBRANCH   4   5
ENDBRANCH   3   4
ENDBRANCH   2   3
ENDBRANCH   1   2
BRANCH   1  24
ATOM     24  C   UNL A   1      33.513  32.610  27.599  1.00  0.00     0.202 C 
BRANCH  24  25
ATOM     25  C   UNL A   1      34.316  33.458  28.622  1.00  0.00     0.261 C 
BRANCH  25  26
ATOM     26  O   UNL A   1      34.685  32.830  29.907  1.00  0.00    -0.460 OA
BRANCH  26  27
ATOM     27  C   UNL A   1      36.020  32.569  30.088  1.00  0.00     0.338 C 
ATOM     28  O   UNL A   1      36.774  33.325  30.714  1.00  0.00    -0.246 OA
BRANCH  27  29
ATOM     29  C   UNL A   1      36.581  31.277  29.499  1.00  0.00     0.060 A 
ATOM     30  C   UNL A   1      36.526  30.116  30.253  1.00  0.00     0.016 A 
ATOM     31  C   UNL A   1      37.449  31.215  28.382  1.00  0.00     0.016 A 
ATOM     32  C   UNL A   1      37.274  28.947  29.882  1.00  0.00     0.010 A 
ATOM     33  C   UNL A   1      38.266  30.032  28.046  1.00  0.00     0.010 A 
ATOM     34  C   UNL A   1      38.228  28.845  28.799  1.00  0.00    -0.014 A 
BRANCH  34  35
ATOM     35  C   UNL A   1      39.324  27.639  28.891  1.00  0.00     0.031 A 
ATOM     36  C   UNL A   1      40.243  28.100  29.966  1.00  0.00     0.074 A 
ATOM     37  C   UNL A   1      39.809  26.466  28.296  1.00  0.00     0.049 A 
ATOM     38  N   UNL A   1      40.849  29.243  29.838  1.00  0.00    -0.248 NA
ATOM     39  C   UNL A   1      40.257  27.538  31.316  1.00  0.00     0.031 C 
ATOM     40  C   UNL A   1      39.355  25.802  27.062  1.00  0.00     0.029 A 
ATOM     41  N   UNL A   1      40.865  25.558  28.671  1.00  0.00    -0.354 N 
ATOM     42  C   UNL A   1      41.563  29.423  30.992  1.00  0.00     0.074 A 
ATOM     43  C   UNL A   1      40.992  28.470  31.933  1.00  0.00     0.031 C 
ATOM     44  C   UNL A   1      39.981  24.601  26.869  1.00  0.00     0.029 A 
ATOM     45  C   UNL A   1      40.971  24.337  27.914  1.00  0.00     0.049 A 
ATOM     46  H   UNL A   1      41.484  25.763  29.410  1.00  0.00     0.167 HD
ATOM     47  C   UNL A   1      42.859  29.817  30.849  1.00  0.00     0.031 A 
ATOM     48  C   UNL A   1      41.813  23.233  28.041  1.00  0.00     0.031 A 
ATOM     49  C   UNL A   1      43.779  28.752  31.142  1.00  0.00     0.049 A 
ATOM     50  C   UNL A   1      43.030  23.675  28.737  1.00  0.00     0.074 A 
ATOM     51  C   UNL A   1      43.856  27.805  32.144  1.00  0.00     0.029 A 
ATOM     52  N   UNL A   1      44.526  28.273  30.087  1.00  0.00    -0.354 N 
ATOM     53  N   UNL A   1      43.974  24.282  28.086  1.00  0.00    -0.248 NA
ATOM     54  C   UNL A   1      43.370  23.290  30.103  1.00  0.00     0.031 C 
ATOM     55  C   UNL A   1      44.229  26.607  31.493  1.00  0.00     0.029 A 
ATOM     56  C   UNL A   1      44.656  26.905  30.205  1.00  0.00     0.049 A 
ATOM     57  H   UNL A   1      44.906  28.821  29.362  1.00  0.00     0.167 HD
ATOM     58  C   UNL A   1      44.748  24.808  29.071  1.00  0.00     0.074 A 
ATOM     59  C   UNL A   1      44.524  23.952  30.221  1.00  0.00     0.031 C 
ATOM     60  C   UNL A   1      44.954  26.146  29.012  1.00  0.00     0.031 A 
BRANCH  47  61
ATOM     61  C   UNL A   1      43.082  30.849  29.774  1.00  0.00    -0.014 A 
ATOM     62  C   UNL A   1      43.600  30.448  28.539  1.00  0.00     0.009 A 
ATOM     63  C   UNL A   1      42.930  32.231  30.018  1.00  0.00     0.009 A 
ATOM     64  C   UNL A   1      44.028  31.405  27.610  1.00  0.00     0.001 A 
ATOM     65  C   UNL A   1      43.393  33.182  29.111  1.00  0.00     0.001 A 
ATOM     66  C   UNL A   1      43.953  32.766  27.909  1.00  0.00     0.000 A 
ENDBRANCH  47  61
BRANCH  48  67
ATOM     67  C   UNL A   1      42.075  21.786  27.536  1.00  0.00    -0.014 A 
ATOM     68  C   UNL A   1      41.038  20.797  27.650  1.00  0.00     0.009 A 
ATOM     69  C   UNL A   1      43.074  21.467  26.609  1.00  0.00     0.009 A 
ATOM     70  C   UNL A   1      40.930  19.662  26.823  1.00  0.00     0.001 A 
ATOM     71  C   UNL A   1      42.989  20.295  25.802  1.00  0.00     0.001 A 
ATOM     72  C   UNL A   1      41.905  19.417  25.879  1.00  0.00     0.000 A 
ENDBRANCH  48  67
BRANCH  60  73
ATOM     73  C   UNL A   1      45.168  26.759  27.632  1.00  0.00    -0.014 A 
ATOM     74  C   UNL A   1      44.162  26.955  26.658  1.00  0.00     0.009 A 
ATOM     75  C   UNL A   1      46.472  27.128  27.274  1.00  0.00     0.009 A 
ATOM     76  C   UNL A   1      44.454  27.422  25.371  1.00  0.00     0.001 A 
ATOM     77  C   UNL A   1      46.759  27.646  26.004  1.00  0.00     0.001 A 
ATOM     78  C   UNL A   1      45.756  27.774  25.047  1.00  0.00     0.000 A 
ENDBRANCH  60  73
ENDBRANCH  34  35
ENDBRANCH  27  29
ENDBRANCH  26  27
ENDBRANCH  25  26
ENDBRANCH  24  25
ENDBRANCH   1  24
TORSDOF 17
ENDMDL
MODEL 3
REMARK VINA RESULT:     -10.1      3.177      8.409
REMARK SMILES CCn1c(C)cc(/C=C(/C(=O)OCCOCCOC(=O)c2ccc(-c3c4nc(c(-c5ccccc5)c5ccc([nH]5)c(-c5ccccc5)c5nc(c(-c6ccccc6)c6ccc3[nH]6)C=C5)C=C4)cc2)c2ccccc2)c1C
REMARK SMILES IDX 15 1 14 2 13 3 12 4 10 5 11 6 9 7 8 8 7 9 3 10 4 11 75 12
REMARK SMILES IDX 5 13 6 14 76 15 2 16 1 17 69 18 70 19 74 20 71 21 73 22
REMARK SMILES IDX 72 23 16 24 17 25 18 26 19 27 20 28 21 29 22 30 68 31 23 32
REMARK SMILES IDX 67 33 24 34 25 35 26 36 61 37 27 38 66 39 60 40 62 41 28 42
REMARK SMILES IDX 65 43 59 44 58 45 29 47 51 48 36 49 50 50 37 51 40 52 49 53
REMARK SMILES IDX 63 54 38 55 39 56 48 58 64 59 41 60 30 61 31 62 35 63 32 64
REMARK SMILES IDX 34 65 33 66 52 67 53 68 57 69 54 70 56 71 55 72 42 73 43 74
REMARK SMILES IDX 47 75 44 76 46 77 45 78
REMARK H PARENT 62 46 40 57
REMARK Flexibility Score: inf
ROOT
ATOM      1  O   UNL A   1      34.457  32.478  27.580  1.00  0.00    -0.374 OA
ENDROOT
BRANCH   1   2
ATOM      2  C   UNL A   1      34.315  31.123  27.994  1.00  0.00     0.202 C 
BRANCH   2   3
ATOM      3  C   UNL A   1      33.201  30.346  27.273  1.00  0.00     0.261 C 
BRANCH   3   4
ATOM      4  O   UNL A   1      33.388  28.924  27.390  1.00  0.00    -0.460 OA
BRANCH   4   5
ATOM      5  C   UNL A   1      32.278  28.173  27.228  1.00  0.00     0.338 C 
ATOM      6  O   UNL A   1      31.231  28.306  27.892  1.00  0.00    -0.246 OA
BRANCH   5   7
ATOM      7  C   UNL A   1      32.382  27.210  26.086  1.00  0.00     0.067 C 
ATOM      8  C   UNL A   1      33.217  26.151  26.207  1.00  0.00     0.026 C 
BRANCH   8   9
ATOM      9  C   UNL A   1      33.480  24.957  25.428  1.00  0.00    -0.004 A 
ATOM     10  N   UNL A   1      33.609  22.915  24.493  1.00  0.00    -0.349 N 
ATOM     11  C   UNL A   1      34.771  23.561  24.149  1.00  0.00     0.015 A 
ATOM     12  C   UNL A   1      32.779  23.774  25.205  1.00  0.00     0.022 A 
ATOM     13  C   UNL A   1      35.861  22.926  23.360  1.00  0.00     0.064 C 
ATOM     14  C   UNL A   1      34.705  24.822  24.700  1.00  0.00     0.031 A 
ATOM     15  C   UNL A   1      31.423  23.308  25.595  1.00  0.00     0.065 C 
BRANCH  10  16
ATOM     16  C   UNL A   1      33.319  21.509  24.218  1.00  0.00     0.118 C 
ATOM     17  C   UNL A   1      33.808  20.573  25.312  1.00  0.00     0.027 C 
ENDBRANCH  10  16
ENDBRANCH   8   9
BRANCH   7  18
ATOM     18  C   UNL A   1      31.467  27.470  24.968  1.00  0.00    -0.011 A 
ATOM     19  C   UNL A   1      30.347  26.647  24.775  1.00  0.00     0.009 A 
ATOM     20  C   UNL A   1      31.716  28.518  24.074  1.00  0.00     0.009 A 
ATOM     21  C   UNL A   1      29.432  26.936  23.760  1.00  0.00     0.001 A 
ATOM     22  C   UNL A   1      30.802  28.801  23.057  1.00  0.00     0.001 A 
ATOM     23  C   UNL A   1      29.651  28.025  22.915  1.00  0.00     0.000 A 
ENDBRANCH   7  18
ENDBRANCH   5   7
ENDBRANCH   4   5
ENDBRANCH   3   4
ENDBRANCH   2   3
ENDBRANCH   1   2
BRANCH   1  24
ATOM     24  C   UNL A   1      33.412  33.378  27.986  1.00  0.00     0.202 C 
BRANCH  24  25
ATOM     25  C   UNL A   1      33.797  34.424  29.065  1.00  0.00     0.261 C 
BRANCH  25  26
ATOM     26  O   UNL A   1      35.030  34.195  29.845  1.00  0.00    -0.460 OA
BRANCH  26  27
ATOM     27  C   UNL A   1      34.923  33.320  30.897  1.00  0.00     0.338 C 
ATOM     28  O   UNL A   1      33.899  33.218  31.585  1.00  0.00    -0.246 OA
BRANCH  27  29
ATOM     29  C   UNL A   1      36.122  32.429  31.210  1.00  0.00     0.060 A 
ATOM     30  C   UNL A   1      37.298  32.612  30.500  1.00  0.00     0.016 A 
ATOM     31  C   UNL A   1      36.052  31.213  31.932  1.00  0.00     0.016 A 
ATOM     32  C   UNL A   1      38.357  31.642  30.545  1.00  0.00     0.010 A 
ATOM     33  C   UNL A   1      37.117  30.191  31.919  1.00  0.00     0.010 A 
ATOM     34  C   UNL A   1      38.316  30.355  31.203  1.00  0.00    -0.014 A 
BRANCH  34  35
ATOM     35  C   UNL A   1      39.381  29.228  30.690  1.00  0.00     0.031 A 
ATOM     36  C   UNL A   1      40.435  29.259  31.738  1.00  0.00     0.074 A 
ATOM     37  C   UNL A   1      39.756  28.386  29.635  1.00  0.00     0.049 A 
ATOM     38  N   UNL A   1      41.053  30.375  31.987  1.00  0.00    -0.248 NA
ATOM     39  C   UNL A   1      40.595  28.221  32.755  1.00  0.00     0.031 C 
ATOM     40  C   UNL A   1      39.139  28.239  28.306  1.00  0.00     0.029 A 
ATOM     41  N   UNL A   1      40.824  27.424  29.500  1.00  0.00    -0.354 N 
ATOM     42  C   UNL A   1      41.905  30.111  33.026  1.00  0.00     0.074 A 
ATOM     43  C   UNL A   1      41.425  28.858  33.589  1.00  0.00     0.031 C 
ATOM     44  C   UNL A   1      39.703  27.217  27.591  1.00  0.00     0.029 A 
ATOM     45  C   UNL A   1      40.803  26.592  28.325  1.00  0.00     0.049 A 
ATOM     46  H   UNL A   1      41.533  27.342  30.179  1.00  0.00     0.167 HD
ATOM     47  C   UNL A   1      43.186  30.555  32.888  1.00  0.00     0.031 A 
ATOM     48  C   UNL A   1      41.623  25.541  27.914  1.00  0.00     0.031 A 
ATOM     49  C   UNL A   1      44.104  29.479  32.634  1.00  0.00     0.049 A 
ATOM     50  C   UNL A   1      42.927  25.706  28.572  1.00  0.00     0.074 A 
ATOM     51  C   UNL A   1      44.274  28.221  33.178  1.00  0.00     0.029 A 
ATOM     52  N   UNL A   1      44.705  29.458  31.393  1.00  0.00    -0.354 N 
ATOM     53  N   UNL A   1      43.803  26.536  28.095  1.00  0.00    -0.248 NA
ATOM     54  C   UNL A   1      43.418  24.832  29.633  1.00  0.00     0.031 C 
ATOM     55  C   UNL A   1      44.532  27.374  32.076  1.00  0.00     0.029 A 
ATOM     56  C   UNL A   1      44.809  28.153  30.959  1.00  0.00     0.049 A 
ATOM     57  H   UNL A   1      45.010  30.251  30.895  1.00  0.00     0.167 HD
ATOM     58  C   UNL A   1      44.704  26.657  29.104  1.00  0.00     0.074 A 
ATOM     59  C   UNL A   1      44.596  25.420  29.855  1.00  0.00     0.031 C 
ATOM     60  C   UNL A   1      44.940  27.919  29.540  1.00  0.00     0.031 A 
BRANCH  47  61
ATOM     61  C   UNL A   1      43.307  31.927  32.274  1.00  0.00    -0.014 A 
ATOM     62  C   UNL A   1      43.518  32.042  30.897  1.00  0.00     0.009 A 
ATOM     63  C   UNL A   1      43.367  33.098  33.060  1.00  0.00     0.009 A 
ATOM     64  C   UNL A   1      43.860  33.280  30.338  1.00  0.00     0.001 A 
ATOM     65  C   UNL A   1      43.746  34.320  32.510  1.00  0.00     0.001 A 
ATOM     66  C   UNL A   1      44.003  34.408  31.147  1.00  0.00     0.000 A 
ENDBRANCH  47  61
BRANCH  48  67
ATOM     67  C   UNL A   1      41.782  24.406  26.864  1.00  0.00    -0.014 A 
ATOM     68  C   UNL A   1      42.652  24.601  25.736  1.00  0.00     0.009 A 
ATOM     69  C   UNL A   1      41.481  23.066  27.132  1.00  0.00     0.009 A 
ATOM     70  C   UNL A   1      43.275  23.558  25.024  1.00  0.00     0.001 A 
ATOM     71  C   UNL A   1      42.076  22.008  26.383  1.00  0.00     0.001 A 
ATOM     72  C   UNL A   1      42.998  22.250  25.362  1.00  0.00     0.000 A 
ENDBRANCH  48  67
BRANCH  60  73
ATOM     73  C   UNL A   1      45.003  29.020  28.487  1.00  0.00    -0.014 A 
ATOM     74  C   UNL A   1      46.181  29.482  27.855  1.00  0.00     0.009 A 
ATOM     75  C   UNL A   1      43.808  29.662  28.137  1.00  0.00     0.009 A 
ATOM     76  C   UNL A   1      46.176  30.573  26.978  1.00  0.00     0.001 A 
ATOM     77  C   UNL A   1      43.792  30.720  27.219  1.00  0.00     0.001 A 
ATOM     78  C   UNL A   1      44.976  31.189  26.655  1.00  0.00     0.000 A 
ENDBRANCH  60  73
ENDBRANCH  34  35
ENDBRANCH  27  29
ENDBRANCH  26  27
ENDBRANCH  25  26
ENDBRANCH  24  25
ENDBRANCH   1  24
TORSDOF 17
ENDMDL
