MODEL 1
REMARK VINA RESULT:     -12.2      0.000      0.000
REMARK SMILES Cc1cccc(-c2cc(C(=O)OCCOCCOC(=O)c3ccc(-c4c5nc(c(-c6ccccc6)c6ccc([nH]6)c(-c6ccccc6)c6nc(c(-c7ccccc7)c7ccc4[nH]7)C=C6)C=C5)cc3)ccn2)c1
REMARK SMILES IDX 16 1 15 2 14 3 13 4 12 5 10 6 11 7 9 8 7 9 8 10 71 11 70 12
REMARK SMILES IDX 69 13 6 14 1 15 2 16 3 17 72 18 4 19 5 20 17 21 18 22 19 23
REMARK SMILES IDX 20 24 21 25 22 26 68 27 23 28 67 29 24 30 25 31 26 32 61 33
REMARK SMILES IDX 27 34 66 35 60 36 62 37 28 38 65 39 59 40 58 41 29 43 51 44
REMARK SMILES IDX 36 45 50 46 37 47 40 48 49 49 63 50 38 51 39 52 48 54 64 55
REMARK SMILES IDX 41 56 30 57 31 58 35 59 32 60 34 61 33 62 52 63 53 64 57 65
REMARK SMILES IDX 54 66 56 67 55 68 42 69 43 70 47 71 44 72 46 73 45 74
REMARK H PARENT 62 42 40 53
REMARK Flexibility Score: inf
ROOT
ATOM      1  C   UNL A   1      31.188  26.976  22.788  1.00  0.00     0.202 C 
ENDROOT
BRANCH   1   2
ATOM      2  O   UNL A   1      32.488  26.490  22.540  1.00  0.00    -0.374 OA
BRANCH   2   3
ATOM      3  C   UNL A   1      32.704  25.929  21.262  1.00  0.00     0.202 C 
BRANCH   3   4
ATOM      4  C   UNL A   1      32.876  24.462  21.493  1.00  0.00     0.261 C 
BRANCH   4   5
ATOM      5  O   UNL A   1      33.355  24.189  22.828  1.00  0.00    -0.460 OA
BRANCH   5   6
ATOM      6  C   UNL A   1      34.252  23.224  23.186  1.00  0.00     0.338 C 
ATOM      7  O   UNL A   1      35.428  23.124  22.934  1.00  0.00    -0.246 OA
BRANCH   6   8
ATOM      8  C   UNL A   1      33.505  22.333  24.104  1.00  0.00     0.063 A 
ATOM      9  C   UNL A   1      33.072  20.081  24.804  1.00  0.00     0.071 A 
ATOM     10  C   UNL A   1      33.898  21.006  24.197  1.00  0.00     0.044 A 
ATOM     11  N   UNL A   1      31.897  20.437  25.363  1.00  0.00    -0.256 NA
ATOM     12  C   UNL A   1      31.578  21.759  25.347  1.00  0.00     0.112 A 
ATOM     13  C   UNL A   1      32.341  22.744  24.734  1.00  0.00     0.036 A 
BRANCH   9  14
ATOM     14  C   UNL A   1      33.481  18.676  24.741  1.00  0.00     0.000 A 
ATOM     15  C   UNL A   1      32.035  15.353  25.950  1.00  0.00     0.044 C 
ATOM     16  C   UNL A   1      32.999  16.362  25.402  1.00  0.00    -0.050 A 
ATOM     17  C   UNL A   1      34.308  16.009  25.068  1.00  0.00     0.003 A 
ATOM     18  C   UNL A   1      32.594  17.684  25.210  1.00  0.00     0.013 A 
ATOM     19  C   UNL A   1      35.197  16.971  24.577  1.00  0.00     0.001 A 
ATOM     20  C   UNL A   1      34.789  18.299  24.418  1.00  0.00     0.010 A 
ENDBRANCH   9  14
ENDBRANCH   6   8
ENDBRANCH   5   6
ENDBRANCH   4   5
ENDBRANCH   3   4
ENDBRANCH   2   3
ENDBRANCH   1   2
BRANCH   1  21
ATOM     21  C   UNL A   1      31.184  27.990  23.936  1.00  0.00     0.261 C 
BRANCH  21  22
ATOM     22  O   UNL A   1      30.921  27.322  25.192  1.00  0.00    -0.460 OA
BRANCH  22  23
ATOM     23  C   UNL A   1      32.015  26.920  25.903  1.00  0.00     0.338 C 
ATOM     24  O   UNL A   1      32.125  25.852  26.480  1.00  0.00    -0.246 OA
BRANCH  23  25
ATOM     25  C   UNL A   1      32.938  28.077  26.117  1.00  0.00     0.060 A 
ATOM     26  C   UNL A   1      34.296  27.983  25.741  1.00  0.00     0.016 A 
ATOM     27  C   UNL A   1      32.536  29.062  27.010  1.00  0.00     0.016 A 
ATOM     28  C   UNL A   1      35.267  28.755  26.401  1.00  0.00     0.010 A 
ATOM     29  C   UNL A   1      33.504  29.693  27.757  1.00  0.00     0.010 A 
ATOM     30  C   UNL A   1      34.874  29.540  27.479  1.00  0.00    -0.014 A 
BRANCH  30  31
ATOM     31  C   UNL A   1      35.736  30.242  28.439  1.00  0.00     0.031 A 
ATOM     32  C   UNL A   1      35.393  31.654  28.731  1.00  0.00     0.074 A 
ATOM     33  C   UNL A   1      36.546  29.558  29.287  1.00  0.00     0.049 A 
ATOM     34  N   UNL A   1      36.046  32.398  29.546  1.00  0.00    -0.248 NA
ATOM     35  C   UNL A   1      34.274  32.366  28.110  1.00  0.00     0.031 C 
ATOM     36  C   UNL A   1      36.946  29.915  30.651  1.00  0.00     0.029 A 
ATOM     37  N   UNL A   1      37.207  28.348  29.090  1.00  0.00    -0.354 N 
ATOM     38  C   UNL A   1      35.261  33.485  29.842  1.00  0.00     0.074 A 
ATOM     39  C   UNL A   1      34.221  33.478  28.846  1.00  0.00     0.031 C 
ATOM     40  C   UNL A   1      37.960  29.126  31.052  1.00  0.00     0.029 A 
ATOM     41  C   UNL A   1      38.340  28.307  29.914  1.00  0.00     0.049 A 
ATOM     42  H   UNL A   1      36.925  27.636  28.472  1.00  0.00     0.167 HD
ATOM     43  C   UNL A   1      35.529  34.169  30.987  1.00  0.00     0.031 A 
ATOM     44  C   UNL A   1      39.578  28.165  29.369  1.00  0.00     0.031 A 
ATOM     45  C   UNL A   1      36.768  33.674  31.605  1.00  0.00     0.049 A 
ATOM     46  C   UNL A   1      40.320  29.451  29.600  1.00  0.00     0.074 A 
ATOM     47  C   UNL A   1      37.036  32.892  32.716  1.00  0.00     0.029 A 
ATOM     48  N   UNL A   1      37.938  33.678  30.841  1.00  0.00    -0.354 N 
ATOM     49  N   UNL A   1      39.703  30.588  29.788  1.00  0.00    -0.248 NA
ATOM     50  C   UNL A   1      41.762  29.554  29.790  1.00  0.00     0.031 C 
ATOM     51  C   UNL A   1      38.350  32.354  32.560  1.00  0.00     0.029 A 
ATOM     52  C   UNL A   1      38.890  32.832  31.375  1.00  0.00     0.049 A 
ATOM     53  H   UNL A   1      38.066  34.215  30.026  1.00  0.00     0.167 HD
ATOM     54  C   UNL A   1      40.587  31.503  30.263  1.00  0.00     0.074 A 
ATOM     55  C   UNL A   1      41.878  30.839  30.177  1.00  0.00     0.031 C 
ATOM     56  C   UNL A   1      40.208  32.716  30.754  1.00  0.00     0.031 A 
BRANCH  43  57
ATOM     57  C   UNL A   1      34.578  35.134  31.660  1.00  0.00    -0.014 A 
ATOM     58  C   UNL A   1      34.949  35.723  32.884  1.00  0.00     0.009 A 
ATOM     59  C   UNL A   1      33.296  35.473  31.190  1.00  0.00     0.009 A 
ATOM     60  C   UNL A   1      34.088  36.571  33.598  1.00  0.00     0.001 A 
ATOM     61  C   UNL A   1      32.427  36.318  31.898  1.00  0.00     0.001 A 
ATOM     62  C   UNL A   1      32.823  36.866  33.106  1.00  0.00     0.000 A 
ENDBRANCH  43  57
BRANCH  44  63
ATOM     63  C   UNL A   1      39.554  27.269  28.169  1.00  0.00    -0.014 A 
ATOM     64  C   UNL A   1      40.271  27.713  27.031  1.00  0.00     0.009 A 
ATOM     65  C   UNL A   1      39.337  25.888  28.307  1.00  0.00     0.009 A 
ATOM     66  C   UNL A   1      40.871  26.803  26.150  1.00  0.00     0.001 A 
ATOM     67  C   UNL A   1      39.954  24.981  27.427  1.00  0.00     0.001 A 
ATOM     68  C   UNL A   1      40.748  25.436  26.374  1.00  0.00     0.000 A 
ENDBRANCH  44  63
BRANCH  56  69
ATOM     69  C   UNL A   1      41.107  33.917  30.724  1.00  0.00    -0.014 A 
ATOM     70  C   UNL A   1      41.968  34.254  31.777  1.00  0.00     0.009 A 
ATOM     71  C   UNL A   1      41.256  34.636  29.520  1.00  0.00     0.009 A 
ATOM     72  C   UNL A   1      42.889  35.295  31.657  1.00  0.00     0.001 A 
ATOM     73  C   UNL A   1      42.221  35.630  29.372  1.00  0.00     0.001 A 
ATOM     74  C   UNL A   1      43.024  35.973  30.449  1.00  0.00     0.000 A 
ENDBRANCH  56  69
ENDBRANCH  30  31
ENDBRANCH  23  25
ENDBRANCH  22  23
ENDBRANCH  21  22
ENDBRANCH   1  21
TORSDOF 15
ENDMDL
MODEL 2
REMARK VINA RESULT:     -11.7      4.269      9.505
REMARK SMILES Cc1cccc(-c2cc(C(=O)OCCOCCOC(=O)c3ccc(-c4c5nc(c(-c6ccccc6)c6ccc([nH]6)c(-c6ccccc6)c6nc(c(-c7ccccc7)c7ccc4[nH]7)C=C6)C=C5)cc3)ccn2)c1
REMARK SMILES IDX 16 1 15 2 14 3 13 4 12 5 10 6 11 7 9 8 7 9 8 10 71 11 70 12
REMARK SMILES IDX 69 13 6 14 1 15 2 16 3 17 72 18 4 19 5 20 17 21 18 22 19 23
REMARK SMILES IDX 20 24 21 25 22 26 68 27 23 28 67 29 24 30 25 31 26 32 61 33
REMARK SMILES IDX 27 34 66 35 60 36 62 37 28 38 65 39 59 40 58 41 29 43 51 44
REMARK SMILES IDX 36 45 50 46 37 47 40 48 49 49 63 50 38 51 39 52 48 54 64 55
REMARK SMILES IDX 41 56 30 57 31 58 35 59 32 60 34 61 33 62 52 63 53 64 57 65
REMARK SMILES IDX 54 66 56 67 55 68 42 69 43 70 47 71 44 72 46 73 45 74
REMARK H PARENT 62 42 40 53
REMARK Flexibility Score: inf
ROOT
ATOM      1  C   UNL A   1      34.923  31.132  27.873  1.00  0.00     0.202 C 
ENDROOT
BRANCH   1   2
ATOM      2  O   UNL A   1      34.551  29.871  27.365  1.00  0.00    -0.374 OA
BRANCH   2   3
ATOM      3  C   UNL A   1      33.194  29.728  26.998  1.00  0.00     0.202 C 
BRANCH   3   4
ATOM      4  C   UNL A   1      32.889  28.272  27.154  1.00  0.00     0.261 C 
BRANCH   4   5
ATOM      5  O   UNL A   1      31.507  27.986  26.848  1.00  0.00    -0.460 OA
BRANCH   5   6
ATOM      6  C   UNL A   1      31.039  26.914  26.145  1.00  0.00     0.338 C 
ATOM      7  O   UNL A   1      30.610  25.855  26.534  1.00  0.00    -0.246 OA
BRANCH   6   8
ATOM      8  C   UNL A   1      31.028  27.362  24.732  1.00  0.00     0.063 A 
ATOM      9  C   UNL A   1      30.140  28.898  23.121  1.00  0.00     0.071 A 
ATOM     10  C   UNL A   1      30.429  28.577  24.432  1.00  0.00     0.044 A 
ATOM     11  N   UNL A   1      30.468  28.081  22.099  1.00  0.00    -0.256 NA
ATOM     12  C   UNL A   1      31.144  26.942  22.409  1.00  0.00     0.112 A 
ATOM     13  C   UNL A   1      31.447  26.536  23.701  1.00  0.00     0.036 A 
BRANCH   9  14
ATOM     14  C   UNL A   1      29.379  30.128  22.887  1.00  0.00     0.000 A 
ATOM     15  C   UNL A   1      27.876  31.872  19.839  1.00  0.00     0.044 C 
ATOM     16  C   UNL A   1      28.354  31.630  21.239  1.00  0.00    -0.050 A 
ATOM     17  C   UNL A   1      28.284  32.628  22.213  1.00  0.00     0.003 A 
ATOM     18  C   UNL A   1      28.875  30.386  21.594  1.00  0.00     0.013 A 
ATOM     19  C   UNL A   1      28.754  32.387  23.508  1.00  0.00     0.001 A 
ATOM     20  C   UNL A   1      29.303  31.146  23.844  1.00  0.00     0.010 A 
ENDBRANCH   9  14
ENDBRANCH   6   8
ENDBRANCH   5   6
ENDBRANCH   4   5
ENDBRANCH   3   4
ENDBRANCH   2   3
ENDBRANCH   1   2
BRANCH   1  21
ATOM     21  C   UNL A   1      33.719  32.075  27.953  1.00  0.00     0.261 C 
BRANCH  21  22
ATOM     22  O   UNL A   1      34.163  33.435  28.170  1.00  0.00    -0.460 OA
BRANCH  22  23
ATOM     23  C   UNL A   1      34.104  33.892  29.455  1.00  0.00     0.338 C 
ATOM     24  O   UNL A   1      33.167  34.503  29.941  1.00  0.00    -0.246 OA
BRANCH  23  25
ATOM     25  C   UNL A   1      35.451  33.794  30.096  1.00  0.00     0.060 A 
ATOM     26  C   UNL A   1      36.608  34.174  29.382  1.00  0.00     0.016 A 
ATOM     27  C   UNL A   1      35.569  32.989  31.222  1.00  0.00     0.016 A 
ATOM     28  C   UNL A   1      37.852  33.597  29.692  1.00  0.00     0.010 A 
ATOM     29  C   UNL A   1      36.751  32.313  31.414  1.00  0.00     0.010 A 
ATOM     30  C   UNL A   1      37.898  32.590  30.650  1.00  0.00    -0.014 A 
BRANCH  30  31
ATOM     31  C   UNL A   1      39.028  31.708  30.968  1.00  0.00     0.031 A 
ATOM     32  C   UNL A   1      39.171  30.488  30.138  1.00  0.00     0.074 A 
ATOM     33  C   UNL A   1      40.083  32.151  31.698  1.00  0.00     0.049 A 
ATOM     34  N   UNL A   1      40.105  29.622  30.290  1.00  0.00    -0.248 NA
ATOM     35  C   UNL A   1      38.252  30.125  29.057  1.00  0.00     0.031 C 
ATOM     36  C   UNL A   1      41.491  31.759  31.596  1.00  0.00     0.029 A 
ATOM     37  N   UNL A   1      40.108  33.086  32.731  1.00  0.00    -0.354 N 
ATOM     38  C   UNL A   1      40.145  28.847  29.157  1.00  0.00     0.074 A 
ATOM     39  C   UNL A   1      38.911  29.124  28.469  1.00  0.00     0.031 C 
ATOM     40  C   UNL A   1      42.172  32.216  32.663  1.00  0.00     0.029 A 
ATOM     41  C   UNL A   1      41.205  32.817  33.563  1.00  0.00     0.049 A 
ATOM     42  H   UNL A   1      39.462  33.817  32.857  1.00  0.00     0.167 HD
ATOM     43  C   UNL A   1      41.297  28.174  28.888  1.00  0.00     0.031 A 
ATOM     44  C   UNL A   1      41.012  32.542  34.881  1.00  0.00     0.031 A 
ATOM     45  C   UNL A   1      42.238  28.294  30.013  1.00  0.00     0.049 A 
ATOM     46  C   UNL A   1      41.388  31.103  35.098  1.00  0.00     0.074 A 
ATOM     47  C   UNL A   1      43.405  29.011  30.210  1.00  0.00     0.029 A 
ATOM     48  N   UNL A   1      41.811  27.889  31.280  1.00  0.00    -0.354 N 
ATOM     49  N   UNL A   1      41.367  30.224  34.131  1.00  0.00    -0.248 NA
ATOM     50  C   UNL A   1      41.950  30.570  36.333  1.00  0.00     0.031 C 
ATOM     51  C   UNL A   1      43.621  29.108  31.619  1.00  0.00     0.029 A 
ATOM     52  C   UNL A   1      42.606  28.426  32.274  1.00  0.00     0.049 A 
ATOM     53  H   UNL A   1      41.041  27.297  31.444  1.00  0.00     0.167 HD
ATOM     54  C   UNL A   1      42.028  29.106  34.529  1.00  0.00     0.074 A 
ATOM     55  C   UNL A   1      42.310  29.334  35.938  1.00  0.00     0.031 C 
ATOM     56  C   UNL A   1      42.361  28.097  33.676  1.00  0.00     0.031 A 
BRANCH  43  57
ATOM     57  C   UNL A   1      41.662  27.586  27.543  1.00  0.00    -0.014 A 
ATOM     58  C   UNL A   1      41.037  26.398  27.121  1.00  0.00     0.009 A 
ATOM     59  C   UNL A   1      42.634  28.102  26.667  1.00  0.00     0.009 A 
ATOM     60  C   UNL A   1      41.378  25.759  25.918  1.00  0.00     0.001 A 
ATOM     61  C   UNL A   1      42.983  27.470  25.464  1.00  0.00     0.001 A 
ATOM     62  C   UNL A   1      42.356  26.294  25.090  1.00  0.00     0.000 A 
ENDBRANCH  43  57
BRANCH  44  63
ATOM     63  C   UNL A   1      39.879  33.338  35.452  1.00  0.00    -0.014 A 
ATOM     64  C   UNL A   1      38.683  32.631  35.727  1.00  0.00     0.009 A 
ATOM     65  C   UNL A   1      40.121  34.518  36.174  1.00  0.00     0.009 A 
ATOM     66  C   UNL A   1      37.841  33.011  36.782  1.00  0.00     0.001 A 
ATOM     67  C   UNL A   1      39.280  34.885  37.238  1.00  0.00     0.001 A 
ATOM     68  C   UNL A   1      38.164  34.114  37.565  1.00  0.00     0.000 A 
ENDBRANCH  44  63
BRANCH  56  69
ATOM     69  C   UNL A   1      42.530  26.677  34.131  1.00  0.00    -0.014 A 
ATOM     70  C   UNL A   1      43.689  25.928  33.885  1.00  0.00     0.009 A 
ATOM     71  C   UNL A   1      41.583  26.119  35.015  1.00  0.00     0.009 A 
ATOM     72  C   UNL A   1      43.866  24.662  34.443  1.00  0.00     0.001 A 
ATOM     73  C   UNL A   1      41.787  24.886  35.629  1.00  0.00     0.001 A 
ATOM     74  C   UNL A   1      42.922  24.148  35.325  1.00  0.00     0.000 A 
ENDBRANCH  56  69
ENDBRANCH  30  31
ENDBRANCH  23  25
ENDBRANCH  22  23
ENDBRANCH  21  22
ENDBRANCH   1  21
TORSDOF 15
ENDMDL
MODEL 3
REMARK VINA RESULT:     -11.5      3.602      8.300
REMARK SMILES Cc1cccc(-c2cc(C(=O)OCCOCCOC(=O)c3ccc(-c4c5nc(c(-c6ccccc6)c6ccc([nH]6)c(-c6ccccc6)c6nc(c(-c7ccccc7)c7ccc4[nH]7)C=C6)C=C5)cc3)ccn2)c1
REMARK SMILES IDX 16 1 15 2 14 3 13 4 12 5 10 6 11 7 9 8 7 9 8 10 71 11 70 12
REMARK SMILES IDX 69 13 6 14 1 15 2 16 3 17 72 18 4 19 5 20 17 21 18 22 19 23
REMARK SMILES IDX 20 24 21 25 22 26 68 27 23 28 67 29 24 30 25 31 26 32 61 33
REMARK SMILES IDX 27 34 66 35 60 36 62 37 28 38 65 39 59 40 58 41 29 43 51 44
REMARK SMILES IDX 36 45 50 46 37 47 40 48 49 49 63 50 38 51 39 52 48 54 64 55
REMARK SMILES IDX 41 56 30 57 31 58 35 59 32 60 34 61 33 62 52 63 53 64 57 65
REMARK SMILES IDX 54 66 56 67 55 68 42 69 43 70 47 71 44 72 46 73 45 74
REMARK H PARENT 62 42 40 53
REMARK Flexibility Score: inf
ROOT
ATOM      1  C   UNL A   1      35.233  30.819  27.579  1.00  0.00     0.202 C 
ENDROOT
BRANCH   1   2
ATOM      2  O   UNL A   1      34.862  29.634  26.912  1.00  0.00    -0.374 OA
BRANCH   2   3
ATOM      3  C   UNL A   1      33.765  28.934  27.462  1.00  0.00     0.202 C 
BRANCH   3   4
ATOM      4  C   UNL A   1      32.958  28.472  26.291  1.00  0.00     0.261 C 
BRANCH   4   5
ATOM      5  O   UNL A   1      33.803  28.045  25.201  1.00  0.00    -0.460 OA
BRANCH   5   6
ATOM      6  C   UNL A   1      33.505  28.110  23.870  1.00  0.00     0.338 C 
ATOM      7  O   UNL A   1      33.435  29.065  23.135  1.00  0.00    -0.246 OA
BRANCH   6   8
ATOM      8  C   UNL A   1      33.405  26.698  23.434  1.00  0.00     0.063 A 
ATOM      9  C   UNL A   1      34.288  24.476  23.607  1.00  0.00     0.071 A 
ATOM     10  C   UNL A   1      34.118  25.739  24.138  1.00  0.00     0.044 A 
ATOM     11  N   UNL A   1      33.733  24.119  22.430  1.00  0.00    -0.256 NA
ATOM     12  C   UNL A   1      32.955  25.044  21.806  1.00  0.00     0.112 A 
ATOM     13  C   UNL A   1      32.758  26.341  22.261  1.00  0.00     0.036 A 
BRANCH   9  14
ATOM     14  C   UNL A   1      35.171  23.559  24.332  1.00  0.00     0.000 A 
ATOM     15  C   UNL A   1      38.332  23.909  26.447  1.00  0.00     0.044 C 
ATOM     16  C   UNL A   1      37.224  23.291  25.650  1.00  0.00    -0.050 A 
ATOM     17  C   UNL A   1      37.176  21.915  25.418  1.00  0.00     0.003 A 
ATOM     18  C   UNL A   1      36.207  24.092  25.127  1.00  0.00     0.013 A 
ATOM     19  C   UNL A   1      36.143  21.361  24.654  1.00  0.00     0.001 A 
ATOM     20  C   UNL A   1      35.147  22.177  24.109  1.00  0.00     0.010 A 
ENDBRANCH   9  14
ENDBRANCH   6   8
ENDBRANCH   5   6
ENDBRANCH   4   5
ENDBRANCH   3   4
ENDBRANCH   2   3
ENDBRANCH   1   2
BRANCH   1  21
ATOM     21  C   UNL A   1      34.005  31.654  27.952  1.00  0.00     0.261 C 
BRANCH  21  22
ATOM     22  O   UNL A   1      34.359  33.055  28.033  1.00  0.00    -0.460 OA
BRANCH  22  23
ATOM     23  C   UNL A   1      34.309  33.620  29.275  1.00  0.00     0.338 C 
ATOM     24  O   UNL A   1      33.391  34.300  29.701  1.00  0.00    -0.246 OA
BRANCH  23  25
ATOM     25  C   UNL A   1      35.650  33.532  29.931  1.00  0.00     0.060 A 
ATOM     26  C   UNL A   1      36.820  33.837  29.202  1.00  0.00     0.016 A 
ATOM     27  C   UNL A   1      35.741  32.801  31.108  1.00  0.00     0.016 A 
ATOM     28  C   UNL A   1      38.047  33.252  29.559  1.00  0.00     0.010 A 
ATOM     29  C   UNL A   1      36.905  32.111  31.353  1.00  0.00     0.010 A 
ATOM     30  C   UNL A   1      38.064  32.309  30.581  1.00  0.00    -0.014 A 
BRANCH  30  31
ATOM     31  C   UNL A   1      39.169  31.423  30.965  1.00  0.00     0.031 A 
ATOM     32  C   UNL A   1      39.272  30.136  30.237  1.00  0.00     0.074 A 
ATOM     33  C   UNL A   1      40.241  31.893  31.652  1.00  0.00     0.049 A 
ATOM     34  N   UNL A   1      40.182  29.258  30.455  1.00  0.00    -0.248 NA
ATOM     35  C   UNL A   1      38.335  29.713  29.193  1.00  0.00     0.031 C 
ATOM     36  C   UNL A   1      41.637  31.453  31.576  1.00  0.00     0.029 A 
ATOM     37  N   UNL A   1      40.301  32.908  32.605  1.00  0.00    -0.354 N 
ATOM     38  C   UNL A   1      40.192  28.393  29.388  1.00  0.00     0.074 A 
ATOM     39  C   UNL A   1      38.961  28.649  28.686  1.00  0.00     0.031 C 
ATOM     40  C   UNL A   1      42.339  31.975  32.599  1.00  0.00     0.029 A 
ATOM     41  C   UNL A   1      41.395  32.676  33.452  1.00  0.00     0.049 A 
ATOM     42  H   UNL A   1      39.677  33.665  32.674  1.00  0.00     0.167 HD
ATOM     43  C   UNL A   1      41.322  27.667  29.170  1.00  0.00     0.031 A 
ATOM     44  C   UNL A   1      41.203  32.514  34.788  1.00  0.00     0.031 A 
ATOM     45  C   UNL A   1      42.273  27.851  30.277  1.00  0.00     0.049 A 
ATOM     46  C   UNL A   1      41.539  31.088  35.120  1.00  0.00     0.074 A 
ATOM     47  C   UNL A   1      43.462  28.547  30.410  1.00  0.00     0.029 A 
ATOM     48  N   UNL A   1      41.844  27.563  31.575  1.00  0.00    -0.354 N 
ATOM     49  N   UNL A   1      41.486  30.134  34.228  1.00  0.00    -0.248 NA
ATOM     50  C   UNL A   1      42.094  30.640  36.392  1.00  0.00     0.031 C 
ATOM     51  C   UNL A   1      43.691  28.752  31.805  1.00  0.00     0.029 A 
ATOM     52  C   UNL A   1      42.660  28.155  32.518  1.00  0.00     0.049 A 
ATOM     53  H   UNL A   1      41.058  27.008  31.790  1.00  0.00     0.167 HD
ATOM     54  C   UNL A   1      42.118  29.033  34.713  1.00  0.00     0.074 A 
ATOM     55  C   UNL A   1      42.416  29.366  36.097  1.00  0.00     0.031 C 
ATOM     56  C   UNL A   1      42.415  27.948  33.944  1.00  0.00     0.031 A 
BRANCH  43  57
ATOM     57  C   UNL A   1      41.660  26.961  27.876  1.00  0.00    -0.014 A 
ATOM     58  C   UNL A   1      41.958  27.727  26.733  1.00  0.00     0.009 A 
ATOM     59  C   UNL A   1      41.657  25.568  27.685  1.00  0.00     0.009 A 
ATOM     60  C   UNL A   1      42.211  27.140  25.483  1.00  0.00     0.001 A 
ATOM     61  C   UNL A   1      41.906  24.971  26.439  1.00  0.00     0.001 A 
ATOM     62  C   UNL A   1      42.181  25.760  25.335  1.00  0.00     0.000 A 
ENDBRANCH  43  57
BRANCH  44  63
ATOM     63  C   UNL A   1      40.097  33.387  35.297  1.00  0.00    -0.014 A 
ATOM     64  C   UNL A   1      38.878  32.743  35.618  1.00  0.00     0.009 A 
ATOM     65  C   UNL A   1      40.379  34.606  35.935  1.00  0.00     0.009 A 
ATOM     66  C   UNL A   1      38.048  33.224  36.640  1.00  0.00     0.001 A 
ATOM     67  C   UNL A   1      39.550  35.076  36.968  1.00  0.00     0.001 A 
ATOM     68  C   UNL A   1      38.408  34.369  37.344  1.00  0.00     0.000 A 
ENDBRANCH  44  63
BRANCH  56  69
ATOM     69  C   UNL A   1      42.547  26.566  34.512  1.00  0.00    -0.014 A 
ATOM     70  C   UNL A   1      41.541  25.953  35.272  1.00  0.00     0.009 A 
ATOM     71  C   UNL A   1      43.629  25.756  34.111  1.00  0.00     0.009 A 
ATOM     72  C   UNL A   1      41.639  24.618  35.664  1.00  0.00     0.001 A 
ATOM     73  C   UNL A   1      43.698  24.405  34.441  1.00  0.00     0.001 A 
ATOM     74  C   UNL A   1      42.711  23.841  35.236  1.00  0.00     0.000 A 
ENDBRANCH  56  69
ENDBRANCH  30  31
ENDBRANCH  23  25
ENDBRANCH  22  23
ENDBRANCH  21  22
ENDBRANCH   1  21
TORSDOF 15
ENDMDL
