MODEL 1
REMARK VINA RESULT:     -10.4      0.000      0.000
REMARK SMILES COc1ccc(C2=NN=C[C@@H]2C(=O)OCCOCCOC(=O)c2ccc(-c3c4nc(c(-c5ccccc5)c5ccc([nH]5)c(-c5ccccc5)c5nc(c(-c6ccccc6)c6ccc3[nH]6)C=C5)C=C4)cc2)cc1OC
REMARK SMILES IDX 17 1 16 2 15 3 14 4 12 5 13 6 11 7 7 8 8 9 9 10 10 11 6 12
REMARK SMILES IDX 3 13 4 14 72 15 5 16 71 17 2 18 1 19 73 20 74 21 18 22 19 23
REMARK SMILES IDX 20 24 21 25 22 26 23 27 24 28 70 29 25 30 69 31 26 32 27 33
REMARK SMILES IDX 28 34 63 35 29 36 68 37 62 38 64 39 30 40 67 41 61 42 60 43
REMARK SMILES IDX 31 45 53 46 38 47 52 48 39 49 42 50 51 51 65 52 40 53 41 54
REMARK SMILES IDX 50 56 66 57 43 58 32 59 33 60 37 61 34 62 36 63 35 64 54 65
REMARK SMILES IDX 55 66 59 67 56 68 58 69 57 70 44 71 45 72 49 73 46 74 48 75
REMARK SMILES IDX 47 76
REMARK H PARENT 64 44 42 55
REMARK Flexibility Score: inf
ROOT
ATOM      1  O   UNL A   1      36.472  20.890  25.420  1.00  0.00    -0.374 OA
ENDROOT
BRANCH   1   2
ATOM      2  C   UNL A   1      35.222  21.575  25.452  1.00  0.00     0.202 C 
BRANCH   2   3
ATOM      3  C   UNL A   1      35.180  23.042  25.879  1.00  0.00     0.261 C 
BRANCH   3   4
ATOM      4  O   UNL A   1      33.843  23.514  26.091  1.00  0.00    -0.462 OA
BRANCH   4   5
ATOM      5  C   UNL A   1      33.252  23.991  24.966  1.00  0.00     0.320 C 
ATOM      6  O   UNL A   1      33.869  24.407  23.991  1.00  0.00    -0.251 OA
BRANCH   5   7
ATOM      7  C   UNL A   1      31.768  23.826  24.958  1.00  0.00     0.194 C 
ATOM      8  C   UNL A   1      31.085  24.800  25.849  1.00  0.00     0.090 C 
ATOM      9  N   UNL A   1      30.293  24.239  26.710  1.00  0.00    -0.154 NA
ATOM     10  N   UNL A   1      30.357  22.823  26.507  1.00  0.00    -0.162 NA
ATOM     11  C   UNL A   1      31.207  22.593  25.561  1.00  0.00     0.130 C 
BRANCH   8  12
ATOM     12  C   UNL A   1      31.432  26.220  25.810  1.00  0.00     0.003 A 
ATOM     13  C   UNL A   1      31.706  28.990  25.756  1.00  0.00     0.160 A 
ATOM     14  C   UNL A   1      32.172  28.253  26.859  1.00  0.00     0.051 A 
ATOM     15  C   UNL A   1      31.078  28.338  24.685  1.00  0.00     0.161 A 
ATOM     16  C   UNL A   1      32.017  26.863  26.899  1.00  0.00     0.014 A 
ATOM     17  C   UNL A   1      30.961  26.947  24.716  1.00  0.00     0.060 A 
BRANCH  13  18
ATOM     18  O   UNL A   1      32.040  30.317  25.681  1.00  0.00    -0.493 OA
ATOM     19  C   UNL A   1      32.530  30.844  26.913  1.00  0.00     0.278 C 
ENDBRANCH  13  18
BRANCH  15  20
ATOM     20  O   UNL A   1      30.553  28.877  23.543  1.00  0.00    -0.493 OA
ATOM     21  C   UNL A   1      29.522  28.164  22.880  1.00  0.00     0.278 C 
ENDBRANCH  15  20
ENDBRANCH   8  12
ENDBRANCH   5   7
ENDBRANCH   4   5
ENDBRANCH   3   4
ENDBRANCH   2   3
ENDBRANCH   1   2
BRANCH   1  22
ATOM     22  C   UNL A   1      37.667  21.525  24.983  1.00  0.00     0.202 C 
BRANCH  22  23
ATOM     23  C   UNL A   1      38.924  21.444  25.833  1.00  0.00     0.261 C 
BRANCH  23  24
ATOM     24  O   UNL A   1      39.084  22.574  26.676  1.00  0.00    -0.460 OA
BRANCH  24  25
ATOM     25  C   UNL A   1      40.305  22.633  27.243  1.00  0.00     0.338 C 
ATOM     26  O   UNL A   1      40.905  21.718  27.804  1.00  0.00    -0.246 OA
BRANCH  25  27
ATOM     27  C   UNL A   1      40.779  24.012  27.243  1.00  0.00     0.060 A 
ATOM     28  C   UNL A   1      41.779  24.308  28.171  1.00  0.00     0.016 A 
ATOM     29  C   UNL A   1      40.006  25.007  26.626  1.00  0.00     0.016 A 
ATOM     30  C   UNL A   1      41.822  25.582  28.682  1.00  0.00     0.010 A 
ATOM     31  C   UNL A   1      40.044  26.275  27.147  1.00  0.00     0.010 A 
ATOM     32  C   UNL A   1      40.879  26.512  28.233  1.00  0.00    -0.014 A 
BRANCH  32  33
ATOM     33  C   UNL A   1      40.862  27.803  28.872  1.00  0.00     0.031 A 
ATOM     34  C   UNL A   1      41.865  28.717  28.294  1.00  0.00     0.074 A 
ATOM     35  C   UNL A   1      39.980  28.134  29.831  1.00  0.00     0.049 A 
ATOM     36  N   UNL A   1      42.973  29.096  28.834  1.00  0.00    -0.248 NA
ATOM     37  C   UNL A   1      41.723  29.073  26.873  1.00  0.00     0.031 C 
ATOM     38  C   UNL A   1      38.791  27.404  30.278  1.00  0.00     0.029 A 
ATOM     39  N   UNL A   1      39.920  29.283  30.551  1.00  0.00    -0.354 N 
ATOM     40  C   UNL A   1      43.574  29.918  27.891  1.00  0.00     0.074 A 
ATOM     41  C   UNL A   1      42.881  29.690  26.649  1.00  0.00     0.031 C 
ATOM     42  C   UNL A   1      38.007  28.240  31.001  1.00  0.00     0.029 A 
ATOM     43  C   UNL A   1      38.705  29.504  31.182  1.00  0.00     0.049 A 
ATOM     44  H   UNL A   1      40.677  29.909  30.619  1.00  0.00     0.167 HD
ATOM     45  C   UNL A   1      44.388  30.937  28.274  1.00  0.00     0.031 A 
ATOM     46  C   UNL A   1      38.298  30.672  31.738  1.00  0.00     0.031 A 
ATOM     47  C   UNL A   1      44.833  30.777  29.636  1.00  0.00     0.049 A 
ATOM     48  C   UNL A   1      39.508  31.500  31.968  1.00  0.00     0.074 A 
ATOM     49  C   UNL A   1      45.562  29.820  30.314  1.00  0.00     0.029 A 
ATOM     50  N   UNL A   1      44.166  31.500  30.597  1.00  0.00    -0.354 N 
ATOM     51  N   UNL A   1      40.422  31.200  32.845  1.00  0.00    -0.248 NA
ATOM     52  C   UNL A   1      39.939  32.392  30.902  1.00  0.00     0.031 C 
ATOM     53  C   UNL A   1      44.941  29.721  31.594  1.00  0.00     0.029 A 
ATOM     54  C   UNL A   1      43.916  30.666  31.656  1.00  0.00     0.049 A 
ATOM     55  H   UNL A   1      43.913  32.450  30.535  1.00  0.00     0.167 HD
ATOM     56  C   UNL A   1      41.625  31.479  32.213  1.00  0.00     0.074 A 
ATOM     57  C   UNL A   1      41.263  32.302  31.059  1.00  0.00     0.031 C 
ATOM     58  C   UNL A   1      42.757  30.778  32.515  1.00  0.00     0.031 A 
BRANCH  45  59
ATOM     59  C   UNL A   1      44.375  32.279  27.585  1.00  0.00    -0.014 A 
ATOM     60  C   UNL A   1      43.761  33.359  28.240  1.00  0.00     0.009 A 
ATOM     61  C   UNL A   1      44.674  32.456  26.219  1.00  0.00     0.009 A 
ATOM     62  C   UNL A   1      43.391  34.515  27.544  1.00  0.00     0.001 A 
ATOM     63  C   UNL A   1      44.344  33.624  25.530  1.00  0.00     0.001 A 
ATOM     64  C   UNL A   1      43.674  34.642  26.188  1.00  0.00     0.000 A 
ENDBRANCH  45  59
BRANCH  46  65
ATOM     65  C   UNL A   1      36.938  31.253  31.789  1.00  0.00    -0.014 A 
ATOM     66  C   UNL A   1      36.435  31.803  32.980  1.00  0.00     0.009 A 
ATOM     67  C   UNL A   1      36.243  31.531  30.598  1.00  0.00     0.009 A 
ATOM     68  C   UNL A   1      35.305  32.632  32.972  1.00  0.00     0.001 A 
ATOM     69  C   UNL A   1      35.114  32.357  30.590  1.00  0.00     0.001 A 
ATOM     70  C   UNL A   1      34.654  32.920  31.774  1.00  0.00     0.000 A 
ENDBRANCH  46  65
BRANCH  58  71
ATOM     71  C   UNL A   1      42.718  29.859  33.712  1.00  0.00    -0.014 A 
ATOM     72  C   UNL A   1      43.039  30.272  35.018  1.00  0.00     0.009 A 
ATOM     73  C   UNL A   1      42.196  28.569  33.533  1.00  0.00     0.009 A 
ATOM     74  C   UNL A   1      42.867  29.407  36.105  1.00  0.00     0.001 A 
ATOM     75  C   UNL A   1      42.005  27.714  34.620  1.00  0.00     0.001 A 
ATOM     76  C   UNL A   1      42.346  28.130  35.905  1.00  0.00     0.000 A 
ENDBRANCH  58  71
ENDBRANCH  32  33
ENDBRANCH  25  27
ENDBRANCH  24  25
ENDBRANCH  23  24
ENDBRANCH  22  23
ENDBRANCH   1  22
TORSDOF 17
ENDMDL
MODEL 2
REMARK VINA RESULT:     -10.3      2.540      5.915
REMARK SMILES COc1ccc(C2=NN=C[C@@H]2C(=O)OCCOCCOC(=O)c2ccc(-c3c4nc(c(-c5ccccc5)c5ccc([nH]5)c(-c5ccccc5)c5nc(c(-c6ccccc6)c6ccc3[nH]6)C=C5)C=C4)cc2)cc1OC
REMARK SMILES IDX 17 1 16 2 15 3 14 4 12 5 13 6 11 7 7 8 8 9 9 10 10 11 6 12
REMARK SMILES IDX 3 13 4 14 72 15 5 16 71 17 2 18 1 19 73 20 74 21 18 22 19 23
REMARK SMILES IDX 20 24 21 25 22 26 23 27 24 28 70 29 25 30 69 31 26 32 27 33
REMARK SMILES IDX 28 34 63 35 29 36 68 37 62 38 64 39 30 40 67 41 61 42 60 43
REMARK SMILES IDX 31 45 53 46 38 47 52 48 39 49 42 50 51 51 65 52 40 53 41 54
REMARK SMILES IDX 50 56 66 57 43 58 32 59 33 60 37 61 34 62 36 63 35 64 54 65
REMARK SMILES IDX 55 66 59 67 56 68 58 69 57 70 44 71 45 72 49 73 46 74 48 75
REMARK SMILES IDX 47 76
REMARK H PARENT 64 44 42 55
REMARK Flexibility Score: inf
ROOT
ATOM      1  O   UNL A   1      35.523  21.031  25.412  1.00  0.00    -0.374 OA
ENDROOT
BRANCH   1   2
ATOM      2  C   UNL A   1      34.361  21.758  25.022  1.00  0.00     0.202 C 
BRANCH   2   3
ATOM      3  C   UNL A   1      34.458  23.267  24.802  1.00  0.00     0.261 C 
BRANCH   3   4
ATOM      4  O   UNL A   1      33.316  23.971  25.310  1.00  0.00    -0.462 OA
BRANCH   4   5
ATOM      5  C   UNL A   1      32.301  24.072  24.415  1.00  0.00     0.320 C 
ATOM      6  O   UNL A   1      32.457  24.334  23.227  1.00  0.00    -0.251 OA
BRANCH   5   7
ATOM      7  C   UNL A   1      30.973  23.685  24.977  1.00  0.00     0.194 C 
ATOM      8  C   UNL A   1      30.288  24.822  25.646  1.00  0.00     0.090 C 
ATOM      9  N   UNL A   1      29.931  24.559  26.866  1.00  0.00    -0.154 NA
ATOM     10  N   UNL A   1      30.341  23.220  27.163  1.00  0.00    -0.162 NA
ATOM     11  C   UNL A   1      30.955  22.750  26.128  1.00  0.00     0.130 C 
BRANCH   8  12
ATOM     12  C   UNL A   1      30.196  26.128  24.995  1.00  0.00     0.003 A 
ATOM     13  C   UNL A   1      30.377  28.538  23.613  1.00  0.00     0.160 A 
ATOM     14  C   UNL A   1      29.437  27.567  23.225  1.00  0.00     0.051 A 
ATOM     15  C   UNL A   1      31.246  28.291  24.684  1.00  0.00     0.161 A 
ATOM     16  C   UNL A   1      29.358  26.346  23.903  1.00  0.00     0.014 A 
ATOM     17  C   UNL A   1      31.135  27.085  25.380  1.00  0.00     0.060 A 
BRANCH  13  18
ATOM     18  O   UNL A   1      30.295  29.779  23.038  1.00  0.00    -0.493 OA
ATOM     19  C   UNL A   1      29.112  30.490  23.399  1.00  0.00     0.278 C 
ENDBRANCH  13  18
BRANCH  15  20
ATOM     20  O   UNL A   1      32.225  29.096  25.197  1.00  0.00    -0.493 OA
ATOM     21  C   UNL A   1      33.403  28.484  25.694  1.00  0.00     0.278 C 
ENDBRANCH  15  20
ENDBRANCH   8  12
ENDBRANCH   5   7
ENDBRANCH   4   5
ENDBRANCH   3   4
ENDBRANCH   2   3
ENDBRANCH   1   2
BRANCH   1  22
ATOM     22  C   UNL A   1      36.694  20.994  24.605  1.00  0.00     0.202 C 
BRANCH  22  23
ATOM     23  C   UNL A   1      37.873  20.128  25.019  1.00  0.00     0.261 C 
BRANCH  23  24
ATOM     24  O   UNL A   1      38.921  20.883  25.605  1.00  0.00    -0.460 OA
BRANCH  24  25
ATOM     25  C   UNL A   1      40.048  20.163  25.780  1.00  0.00     0.338 C 
ATOM     26  O   UNL A   1      40.199  18.962  25.562  1.00  0.00    -0.246 OA
BRANCH  25  27
ATOM     27  C   UNL A   1      41.060  20.986  26.432  1.00  0.00     0.060 A 
ATOM     28  C   UNL A   1      41.082  20.925  27.827  1.00  0.00     0.016 A 
ATOM     29  C   UNL A   1      41.672  22.023  25.713  1.00  0.00     0.016 A 
ATOM     30  C   UNL A   1      41.487  22.045  28.510  1.00  0.00     0.010 A 
ATOM     31  C   UNL A   1      42.065  23.144  26.398  1.00  0.00     0.010 A 
ATOM     32  C   UNL A   1      41.870  23.172  27.775  1.00  0.00    -0.014 A 
BRANCH  32  33
ATOM     33  C   UNL A   1      42.171  24.374  28.511  1.00  0.00     0.031 A 
ATOM     34  C   UNL A   1      41.201  25.448  28.229  1.00  0.00     0.074 A 
ATOM     35  C   UNL A   1      43.179  24.457  29.396  1.00  0.00     0.049 A 
ATOM     36  N   UNL A   1      41.401  26.509  27.524  1.00  0.00    -0.248 NA
ATOM     37  C   UNL A   1      39.794  25.208  28.588  1.00  0.00     0.031 C 
ATOM     38  C   UNL A   1      44.017  23.386  29.940  1.00  0.00     0.029 A 
ATOM     39  N   UNL A   1      43.598  25.550  30.084  1.00  0.00    -0.354 N 
ATOM     40  C   UNL A   1      40.187  27.182  27.528  1.00  0.00     0.074 A 
ATOM     41  C   UNL A   1      39.201  26.245  28.000  1.00  0.00     0.031 C 
ATOM     42  C   UNL A   1      44.660  23.845  31.041  1.00  0.00     0.029 A 
ATOM     43  C   UNL A   1      44.388  25.267  31.188  1.00  0.00     0.049 A 
ATOM     44  H   UNL A   1      43.360  26.469  29.821  1.00  0.00     0.167 HD
ATOM     45  C   UNL A   1      40.143  28.538  27.435  1.00  0.00     0.031 A 
ATOM     46  C   UNL A   1      44.717  26.137  32.175  1.00  0.00     0.031 A 
ATOM     47  C   UNL A   1      41.386  29.076  26.941  1.00  0.00     0.049 A 
ATOM     48  C   UNL A   1      44.494  27.507  31.652  1.00  0.00     0.074 A 
ATOM     49  C   UNL A   1      42.113  28.930  25.776  1.00  0.00     0.029 A 
ATOM     50  N   UNL A   1      42.258  29.584  27.874  1.00  0.00    -0.354 N 
ATOM     51  N   UNL A   1      45.216  28.037  30.707  1.00  0.00    -0.248 NA
ATOM     52  C   UNL A   1      43.180  28.106  31.840  1.00  0.00     0.031 C 
ATOM     53  C   UNL A   1      43.478  28.917  26.193  1.00  0.00     0.029 A 
ATOM     54  C   UNL A   1      43.514  29.126  27.572  1.00  0.00     0.049 A 
ATOM     55  H   UNL A   1      42.022  30.172  28.628  1.00  0.00     0.167 HD
ATOM     56  C   UNL A   1      44.307  28.705  29.900  1.00  0.00     0.074 A 
ATOM     57  C   UNL A   1      43.085  28.796  30.699  1.00  0.00     0.031 C 
ATOM     58  C   UNL A   1      44.536  28.859  28.562  1.00  0.00     0.031 A 
BRANCH  45  59
ATOM     59  C   UNL A   1      39.168  29.367  28.233  1.00  0.00    -0.014 A 
ATOM     60  C   UNL A   1      37.918  29.659  27.663  1.00  0.00     0.009 A 
ATOM     61  C   UNL A   1      39.529  30.107  29.377  1.00  0.00     0.009 A 
ATOM     62  C   UNL A   1      37.117  30.693  28.161  1.00  0.00     0.001 A 
ATOM     63  C   UNL A   1      38.713  31.110  29.902  1.00  0.00     0.001 A 
ATOM     64  C   UNL A   1      37.520  31.424  29.274  1.00  0.00     0.000 A 
ENDBRANCH  45  59
BRANCH  46  65
ATOM     65  C   UNL A   1      44.898  25.877  33.620  1.00  0.00    -0.014 A 
ATOM     66  C   UNL A   1      43.844  25.365  34.396  1.00  0.00     0.009 A 
ATOM     67  C   UNL A   1      46.188  25.857  34.180  1.00  0.00     0.009 A 
ATOM     68  C   UNL A   1      44.081  24.816  35.664  1.00  0.00     0.001 A 
ATOM     69  C   UNL A   1      46.425  25.311  35.446  1.00  0.00     0.001 A 
ATOM     70  C   UNL A   1      45.374  24.777  36.182  1.00  0.00     0.000 A 
ENDBRANCH  46  65
BRANCH  58  71
ATOM     71  C   UNL A   1      45.902  28.490  28.034  1.00  0.00    -0.014 A 
ATOM     72  C   UNL A   1      46.259  27.183  27.657  1.00  0.00     0.009 A 
ATOM     73  C   UNL A   1      46.807  29.528  27.771  1.00  0.00     0.009 A 
ATOM     74  C   UNL A   1      47.499  26.923  27.061  1.00  0.00     0.001 A 
ATOM     75  C   UNL A   1      48.035  29.272  27.157  1.00  0.00     0.001 A 
ATOM     76  C   UNL A   1      48.384  27.970  26.807  1.00  0.00     0.000 A 
ENDBRANCH  58  71
ENDBRANCH  32  33
ENDBRANCH  25  27
ENDBRANCH  24  25
ENDBRANCH  23  24
ENDBRANCH  22  23
ENDBRANCH   1  22
TORSDOF 17
ENDMDL
MODEL 3
REMARK VINA RESULT:     -10.2      1.770      2.532
REMARK SMILES COc1ccc(C2=NN=C[C@@H]2C(=O)OCCOCCOC(=O)c2ccc(-c3c4nc(c(-c5ccccc5)c5ccc([nH]5)c(-c5ccccc5)c5nc(c(-c6ccccc6)c6ccc3[nH]6)C=C5)C=C4)cc2)cc1OC
REMARK SMILES IDX 17 1 16 2 15 3 14 4 12 5 13 6 11 7 7 8 8 9 9 10 10 11 6 12
REMARK SMILES IDX 3 13 4 14 72 15 5 16 71 17 2 18 1 19 73 20 74 21 18 22 19 23
REMARK SMILES IDX 20 24 21 25 22 26 23 27 24 28 70 29 25 30 69 31 26 32 27 33
REMARK SMILES IDX 28 34 63 35 29 36 68 37 62 38 64 39 30 40 67 41 61 42 60 43
REMARK SMILES IDX 31 45 53 46 38 47 52 48 39 49 42 50 51 51 65 52 40 53 41 54
REMARK SMILES IDX 50 56 66 57 43 58 32 59 33 60 37 61 34 62 36 63 35 64 54 65
REMARK SMILES IDX 55 66 59 67 56 68 58 69 57 70 44 71 45 72 49 73 46 74 48 75
REMARK SMILES IDX 47 76
REMARK H PARENT 64 44 42 55
REMARK Flexibility Score: inf
ROOT
ATOM      1  O   UNL A   1      39.465  22.167  26.714  1.00  0.00    -0.374 OA
ENDROOT
BRANCH   1   2
ATOM      2  C   UNL A   1      38.571  21.707  25.705  1.00  0.00     0.202 C 
BRANCH   2   3
ATOM      3  C   UNL A   1      37.297  22.500  25.412  1.00  0.00     0.261 C 
BRANCH   3   4
ATOM      4  O   UNL A   1      36.330  21.733  24.682  1.00  0.00    -0.462 OA
BRANCH   4   5
ATOM      5  C   UNL A   1      35.213  21.448  25.398  1.00  0.00     0.320 C 
ATOM      6  O   UNL A   1      35.144  21.522  26.620  1.00  0.00    -0.251 OA
BRANCH   5   7
ATOM      7  C   UNL A   1      34.016  21.175  24.549  1.00  0.00     0.194 C 
ATOM      8  C   UNL A   1      32.994  22.250  24.648  1.00  0.00     0.090 C 
ATOM      9  N   UNL A   1      31.815  21.809  24.965  1.00  0.00    -0.154 NA
ATOM     10  N   UNL A   1      31.907  20.389  25.125  1.00  0.00    -0.162 NA
ATOM     11  C   UNL A   1      33.138  20.044  24.934  1.00  0.00     0.130 C 
BRANCH   8  12
ATOM     12  C   UNL A   1      33.376  23.658  24.540  1.00  0.00     0.003 A 
ATOM     13  C   UNL A   1      33.755  26.389  24.162  1.00  0.00     0.160 A 
ATOM     14  C   UNL A   1      33.626  25.865  25.459  1.00  0.00     0.051 A 
ATOM     15  C   UNL A   1      33.670  25.544  23.046  1.00  0.00     0.161 A 
ATOM     16  C   UNL A   1      33.414  24.495  25.653  1.00  0.00     0.014 A 
ATOM     17  C   UNL A   1      33.495  24.173  23.249  1.00  0.00     0.060 A 
BRANCH  13  18
ATOM     18  O   UNL A   1      34.139  27.698  24.032  1.00  0.00    -0.493 OA
ATOM     19  C   UNL A   1      33.040  28.595  23.884  1.00  0.00     0.278 C 
ENDBRANCH  13  18
BRANCH  15  20
ATOM     20  O   UNL A   1      33.756  25.865  21.720  1.00  0.00    -0.493 OA
ATOM     21  C   UNL A   1      32.611  25.668  20.908  1.00  0.00     0.278 C 
ENDBRANCH  15  20
ENDBRANCH   8  12
ENDBRANCH   5   7
ENDBRANCH   4   5
ENDBRANCH   3   4
ENDBRANCH   2   3
ENDBRANCH   1   2
BRANCH   1  22
ATOM     22  C   UNL A   1      40.658  21.464  27.040  1.00  0.00     0.202 C 
BRANCH  22  23
ATOM     23  C   UNL A   1      41.919  21.688  26.220  1.00  0.00     0.261 C 
BRANCH  23  24
ATOM     24  O   UNL A   1      42.733  22.722  26.750  1.00  0.00    -0.460 OA
BRANCH  24  25
ATOM     25  C   UNL A   1      42.557  23.899  26.117  1.00  0.00     0.338 C 
ATOM     26  O   UNL A   1      43.028  24.234  25.032  1.00  0.00    -0.246 OA
BRANCH  25  27
ATOM     27  C   UNL A   1      41.837  24.821  26.988  1.00  0.00     0.060 A 
ATOM     28  C   UNL A   1      40.905  25.647  26.357  1.00  0.00     0.016 A 
ATOM     29  C   UNL A   1      42.340  25.094  28.269  1.00  0.00     0.016 A 
ATOM     30  C   UNL A   1      40.680  26.888  26.898  1.00  0.00     0.010 A 
ATOM     31  C   UNL A   1      42.122  26.339  28.800  1.00  0.00     0.010 A 
ATOM     32  C   UNL A   1      41.379  27.248  28.055  1.00  0.00    -0.014 A 
BRANCH  32  33
ATOM     33  C   UNL A   1      41.223  28.599  28.533  1.00  0.00     0.031 A 
ATOM     34  C   UNL A   1      42.363  29.452  28.153  1.00  0.00     0.074 A 
ATOM     35  C   UNL A   1      40.125  29.022  29.184  1.00  0.00     0.049 A 
ATOM     36  N   UNL A   1      43.296  29.891  28.927  1.00  0.00    -0.248 NA
ATOM     37  C   UNL A   1      42.611  29.658  26.717  1.00  0.00     0.031 C 
ATOM     38  C   UNL A   1      38.844  28.337  29.370  1.00  0.00     0.029 A 
ATOM     39  N   UNL A   1      39.902  30.239  29.741  1.00  0.00    -0.354 N 
ATOM     40  C   UNL A   1      44.145  30.613  28.099  1.00  0.00     0.074 A 
ATOM     41  C   UNL A   1      43.801  30.255  26.748  1.00  0.00     0.031 C 
ATOM     42  C   UNL A   1      37.916  29.239  29.770  1.00  0.00     0.029 A 
ATOM     43  C   UNL A   1      38.570  30.518  30.001  1.00  0.00     0.049 A 
ATOM     44  H   UNL A   1      40.628  30.873  29.944  1.00  0.00     0.167 HD
ATOM     45  C   UNL A   1      44.851  31.671  28.580  1.00  0.00     0.031 A 
ATOM     46  C   UNL A   1      38.057  31.736  30.308  1.00  0.00     0.031 A 
ATOM     47  C   UNL A   1      44.915  31.655  30.021  1.00  0.00     0.049 A 
ATOM     48  C   UNL A   1      39.180  32.589  30.766  1.00  0.00     0.074 A 
ATOM     49  C   UNL A   1      45.417  30.778  30.961  1.00  0.00     0.029 A 
ATOM     50  N   UNL A   1      44.034  32.471  30.691  1.00  0.00    -0.354 N 
ATOM     51  N   UNL A   1      39.822  32.386  31.880  1.00  0.00    -0.248 NA
ATOM     52  C   UNL A   1      39.899  33.368  29.768  1.00  0.00     0.031 C 
ATOM     53  C   UNL A   1      44.476  30.808  32.033  1.00  0.00     0.029 A 
ATOM     54  C   UNL A   1      43.493  31.750  31.724  1.00  0.00     0.049 A 
ATOM     55  H   UNL A   1      43.827  33.408  30.468  1.00  0.00     0.167 HD
ATOM     56  C   UNL A   1      41.155  32.605  31.566  1.00  0.00     0.074 A 
ATOM     57  C   UNL A   1      41.132  33.302  30.280  1.00  0.00     0.031 C 
ATOM     58  C   UNL A   1      42.151  31.945  32.228  1.00  0.00     0.031 A 
BRANCH  45  59
ATOM     59  C   UNL A   1      45.052  32.934  27.780  1.00  0.00    -0.014 A 
ATOM     60  C   UNL A   1      43.923  33.709  27.464  1.00  0.00     0.009 A 
ATOM     61  C   UNL A   1      46.240  33.236  27.085  1.00  0.00     0.009 A 
ATOM     62  C   UNL A   1      43.965  34.671  26.448  1.00  0.00     0.001 A 
ATOM     63  C   UNL A   1      46.297  34.224  26.101  1.00  0.00     0.001 A 
ATOM     64  C   UNL A   1      45.149  34.920  25.761  1.00  0.00     0.000 A 
ENDBRANCH  45  59
BRANCH  46  65
ATOM     65  C   UNL A   1      36.745  32.312  29.935  1.00  0.00    -0.014 A 
ATOM     66  C   UNL A   1      35.815  32.678  30.922  1.00  0.00     0.009 A 
ATOM     67  C   UNL A   1      36.521  32.772  28.625  1.00  0.00     0.009 A 
ATOM     68  C   UNL A   1      34.726  33.507  30.616  1.00  0.00     0.001 A 
ATOM     69  C   UNL A   1      35.434  33.598  28.319  1.00  0.00     0.001 A 
ATOM     70  C   UNL A   1      34.545  33.978  29.318  1.00  0.00     0.000 A 
ENDBRANCH  46  65
BRANCH  58  71
ATOM     71  C   UNL A   1      41.775  31.154  33.458  1.00  0.00    -0.014 A 
ATOM     72  C   UNL A   1      41.720  31.709  34.749  1.00  0.00     0.009 A 
ATOM     73  C   UNL A   1      41.317  29.840  33.280  1.00  0.00     0.009 A 
ATOM     74  C   UNL A   1      41.248  30.957  35.833  1.00  0.00     0.001 A 
ATOM     75  C   UNL A   1      40.826  29.098  34.356  1.00  0.00     0.001 A 
ATOM     76  C   UNL A   1      40.797  29.654  35.633  1.00  0.00     0.000 A 
ENDBRANCH  58  71
ENDBRANCH  32  33
ENDBRANCH  25  27
ENDBRANCH  24  25
ENDBRANCH  23  24
ENDBRANCH  22  23
ENDBRANCH   1  22
TORSDOF 17
ENDMDL
