MODEL 1
REMARK VINA RESULT:     -10.3      0.000      0.000
REMARK SMILES COc1ccc(-c2noc(C[N@H+]3CCCC[C@@H]3C(=O)OCCOCCOC(=O)c3ccc(-c4c5nc(c(-c6ccccc6)c6ccc([nH]6)c(-c6ccccc6)c6nc(c(-c7ccccc7)c7ccc4[nH]7)C=C6)C=C5)cc3)n2)cc1OC
REMARK SMILES IDX 22 1 21 2 20 3 18 4 19 5 17 6 12 7 13 8 14 10 16 11 15 12
REMARK SMILES IDX 11 13 10 14 7 15 8 16 77 17 9 18 6 19 3 20 4 21 79 22 5 23
REMARK SMILES IDX 78 24 2 25 1 26 80 27 81 28 23 29 24 30 25 31 26 32 27 33
REMARK SMILES IDX 28 34 29 35 30 36 76 37 31 38 75 39 32 40 33 41 34 42 69 43
REMARK SMILES IDX 35 44 74 45 68 46 70 47 36 48 73 49 67 50 66 51 37 53 59 54
REMARK SMILES IDX 44 55 58 56 45 57 48 58 57 59 71 60 46 61 47 62 56 64 72 65
REMARK SMILES IDX 49 66 38 67 39 68 43 69 40 70 42 71 41 72 60 73 61 74 65 75
REMARK SMILES IDX 62 76 64 77 63 78 50 79 51 80 55 81 52 82 54 83 53 84
REMARK H PARENT 12 9 70 52 48 63
REMARK Flexibility Score: inf
ROOT
ATOM      1  C   UNL A   1      32.368  26.089  26.340  1.00  0.00     0.202 C 
ENDROOT
BRANCH   1   2
ATOM      2  C   UNL A   1      33.750  25.663  25.829  1.00  0.00     0.261 C 
BRANCH   2   3
ATOM      3  O   UNL A   1      34.012  24.260  25.965  1.00  0.00    -0.459 OA
BRANCH   3   4
ATOM      4  C   UNL A   1      34.822  23.755  24.994  1.00  0.00     0.365 C 
ATOM      5  O   UNL A   1      35.866  24.291  24.630  1.00  0.00    -0.245 OA
BRANCH   4   6
ATOM      6  C   UNL A   1      34.325  22.423  24.393  1.00  0.00     0.295 C 
ATOM      7  N   UNL A   1      32.982  22.568  23.763  1.00  0.00    -0.315 N 
ATOM      8  C   UNL A   1      32.562  21.329  23.085  1.00  0.00     0.263 C 
ATOM      9  H   UNL A   1      32.350  22.758  24.541  1.00  0.00     0.349 HD
ATOM     10  C   UNL A   1      32.566  20.127  24.027  1.00  0.00     0.062 C 
ATOM     11  C   UNL A   1      34.326  21.254  25.393  1.00  0.00     0.078 C 
ATOM     12  C   UNL A   1      33.921  19.956  24.698  1.00  0.00     0.013 C 
BRANCH   7  13
ATOM     13  C   UNL A   1      32.864  23.726  22.835  1.00  0.00     0.364 C 
BRANCH  13  14
ATOM     14  C   UNL A   1      31.772  24.713  23.098  1.00  0.00     0.282 A 
ATOM     15  C   UNL A   1      30.489  26.358  23.247  1.00  0.00     0.202 A 
ATOM     16  N   UNL A   1      29.865  25.424  23.977  1.00  0.00    -0.057 NA
ATOM     17  N   UNL A   1      31.688  25.963  22.708  1.00  0.00    -0.186 NA
ATOM     18  O   UNL A   1      30.700  24.316  23.845  1.00  0.00    -0.333 OA
BRANCH  15  19
ATOM     19  C   UNL A   1      29.922  27.643  22.927  1.00  0.00     0.027 A 
ATOM     20  C   UNL A   1      28.688  30.055  22.264  1.00  0.00     0.160 A 
ATOM     21  C   UNL A   1      30.051  29.856  21.990  1.00  0.00     0.051 A 
ATOM     22  C   UNL A   1      27.928  29.040  22.858  1.00  0.00     0.161 A 
ATOM     23  C   UNL A   1      30.675  28.656  22.335  1.00  0.00     0.016 A 
ATOM     24  C   UNL A   1      28.562  27.841  23.185  1.00  0.00     0.062 A 
BRANCH  20  25
ATOM     25  O   UNL A   1      28.111  31.225  21.851  1.00  0.00    -0.493 OA
ATOM     26  C   UNL A   1      28.762  32.364  22.412  1.00  0.00     0.278 C 
ENDBRANCH  20  25
BRANCH  22  27
ATOM     27  O   UNL A   1      26.600  29.021  23.176  1.00  0.00    -0.493 OA
ATOM     28  C   UNL A   1      26.082  27.904  23.876  1.00  0.00     0.278 C 
ENDBRANCH  22  27
ENDBRANCH  15  19
ENDBRANCH  13  14
ENDBRANCH   7  13
ENDBRANCH   4   6
ENDBRANCH   3   4
ENDBRANCH   2   3
ENDBRANCH   1   2
BRANCH   1  29
ATOM     29  O   UNL A   1      32.102  27.479  26.481  1.00  0.00    -0.374 OA
BRANCH  29  30
ATOM     30  C   UNL A   1      32.728  28.394  25.582  1.00  0.00     0.202 C 
BRANCH  30  31
ATOM     31  C   UNL A   1      32.371  29.879  25.709  1.00  0.00     0.261 C 
BRANCH  31  32
ATOM     32  O   UNL A   1      32.428  30.339  27.073  1.00  0.00    -0.460 OA
BRANCH  32  33
ATOM     33  C   UNL A   1      33.177  31.454  27.260  1.00  0.00     0.338 C 
ATOM     34  O   UNL A   1      32.800  32.612  27.239  1.00  0.00    -0.246 OA
BRANCH  33  35
ATOM     35  C   UNL A   1      34.537  31.086  27.690  1.00  0.00     0.060 A 
ATOM     36  C   UNL A   1      34.798  29.730  27.927  1.00  0.00     0.016 A 
ATOM     37  C   UNL A   1      35.494  32.057  27.982  1.00  0.00     0.016 A 
ATOM     38  C   UNL A   1      36.002  29.342  28.508  1.00  0.00     0.010 A 
ATOM     39  C   UNL A   1      36.698  31.668  28.577  1.00  0.00     0.010 A 
ATOM     40  C   UNL A   1      36.939  30.314  28.879  1.00  0.00    -0.014 A 
BRANCH  40  41
ATOM     41  C   UNL A   1      38.091  29.928  29.729  1.00  0.00     0.031 A 
ATOM     42  C   UNL A   1      39.154  29.034  29.151  1.00  0.00     0.074 A 
ATOM     43  C   UNL A   1      38.208  30.391  30.985  1.00  0.00     0.049 A 
ATOM     44  N   UNL A   1      40.230  28.552  29.718  1.00  0.00    -0.248 NA
ATOM     45  C   UNL A   1      38.983  28.636  27.743  1.00  0.00     0.031 C 
ATOM     46  C   UNL A   1      37.275  31.305  31.640  1.00  0.00     0.029 A 
ATOM     47  N   UNL A   1      39.169  30.151  31.933  1.00  0.00    -0.354 N 
ATOM     48  C   UNL A   1      40.858  27.787  28.743  1.00  0.00     0.074 A 
ATOM     49  C   UNL A   1      40.034  27.850  27.556  1.00  0.00     0.031 C 
ATOM     50  C   UNL A   1      37.706  31.543  32.891  1.00  0.00     0.029 A 
ATOM     51  C   UNL A   1      38.925  30.773  33.131  1.00  0.00     0.049 A 
ATOM     52  H   UNL A   1      39.959  29.585  31.769  1.00  0.00     0.167 HD
ATOM     53  C   UNL A   1      42.020  27.097  28.826  1.00  0.00     0.031 A 
ATOM     54  C   UNL A   1      39.598  30.710  34.297  1.00  0.00     0.031 A 
ATOM     55  C   UNL A   1      42.835  27.022  30.009  1.00  0.00     0.049 A 
ATOM     56  C   UNL A   1      40.841  29.866  34.390  1.00  0.00     0.074 A 
ATOM     57  C   UNL A   1      44.035  26.356  30.188  1.00  0.00     0.029 A 
ATOM     58  N   UNL A   1      42.528  27.628  31.216  1.00  0.00    -0.354 N 
ATOM     59  N   UNL A   1      41.433  29.162  33.457  1.00  0.00    -0.248 NA
ATOM     60  C   UNL A   1      41.507  29.814  35.699  1.00  0.00     0.031 C 
ATOM     61  C   UNL A   1      44.428  26.517  31.522  1.00  0.00     0.029 A 
ATOM     62  C   UNL A   1      43.501  27.329  32.155  1.00  0.00     0.049 A 
ATOM     63  H   UNL A   1      41.735  28.189  31.381  1.00  0.00     0.167 HD
ATOM     64  C   UNL A   1      42.556  28.605  34.057  1.00  0.00     0.074 A 
ATOM     65  C   UNL A   1      42.567  29.062  35.432  1.00  0.00     0.031 C 
ATOM     66  C   UNL A   1      43.496  27.791  33.518  1.00  0.00     0.031 A 
BRANCH  53  67
ATOM     67  C   UNL A   1      42.459  26.334  27.609  1.00  0.00    -0.014 A 
ATOM     68  C   UNL A   1      43.276  26.926  26.632  1.00  0.00     0.009 A 
ATOM     69  C   UNL A   1      42.072  24.994  27.451  1.00  0.00     0.009 A 
ATOM     70  C   UNL A   1      43.671  26.198  25.507  1.00  0.00     0.001 A 
ATOM     71  C   UNL A   1      42.489  24.262  26.338  1.00  0.00     0.001 A 
ATOM     72  C   UNL A   1      43.280  24.867  25.362  1.00  0.00     0.000 A 
ENDBRANCH  53  67
BRANCH  54  73
ATOM     73  C   UNL A   1      39.096  31.448  35.484  1.00  0.00    -0.014 A 
ATOM     74  C   UNL A   1      39.536  32.752  35.755  1.00  0.00     0.009 A 
ATOM     75  C   UNL A   1      38.183  30.843  36.362  1.00  0.00     0.009 A 
ATOM     76  C   UNL A   1      39.089  33.426  36.894  1.00  0.00     0.001 A 
ATOM     77  C   UNL A   1      37.718  31.529  37.486  1.00  0.00     0.001 A 
ATOM     78  C   UNL A   1      38.179  32.816  37.756  1.00  0.00     0.000 A 
ENDBRANCH  54  73
BRANCH  66  79
ATOM     79  C   UNL A   1      44.633  27.369  34.404  1.00  0.00    -0.014 A 
ATOM     80  C   UNL A   1      45.810  28.127  34.490  1.00  0.00     0.009 A 
ATOM     81  C   UNL A   1      44.503  26.219  35.199  1.00  0.00     0.009 A 
ATOM     82  C   UNL A   1      46.846  27.726  35.337  1.00  0.00     0.001 A 
ATOM     83  C   UNL A   1      45.529  25.835  36.063  1.00  0.00     0.001 A 
ATOM     84  C   UNL A   1      46.703  26.585  36.126  1.00  0.00     0.000 A 
ENDBRANCH  66  79
ENDBRANCH  40  41
ENDBRANCH  33  35
ENDBRANCH  32  33
ENDBRANCH  31  32
ENDBRANCH  30  31
ENDBRANCH  29  30
ENDBRANCH   1  29
TORSDOF 19
ENDMDL
MODEL 2
REMARK VINA RESULT:     -10.2      2.476      6.610
REMARK SMILES COc1ccc(-c2noc(C[N@H+]3CCCC[C@@H]3C(=O)OCCOCCOC(=O)c3ccc(-c4c5nc(c(-c6ccccc6)c6ccc([nH]6)c(-c6ccccc6)c6nc(c(-c7ccccc7)c7ccc4[nH]7)C=C6)C=C5)cc3)n2)cc1OC
REMARK SMILES IDX 22 1 21 2 20 3 18 4 19 5 17 6 12 7 13 8 14 10 16 11 15 12
REMARK SMILES IDX 11 13 10 14 7 15 8 16 77 17 9 18 6 19 3 20 4 21 79 22 5 23
REMARK SMILES IDX 78 24 2 25 1 26 80 27 81 28 23 29 24 30 25 31 26 32 27 33
REMARK SMILES IDX 28 34 29 35 30 36 76 37 31 38 75 39 32 40 33 41 34 42 69 43
REMARK SMILES IDX 35 44 74 45 68 46 70 47 36 48 73 49 67 50 66 51 37 53 59 54
REMARK SMILES IDX 44 55 58 56 45 57 48 58 57 59 71 60 46 61 47 62 56 64 72 65
REMARK SMILES IDX 49 66 38 67 39 68 43 69 40 70 42 71 41 72 60 73 61 74 65 75
REMARK SMILES IDX 62 76 64 77 63 78 50 79 51 80 55 81 52 82 54 83 53 84
REMARK H PARENT 12 9 70 52 48 63
REMARK Flexibility Score: inf
ROOT
ATOM      1  C   UNL A   1      31.617  27.179  24.257  1.00  0.00     0.202 C 
ENDROOT
BRANCH   1   2
ATOM      2  C   UNL A   1      32.148  26.139  23.264  1.00  0.00     0.261 C 
BRANCH   2   3
ATOM      3  O   UNL A   1      33.459  25.651  23.580  1.00  0.00    -0.459 OA
BRANCH   3   4
ATOM      4  C   UNL A   1      33.516  24.303  23.760  1.00  0.00     0.365 C 
ATOM      5  O   UNL A   1      33.512  23.491  22.837  1.00  0.00    -0.245 OA
BRANCH   4   6
ATOM      6  C   UNL A   1      33.610  23.871  25.239  1.00  0.00     0.295 C 
ATOM      7  N   UNL A   1      34.859  23.104  25.511  1.00  0.00    -0.315 N 
ATOM      8  C   UNL A   1      35.007  22.797  26.945  1.00  0.00     0.263 C 
ATOM      9  H   UNL A   1      34.748  22.235  24.990  1.00  0.00     0.349 HD
ATOM     10  C   UNL A   1      33.802  22.039  27.499  1.00  0.00     0.062 C 
ATOM     11  C   UNL A   1      32.381  23.090  25.736  1.00  0.00     0.078 C 
ATOM     12  C   UNL A   1      32.506  22.790  27.227  1.00  0.00     0.013 C 
BRANCH   7  13
ATOM     13  C   UNL A   1      36.097  23.748  24.996  1.00  0.00     0.364 C 
BRANCH  13  14
ATOM     14  C   UNL A   1      37.401  23.308  25.581  1.00  0.00     0.282 A 
ATOM     15  C   UNL A   1      39.151  22.337  26.188  1.00  0.00     0.202 A 
ATOM     16  N   UNL A   1      39.206  23.497  26.855  1.00  0.00    -0.057 NA
ATOM     17  N   UNL A   1      38.033  22.171  25.409  1.00  0.00    -0.186 NA
ATOM     18  O   UNL A   1      38.060  24.161  26.420  1.00  0.00    -0.333 OA
BRANCH  15  19
ATOM     19  C   UNL A   1      40.216  21.367  26.168  1.00  0.00     0.027 A 
ATOM     20  C   UNL A   1      42.365  19.594  26.034  1.00  0.00     0.160 A 
ATOM     21  C   UNL A   1      41.045  19.113  26.013  1.00  0.00     0.051 A 
ATOM     22  C   UNL A   1      42.618  20.969  26.105  1.00  0.00     0.161 A 
ATOM     23  C   UNL A   1      39.968  19.998  26.095  1.00  0.00     0.016 A 
ATOM     24  C   UNL A   1      41.533  21.841  26.174  1.00  0.00     0.062 A 
BRANCH  20  25
ATOM     25  O   UNL A   1      43.382  18.690  25.888  1.00  0.00    -0.493 OA
ATOM     26  C   UNL A   1      43.365  17.702  26.919  1.00  0.00     0.278 C 
ENDBRANCH  20  25
BRANCH  22  27
ATOM     27  O   UNL A   1      43.811  21.634  26.107  1.00  0.00    -0.493 OA
ATOM     28  C   UNL A   1      44.327  22.114  24.879  1.00  0.00     0.278 C 
ENDBRANCH  22  27
ENDBRANCH  15  19
ENDBRANCH  13  14
ENDBRANCH   7  13
ENDBRANCH   4   6
ENDBRANCH   3   4
ENDBRANCH   2   3
ENDBRANCH   1   2
BRANCH   1  29
ATOM     29  O   UNL A   1      32.559  27.960  24.983  1.00  0.00    -0.374 OA
BRANCH  29  30
ATOM     30  C   UNL A   1      32.548  29.378  24.820  1.00  0.00     0.202 C 
BRANCH  30  31
ATOM     31  C   UNL A   1      31.668  30.201  25.767  1.00  0.00     0.261 C 
BRANCH  31  32
ATOM     32  O   UNL A   1      32.265  30.356  27.069  1.00  0.00    -0.460 OA
BRANCH  32  33
ATOM     33  C   UNL A   1      32.926  31.527  27.248  1.00  0.00     0.338 C 
ATOM     34  O   UNL A   1      32.458  32.652  27.232  1.00  0.00    -0.246 OA
BRANCH  33  35
ATOM     35  C   UNL A   1      34.315  31.268  27.662  1.00  0.00     0.060 A 
ATOM     36  C   UNL A   1      34.713  29.932  27.801  1.00  0.00     0.016 A 
ATOM     37  C   UNL A   1      35.168  32.307  28.033  1.00  0.00     0.016 A 
ATOM     38  C   UNL A   1      35.950  29.627  28.363  1.00  0.00     0.010 A 
ATOM     39  C   UNL A   1      36.405  32.000  28.609  1.00  0.00     0.010 A 
ATOM     40  C   UNL A   1      36.782  30.659  28.814  1.00  0.00    -0.014 A 
BRANCH  40  41
ATOM     41  C   UNL A   1      37.965  30.330  29.643  1.00  0.00     0.031 A 
ATOM     42  C   UNL A   1      39.083  29.529  29.032  1.00  0.00     0.074 A 
ATOM     43  C   UNL A   1      38.062  30.765  30.911  1.00  0.00     0.049 A 
ATOM     44  N   UNL A   1      40.194  29.107  29.577  1.00  0.00    -0.248 NA
ATOM     45  C   UNL A   1      38.926  29.159  27.615  1.00  0.00     0.031 C 
ATOM     46  C   UNL A   1      37.074  31.594  31.599  1.00  0.00     0.029 A 
ATOM     47  N   UNL A   1      39.047  30.565  31.844  1.00  0.00    -0.354 N 
ATOM     48  C   UNL A   1      40.865  28.415  28.576  1.00  0.00     0.074 A 
ATOM     49  C   UNL A   1      40.028  28.454  27.397  1.00  0.00     0.031 C 
ATOM     50  C   UNL A   1      37.500  31.826  32.853  1.00  0.00     0.029 A 
ATOM     51  C   UNL A   1      38.771  31.135  33.062  1.00  0.00     0.049 A 
ATOM     52  H   UNL A   1      39.872  30.061  31.659  1.00  0.00     0.167 HD
ATOM     53  C   UNL A   1      42.073  27.805  28.631  1.00  0.00     0.031 A 
ATOM     54  C   UNL A   1      39.458  31.087  34.220  1.00  0.00     0.031 A 
ATOM     55  C   UNL A   1      42.902  27.754  29.805  1.00  0.00     0.049 A 
ATOM     56  C   UNL A   1      40.757  30.329  34.280  1.00  0.00     0.074 A 
ATOM     57  C   UNL A   1      44.147  27.168  29.956  1.00  0.00     0.029 A 
ATOM     58  N   UNL A   1      42.565  28.303  31.031  1.00  0.00    -0.354 N 
ATOM     59  N   UNL A   1      41.388  29.694  33.322  1.00  0.00    -0.248 NA
ATOM     60  C   UNL A   1      41.438  30.287  35.582  1.00  0.00     0.031 C 
ATOM     61  C   UNL A   1      44.540  27.319  31.291  1.00  0.00     0.029 A 
ATOM     62  C   UNL A   1      43.565  28.046  31.953  1.00  0.00     0.049 A 
ATOM     63  H   UNL A   1      41.737  28.802  31.218  1.00  0.00     0.167 HD
ATOM     64  C   UNL A   1      42.552  29.200  33.898  1.00  0.00     0.074 A 
ATOM     65  C   UNL A   1      42.544  29.618  35.285  1.00  0.00     0.031 C 
ATOM     66  C   UNL A   1      43.541  28.468  33.329  1.00  0.00     0.031 A 
BRANCH  53  67
ATOM     67  C   UNL A   1      42.551  27.109  27.389  1.00  0.00    -0.014 A 
ATOM     68  C   UNL A   1      43.492  27.706  26.534  1.00  0.00     0.009 A 
ATOM     69  C   UNL A   1      42.076  25.824  27.085  1.00  0.00     0.009 A 
ATOM     70  C   UNL A   1      43.922  27.040  25.383  1.00  0.00     0.001 A 
ATOM     71  C   UNL A   1      42.526  25.151  25.948  1.00  0.00     0.001 A 
ATOM     72  C   UNL A   1      43.442  25.764  25.093  1.00  0.00     0.000 A 
ENDBRANCH  53  67
BRANCH  54  73
ATOM     73  C   UNL A   1      38.917  31.755  35.431  1.00  0.00    -0.014 A 
ATOM     74  C   UNL A   1      38.150  31.040  36.362  1.00  0.00     0.009 A 
ATOM     75  C   UNL A   1      39.154  33.122  35.653  1.00  0.00     0.009 A 
ATOM     76  C   UNL A   1      37.613  31.685  37.479  1.00  0.00     0.001 A 
ATOM     77  C   UNL A   1      38.638  33.757  36.784  1.00  0.00     0.001 A 
ATOM     78  C   UNL A   1      37.860  33.040  37.691  1.00  0.00     0.000 A 
ENDBRANCH  54  73
BRANCH  66  79
ATOM     79  C   UNL A   1      44.713  28.102  34.194  1.00  0.00    -0.014 A 
ATOM     80  C   UNL A   1      44.720  26.919  34.948  1.00  0.00     0.009 A 
ATOM     81  C   UNL A   1      45.846  28.931  34.216  1.00  0.00     0.009 A 
ATOM     82  C   UNL A   1      45.829  26.588  35.729  1.00  0.00     0.001 A 
ATOM     83  C   UNL A   1      46.963  28.584  34.977  1.00  0.00     0.001 A 
ATOM     84  C   UNL A   1      46.951  27.417  35.738  1.00  0.00     0.000 A 
ENDBRANCH  66  79
ENDBRANCH  40  41
ENDBRANCH  33  35
ENDBRANCH  32  33
ENDBRANCH  31  32
ENDBRANCH  30  31
ENDBRANCH  29  30
ENDBRANCH   1  29
TORSDOF 19
ENDMDL
MODEL 3
REMARK VINA RESULT:     -10.1      2.541      8.060
REMARK SMILES COc1ccc(-c2noc(C[N@H+]3CCCC[C@@H]3C(=O)OCCOCCOC(=O)c3ccc(-c4c5nc(c(-c6ccccc6)c6ccc([nH]6)c(-c6ccccc6)c6nc(c(-c7ccccc7)c7ccc4[nH]7)C=C6)C=C5)cc3)n2)cc1OC
REMARK SMILES IDX 22 1 21 2 20 3 18 4 19 5 17 6 12 7 13 8 14 10 16 11 15 12
REMARK SMILES IDX 11 13 10 14 7 15 8 16 77 17 9 18 6 19 3 20 4 21 79 22 5 23
REMARK SMILES IDX 78 24 2 25 1 26 80 27 81 28 23 29 24 30 25 31 26 32 27 33
REMARK SMILES IDX 28 34 29 35 30 36 76 37 31 38 75 39 32 40 33 41 34 42 69 43
REMARK SMILES IDX 35 44 74 45 68 46 70 47 36 48 73 49 67 50 66 51 37 53 59 54
REMARK SMILES IDX 44 55 58 56 45 57 48 58 57 59 71 60 46 61 47 62 56 64 72 65
REMARK SMILES IDX 49 66 38 67 39 68 43 69 40 70 42 71 41 72 60 73 61 74 65 75
REMARK SMILES IDX 62 76 64 77 63 78 50 79 51 80 55 81 52 82 54 83 53 84
REMARK H PARENT 12 9 70 52 48 63
REMARK Flexibility Score: inf
ROOT
ATOM      1  C   UNL A   1      33.867  32.468  27.639  1.00  0.00     0.202 C 
ENDROOT
BRANCH   1   2
ATOM      2  C   UNL A   1      33.585  30.972  27.455  1.00  0.00     0.261 C 
BRANCH   2   3
ATOM      3  O   UNL A   1      33.248  30.606  26.110  1.00  0.00    -0.459 OA
BRANCH   3   4
ATOM      4  C   UNL A   1      32.803  29.325  25.984  1.00  0.00     0.365 C 
ATOM      5  O   UNL A   1      33.082  28.425  26.774  1.00  0.00    -0.245 OA
BRANCH   4   6
ATOM      6  C   UNL A   1      31.890  29.096  24.761  1.00  0.00     0.295 C 
ATOM      7  N   UNL A   1      32.650  29.174  23.482  1.00  0.00    -0.315 N 
ATOM      8  C   UNL A   1      31.804  28.836  22.324  1.00  0.00     0.263 C 
ATOM      9  H   UNL A   1      32.942  30.150  23.413  1.00  0.00     0.349 HD
ATOM     10  C   UNL A   1      30.559  29.717  22.243  1.00  0.00     0.062 C 
ATOM     11  C   UNL A   1      30.667  30.027  24.718  1.00  0.00     0.078 C 
ATOM     12  C   UNL A   1      29.764  29.670  23.540  1.00  0.00     0.013 C 
BRANCH   7  13
ATOM     13  C   UNL A   1      33.897  28.362  23.460  1.00  0.00     0.364 C 
BRANCH  13  14
ATOM     14  C   UNL A   1      33.780  26.928  23.050  1.00  0.00     0.282 A 
ATOM     15  C   UNL A   1      33.644  24.848  22.889  1.00  0.00     0.202 A 
ATOM     16  N   UNL A   1      33.632  25.248  21.611  1.00  0.00    -0.057 NA
ATOM     17  N   UNL A   1      33.762  25.859  23.810  1.00  0.00    -0.186 NA
ATOM     18  O   UNL A   1      33.681  26.636  21.719  1.00  0.00    -0.333 OA
BRANCH  15  19
ATOM     19  C   UNL A   1      33.430  23.486  23.311  1.00  0.00     0.027 A 
ATOM     20  C   UNL A   1      33.180  20.831  24.125  1.00  0.00     0.160 A 
ATOM     21  C   UNL A   1      32.256  21.388  23.225  1.00  0.00     0.051 A 
ATOM     22  C   UNL A   1      34.247  21.596  24.611  1.00  0.00     0.161 A 
ATOM     23  C   UNL A   1      32.370  22.721  22.828  1.00  0.00     0.016 A 
ATOM     24  C   UNL A   1      34.355  22.923  24.196  1.00  0.00     0.062 A 
BRANCH  20  25
ATOM     25  O   UNL A   1      33.059  19.503  24.435  1.00  0.00    -0.493 OA
ATOM     26  C   UNL A   1      32.511  18.754  23.350  1.00  0.00     0.278 C 
ENDBRANCH  20  25
BRANCH  22  27
ATOM     27  O   UNL A   1      35.257  21.240  25.458  1.00  0.00    -0.493 OA
ATOM     28  C   UNL A   1      36.312  22.157  25.685  1.00  0.00     0.278 C 
ENDBRANCH  22  27
ENDBRANCH  15  19
ENDBRANCH  13  14
ENDBRANCH   7  13
ENDBRANCH   4   6
ENDBRANCH   3   4
ENDBRANCH   2   3
ENDBRANCH   1   2
BRANCH   1  29
ATOM     29  O   UNL A   1      33.938  32.981  28.963  1.00  0.00    -0.374 OA
BRANCH  29  30
ATOM     30  C   UNL A   1      34.139  34.383  29.148  1.00  0.00     0.202 C 
BRANCH  30  31
ATOM     31  C   UNL A   1      32.940  35.224  29.599  1.00  0.00     0.261 C 
BRANCH  31  32
ATOM     32  O   UNL A   1      33.256  36.060  30.729  1.00  0.00    -0.460 OA
BRANCH  32  33
ATOM     33  C   UNL A   1      32.891  35.545  31.929  1.00  0.00     0.338 C 
ATOM     34  O   UNL A   1      31.766  35.464  32.389  1.00  0.00    -0.246 OA
BRANCH  33  35
ATOM     35  C   UNL A   1      34.045  34.898  32.577  1.00  0.00     0.060 A 
ATOM     36  C   UNL A   1      35.294  35.519  32.447  1.00  0.00     0.016 A 
ATOM     37  C   UNL A   1      33.930  33.648  33.184  1.00  0.00     0.016 A 
ATOM     38  C   UNL A   1      36.446  34.865  32.877  1.00  0.00     0.010 A 
ATOM     39  C   UNL A   1      35.089  32.987  33.604  1.00  0.00     0.010 A 
ATOM     40  C   UNL A   1      36.354  33.576  33.415  1.00  0.00    -0.014 A 
BRANCH  40  41
ATOM     41  C   UNL A   1      37.589  32.784  33.624  1.00  0.00     0.031 A 
ATOM     42  C   UNL A   1      38.381  32.992  34.886  1.00  0.00     0.074 A 
ATOM     43  C   UNL A   1      37.984  31.870  32.722  1.00  0.00     0.049 A 
ATOM     44  N   UNL A   1      39.501  32.431  35.264  1.00  0.00    -0.248 NA
ATOM     45  C   UNL A   1      37.835  33.959  35.853  1.00  0.00     0.031 C 
ATOM     46  C   UNL A   1      37.275  31.537  31.489  1.00  0.00     0.029 A 
ATOM     47  N   UNL A   1      39.085  31.053  32.711  1.00  0.00    -0.354 N 
ATOM     48  C   UNL A   1      39.798  32.981  36.505  1.00  0.00     0.074 A 
ATOM     49  C   UNL A   1      38.755  33.937  36.807  1.00  0.00     0.031 C 
ATOM     50  C   UNL A   1      37.966  30.588  30.833  1.00  0.00     0.029 A 
ATOM     51  C   UNL A   1      39.179  30.273  31.586  1.00  0.00     0.049 A 
ATOM     52  H   UNL A   1      39.747  31.029  33.441  1.00  0.00     0.167 HD
ATOM     53  C   UNL A   1      40.844  32.713  37.322  1.00  0.00     0.031 A 
ATOM     54  C   UNL A   1      40.145  29.418  31.198  1.00  0.00     0.031 A 
ATOM     55  C   UNL A   1      41.889  31.773  37.018  1.00  0.00     0.049 A 
ATOM     56  C   UNL A   1      41.341  29.201  32.085  1.00  0.00     0.074 A 
ATOM     57  C   UNL A   1      42.986  31.425  37.788  1.00  0.00     0.029 A 
ATOM     58  N   UNL A   1      41.971  31.038  35.847  1.00  0.00    -0.354 N 
ATOM     59  N   UNL A   1      41.601  29.714  33.262  1.00  0.00    -0.248 NA
ATOM     60  C   UNL A   1      42.375  28.282  31.586  1.00  0.00     0.031 C 
ATOM     61  C   UNL A   1      43.760  30.516  37.058  1.00  0.00     0.029 A 
ATOM     62  C   UNL A   1      43.114  30.258  35.859  1.00  0.00     0.049 A 
ATOM     63  H   UNL A   1      41.313  31.067  35.115  1.00  0.00     0.167 HD
ATOM     64  C   UNL A   1      42.813  29.161  33.658  1.00  0.00     0.074 A 
ATOM     65  C   UNL A   1      43.231  28.265  32.599  1.00  0.00     0.031 C 
ATOM     66  C   UNL A   1      43.516  29.373  34.797  1.00  0.00     0.031 A 
BRANCH  53  67
ATOM     67  C   UNL A   1      40.926  33.479  38.611  1.00  0.00    -0.014 A 
ATOM     68  C   UNL A   1      41.607  34.705  38.690  1.00  0.00     0.009 A 
ATOM     69  C   UNL A   1      40.287  32.981  39.758  1.00  0.00     0.009 A 
ATOM     70  C   UNL A   1      41.672  35.400  39.900  1.00  0.00     0.001 A 
ATOM     71  C   UNL A   1      40.333  33.691  40.959  1.00  0.00     0.001 A 
ATOM     72  C   UNL A   1      41.033  34.895  41.031  1.00  0.00     0.000 A 
ENDBRANCH  53  67
BRANCH  54  73
ATOM     73  C   UNL A   1      40.036  28.720  29.892  1.00  0.00    -0.014 A 
ATOM     74  C   UNL A   1      39.495  27.428  29.813  1.00  0.00     0.009 A 
ATOM     75  C   UNL A   1      40.490  29.339  28.716  1.00  0.00     0.009 A 
ATOM     76  C   UNL A   1      39.432  26.762  28.586  1.00  0.00     0.001 A 
ATOM     77  C   UNL A   1      40.401  28.681  27.487  1.00  0.00     0.001 A 
ATOM     78  C   UNL A   1      39.881  27.390  27.425  1.00  0.00     0.000 A 
ENDBRANCH  54  73
BRANCH  66  79
ATOM     79  C   UNL A   1      44.791  28.599  34.976  1.00  0.00    -0.014 A 
ATOM     80  C   UNL A   1      44.801  27.345  35.604  1.00  0.00     0.009 A 
ATOM     81  C   UNL A   1      45.992  29.115  34.463  1.00  0.00     0.009 A 
ATOM     82  C   UNL A   1      45.995  26.635  35.740  1.00  0.00     0.001 A 
ATOM     83  C   UNL A   1      47.180  28.390  34.578  1.00  0.00     0.001 A 
ATOM     84  C   UNL A   1      47.181  27.154  35.223  1.00  0.00     0.000 A 
ENDBRANCH  66  79
ENDBRANCH  40  41
ENDBRANCH  33  35
ENDBRANCH  32  33
ENDBRANCH  31  32
ENDBRANCH  30  31
ENDBRANCH  29  30
ENDBRANCH   1  29
TORSDOF 19
ENDMDL
