MODEL 1
REMARK VINA RESULT:      -9.5      0.000      0.000
REMARK SMILES O=C(CN1C(=O)c2ccccc2[C@@H]1O)OCCOCCOC(=O)c1ccc(-c2c3nc(c(-c4ccccc4)c4ccc([nH]4)c(-c4ccccc4)c4nc(c(-c5ccccc5)c5ccc2[nH]5)C=C4)C=C3)cc1
REMARK SMILES IDX 18 1 17 2 16 3 15 4 2 5 1 6 3 7 4 8 5 9 13 10 6 11 7 12
REMARK SMILES IDX 12 13 8 14 11 15 9 16 10 17 14 18 19 20 20 21 21 22 22 23
REMARK SMILES IDX 23 24 24 25 25 26 71 27 26 28 70 29 27 30 28 31 29 32 64 33
REMARK SMILES IDX 30 34 69 35 63 36 65 37 31 38 68 39 62 40 61 41 32 43 54 44
REMARK SMILES IDX 39 45 53 46 40 47 43 48 52 49 66 50 41 51 42 52 51 54 67 55
REMARK SMILES IDX 44 56 33 57 34 58 38 59 35 60 37 61 36 62 55 63 56 64 60 65
REMARK SMILES IDX 57 66 59 67 58 68 45 69 46 70 50 71 47 72 49 73 48 74
REMARK H PARENT 14 19 65 42 43 53
REMARK Flexibility Score: inf
ROOT
ATOM      1  O   UNL A   1      45.306  22.674  26.067  1.00  0.00    -0.374 OA
ENDROOT
BRANCH   1   2
ATOM      2  C   UNL A   1      45.421  21.864  24.909  1.00  0.00     0.202 C 
BRANCH   2   3
ATOM      3  C   UNL A   1      44.955  20.409  24.984  1.00  0.00     0.261 C 
BRANCH   3   4
ATOM      4  O   UNL A   1      43.563  20.212  25.243  1.00  0.00    -0.462 OA
BRANCH   4   5
ATOM      5  C   UNL A   1      43.002  19.186  25.925  1.00  0.00     0.325 C 
ATOM      6  O   UNL A   1      43.121  18.044  25.471  1.00  0.00    -0.250 OA
BRANCH   5   7
ATOM      7  C   UNL A   1      42.042  19.424  27.091  1.00  0.00     0.245 C 
BRANCH   7   8
ATOM      8  N   UNL A   1      40.994  20.415  26.978  1.00  0.00    -0.298 N 
ATOM      9  C   UNL A   1      39.947  20.295  26.082  1.00  0.00     0.257 C 
ATOM     10  C   UNL A   1      41.123  21.752  27.503  1.00  0.00     0.247 C 
ATOM     11  O   UNL A   1      39.653  19.341  25.400  1.00  0.00    -0.269 OA
ATOM     12  C   UNL A   1      39.201  21.551  26.146  1.00  0.00     0.047 A 
ATOM     13  C   UNL A   1      39.932  22.446  26.926  1.00  0.00     0.014 A 
ATOM     14  C   UNL A   1      37.989  21.859  25.563  1.00  0.00     0.014 A 
ATOM     15  C   UNL A   1      39.491  23.749  27.064  1.00  0.00     0.009 A 
ATOM     16  C   UNL A   1      37.521  23.159  25.734  1.00  0.00     0.001 A 
ATOM     17  C   UNL A   1      38.278  24.102  26.455  1.00  0.00     0.001 A 
BRANCH  10  18
ATOM     18  O   UNL A   1      42.319  22.310  27.018  1.00  0.00    -0.369 OA
ATOM     19  H   UNL A   1      42.601  23.029  27.605  1.00  0.00     0.213 HD
ENDBRANCH  10  18
ENDBRANCH   7   8
ENDBRANCH   5   7
ENDBRANCH   4   5
ENDBRANCH   3   4
ENDBRANCH   2   3
ENDBRANCH   1   2
BRANCH   1  20
ATOM     20  C   UNL A   1      45.020  24.066  25.897  1.00  0.00     0.202 C 
BRANCH  20  21
ATOM     21  C   UNL A   1      43.866  24.497  24.984  1.00  0.00     0.261 C 
BRANCH  21  22
ATOM     22  O   UNL A   1      42.746  25.017  25.719  1.00  0.00    -0.460 OA
BRANCH  22  23
ATOM     23  C   UNL A   1      42.584  26.359  25.638  1.00  0.00     0.338 C 
ATOM     24  O   UNL A   1      42.331  27.019  24.645  1.00  0.00    -0.246 OA
BRANCH  23  25
ATOM     25  C   UNL A   1      42.537  26.921  26.998  1.00  0.00     0.060 A 
ATOM     26  C   UNL A   1      41.685  26.315  27.931  1.00  0.00     0.016 A 
ATOM     27  C   UNL A   1      43.261  28.067  27.325  1.00  0.00     0.016 A 
ATOM     28  C   UNL A   1      41.507  26.890  29.184  1.00  0.00     0.010 A 
ATOM     29  C   UNL A   1      43.073  28.650  28.579  1.00  0.00     0.010 A 
ATOM     30  C   UNL A   1      42.165  28.086  29.494  1.00  0.00    -0.014 A 
BRANCH  30  31
ATOM     31  C   UNL A   1      41.771  28.847  30.700  1.00  0.00     0.031 A 
ATOM     32  C   UNL A   1      40.557  29.729  30.628  1.00  0.00     0.074 A 
ATOM     33  C   UNL A   1      42.476  28.741  31.838  1.00  0.00     0.049 A 
ATOM     34  N   UNL A   1      40.061  30.533  31.532  1.00  0.00    -0.248 NA
ATOM     35  C   UNL A   1      39.802  29.705  29.363  1.00  0.00     0.031 C 
ATOM     36  C   UNL A   1      43.641  27.879  32.035  1.00  0.00     0.029 A 
ATOM     37  N   UNL A   1      42.315  29.375  33.041  1.00  0.00    -0.354 N 
ATOM     38  C   UNL A   1      38.951  31.123  30.940  1.00  0.00     0.074 A 
ATOM     39  C   UNL A   1      38.862  30.608  29.592  1.00  0.00     0.031 C 
ATOM     40  C   UNL A   1      44.096  28.047  33.288  1.00  0.00     0.029 A 
ATOM     41  C   UNL A   1      43.282  29.056  33.962  1.00  0.00     0.049 A 
ATOM     42  H   UNL A   1      41.579  30.001  33.228  1.00  0.00     0.167 HD
ATOM     43  C   UNL A   1      38.081  32.012  31.475  1.00  0.00     0.031 A 
ATOM     44  C   UNL A   1      43.499  29.546  35.196  1.00  0.00     0.031 A 
ATOM     45  C   UNL A   1      38.189  32.532  32.812  1.00  0.00     0.049 A 
ATOM     46  C   UNL A   1      42.568  30.599  35.739  1.00  0.00     0.074 A 
ATOM     47  C   UNL A   1      37.354  33.424  33.460  1.00  0.00     0.029 A 
ATOM     48  N   UNL A   1      39.204  32.212  33.702  1.00  0.00    -0.354 N 
ATOM     49  N   UNL A   1      41.504  31.130  35.183  1.00  0.00    -0.248 NA
ATOM     50  C   UNL A   1      42.865  31.113  37.083  1.00  0.00     0.031 C 
ATOM     51  C   UNL A   1      37.901  33.696  34.718  1.00  0.00     0.029 A 
ATOM     52  C   UNL A   1      39.035  32.916  34.882  1.00  0.00     0.049 A 
ATOM     53  H   UNL A   1      39.935  31.579  33.521  1.00  0.00     0.167 HD
ATOM     54  C   UNL A   1      40.989  32.018  36.121  1.00  0.00     0.074 A 
ATOM     55  C   UNL A   1      41.847  31.938  37.286  1.00  0.00     0.031 C 
ATOM     56  C   UNL A   1      39.904  32.825  36.029  1.00  0.00     0.031 A 
BRANCH  43  57
ATOM     57  C   UNL A   1      36.968  32.510  30.594  1.00  0.00    -0.014 A 
ATOM     58  C   UNL A   1      35.709  31.889  30.580  1.00  0.00     0.009 A 
ATOM     59  C   UNL A   1      37.177  33.636  29.782  1.00  0.00     0.009 A 
ATOM     60  C   UNL A   1      34.696  32.361  29.740  1.00  0.00     0.001 A 
ATOM     61  C   UNL A   1      36.153  34.127  28.970  1.00  0.00     0.001 A 
ATOM     62  C   UNL A   1      34.918  33.483  28.941  1.00  0.00     0.000 A 
ENDBRANCH  43  57
BRANCH  44  63
ATOM     63  C   UNL A   1      44.655  29.066  35.998  1.00  0.00    -0.014 A 
ATOM     64  C   UNL A   1      44.520  27.972  36.866  1.00  0.00     0.009 A 
ATOM     65  C   UNL A   1      45.900  29.710  35.908  1.00  0.00     0.009 A 
ATOM     66  C   UNL A   1      45.600  27.550  37.647  1.00  0.00     0.001 A 
ATOM     67  C   UNL A   1      46.986  29.265  36.664  1.00  0.00     0.001 A 
ATOM     68  C   UNL A   1      46.832  28.194  37.541  1.00  0.00     0.000 A 
ENDBRANCH  44  63
BRANCH  56  69
ATOM     69  C   UNL A   1      39.559  33.657  37.234  1.00  0.00    -0.014 A 
ATOM     70  C   UNL A   1      39.955  34.999  37.338  1.00  0.00     0.009 A 
ATOM     71  C   UNL A   1      38.788  33.094  38.265  1.00  0.00     0.009 A 
ATOM     72  C   UNL A   1      39.618  35.749  38.467  1.00  0.00     0.001 A 
ATOM     73  C   UNL A   1      38.422  33.857  39.374  1.00  0.00     0.001 A 
ATOM     74  C   UNL A   1      38.847  35.181  39.480  1.00  0.00     0.000 A 
ENDBRANCH  56  69
ENDBRANCH  30  31
ENDBRANCH  23  25
ENDBRANCH  22  23
ENDBRANCH  21  22
ENDBRANCH  20  21
ENDBRANCH   1  20
TORSDOF 16
ENDMDL
MODEL 2
REMARK VINA RESULT:      -9.4      3.779      8.526
REMARK SMILES O=C(CN1C(=O)c2ccccc2[C@@H]1O)OCCOCCOC(=O)c1ccc(-c2c3nc(c(-c4ccccc4)c4ccc([nH]4)c(-c4ccccc4)c4nc(c(-c5ccccc5)c5ccc2[nH]5)C=C4)C=C3)cc1
REMARK SMILES IDX 18 1 17 2 16 3 15 4 2 5 1 6 3 7 4 8 5 9 13 10 6 11 7 12
REMARK SMILES IDX 12 13 8 14 11 15 9 16 10 17 14 18 19 20 20 21 21 22 22 23
REMARK SMILES IDX 23 24 24 25 25 26 71 27 26 28 70 29 27 30 28 31 29 32 64 33
REMARK SMILES IDX 30 34 69 35 63 36 65 37 31 38 68 39 62 40 61 41 32 43 54 44
REMARK SMILES IDX 39 45 53 46 40 47 43 48 52 49 66 50 41 51 42 52 51 54 67 55
REMARK SMILES IDX 44 56 33 57 34 58 38 59 35 60 37 61 36 62 55 63 56 64 60 65
REMARK SMILES IDX 57 66 59 67 58 68 45 69 46 70 50 71 47 72 49 73 48 74
REMARK H PARENT 14 19 65 42 43 53
REMARK Flexibility Score: inf
ROOT
ATOM      1  O   UNL A   1      44.362  20.475  24.214  1.00  0.00    -0.374 OA
ENDROOT
BRANCH   1   2
ATOM      2  C   UNL A   1      45.435  21.383  24.025  1.00  0.00     0.202 C 
BRANCH   2   3
ATOM      3  C   UNL A   1      45.375  22.741  24.724  1.00  0.00     0.261 C 
BRANCH   3   4
ATOM      4  O   UNL A   1      46.432  23.017  25.647  1.00  0.00    -0.462 OA
BRANCH   4   5
ATOM      5  C   UNL A   1      47.105  24.182  25.784  1.00  0.00     0.325 C 
ATOM      6  O   UNL A   1      47.912  24.289  26.713  1.00  0.00    -0.250 OA
BRANCH   5   7
ATOM      7  C   UNL A   1      46.730  25.429  24.982  1.00  0.00     0.245 C 
BRANCH   7   8
ATOM      8  N   UNL A   1      46.207  26.596  25.657  1.00  0.00    -0.298 N 
ATOM      9  C   UNL A   1      44.882  26.982  25.563  1.00  0.00     0.257 C 
ATOM     10  C   UNL A   1      47.053  27.643  26.176  1.00  0.00     0.247 C 
ATOM     11  O   UNL A   1      43.960  26.373  25.072  1.00  0.00    -0.269 OA
ATOM     12  C   UNL A   1      44.779  28.277  26.233  1.00  0.00     0.047 A 
ATOM     13  C   UNL A   1      46.070  28.711  26.531  1.00  0.00     0.014 A 
ATOM     14  C   UNL A   1      43.642  28.994  26.543  1.00  0.00     0.014 A 
ATOM     15  C   UNL A   1      46.258  29.965  27.082  1.00  0.00     0.009 A 
ATOM     16  C   UNL A   1      43.825  30.240  27.136  1.00  0.00     0.001 A 
ATOM     17  C   UNL A   1      45.123  30.732  27.378  1.00  0.00     0.001 A 
BRANCH  10  18
ATOM     18  O   UNL A   1      47.917  28.069  25.152  1.00  0.00    -0.369 OA
ATOM     19  H   UNL A   1      47.841  27.469  24.394  1.00  0.00     0.213 HD
ENDBRANCH  10  18
ENDBRANCH   7   8
ENDBRANCH   5   7
ENDBRANCH   4   5
ENDBRANCH   3   4
ENDBRANCH   2   3
ENDBRANCH   1   2
BRANCH   1  20
ATOM     20  C   UNL A   1      44.423  19.573  25.323  1.00  0.00     0.202 C 
BRANCH  20  21
ATOM     21  C   UNL A   1      43.125  19.010  25.916  1.00  0.00     0.261 C 
BRANCH  21  22
ATOM     22  O   UNL A   1      41.955  19.665  25.400  1.00  0.00    -0.460 OA
BRANCH  22  23
ATOM     23  C   UNL A   1      41.129  20.181  26.342  1.00  0.00     0.338 C 
ATOM     24  O   UNL A   1      40.177  19.639  26.875  1.00  0.00    -0.246 OA
BRANCH  23  25
ATOM     25  C   UNL A   1      41.682  21.461  26.817  1.00  0.00     0.060 A 
ATOM     26  C   UNL A   1      41.782  21.660  28.201  1.00  0.00     0.016 A 
ATOM     27  C   UNL A   1      42.023  22.472  25.920  1.00  0.00     0.016 A 
ATOM     28  C   UNL A   1      42.171  22.899  28.697  1.00  0.00     0.010 A 
ATOM     29  C   UNL A   1      42.402  23.718  26.419  1.00  0.00     0.010 A 
ATOM     30  C   UNL A   1      42.436  23.946  27.807  1.00  0.00    -0.014 A 
BRANCH  30  31
ATOM     31  C   UNL A   1      42.574  25.326  28.320  1.00  0.00     0.031 A 
ATOM     32  C   UNL A   1      43.918  25.775  28.819  1.00  0.00     0.074 A 
ATOM     33  C   UNL A   1      41.524  26.164  28.329  1.00  0.00     0.049 A 
ATOM     34  N   UNL A   1      44.262  26.911  29.370  1.00  0.00    -0.248 NA
ATOM     35  C   UNL A   1      45.024  24.812  28.683  1.00  0.00     0.031 C 
ATOM     36  C   UNL A   1      40.187  25.850  27.825  1.00  0.00     0.029 A 
ATOM     37  N   UNL A   1      41.421  27.450  28.789  1.00  0.00    -0.354 N 
ATOM     38  C   UNL A   1      45.615  26.791  29.662  1.00  0.00     0.074 A 
ATOM     39  C   UNL A   1      46.023  25.465  29.256  1.00  0.00     0.031 C 
ATOM     40  C   UNL A   1      39.393  26.918  28.013  1.00  0.00     0.029 A 
ATOM     41  C   UNL A   1      40.154  27.967  28.687  1.00  0.00     0.049 A 
ATOM     42  H   UNL A   1      42.181  27.954  29.159  1.00  0.00     0.167 HD
ATOM     43  C   UNL A   1      46.444  27.707  30.217  1.00  0.00     0.031 A 
ATOM     44  C   UNL A   1      39.661  29.144  29.116  1.00  0.00     0.031 A 
ATOM     45  C   UNL A   1      46.023  29.017  30.635  1.00  0.00     0.049 A 
ATOM     46  C   UNL A   1      40.583  30.114  29.808  1.00  0.00     0.074 A 
ATOM     47  C   UNL A   1      46.783  30.030  31.192  1.00  0.00     0.029 A 
ATOM     48  N   UNL A   1      44.722  29.492  30.548  1.00  0.00    -0.354 N 
ATOM     49  N   UNL A   1      41.867  30.004  30.055  1.00  0.00    -0.248 NA
ATOM     50  C   UNL A   1      39.986  31.373  30.275  1.00  0.00     0.031 C 
ATOM     51  C   UNL A   1      45.929  31.092  31.506  1.00  0.00     0.029 A 
ATOM     52  C   UNL A   1      44.651  30.771  31.074  1.00  0.00     0.049 A 
ATOM     53  H   UNL A   1      43.963  28.994  30.169  1.00  0.00     0.167 HD
ATOM     54  C   UNL A   1      42.237  31.190  30.678  1.00  0.00     0.074 A 
ATOM     55  C   UNL A   1      41.046  32.011  30.753  1.00  0.00     0.031 C 
ATOM     56  C   UNL A   1      43.453  31.569  31.143  1.00  0.00     0.031 A 
BRANCH  43  57
ATOM     57  C   UNL A   1      47.874  27.301  30.444  1.00  0.00    -0.014 A 
ATOM     58  C   UNL A   1      48.250  26.518  31.547  1.00  0.00     0.009 A 
ATOM     59  C   UNL A   1      48.860  27.691  29.524  1.00  0.00     0.009 A 
ATOM     60  C   UNL A   1      49.588  26.168  31.745  1.00  0.00     0.001 A 
ATOM     61  C   UNL A   1      50.191  27.312  29.705  1.00  0.00     0.001 A 
ATOM     62  C   UNL A   1      50.556  26.561  30.821  1.00  0.00     0.000 A 
ENDBRANCH  43  57
BRANCH  44  63
ATOM     63  C   UNL A   1      38.223  29.466  28.924  1.00  0.00    -0.014 A 
ATOM     64  C   UNL A   1      37.755  29.958  27.697  1.00  0.00     0.009 A 
ATOM     65  C   UNL A   1      37.309  29.293  29.977  1.00  0.00     0.009 A 
ATOM     66  C   UNL A   1      36.409  30.296  27.535  1.00  0.00     0.001 A 
ATOM     67  C   UNL A   1      35.958  29.601  29.802  1.00  0.00     0.001 A 
ATOM     68  C   UNL A   1      35.511  30.112  28.586  1.00  0.00     0.000 A 
ENDBRANCH  44  63
BRANCH  56  69
ATOM     69  C   UNL A   1      43.564  32.946  31.739  1.00  0.00    -0.014 A 
ATOM     70  C   UNL A   1      43.402  33.166  33.115  1.00  0.00     0.009 A 
ATOM     71  C   UNL A   1      43.879  34.035  30.909  1.00  0.00     0.009 A 
ATOM     72  C   UNL A   1      43.515  34.455  33.642  1.00  0.00     0.001 A 
ATOM     73  C   UNL A   1      44.027  35.315  31.444  1.00  0.00     0.001 A 
ATOM     74  C   UNL A   1      43.833  35.526  32.809  1.00  0.00     0.000 A 
ENDBRANCH  56  69
ENDBRANCH  30  31
ENDBRANCH  23  25
ENDBRANCH  22  23
ENDBRANCH  21  22
ENDBRANCH  20  21
ENDBRANCH   1  20
TORSDOF 16
ENDMDL
MODEL 3
REMARK VINA RESULT:      -9.4      4.669      8.455
REMARK SMILES O=C(CN1C(=O)c2ccccc2[C@@H]1O)OCCOCCOC(=O)c1ccc(-c2c3nc(c(-c4ccccc4)c4ccc([nH]4)c(-c4ccccc4)c4nc(c(-c5ccccc5)c5ccc2[nH]5)C=C4)C=C3)cc1
REMARK SMILES IDX 18 1 17 2 16 3 15 4 2 5 1 6 3 7 4 8 5 9 13 10 6 11 7 12
REMARK SMILES IDX 12 13 8 14 11 15 9 16 10 17 14 18 19 20 20 21 21 22 22 23
REMARK SMILES IDX 23 24 24 25 25 26 71 27 26 28 70 29 27 30 28 31 29 32 64 33
REMARK SMILES IDX 30 34 69 35 63 36 65 37 31 38 68 39 62 40 61 41 32 43 54 44
REMARK SMILES IDX 39 45 53 46 40 47 43 48 52 49 66 50 41 51 42 52 51 54 67 55
REMARK SMILES IDX 44 56 33 57 34 58 38 59 35 60 37 61 36 62 55 63 56 64 60 65
REMARK SMILES IDX 57 66 59 67 58 68 45 69 46 70 50 71 47 72 49 73 48 74
REMARK H PARENT 14 19 65 42 43 53
REMARK Flexibility Score: inf
ROOT
ATOM      1  O   UNL A   1      35.755  22.300  25.119  1.00  0.00    -0.374 OA
ENDROOT
BRANCH   1   2
ATOM      2  C   UNL A   1      35.527  22.860  23.836  1.00  0.00     0.202 C 
BRANCH   2   3
ATOM      3  C   UNL A   1      34.835  24.220  23.745  1.00  0.00     0.261 C 
BRANCH   3   4
ATOM      4  O   UNL A   1      33.587  24.241  23.045  1.00  0.00    -0.462 OA
BRANCH   4   5
ATOM      5  C   UNL A   1      32.351  24.270  23.593  1.00  0.00     0.325 C 
ATOM      6  O   UNL A   1      32.037  25.243  24.285  1.00  0.00    -0.250 OA
BRANCH   5   7
ATOM      7  C   UNL A   1      31.433  23.046  23.576  1.00  0.00     0.245 C 
BRANCH   7   8
ATOM      8  N   UNL A   1      31.982  21.725  23.785  1.00  0.00    -0.298 N 
ATOM      9  C   UNL A   1      32.011  20.762  22.792  1.00  0.00     0.257 C 
ATOM     10  C   UNL A   1      32.210  21.172  25.098  1.00  0.00     0.247 C 
ATOM     11  O   UNL A   1      31.752  20.894  21.618  1.00  0.00    -0.269 OA
ATOM     12  C   UNL A   1      32.477  19.529  23.423  1.00  0.00     0.047 A 
ATOM     13  C   UNL A   1      32.525  19.741  24.800  1.00  0.00     0.014 A 
ATOM     14  C   UNL A   1      32.825  18.337  22.822  1.00  0.00     0.014 A 
ATOM     15  C   UNL A   1      32.842  18.692  25.643  1.00  0.00     0.009 A 
ATOM     16  C   UNL A   1      33.184  17.288  23.665  1.00  0.00     0.001 A 
ATOM     17  C   UNL A   1      33.166  17.457  25.063  1.00  0.00     0.001 A 
BRANCH  10  18
ATOM     18  O   UNL A   1      31.024  21.285  25.844  1.00  0.00    -0.369 OA
ATOM     19  H   UNL A   1      31.000  22.149  26.285  1.00  0.00     0.213 HD
ENDBRANCH  10  18
ENDBRANCH   7   8
ENDBRANCH   5   7
ENDBRANCH   4   5
ENDBRANCH   3   4
ENDBRANCH   2   3
ENDBRANCH   1   2
BRANCH   1  20
ATOM     20  C   UNL A   1      35.910  20.880  25.222  1.00  0.00     0.202 C 
BRANCH  20  21
ATOM     21  C   UNL A   1      37.316  20.269  25.218  1.00  0.00     0.261 C 
BRANCH  21  22
ATOM     22  O   UNL A   1      38.351  21.266  25.208  1.00  0.00    -0.460 OA
BRANCH  22  23
ATOM     23  C   UNL A   1      39.381  21.028  26.054  1.00  0.00     0.338 C 
ATOM     24  O   UNL A   1      39.998  19.987  26.201  1.00  0.00    -0.246 OA
BRANCH  23  25
ATOM     25  C   UNL A   1      39.823  22.302  26.645  1.00  0.00     0.060 A 
ATOM     26  C   UNL A   1      39.247  23.485  26.163  1.00  0.00     0.016 A 
ATOM     27  C   UNL A   1      40.838  22.335  27.601  1.00  0.00     0.016 A 
ATOM     28  C   UNL A   1      39.726  24.717  26.595  1.00  0.00     0.010 A 
ATOM     29  C   UNL A   1      41.326  23.571  28.024  1.00  0.00     0.010 A 
ATOM     30  C   UNL A   1      40.801  24.762  27.491  1.00  0.00    -0.014 A 
BRANCH  30  31
ATOM     31  C   UNL A   1      41.495  26.045  27.737  1.00  0.00     0.031 A 
ATOM     32  C   UNL A   1      40.817  27.075  28.595  1.00  0.00     0.074 A 
ATOM     33  C   UNL A   1      42.710  26.279  27.215  1.00  0.00     0.049 A 
ATOM     34  N   UNL A   1      41.201  28.289  28.894  1.00  0.00    -0.248 NA
ATOM     35  C   UNL A   1      39.527  26.686  29.192  1.00  0.00     0.031 C 
ATOM     36  C   UNL A   1      43.481  25.333  26.410  1.00  0.00     0.029 A 
ATOM     37  N   UNL A   1      43.503  27.394  27.281  1.00  0.00    -0.354 N 
ATOM     38  C   UNL A   1      40.196  28.813  29.697  1.00  0.00     0.074 A 
ATOM     39  C   UNL A   1      39.171  27.799  29.814  1.00  0.00     0.031 C 
ATOM     40  C   UNL A   1      44.637  25.915  26.048  1.00  0.00     0.029 A 
ATOM     41  C   UNL A   1      44.665  27.283  26.560  1.00  0.00     0.049 A 
ATOM     42  H   UNL A   1      43.262  28.198  27.795  1.00  0.00     0.167 HD
ATOM     43  C   UNL A   1      40.133  30.031  30.286  1.00  0.00     0.031 A 
ATOM     44  C   UNL A   1      45.626  28.194  26.319  1.00  0.00     0.031 A 
ATOM     45  C   UNL A   1      41.149  31.039  30.148  1.00  0.00     0.049 A 
ATOM     46  C   UNL A   1      45.493  29.571  26.915  1.00  0.00     0.074 A 
ATOM     47  C   UNL A   1      41.196  32.300  30.715  1.00  0.00     0.029 A 
ATOM     48  N   UNL A   1      42.296  30.902  29.378  1.00  0.00    -0.354 N 
ATOM     49  N   UNL A   1      44.553  30.049  27.696  1.00  0.00    -0.248 NA
ATOM     50  C   UNL A   1      46.560  30.531  26.600  1.00  0.00     0.031 C 
ATOM     51  C   UNL A   1      42.336  32.952  30.234  1.00  0.00     0.029 A 
ATOM     52  C   UNL A   1      43.039  32.069  29.428  1.00  0.00     0.049 A 
ATOM     53  H   UNL A   1      42.543  30.096  28.872  1.00  0.00     0.167 HD
ATOM     54  C   UNL A   1      44.930  31.355  27.989  1.00  0.00     0.074 A 
ATOM     55  C   UNL A   1      46.193  31.585  27.318  1.00  0.00     0.031 C 
ATOM     56  C   UNL A   1      44.292  32.280  28.748  1.00  0.00     0.031 A 
BRANCH  43  57
ATOM     57  C   UNL A   1      38.905  30.350  31.093  1.00  0.00    -0.014 A 
ATOM     58  C   UNL A   1      37.766  30.920  30.503  1.00  0.00     0.009 A 
ATOM     59  C   UNL A   1      38.879  30.052  32.465  1.00  0.00     0.009 A 
ATOM     60  C   UNL A   1      36.642  31.222  31.278  1.00  0.00     0.001 A 
ATOM     61  C   UNL A   1      37.744  30.324  33.230  1.00  0.00     0.001 A 
ATOM     62  C   UNL A   1      36.631  30.918  32.639  1.00  0.00     0.000 A 
ENDBRANCH  43  57
BRANCH  44  63
ATOM     63  C   UNL A   1      46.787  27.845  25.458  1.00  0.00    -0.014 A 
ATOM     64  C   UNL A   1      46.714  27.989  24.064  1.00  0.00     0.009 A 
ATOM     65  C   UNL A   1      47.973  27.354  26.028  1.00  0.00     0.009 A 
ATOM     66  C   UNL A   1      47.794  27.622  23.258  1.00  0.00     0.001 A 
ATOM     67  C   UNL A   1      49.062  27.020  25.222  1.00  0.00     0.001 A 
ATOM     68  C   UNL A   1      48.969  27.143  23.837  1.00  0.00     0.000 A 
ENDBRANCH  44  63
BRANCH  56  69
ATOM     69  C   UNL A   1      44.969  33.612  28.925  1.00  0.00    -0.014 A 
ATOM     70  C   UNL A   1      46.038  33.779  29.817  1.00  0.00     0.009 A 
ATOM     71  C   UNL A   1      44.553  34.707  28.150  1.00  0.00     0.009 A 
ATOM     72  C   UNL A   1      46.652  35.026  29.958  1.00  0.00     0.001 A 
ATOM     73  C   UNL A   1      45.191  35.942  28.267  1.00  0.00     0.001 A 
ATOM     74  C   UNL A   1      46.232  36.103  29.180  1.00  0.00     0.000 A 
ENDBRANCH  56  69
ENDBRANCH  30  31
ENDBRANCH  23  25
ENDBRANCH  22  23
ENDBRANCH  21  22
ENDBRANCH  20  21
ENDBRANCH   1  20
TORSDOF 16
ENDMDL
