MODEL 1
REMARK VINA RESULT:     -11.1      0.000      0.000
REMARK SMILES Cc1oc(C)c(S(=O)(=O)Nn2c(C)ccc2C)c1C(=O)OCCOCCOC(=O)c1ccc(-c2c3nc(c(-c4ccccc4)c4ccc([nH]4)c(-c4ccccc4)c4nc(c(-c5ccccc5)c5ccc2[nH]5)C=C4)C=C3)cc1
REMARK SMILES IDX 23 1 22 2 21 3 19 4 20 5 18 6 1 7 2 8 3 9 4 10 6 11 5 12
REMARK SMILES IDX 7 13 8 14 9 15 10 16 11 18 12 19 16 20 13 21 14 22 15 23
REMARK SMILES IDX 17 24 24 25 25 26 26 27 27 28 28 29 29 30 30 31 31 32 77 33
REMARK SMILES IDX 32 34 76 35 33 36 34 37 35 38 70 39 36 40 75 41 69 42 71 43
REMARK SMILES IDX 37 44 74 45 68 46 67 47 38 49 60 50 45 51 59 52 46 53 49 54
REMARK SMILES IDX 58 55 72 56 47 57 48 58 57 60 73 61 50 62 39 63 40 64 44 65
REMARK SMILES IDX 41 66 43 67 42 68 61 69 62 70 66 71 63 72 65 73 64 74 51 75
REMARK SMILES IDX 52 76 56 77 53 78 55 79 54 80
REMARK H PARENT 10 17 71 48 49 59
REMARK Flexibility Score: inf
ROOT
ATOM      1  C   UNL A   1      33.234  28.382  24.147  1.00  0.00     0.202 C 
ENDROOT
BRANCH   1   2
ATOM      2  C   UNL A   1      33.161  28.180  22.602  1.00  0.00     0.261 C 
BRANCH   2   3
ATOM      3  O   UNL A   1      33.211  26.799  22.186  1.00  0.00    -0.460 OA
BRANCH   3   4
ATOM      4  C   UNL A   1      32.023  26.165  21.861  1.00  0.00     0.343 C 
ATOM      5  O   UNL A   1      31.404  26.326  20.831  1.00  0.00    -0.246 OA
BRANCH   4   6
ATOM      6  C   UNL A   1      31.562  25.314  22.959  1.00  0.00     0.122 A 
ATOM      7  C   UNL A   1      29.752  26.974  23.957  1.00  0.00     0.088 C 
ATOM      8  C   UNL A   1      30.583  25.754  23.843  1.00  0.00     0.117 A 
ATOM      9  O   UNL A   1      30.321  24.820  24.786  1.00  0.00    -0.464 OA
ATOM     10  C   UNL A   1      31.106  23.748  24.531  1.00  0.00     0.122 A 
ATOM     11  C   UNL A   1      31.883  23.972  23.400  1.00  0.00     0.145 A 
ATOM     12  C   UNL A   1      30.945  22.632  25.493  1.00  0.00     0.089 C 
BRANCH  11  13
ATOM     13  S   UNL A   1      32.947  22.732  22.847  1.00  0.00     0.279 S 
ATOM     14  O   UNL A   1      32.135  21.530  22.858  1.00  0.00    -0.200 OA
ATOM     15  O   UNL A   1      33.417  23.252  21.581  1.00  0.00    -0.200 OA
BRANCH  13  16
ATOM     16  N   UNL A   1      34.280  22.324  23.708  1.00  0.00    -0.216 N 
ATOM     17  H   UNL A   1      35.119  22.212  23.205  1.00  0.00     0.202 HD
BRANCH  16  18
ATOM     18  N   UNL A   1      34.339  22.125  25.066  1.00  0.00    -0.256 N 
ATOM     19  C   UNL A   1      34.078  21.004  25.810  1.00  0.00     0.038 A 
ATOM     20  C   UNL A   1      34.658  23.184  25.880  1.00  0.00     0.038 A 
ATOM     21  C   UNL A   1      33.896  19.605  25.331  1.00  0.00     0.067 C 
ATOM     22  C   UNL A   1      34.019  21.445  27.120  1.00  0.00     0.025 A 
ATOM     23  C   UNL A   1      34.296  22.822  27.157  1.00  0.00     0.025 A 
ATOM     24  C   UNL A   1      35.163  24.500  25.412  1.00  0.00     0.067 C 
ENDBRANCH  16  18
ENDBRANCH  13  16
ENDBRANCH  11  13
ENDBRANCH   4   6
ENDBRANCH   3   4
ENDBRANCH   2   3
ENDBRANCH   1   2
BRANCH   1  25
ATOM     25  O   UNL A   1      32.998  29.684  24.687  1.00  0.00    -0.374 OA
BRANCH  25  26
ATOM     26  C   UNL A   1      31.759  29.885  25.375  1.00  0.00     0.202 C 
BRANCH  26  27
ATOM     27  C   UNL A   1      31.782  30.830  26.601  1.00  0.00     0.261 C 
BRANCH  27  28
ATOM     28  O   UNL A   1      32.811  30.594  27.623  1.00  0.00    -0.460 OA
BRANCH  28  29
ATOM     29  C   UNL A   1      33.758  31.571  27.728  1.00  0.00     0.338 C 
ATOM     30  O   UNL A   1      33.462  32.763  27.705  1.00  0.00    -0.246 OA
BRANCH  29  31
ATOM     31  C   UNL A   1      35.227  31.152  27.916  1.00  0.00     0.060 A 
ATOM     32  C   UNL A   1      35.515  29.913  27.403  1.00  0.00     0.016 A 
ATOM     33  C   UNL A   1      36.334  31.728  28.581  1.00  0.00     0.016 A 
ATOM     34  C   UNL A   1      36.804  29.318  27.552  1.00  0.00     0.010 A 
ATOM     35  C   UNL A   1      37.688  31.043  28.755  1.00  0.00     0.010 A 
ATOM     36  C   UNL A   1      37.990  29.765  28.247  1.00  0.00    -0.014 A 
BRANCH  36  37
ATOM     37  C   UNL A   1      39.333  28.684  28.300  1.00  0.00     0.031 A 
ATOM     38  C   UNL A   1      39.519  28.444  29.751  1.00  0.00     0.074 A 
ATOM     39  C   UNL A   1      40.471  28.102  27.675  1.00  0.00     0.049 A 
ATOM     40  N   UNL A   1      40.109  29.418  30.355  1.00  0.00    -0.248 NA
ATOM     41  C   UNL A   1      38.759  27.549  30.626  1.00  0.00     0.031 C 
ATOM     42  C   UNL A   1      40.989  28.238  26.300  1.00  0.00     0.029 A 
ATOM     43  N   UNL A   1      41.547  27.255  28.209  1.00  0.00    -0.354 N 
ATOM     44  C   UNL A   1      39.689  29.409  31.655  1.00  0.00     0.074 A 
ATOM     45  C   UNL A   1      38.931  28.169  31.811  1.00  0.00     0.031 C 
ATOM     46  C   UNL A   1      42.088  27.444  26.064  1.00  0.00     0.029 A 
ATOM     47  C   UNL A   1      42.530  26.727  27.270  1.00  0.00     0.049 A 
ATOM     48  H   UNL A   1      41.604  27.051  29.171  1.00  0.00     0.167 HD
ATOM     49  C   UNL A   1      40.397  30.195  32.503  1.00  0.00     0.031 A 
ATOM     50  C   UNL A   1      43.665  25.903  27.449  1.00  0.00     0.031 A 
ATOM     51  C   UNL A   1      41.578  29.434  32.838  1.00  0.00     0.049 A 
ATOM     52  C   UNL A   1      44.209  26.292  28.756  1.00  0.00     0.074 A 
ATOM     53  C   UNL A   1      41.683  28.090  33.170  1.00  0.00     0.029 A 
ATOM     54  N   UNL A   1      42.752  29.787  32.196  1.00  0.00    -0.354 N 
ATOM     55  N   UNL A   1      44.891  27.391  28.885  1.00  0.00    -0.248 NA
ATOM     56  C   UNL A   1      44.213  25.410  29.918  1.00  0.00     0.031 C 
ATOM     57  C   UNL A   1      42.584  27.589  32.208  1.00  0.00     0.029 A 
ATOM     58  C   UNL A   1      43.328  28.642  31.688  1.00  0.00     0.049 A 
ATOM     59  H   UNL A   1      43.112  30.699  32.117  1.00  0.00     0.167 HD
ATOM     60  C   UNL A   1      44.865  27.583  30.228  1.00  0.00     0.074 A 
ATOM     61  C   UNL A   1      44.737  26.257  30.808  1.00  0.00     0.031 C 
ATOM     62  C   UNL A   1      44.315  28.749  30.648  1.00  0.00     0.031 A 
BRANCH  49  63
ATOM     63  C   UNL A   1      40.457  31.654  32.024  1.00  0.00    -0.014 A 
ATOM     64  C   UNL A   1      40.763  31.920  30.685  1.00  0.00     0.009 A 
ATOM     65  C   UNL A   1      40.343  32.777  32.884  1.00  0.00     0.009 A 
ATOM     66  C   UNL A   1      41.009  33.235  30.252  1.00  0.00     0.001 A 
ATOM     67  C   UNL A   1      40.642  34.075  32.470  1.00  0.00     0.001 A 
ATOM     68  C   UNL A   1      40.981  34.305  31.148  1.00  0.00     0.000 A 
ENDBRANCH  49  63
BRANCH  50  69
ATOM     69  C   UNL A   1      44.812  25.000  26.807  1.00  0.00    -0.014 A 
ATOM     70  C   UNL A   1      45.020  23.640  27.255  1.00  0.00     0.009 A 
ATOM     71  C   UNL A   1      45.303  25.224  25.509  1.00  0.00     0.009 A 
ATOM     72  C   UNL A   1      45.545  22.592  26.456  1.00  0.00     0.001 A 
ATOM     73  C   UNL A   1      45.871  24.175  24.713  1.00  0.00     0.001 A 
ATOM     74  C   UNL A   1      45.959  22.858  25.166  1.00  0.00     0.000 A 
ENDBRANCH  50  69
BRANCH  62  75
ATOM     75  C   UNL A   1      44.587  29.990  29.816  1.00  0.00    -0.014 A 
ATOM     76  C   UNL A   1      45.700  30.849  29.978  1.00  0.00     0.009 A 
ATOM     77  C   UNL A   1      43.634  30.361  28.861  1.00  0.00     0.009 A 
ATOM     78  C   UNL A   1      45.823  32.045  29.258  1.00  0.00     0.001 A 
ATOM     79  C   UNL A   1      43.776  31.534  28.109  1.00  0.00     0.001 A 
ATOM     80  C   UNL A   1      44.860  32.383  28.318  1.00  0.00     0.000 A 
ENDBRANCH  62  75
ENDBRANCH  36  37
ENDBRANCH  29  31
ENDBRANCH  28  29
ENDBRANCH  27  28
ENDBRANCH  26  27
ENDBRANCH  25  26
ENDBRANCH   1  25
TORSDOF 17
ENDMDL
MODEL 2
REMARK VINA RESULT:     -11.0      2.773      7.777
REMARK SMILES Cc1oc(C)c(S(=O)(=O)Nn2c(C)ccc2C)c1C(=O)OCCOCCOC(=O)c1ccc(-c2c3nc(c(-c4ccccc4)c4ccc([nH]4)c(-c4ccccc4)c4nc(c(-c5ccccc5)c5ccc2[nH]5)C=C4)C=C3)cc1
REMARK SMILES IDX 23 1 22 2 21 3 19 4 20 5 18 6 1 7 2 8 3 9 4 10 6 11 5 12
REMARK SMILES IDX 7 13 8 14 9 15 10 16 11 18 12 19 16 20 13 21 14 22 15 23
REMARK SMILES IDX 17 24 24 25 25 26 26 27 27 28 28 29 29 30 30 31 31 32 77 33
REMARK SMILES IDX 32 34 76 35 33 36 34 37 35 38 70 39 36 40 75 41 69 42 71 43
REMARK SMILES IDX 37 44 74 45 68 46 67 47 38 49 60 50 45 51 59 52 46 53 49 54
REMARK SMILES IDX 58 55 72 56 47 57 48 58 57 60 73 61 50 62 39 63 40 64 44 65
REMARK SMILES IDX 41 66 43 67 42 68 61 69 62 70 66 71 63 72 65 73 64 74 51 75
REMARK SMILES IDX 52 76 56 77 53 78 55 79 54 80
REMARK H PARENT 10 17 71 48 49 59
REMARK Flexibility Score: inf
ROOT
ATOM      1  C   UNL A   1      35.677  22.228  25.542  1.00  0.00     0.202 C 
ENDROOT
BRANCH   1   2
ATOM      2  C   UNL A   1      35.646  22.901  24.135  1.00  0.00     0.261 C 
BRANCH   2   3
ATOM      3  O   UNL A   1      34.502  23.754  23.917  1.00  0.00    -0.460 OA
BRANCH   3   4
ATOM      4  C   UNL A   1      33.367  23.200  23.346  1.00  0.00     0.343 C 
ATOM      5  O   UNL A   1      33.181  23.058  22.157  1.00  0.00    -0.246 OA
BRANCH   4   6
ATOM      6  C   UNL A   1      32.376  22.861  24.369  1.00  0.00     0.122 A 
ATOM      7  C   UNL A   1      32.638  20.226  24.254  1.00  0.00     0.088 C 
ATOM      8  C   UNL A   1      32.102  21.535  24.689  1.00  0.00     0.117 A 
ATOM      9  O   UNL A   1      31.147  21.450  25.643  1.00  0.00    -0.464 OA
ATOM     10  C   UNL A   1      30.791  22.711  25.980  1.00  0.00     0.122 A 
ATOM     11  C   UNL A   1      31.527  23.637  25.250  1.00  0.00     0.145 A 
ATOM     12  C   UNL A   1      29.733  22.789  27.015  1.00  0.00     0.089 C 
BRANCH  11  13
ATOM     13  S   UNL A   1      31.279  25.321  25.526  1.00  0.00     0.279 S 
ATOM     14  O   UNL A   1      29.895  25.547  25.152  1.00  0.00    -0.200 OA
ATOM     15  O   UNL A   1      31.668  25.480  26.912  1.00  0.00    -0.200 OA
BRANCH  13  16
ATOM     16  N   UNL A   1      32.114  26.444  24.675  1.00  0.00    -0.216 N 
ATOM     17  H   UNL A   1      33.089  26.323  24.614  1.00  0.00     0.202 HD
BRANCH  16  18
ATOM     18  N   UNL A   1      31.583  27.539  24.038  1.00  0.00    -0.256 N 
ATOM     19  C   UNL A   1      31.268  28.782  24.523  1.00  0.00     0.038 A 
ATOM     20  C   UNL A   1      31.243  27.437  22.711  1.00  0.00     0.038 A 
ATOM     21  C   UNL A   1      31.647  29.379  25.834  1.00  0.00     0.067 C 
ATOM     22  C   UNL A   1      30.514  29.378  23.528  1.00  0.00     0.025 A 
ATOM     23  C   UNL A   1      30.425  28.506  22.430  1.00  0.00     0.025 A 
ATOM     24  C   UNL A   1      31.597  26.299  21.824  1.00  0.00     0.067 C 
ENDBRANCH  16  18
ENDBRANCH  13  16
ENDBRANCH  11  13
ENDBRANCH   4   6
ENDBRANCH   3   4
ENDBRANCH   2   3
ENDBRANCH   1   2
BRANCH   1  25
ATOM     25  O   UNL A   1      36.453  21.042  25.725  1.00  0.00    -0.374 OA
BRANCH  25  26
ATOM     26  C   UNL A   1      37.598  20.880  24.881  1.00  0.00     0.202 C 
BRANCH  26  27
ATOM     27  C   UNL A   1      38.791  20.083  25.462  1.00  0.00     0.261 C 
BRANCH  27  28
ATOM     28  O   UNL A   1      40.071  20.790  25.619  1.00  0.00    -0.460 OA
BRANCH  28  29
ATOM     29  C   UNL A   1      40.287  21.329  26.853  1.00  0.00     0.338 C 
ATOM     30  O   UNL A   1      40.753  20.666  27.775  1.00  0.00    -0.246 OA
BRANCH  29  31
ATOM     31  C   UNL A   1      39.968  22.820  27.068  1.00  0.00     0.060 A 
ATOM     32  C   UNL A   1      40.775  23.426  27.996  1.00  0.00     0.016 A 
ATOM     33  C   UNL A   1      38.964  23.688  26.581  1.00  0.00     0.016 A 
ATOM     34  C   UNL A   1      40.580  24.784  28.390  1.00  0.00     0.010 A 
ATOM     35  C   UNL A   1      38.761  25.125  27.056  1.00  0.00     0.010 A 
ATOM     36  C   UNL A   1      39.574  25.753  28.020  1.00  0.00    -0.014 A 
BRANCH  36  37
ATOM     37  C   UNL A   1      39.608  27.279  28.824  1.00  0.00     0.031 A 
ATOM     38  C   UNL A   1      40.587  28.058  28.029  1.00  0.00     0.074 A 
ATOM     39  C   UNL A   1      39.346  28.071  29.977  1.00  0.00     0.049 A 
ATOM     40  N   UNL A   1      41.810  27.747  28.284  1.00  0.00    -0.248 NA
ATOM     41  C   UNL A   1      40.379  28.734  26.746  1.00  0.00     0.031 C 
ATOM     42  C   UNL A   1      38.675  27.730  31.246  1.00  0.00     0.029 A 
ATOM     43  N   UNL A   1      39.733  29.446  30.320  1.00  0.00    -0.354 N 
ATOM     44  C   UNL A   1      42.543  28.004  27.159  1.00  0.00     0.074 A 
ATOM     45  C   UNL A   1      41.636  28.715  26.260  1.00  0.00     0.031 C 
ATOM     46  C   UNL A   1      38.555  28.809  32.091  1.00  0.00     0.029 A 
ATOM     47  C   UNL A   1      39.209  30.014  31.558  1.00  0.00     0.049 A 
ATOM     48  H   UNL A   1      40.328  29.969  29.734  1.00  0.00     0.167 HD
ATOM     49  C   UNL A   1      43.888  27.985  27.321  1.00  0.00     0.031 A 
ATOM     50  C   UNL A   1      39.384  31.276  32.170  1.00  0.00     0.031 A 
ATOM     51  C   UNL A   1      44.227  29.272  27.883  1.00  0.00     0.049 A 
ATOM     52  C   UNL A   1      40.763  31.661  31.851  1.00  0.00     0.074 A 
ATOM     53  C   UNL A   1      43.769  30.529  27.517  1.00  0.00     0.029 A 
ATOM     54  N   UNL A   1      44.484  29.312  29.242  1.00  0.00    -0.354 N 
ATOM     55  N   UNL A   1      41.761  31.127  32.492  1.00  0.00    -0.248 NA
ATOM     56  C   UNL A   1      41.104  32.781  30.980  1.00  0.00     0.031 C 
ATOM     57  C   UNL A   1      43.209  31.029  28.711  1.00  0.00     0.029 A 
ATOM     58  C   UNL A   1      43.748  30.339  29.791  1.00  0.00     0.049 A 
ATOM     59  H   UNL A   1      45.090  28.709  29.731  1.00  0.00     0.167 HD
ATOM     60  C   UNL A   1      42.808  31.419  31.679  1.00  0.00     0.074 A 
ATOM     61  C   UNL A   1      42.432  32.640  30.985  1.00  0.00     0.031 C 
ATOM     62  C   UNL A   1      43.505  30.357  31.208  1.00  0.00     0.031 A 
BRANCH  49  63
ATOM     63  C   UNL A   1      44.378  26.659  27.924  1.00  0.00    -0.014 A 
ATOM     64  C   UNL A   1      44.354  25.503  27.138  1.00  0.00     0.009 A 
ATOM     65  C   UNL A   1      44.745  26.494  29.285  1.00  0.00     0.009 A 
ATOM     66  C   UNL A   1      44.616  24.242  27.706  1.00  0.00     0.001 A 
ATOM     67  C   UNL A   1      44.951  25.241  29.862  1.00  0.00     0.001 A 
ATOM     68  C   UNL A   1      44.882  24.109  29.069  1.00  0.00     0.000 A 
ENDBRANCH  49  63
BRANCH  50  69
ATOM     69  C   UNL A   1      38.937  32.328  33.283  1.00  0.00    -0.014 A 
ATOM     70  C   UNL A   1      37.597  32.873  33.289  1.00  0.00     0.009 A 
ATOM     71  C   UNL A   1      39.553  32.389  34.544  1.00  0.00     0.009 A 
ATOM     72  C   UNL A   1      36.905  33.316  34.445  1.00  0.00     0.001 A 
ATOM     73  C   UNL A   1      38.870  32.874  35.708  1.00  0.00     0.001 A 
ATOM     74  C   UNL A   1      37.542  33.301  35.670  1.00  0.00     0.000 A 
ENDBRANCH  50  69
BRANCH  62  75
ATOM     75  C   UNL A   1      43.718  29.186  32.152  1.00  0.00    -0.014 A 
ATOM     76  C   UNL A   1      42.869  28.058  32.252  1.00  0.00     0.009 A 
ATOM     77  C   UNL A   1      44.794  29.249  33.044  1.00  0.00     0.009 A 
ATOM     78  C   UNL A   1      43.057  27.073  33.231  1.00  0.00     0.001 A 
ATOM     79  C   UNL A   1      45.011  28.245  33.996  1.00  0.00     0.001 A 
ATOM     80  C   UNL A   1      44.136  27.166  34.100  1.00  0.00     0.000 A 
ENDBRANCH  62  75
ENDBRANCH  36  37
ENDBRANCH  29  31
ENDBRANCH  28  29
ENDBRANCH  27  28
ENDBRANCH  26  27
ENDBRANCH  25  26
ENDBRANCH   1  25
TORSDOF 17
ENDMDL
MODEL 3
REMARK VINA RESULT:     -10.9      2.844      7.865
REMARK SMILES Cc1oc(C)c(S(=O)(=O)Nn2c(C)ccc2C)c1C(=O)OCCOCCOC(=O)c1ccc(-c2c3nc(c(-c4ccccc4)c4ccc([nH]4)c(-c4ccccc4)c4nc(c(-c5ccccc5)c5ccc2[nH]5)C=C4)C=C3)cc1
REMARK SMILES IDX 23 1 22 2 21 3 19 4 20 5 18 6 1 7 2 8 3 9 4 10 6 11 5 12
REMARK SMILES IDX 7 13 8 14 9 15 10 16 11 18 12 19 16 20 13 21 14 22 15 23
REMARK SMILES IDX 17 24 24 25 25 26 26 27 27 28 28 29 29 30 30 31 31 32 77 33
REMARK SMILES IDX 32 34 76 35 33 36 34 37 35 38 70 39 36 40 75 41 69 42 71 43
REMARK SMILES IDX 37 44 74 45 68 46 67 47 38 49 60 50 45 51 59 52 46 53 49 54
REMARK SMILES IDX 58 55 72 56 47 57 48 58 57 60 73 61 50 62 39 63 40 64 44 65
REMARK SMILES IDX 41 66 43 67 42 68 61 69 62 70 66 71 63 72 65 73 64 74 51 75
REMARK SMILES IDX 52 76 56 77 53 78 55 79 54 80
REMARK H PARENT 10 17 71 48 49 59
REMARK Flexibility Score: inf
ROOT
ATOM      1  C   UNL A   1      36.994  22.598  23.396  1.00  0.00     0.202 C 
ENDROOT
BRANCH   1   2
ATOM      2  C   UNL A   1      35.499  23.006  23.219  1.00  0.00     0.261 C 
BRANCH   2   3
ATOM      3  O   UNL A   1      34.833  23.347  24.452  1.00  0.00    -0.460 OA
BRANCH   3   4
ATOM      4  C   UNL A   1      33.818  22.517  24.904  1.00  0.00     0.343 C 
ATOM      5  O   UNL A   1      33.806  21.310  24.801  1.00  0.00    -0.246 OA
BRANCH   4   6
ATOM      6  C   UNL A   1      32.715  23.295  25.469  1.00  0.00     0.122 A 
ATOM      7  C   UNL A   1      32.990  22.518  27.988  1.00  0.00     0.088 C 
ATOM      8  C   UNL A   1      32.406  23.219  26.823  1.00  0.00     0.117 A 
ATOM      9  O   UNL A   1      31.346  24.002  27.127  1.00  0.00    -0.464 OA
ATOM     10  C   UNL A   1      30.951  24.618  25.989  1.00  0.00     0.122 A 
ATOM     11  C   UNL A   1      31.768  24.247  24.926  1.00  0.00     0.145 A 
ATOM     12  C   UNL A   1      29.780  25.511  26.154  1.00  0.00     0.089 C 
BRANCH  11  13
ATOM     13  S   UNL A   1      31.487  24.930  23.367  1.00  0.00     0.279 S 
ATOM     14  O   UNL A   1      32.319  24.144  22.476  1.00  0.00    -0.200 OA
ATOM     15  O   UNL A   1      30.047  24.852  23.237  1.00  0.00    -0.200 OA
BRANCH  13  16
ATOM     16  N   UNL A   1      31.902  26.481  23.042  1.00  0.00    -0.216 N 
ATOM     17  H   UNL A   1      32.401  26.644  22.210  1.00  0.00     0.202 HD
BRANCH  16  18
ATOM     18  N   UNL A   1      31.621  27.576  23.823  1.00  0.00    -0.256 N 
ATOM     19  C   UNL A   1      30.541  28.419  23.812  1.00  0.00     0.038 A 
ATOM     20  C   UNL A   1      32.543  27.980  24.758  1.00  0.00     0.038 A 
ATOM     21  C   UNL A   1      29.240  28.238  23.110  1.00  0.00     0.067 C 
ATOM     22  C   UNL A   1      30.913  29.492  24.603  1.00  0.00     0.025 A 
ATOM     23  C   UNL A   1      32.196  29.260  25.124  1.00  0.00     0.025 A 
ATOM     24  C   UNL A   1      33.747  27.208  25.159  1.00  0.00     0.067 C 
ENDBRANCH  16  18
ENDBRANCH  13  16
ENDBRANCH  11  13
ENDBRANCH   4   6
ENDBRANCH   3   4
ENDBRANCH   2   3
ENDBRANCH   1   2
BRANCH   1  25
ATOM     25  O   UNL A   1      37.311  21.455  24.194  1.00  0.00    -0.374 OA
BRANCH  25  26
ATOM     26  C   UNL A   1      37.918  21.702  25.467  1.00  0.00     0.202 C 
BRANCH  26  27
ATOM     27  C   UNL A   1      39.248  20.969  25.764  1.00  0.00     0.261 C 
BRANCH  27  28
ATOM     28  O   UNL A   1      40.433  21.793  26.043  1.00  0.00    -0.460 OA
BRANCH  28  29
ATOM     29  C   UNL A   1      40.616  22.117  27.355  1.00  0.00     0.338 C 
ATOM     30  O   UNL A   1      40.766  21.256  28.219  1.00  0.00    -0.246 OA
BRANCH  29  31
ATOM     31  C   UNL A   1      40.673  23.606  27.742  1.00  0.00     0.060 A 
ATOM     32  C   UNL A   1      39.453  24.231  27.701  1.00  0.00     0.016 A 
ATOM     33  C   UNL A   1      41.724  24.500  28.050  1.00  0.00     0.016 A 
ATOM     34  C   UNL A   1      39.316  25.630  27.950  1.00  0.00     0.010 A 
ATOM     35  C   UNL A   1      41.544  26.001  28.269  1.00  0.00     0.010 A 
ATOM     36  C   UNL A   1      40.299  26.656  28.215  1.00  0.00    -0.014 A 
BRANCH  36  37
ATOM     37  C   UNL A   1      39.735  28.282  28.340  1.00  0.00     0.031 A 
ATOM     38  C   UNL A   1      40.974  29.082  28.202  1.00  0.00     0.074 A 
ATOM     39  C   UNL A   1      38.730  29.210  28.731  1.00  0.00     0.049 A 
ATOM     40  N   UNL A   1      41.686  29.106  29.276  1.00  0.00    -0.248 NA
ATOM     41  C   UNL A   1      41.700  29.425  26.976  1.00  0.00     0.031 C 
ATOM     42  C   UNL A   1      37.373  28.991  29.270  1.00  0.00     0.029 A 
ATOM     43  N   UNL A   1      38.741  30.677  28.815  1.00  0.00    -0.354 N 
ATOM     44  C   UNL A   1      42.987  29.287  28.902  1.00  0.00     0.074 A 
ATOM     45  C   UNL A   1      42.943  29.586  27.472  1.00  0.00     0.031 C 
ATOM     46  C   UNL A   1      36.679  30.164  29.456  1.00  0.00     0.029 A 
ATOM     47  C   UNL A   1      37.494  31.351  29.159  1.00  0.00     0.049 A 
ATOM     48  H   UNL A   1      39.565  31.190  28.645  1.00  0.00     0.167 HD
ATOM     49  C   UNL A   1      43.845  29.598  29.905  1.00  0.00     0.031 A 
ATOM     50  C   UNL A   1      37.169  32.717  29.323  1.00  0.00     0.031 A 
ATOM     51  C   UNL A   1      43.672  31.014  30.135  1.00  0.00     0.049 A 
ATOM     52  C   UNL A   1      38.376  33.325  29.895  1.00  0.00     0.074 A 
ATOM     53  C   UNL A   1      43.570  32.040  29.207  1.00  0.00     0.029 A 
ATOM     54  N   UNL A   1      42.915  31.380  31.232  1.00  0.00    -0.354 N 
ATOM     55  N   UNL A   1      38.662  33.164  31.153  1.00  0.00    -0.248 NA
ATOM     56  C   UNL A   1      39.202  34.295  29.183  1.00  0.00     0.031 C 
ATOM     57  C   UNL A   1      42.328  32.633  29.516  1.00  0.00     0.029 A 
ATOM     58  C   UNL A   1      41.983  32.309  30.823  1.00  0.00     0.049 A 
ATOM     59  H   UNL A   1      43.025  31.037  32.148  1.00  0.00     0.167 HD
ATOM     60  C   UNL A   1      39.973  33.511  31.192  1.00  0.00     0.074 A 
ATOM     61  C   UNL A   1      40.158  34.454  30.101  1.00  0.00     0.031 C 
ATOM     62  C   UNL A   1      40.824  32.556  31.640  1.00  0.00     0.031 A 
BRANCH  49  63
ATOM     63  C   UNL A   1      43.808  28.561  31.038  1.00  0.00    -0.014 A 
ATOM     64  C   UNL A   1      42.882  28.717  32.074  1.00  0.00     0.009 A 
ATOM     65  C   UNL A   1      44.745  27.504  31.178  1.00  0.00     0.009 A 
ATOM     66  C   UNL A   1      42.939  27.900  33.218  1.00  0.00     0.001 A 
ATOM     67  C   UNL A   1      44.839  26.730  32.335  1.00  0.00     0.001 A 
ATOM     68  C   UNL A   1      43.934  26.932  33.362  1.00  0.00     0.000 A 
ENDBRANCH  49  63
BRANCH  50  69
ATOM     69  C   UNL A   1      36.053  33.846  29.487  1.00  0.00    -0.014 A 
ATOM     70  C   UNL A   1      35.382  34.395  28.329  1.00  0.00     0.009 A 
ATOM     71  C   UNL A   1      35.306  33.992  30.668  1.00  0.00     0.009 A 
ATOM     72  C   UNL A   1      34.064  34.921  28.327  1.00  0.00     0.001 A 
ATOM     73  C   UNL A   1      33.989  34.559  30.676  1.00  0.00     0.001 A 
ATOM     74  C   UNL A   1      33.354  34.988  29.509  1.00  0.00     0.000 A 
ENDBRANCH  50  69
BRANCH  62  75
ATOM     75  C   UNL A   1      40.348  31.674  32.781  1.00  0.00    -0.014 A 
ATOM     76  C   UNL A   1      39.696  30.428  32.627  1.00  0.00     0.009 A 
ATOM     77  C   UNL A   1      40.499  32.152  34.087  1.00  0.00     0.009 A 
ATOM     78  C   UNL A   1      39.173  29.725  33.720  1.00  0.00     0.001 A 
ATOM     79  C   UNL A   1      40.016  31.432  35.186  1.00  0.00     0.001 A 
ATOM     80  C   UNL A   1      39.340  30.228  35.003  1.00  0.00     0.000 A 
ENDBRANCH  62  75
ENDBRANCH  36  37
ENDBRANCH  29  31
ENDBRANCH  28  29
ENDBRANCH  27  28
ENDBRANCH  26  27
ENDBRANCH  25  26
ENDBRANCH   1  25
TORSDOF 17
ENDMDL
