MODEL 1
REMARK VINA RESULT:     -10.8      0.000      0.000
REMARK SMILES NS(=O)(=O)c1ccc(N2N=C(C(=O)OCCOCCOC(=O)c3ccc(-c4c5nc(c(-c6ccccc6)c6ccc([nH]6)c(-c6ccccc6)c6nc(c(-c7ccccc7)c7ccc4[nH]7)C=C6)C=C5)cc3)C[C@H]2c2ccco2)cc1
REMARK SMILES IDX 16 1 15 2 14 3 12 4 13 5 11 6 9 7 10 8 72 9 71 10 8 11 5 12
REMARK SMILES IDX 6 13 79 14 7 15 78 16 2 17 3 18 4 19 1 20 73 23 74 24 77 25
REMARK SMILES IDX 75 26 76 27 17 28 18 29 19 30 20 31 21 32 22 33 23 34 24 35
REMARK SMILES IDX 70 36 25 37 69 38 26 39 27 40 28 41 63 42 29 43 68 44 62 45
REMARK SMILES IDX 64 46 30 47 67 48 61 49 60 50 31 52 53 53 38 54 52 55 39 56
REMARK SMILES IDX 42 57 51 58 65 59 40 60 41 61 50 63 66 64 43 65 32 66 33 67
REMARK SMILES IDX 37 68 34 69 36 70 35 71 54 72 55 73 59 74 56 75 58 76 57 77
REMARK SMILES IDX 44 78 45 79 49 80 46 81 48 82 47 83
REMARK H PARENT 1 21 1 22 64 51 42 62
REMARK Flexibility Score: inf
ROOT
ATOM      1  C   UNL A   1      31.450  28.468  23.448  1.00  0.00     0.202 C 
ENDROOT
BRANCH   1   2
ATOM      2  C   UNL A   1      32.863  28.635  22.881  1.00  0.00     0.261 C 
BRANCH   2   3
ATOM      3  O   UNL A   1      33.723  27.611  23.400  1.00  0.00    -0.459 OA
BRANCH   3   4
ATOM      4  C   UNL A   1      33.684  26.442  22.727  1.00  0.00     0.354 C 
ATOM      5  O   UNL A   1      33.669  26.270  21.525  1.00  0.00    -0.245 OA
BRANCH   4   6
ATOM      6  C   UNL A   1      33.800  25.310  23.714  1.00  0.00     0.148 C 
ATOM      7  N   UNL A   1      33.974  23.354  24.505  1.00  0.00    -0.254 N 
ATOM      8  N   UNL A   1      33.927  24.072  23.345  1.00  0.00    -0.169 NA
ATOM      9  C   UNL A   1      33.546  24.151  25.670  1.00  0.00     0.180 C 
ATOM     10  C   UNL A   1      33.893  25.568  25.185  1.00  0.00     0.101 C 
BRANCH   7  11
ATOM     11  C   UNL A   1      33.892  21.972  24.421  1.00  0.00     0.060 A 
ATOM     12  C   UNL A   1      33.665  19.176  24.256  1.00  0.00     0.082 A 
ATOM     13  C   UNL A   1      32.661  19.986  23.720  1.00  0.00     0.024 A 
ATOM     14  C   UNL A   1      34.766  19.746  24.895  1.00  0.00     0.024 A 
ATOM     15  C   UNL A   1      32.780  21.377  23.807  1.00  0.00     0.029 A 
ATOM     16  C   UNL A   1      34.864  21.136  24.985  1.00  0.00     0.029 A 
BRANCH  12  17
ATOM     17  S   UNL A   1      33.535  17.419  24.135  1.00  0.00     0.238 S 
ATOM     18  O   UNL A   1      33.797  17.016  22.767  1.00  0.00    -0.207 OA
ATOM     19  O   UNL A   1      32.366  16.995  24.858  1.00  0.00    -0.207 OA
BRANCH  17  20
ATOM     20  N   UNL A   1      34.860  16.874  25.010  1.00  0.00    -0.225 NA
ATOM     21  H   UNL A   1      34.542  16.470  25.892  1.00  0.00     0.137 HD
ATOM     22  H   UNL A   1      35.488  17.655  25.201  1.00  0.00     0.137 HD
ENDBRANCH  17  20
ENDBRANCH  12  17
ENDBRANCH   7  11
BRANCH   9  23
ATOM     23  C   UNL A   1      32.103  24.046  26.088  1.00  0.00     0.128 A 
ATOM     24  C   UNL A   1      31.359  23.025  26.650  1.00  0.00     0.048 A 
ATOM     25  O   UNL A   1      31.303  25.141  25.907  1.00  0.00    -0.467 OA
ATOM     26  C   UNL A   1      30.040  23.519  26.799  1.00  0.00     0.042 A 
ATOM     27  C   UNL A   1      30.063  24.815  26.344  1.00  0.00     0.195 A 
ENDBRANCH   9  23
ENDBRANCH   4   6
ENDBRANCH   3   4
ENDBRANCH   2   3
ENDBRANCH   1   2
BRANCH   1  28
ATOM     28  O   UNL A   1      31.354  28.458  24.872  1.00  0.00    -0.374 OA
BRANCH  28  29
ATOM     29  C   UNL A   1      32.177  29.372  25.599  1.00  0.00     0.202 C 
BRANCH  29  30
ATOM     30  C   UNL A   1      32.539  28.967  27.034  1.00  0.00     0.261 C 
BRANCH  30  31
ATOM     31  O   UNL A   1      33.961  28.964  27.260  1.00  0.00    -0.460 OA
BRANCH  31  32
ATOM     32  C   UNL A   1      34.458  30.131  27.740  1.00  0.00     0.338 C 
ATOM     33  O   UNL A   1      33.854  31.175  27.922  1.00  0.00    -0.246 OA
BRANCH  32  34
ATOM     34  C   UNL A   1      35.849  29.943  28.193  1.00  0.00     0.060 A 
ATOM     35  C   UNL A   1      36.868  30.143  27.252  1.00  0.00     0.016 A 
ATOM     36  C   UNL A   1      36.153  29.500  29.482  1.00  0.00     0.016 A 
ATOM     37  C   UNL A   1      38.191  29.854  27.582  1.00  0.00     0.010 A 
ATOM     38  C   UNL A   1      37.481  29.204  29.810  1.00  0.00     0.010 A 
ATOM     39  C   UNL A   1      38.501  29.346  28.850  1.00  0.00    -0.014 A 
BRANCH  39  40
ATOM     40  C   UNL A   1      39.869  28.841  29.124  1.00  0.00     0.031 A 
ATOM     41  C   UNL A   1      40.849  29.728  29.842  1.00  0.00     0.074 A 
ATOM     42  C   UNL A   1      40.226  27.594  28.768  1.00  0.00     0.049 A 
ATOM     43  N   UNL A   1      42.095  29.490  30.170  1.00  0.00    -0.248 NA
ATOM     44  C   UNL A   1      40.362  31.057  30.245  1.00  0.00     0.031 C 
ATOM     45  C   UNL A   1      39.359  26.620  28.109  1.00  0.00     0.029 A 
ATOM     46  N   UNL A   1      41.421  26.936  28.916  1.00  0.00    -0.354 N 
ATOM     47  C   UNL A   1      42.539  30.639  30.813  1.00  0.00     0.074 A 
ATOM     48  C   UNL A   1      41.443  31.584  30.801  1.00  0.00     0.031 C 
ATOM     49  C   UNL A   1      40.052  25.486  27.907  1.00  0.00     0.029 A 
ATOM     50  C   UNL A   1      41.418  25.666  28.393  1.00  0.00     0.049 A 
ATOM     51  H   UNL A   1      42.207  27.337  29.354  1.00  0.00     0.167 HD
ATOM     52  C   UNL A   1      43.749  30.886  31.370  1.00  0.00     0.031 A 
ATOM     53  C   UNL A   1      42.409  24.759  28.304  1.00  0.00     0.031 A 
ATOM     54  C   UNL A   1      44.847  29.957  31.373  1.00  0.00     0.049 A 
ATOM     55  C   UNL A   1      43.770  25.087  28.858  1.00  0.00     0.074 A 
ATOM     56  C   UNL A   1      46.108  30.113  31.923  1.00  0.00     0.029 A 
ATOM     57  N   UNL A   1      44.818  28.698  30.792  1.00  0.00    -0.354 N 
ATOM     58  N   UNL A   1      44.170  26.169  29.480  1.00  0.00    -0.248 NA
ATOM     59  C   UNL A   1      44.812  24.063  28.700  1.00  0.00     0.031 C 
ATOM     60  C   UNL A   1      46.859  28.970  31.627  1.00  0.00     0.029 A 
ATOM     61  C   UNL A   1      46.046  28.079  30.945  1.00  0.00     0.049 A 
ATOM     62  H   UNL A   1      44.038  28.305  30.338  1.00  0.00     0.167 HD
ATOM     63  C   UNL A   1      45.501  25.944  29.814  1.00  0.00     0.074 A 
ATOM     64  C   UNL A   1      45.834  24.619  29.336  1.00  0.00     0.031 C 
ATOM     65  C   UNL A   1      46.367  26.761  30.463  1.00  0.00     0.031 A 
BRANCH  52  66
ATOM     66  C   UNL A   1      43.958  32.236  31.997  1.00  0.00    -0.014 A 
ATOM     67  C   UNL A   1      44.432  33.323  31.245  1.00  0.00     0.009 A 
ATOM     68  C   UNL A   1      43.645  32.431  33.351  1.00  0.00     0.009 A 
ATOM     69  C   UNL A   1      44.620  34.570  31.846  1.00  0.00     0.001 A 
ATOM     70  C   UNL A   1      43.809  33.685  33.943  1.00  0.00     0.001 A 
ATOM     71  C   UNL A   1      44.305  34.750  33.193  1.00  0.00     0.000 A 
ENDBRANCH  52  66
BRANCH  53  72
ATOM     72  C   UNL A   1      42.160  23.448  27.649  1.00  0.00    -0.014 A 
ATOM     73  C   UNL A   1      42.472  23.254  26.296  1.00  0.00     0.009 A 
ATOM     74  C   UNL A   1      41.587  22.390  28.372  1.00  0.00     0.009 A 
ATOM     75  C   UNL A   1      42.193  22.035  25.673  1.00  0.00     0.001 A 
ATOM     76  C   UNL A   1      41.335  21.164  27.754  1.00  0.00     0.001 A 
ATOM     77  C   UNL A   1      41.629  20.990  26.403  1.00  0.00     0.000 A 
ENDBRANCH  53  72
BRANCH  65  78
ATOM     78  C   UNL A   1      47.748  26.230  30.728  1.00  0.00    -0.014 A 
ATOM     79  C   UNL A   1      48.754  26.291  29.752  1.00  0.00     0.009 A 
ATOM     80  C   UNL A   1      48.056  25.695  31.989  1.00  0.00     0.009 A 
ATOM     81  C   UNL A   1      50.031  25.797  30.023  1.00  0.00     0.001 A 
ATOM     82  C   UNL A   1      49.342  25.229  32.267  1.00  0.00     0.001 A 
ATOM     83  C   UNL A   1      50.325  25.271  31.281  1.00  0.00     0.000 A 
ENDBRANCH  65  78
ENDBRANCH  39  40
ENDBRANCH  32  34
ENDBRANCH  31  32
ENDBRANCH  30  31
ENDBRANCH  29  30
ENDBRANCH  28  29
ENDBRANCH   1  28
TORSDOF 18
ENDMDL
MODEL 2
REMARK VINA RESULT:     -10.8      2.825      4.293
REMARK SMILES NS(=O)(=O)c1ccc(N2N=C(C(=O)OCCOCCOC(=O)c3ccc(-c4c5nc(c(-c6ccccc6)c6ccc([nH]6)c(-c6ccccc6)c6nc(c(-c7ccccc7)c7ccc4[nH]7)C=C6)C=C5)cc3)C[C@H]2c2ccco2)cc1
REMARK SMILES IDX 16 1 15 2 14 3 12 4 13 5 11 6 9 7 10 8 72 9 71 10 8 11 5 12
REMARK SMILES IDX 6 13 79 14 7 15 78 16 2 17 3 18 4 19 1 20 73 23 74 24 77 25
REMARK SMILES IDX 75 26 76 27 17 28 18 29 19 30 20 31 21 32 22 33 23 34 24 35
REMARK SMILES IDX 70 36 25 37 69 38 26 39 27 40 28 41 63 42 29 43 68 44 62 45
REMARK SMILES IDX 64 46 30 47 67 48 61 49 60 50 31 52 53 53 38 54 52 55 39 56
REMARK SMILES IDX 42 57 51 58 65 59 40 60 41 61 50 63 66 64 43 65 32 66 33 67
REMARK SMILES IDX 37 68 34 69 36 70 35 71 54 72 55 73 59 74 56 75 58 76 57 77
REMARK SMILES IDX 44 78 45 79 49 80 46 81 48 82 47 83
REMARK H PARENT 1 21 1 22 64 51 42 62
REMARK Flexibility Score: inf
ROOT
ATOM      1  C   UNL A   1      33.326  33.686  28.047  1.00  0.00     0.202 C 
ENDROOT
BRANCH   1   2
ATOM      2  C   UNL A   1      34.161  32.403  28.047  1.00  0.00     0.261 C 
BRANCH   2   3
ATOM      3  O   UNL A   1      33.388  31.315  27.521  1.00  0.00    -0.459 OA
BRANCH   3   4
ATOM      4  C   UNL A   1      34.102  30.217  27.195  1.00  0.00     0.354 C 
ATOM      5  O   UNL A   1      35.310  30.086  27.180  1.00  0.00    -0.245 OA
BRANCH   4   6
ATOM      6  C   UNL A   1      33.152  29.071  26.965  1.00  0.00     0.148 C 
ATOM      7  N   UNL A   1      32.417  27.106  26.688  1.00  0.00    -0.254 N 
ATOM      8  N   UNL A   1      33.542  27.833  26.947  1.00  0.00    -0.169 NA
ATOM      9  C   UNL A   1      31.305  27.951  26.212  1.00  0.00     0.180 C 
ATOM     10  C   UNL A   1      31.676  29.295  26.859  1.00  0.00     0.101 C 
BRANCH   7  11
ATOM     11  C   UNL A   1      32.564  25.758  26.399  1.00  0.00     0.060 A 
ATOM     12  C   UNL A   1      32.896  23.041  25.763  1.00  0.00     0.082 A 
ATOM     13  C   UNL A   1      33.926  23.946  25.496  1.00  0.00     0.024 A 
ATOM     14  C   UNL A   1      31.695  23.481  26.320  1.00  0.00     0.024 A 
ATOM     15  C   UNL A   1      33.753  25.297  25.813  1.00  0.00     0.029 A 
ATOM     16  C   UNL A   1      31.533  24.835  26.619  1.00  0.00     0.029 A 
BRANCH  12  17
ATOM     17  S   UNL A   1      33.111  21.329  25.385  1.00  0.00     0.238 S 
ATOM     18  O   UNL A   1      34.278  21.171  24.540  1.00  0.00    -0.207 OA
ATOM     19  O   UNL A   1      31.828  20.770  25.047  1.00  0.00    -0.207 OA
BRANCH  17  20
ATOM     20  N   UNL A   1      33.548  20.659  26.861  1.00  0.00    -0.225 NA
ATOM     21  H   UNL A   1      32.709  20.395  27.377  1.00  0.00     0.137 HD
ATOM     22  H   UNL A   1      34.078  21.343  27.401  1.00  0.00     0.137 HD
ENDBRANCH  17  20
ENDBRANCH  12  17
ENDBRANCH   7  11
BRANCH   9  23
ATOM     23  C   UNL A   1      31.125  28.081  24.723  1.00  0.00     0.128 A 
ATOM     24  C   UNL A   1      31.274  27.191  23.676  1.00  0.00     0.048 A 
ATOM     25  O   UNL A   1      30.735  29.297  24.231  1.00  0.00    -0.467 OA
ATOM     26  C   UNL A   1      30.979  27.906  22.490  1.00  0.00     0.042 A 
ATOM     27  C   UNL A   1      30.644  29.179  22.883  1.00  0.00     0.195 A 
ENDBRANCH   9  23
ENDBRANCH   4   6
ENDBRANCH   3   4
ENDBRANCH   2   3
ENDBRANCH   1   2
BRANCH   1  28
ATOM     28  O   UNL A   1      33.233  34.362  29.301  1.00  0.00    -0.374 OA
BRANCH  28  29
ATOM     29  C   UNL A   1      34.363  34.300  30.173  1.00  0.00     0.202 C 
BRANCH  29  30
ATOM     30  C   UNL A   1      34.097  33.781  31.592  1.00  0.00     0.261 C 
BRANCH  30  31
ATOM     31  O   UNL A   1      34.521  32.415  31.764  1.00  0.00    -0.460 OA
BRANCH  31  32
ATOM     32  C   UNL A   1      35.623  32.259  32.539  1.00  0.00     0.338 C 
ATOM     33  O   UNL A   1      35.754  32.569  33.711  1.00  0.00    -0.246 OA
BRANCH  32  34
ATOM     34  C   UNL A   1      36.649  31.486  31.814  1.00  0.00     0.060 A 
ATOM     35  C   UNL A   1      37.618  30.823  32.579  1.00  0.00     0.016 A 
ATOM     36  C   UNL A   1      36.717  31.474  30.420  1.00  0.00     0.016 A 
ATOM     37  C   UNL A   1      38.688  30.186  31.953  1.00  0.00     0.010 A 
ATOM     38  C   UNL A   1      37.795  30.840  29.792  1.00  0.00     0.010 A 
ATOM     39  C   UNL A   1      38.804  30.223  30.557  1.00  0.00    -0.014 A 
BRANCH  39  40
ATOM     40  C   UNL A   1      40.046  29.733  29.911  1.00  0.00     0.031 A 
ATOM     41  C   UNL A   1      41.220  30.663  29.775  1.00  0.00     0.074 A 
ATOM     42  C   UNL A   1      40.141  28.462  29.479  1.00  0.00     0.049 A 
ATOM     43  N   UNL A   1      42.392  30.444  29.234  1.00  0.00    -0.248 NA
ATOM     44  C   UNL A   1      41.051  32.019  30.321  1.00  0.00     0.031 C 
ATOM     45  C   UNL A   1      39.095  27.448  29.592  1.00  0.00     0.029 A 
ATOM     46  N   UNL A   1      41.177  27.811  28.857  1.00  0.00    -0.354 N 
ATOM     47  C   UNL A   1      43.097  31.633  29.372  1.00  0.00     0.074 A 
ATOM     48  C   UNL A   1      42.213  32.579  30.017  1.00  0.00     0.031 C 
ATOM     49  C   UNL A   1      39.542  26.300  29.054  1.00  0.00     0.029 A 
ATOM     50  C   UNL A   1      40.891  26.508  28.532  1.00  0.00     0.049 A 
ATOM     51  H   UNL A   1      42.042  28.238  28.661  1.00  0.00     0.167 HD
ATOM     52  C   UNL A   1      44.370  31.913  29.001  1.00  0.00     0.031 A 
ATOM     53  C   UNL A   1      41.629  25.592  27.876  1.00  0.00     0.031 A 
ATOM     54  C   UNL A   1      45.249  30.982  28.347  1.00  0.00     0.049 A 
ATOM     55  C   UNL A   1      43.011  25.953  27.400  1.00  0.00     0.074 A 
ATOM     56  C   UNL A   1      46.560  31.171  27.943  1.00  0.00     0.029 A 
ATOM     57  N   UNL A   1      44.905  29.686  27.994  1.00  0.00    -0.354 N 
ATOM     58  N   UNL A   1      43.672  27.073  27.555  1.00  0.00    -0.248 NA
ATOM     59  C   UNL A   1      43.748  24.916  26.664  1.00  0.00     0.031 C 
ATOM     60  C   UNL A   1      46.991  30.007  27.297  1.00  0.00     0.029 A 
ATOM     61  C   UNL A   1      45.969  29.073  27.352  1.00  0.00     0.049 A 
ATOM     62  H   UNL A   1      44.034  29.265  28.174  1.00  0.00     0.167 HD
ATOM     63  C   UNL A   1      44.913  26.867  26.963  1.00  0.00     0.074 A 
ATOM     64  C   UNL A   1      44.915  25.510  26.459  1.00  0.00     0.031 C 
ATOM     65  C   UNL A   1      45.958  27.723  26.853  1.00  0.00     0.031 A 
BRANCH  52  66
ATOM     66  C   UNL A   1      44.876  33.303  29.268  1.00  0.00    -0.014 A 
ATOM     67  C   UNL A   1      45.531  33.622  30.469  1.00  0.00     0.009 A 
ATOM     68  C   UNL A   1      44.725  34.299  28.291  1.00  0.00     0.009 A 
ATOM     69  C   UNL A   1      45.994  34.920  30.699  1.00  0.00     0.001 A 
ATOM     70  C   UNL A   1      45.212  35.589  28.513  1.00  0.00     0.001 A 
ATOM     71  C   UNL A   1      45.838  35.900  29.719  1.00  0.00     0.000 A 
ENDBRANCH  52  66
BRANCH  53  72
ATOM     72  C   UNL A   1      41.072  24.239  27.610  1.00  0.00    -0.014 A 
ATOM     73  C   UNL A   1      41.603  23.110  28.248  1.00  0.00     0.009 A 
ATOM     74  C   UNL A   1      40.018  24.072  26.698  1.00  0.00     0.009 A 
ATOM     75  C   UNL A   1      41.108  21.836  27.960  1.00  0.00     0.001 A 
ATOM     76  C   UNL A   1      39.506  22.801  26.433  1.00  0.00     0.001 A 
ATOM     77  C   UNL A   1      40.057  21.683  27.056  1.00  0.00     0.000 A 
ENDBRANCH  53  72
BRANCH  65  78
ATOM     78  C   UNL A   1      47.206  27.207  26.193  1.00  0.00    -0.014 A 
ATOM     79  C   UNL A   1      47.455  27.425  24.829  1.00  0.00     0.009 A 
ATOM     80  C   UNL A   1      48.165  26.525  26.958  1.00  0.00     0.009 A 
ATOM     81  C   UNL A   1      48.624  26.940  24.239  1.00  0.00     0.001 A 
ATOM     82  C   UNL A   1      49.346  26.067  26.372  1.00  0.00     0.001 A 
ATOM     83  C   UNL A   1      49.570  26.266  25.011  1.00  0.00     0.000 A 
ENDBRANCH  65  78
ENDBRANCH  39  40
ENDBRANCH  32  34
ENDBRANCH  31  32
ENDBRANCH  30  31
ENDBRANCH  29  30
ENDBRANCH  28  29
ENDBRANCH   1  28
TORSDOF 18
ENDMDL
MODEL 3
REMARK VINA RESULT:     -10.7      0.793      5.854
REMARK SMILES NS(=O)(=O)c1ccc(N2N=C(C(=O)OCCOCCOC(=O)c3ccc(-c4c5nc(c(-c6ccccc6)c6ccc([nH]6)c(-c6ccccc6)c6nc(c(-c7ccccc7)c7ccc4[nH]7)C=C6)C=C5)cc3)C[C@H]2c2ccco2)cc1
REMARK SMILES IDX 16 1 15 2 14 3 12 4 13 5 11 6 9 7 10 8 72 9 71 10 8 11 5 12
REMARK SMILES IDX 6 13 79 14 7 15 78 16 2 17 3 18 4 19 1 20 73 23 74 24 77 25
REMARK SMILES IDX 75 26 76 27 17 28 18 29 19 30 20 31 21 32 22 33 23 34 24 35
REMARK SMILES IDX 70 36 25 37 69 38 26 39 27 40 28 41 63 42 29 43 68 44 62 45
REMARK SMILES IDX 64 46 30 47 67 48 61 49 60 50 31 52 53 53 38 54 52 55 39 56
REMARK SMILES IDX 42 57 51 58 65 59 40 60 41 61 50 63 66 64 43 65 32 66 33 67
REMARK SMILES IDX 37 68 34 69 36 70 35 71 54 72 55 73 59 74 56 75 58 76 57 77
REMARK SMILES IDX 44 78 45 79 49 80 46 81 48 82 47 83
REMARK H PARENT 1 21 1 22 64 51 42 62
REMARK Flexibility Score: inf
ROOT
ATOM      1  C   UNL A   1      32.136  28.649  23.998  1.00  0.00     0.202 C 
ENDROOT
BRANCH   1   2
ATOM      2  C   UNL A   1      32.769  28.627  22.605  1.00  0.00     0.261 C 
BRANCH   2   3
ATOM      3  O   UNL A   1      33.863  27.700  22.577  1.00  0.00    -0.459 OA
BRANCH   3   4
ATOM      4  C   UNL A   1      33.577  26.500  22.030  1.00  0.00     0.354 C 
ATOM      5  O   UNL A   1      33.352  26.243  20.864  1.00  0.00    -0.245 OA
BRANCH   4   6
ATOM      6  C   UNL A   1      33.709  25.439  23.092  1.00  0.00     0.148 C 
ATOM      7  N   UNL A   1      33.817  23.540  24.021  1.00  0.00    -0.254 N 
ATOM      8  N   UNL A   1      33.706  24.171  22.815  1.00  0.00    -0.169 NA
ATOM      9  C   UNL A   1      33.570  24.455  25.152  1.00  0.00     0.180 C 
ATOM     10  C   UNL A   1      33.970  25.799  24.520  1.00  0.00     0.101 C 
BRANCH   7  11
ATOM     11  C   UNL A   1      33.625  22.168  24.059  1.00  0.00     0.060 A 
ATOM     12  C   UNL A   1      33.298  19.378  24.138  1.00  0.00     0.082 A 
ATOM     13  C   UNL A   1      34.383  19.967  24.790  1.00  0.00     0.024 A 
ATOM     14  C   UNL A   1      32.390  20.163  23.426  1.00  0.00     0.024 A 
ATOM     15  C   UNL A   1      34.541  21.356  24.746  1.00  0.00     0.029 A 
ATOM     16  C   UNL A   1      32.569  21.547  23.380  1.00  0.00     0.029 A 
BRANCH  12  17
ATOM     17  S   UNL A   1      33.079  17.627  24.204  1.00  0.00     0.238 S 
ATOM     18  O   UNL A   1      32.032  17.313  25.156  1.00  0.00    -0.207 OA
ATOM     19  O   UNL A   1      34.375  17.003  24.244  1.00  0.00    -0.207 OA
BRANCH  17  20
ATOM     20  N   UNL A   1      32.423  17.264  22.701  1.00  0.00    -0.225 NA
ATOM     21  H   UNL A   1      31.446  16.994  22.812  1.00  0.00     0.137 HD
ATOM     22  H   UNL A   1      32.943  16.493  22.280  1.00  0.00     0.137 HD
ENDBRANCH  17  20
ENDBRANCH  12  17
ENDBRANCH   7  11
BRANCH   9  23
ATOM     23  C   UNL A   1      32.173  24.499  25.713  1.00  0.00     0.128 A 
ATOM     24  C   UNL A   1      31.532  23.772  26.699  1.00  0.00     0.048 A 
ATOM     25  O   UNL A   1      31.305  25.421  25.194  1.00  0.00    -0.467 OA
ATOM     26  C   UNL A   1      30.206  24.263  26.767  1.00  0.00     0.042 A 
ATOM     27  C   UNL A   1      30.123  25.273  25.840  1.00  0.00     0.195 A 
ENDBRANCH   9  23
ENDBRANCH   4   6
ENDBRANCH   3   4
ENDBRANCH   2   3
ENDBRANCH   1   2
BRANCH   1  28
ATOM     28  O   UNL A   1      32.685  29.599  24.911  1.00  0.00    -0.374 OA
BRANCH  28  29
ATOM     29  C   UNL A   1      31.777  30.308  25.756  1.00  0.00     0.202 C 
BRANCH  29  30
ATOM     30  C   UNL A   1      32.272  30.619  27.175  1.00  0.00     0.261 C 
BRANCH  30  31
ATOM     31  O   UNL A   1      33.566  30.045  27.442  1.00  0.00    -0.460 OA
BRANCH  31  32
ATOM     32  C   UNL A   1      34.477  30.916  27.942  1.00  0.00     0.338 C 
ATOM     33  O   UNL A   1      34.286  32.068  28.293  1.00  0.00    -0.246 OA
BRANCH  32  34
ATOM     34  C   UNL A   1      35.762  30.229  28.176  1.00  0.00     0.060 A 
ATOM     35  C   UNL A   1      35.983  29.691  29.451  1.00  0.00     0.016 A 
ATOM     36  C   UNL A   1      36.763  30.184  27.205  1.00  0.00     0.016 A 
ATOM     37  C   UNL A   1      37.224  29.147  29.775  1.00  0.00     0.010 A 
ATOM     38  C   UNL A   1      38.012  29.643  27.533  1.00  0.00     0.010 A 
ATOM     39  C   UNL A   1      38.259  29.154  28.829  1.00  0.00    -0.014 A 
BRANCH  39  40
ATOM     40  C   UNL A   1      39.632  28.773  29.242  1.00  0.00     0.031 A 
ATOM     41  C   UNL A   1      40.182  27.439  28.820  1.00  0.00     0.074 A 
ATOM     42  C   UNL A   1      40.395  29.620  29.957  1.00  0.00     0.049 A 
ATOM     43  N   UNL A   1      41.349  26.904  29.080  1.00  0.00    -0.248 NA
ATOM     44  C   UNL A   1      39.303  26.596  27.994  1.00  0.00     0.031 C 
ATOM     45  C   UNL A   1      39.999  30.958  30.390  1.00  0.00     0.029 A 
ATOM     46  N   UNL A   1      41.670  29.471  30.443  1.00  0.00    -0.354 N 
ATOM     47  C   UNL A   1      41.341  25.663  28.455  1.00  0.00     0.074 A 
ATOM     48  C   UNL A   1      40.045  25.511  27.830  1.00  0.00     0.031 C 
ATOM     49  C   UNL A   1      41.012  31.509  31.081  1.00  0.00     0.029 A 
ATOM     50  C   UNL A   1      42.113  30.552  31.165  1.00  0.00     0.049 A 
ATOM     51  H   UNL A   1      42.215  28.666  30.289  1.00  0.00     0.167 HD
ATOM     52  C   UNL A   1      42.326  24.735  28.398  1.00  0.00     0.031 A 
ATOM     53  C   UNL A   1      43.268  30.741  31.830  1.00  0.00     0.031 A 
ATOM     54  C   UNL A   1      43.611  24.874  29.029  1.00  0.00     0.049 A 
ATOM     55  C   UNL A   1      44.316  29.660  31.821  1.00  0.00     0.074 A 
ATOM     56  C   UNL A   1      44.678  23.992  29.018  1.00  0.00     0.029 A 
ATOM     57  N   UNL A   1      44.003  25.965  29.790  1.00  0.00    -0.354 N 
ATOM     58  N   UNL A   1      44.304  28.502  31.209  1.00  0.00    -0.248 NA
ATOM     59  C   UNL A   1      45.540  29.921  32.592  1.00  0.00     0.031 C 
ATOM     60  C   UNL A   1      45.695  24.525  29.818  1.00  0.00     0.029 A 
ATOM     61  C   UNL A   1      45.284  25.766  30.277  1.00  0.00     0.049 A 
ATOM     62  H   UNL A   1      43.451  26.762  29.958  1.00  0.00     0.167 HD
ATOM     63  C   UNL A   1      45.528  27.908  31.496  1.00  0.00     0.074 A 
ATOM     64  C   UNL A   1      46.261  28.840  32.326  1.00  0.00     0.031 C 
ATOM     65  C   UNL A   1      46.002  26.700  31.103  1.00  0.00     0.031 A 
BRANCH  52  66
ATOM     66  C   UNL A   1      42.035  23.464  27.650  1.00  0.00    -0.014 A 
ATOM     67  C   UNL A   1      42.463  23.284  26.325  1.00  0.00     0.009 A 
ATOM     68  C   UNL A   1      41.350  22.420  28.291  1.00  0.00     0.009 A 
ATOM     69  C   UNL A   1      42.181  22.096  25.647  1.00  0.00     0.001 A 
ATOM     70  C   UNL A   1      41.093  21.223  27.619  1.00  0.00     0.001 A 
ATOM     71  C   UNL A   1      41.501  21.066  26.296  1.00  0.00     0.000 A 
ENDBRANCH  52  66
BRANCH  53  72
ATOM     72  C   UNL A   1      43.498  32.005  32.579  1.00  0.00    -0.014 A 
ATOM     73  C   UNL A   1      44.100  33.106  31.956  1.00  0.00     0.009 A 
ATOM     74  C   UNL A   1      43.134  32.104  33.931  1.00  0.00     0.009 A 
ATOM     75  C   UNL A   1      44.356  34.274  32.677  1.00  0.00     0.001 A 
ATOM     76  C   UNL A   1      43.365  33.283  34.642  1.00  0.00     0.001 A 
ATOM     77  C   UNL A   1      43.985  34.364  34.018  1.00  0.00     0.000 A 
ENDBRANCH  53  72
BRANCH  65  78
ATOM     78  C   UNL A   1      47.395  26.333  31.534  1.00  0.00    -0.014 A 
ATOM     79  C   UNL A   1      47.637  25.707  32.766  1.00  0.00     0.009 A 
ATOM     80  C   UNL A   1      48.476  26.585  30.676  1.00  0.00     0.009 A 
ATOM     81  C   UNL A   1      48.939  25.370  33.143  1.00  0.00     0.001 A 
ATOM     82  C   UNL A   1      49.773  26.221  31.042  1.00  0.00     0.001 A 
ATOM     83  C   UNL A   1      50.004  25.623  32.279  1.00  0.00     0.000 A 
ENDBRANCH  65  78
ENDBRANCH  39  40
ENDBRANCH  32  34
ENDBRANCH  31  32
ENDBRANCH  30  31
ENDBRANCH  29  30
ENDBRANCH  28  29
ENDBRANCH   1  28
TORSDOF 18
ENDMDL
