MODEL 1
REMARK VINA RESULT:     -11.4      0.000      0.000
REMARK SMILES Cc1ccnc(C(=O)c2[nH]c3ccc(F)cc3c2CC(=O)OCCOCCOC(=O)c2ccc(-c3c4nc(c(-c5ccccc5)c5ccc([nH]5)c(-c5ccccc5)c5nc(c(-c6ccccc6)c6ccc3[nH]6)C=C5)C=C4)cc2)c1
REMARK SMILES IDX 24 1 23 2 22 3 20 4 21 5 19 6 18 7 9 8 10 9 11 10 17 12
REMARK SMILES IDX 12 13 16 14 13 15 14 16 15 17 7 18 8 19 6 20 1 21 2 22 3 23
REMARK SMILES IDX 79 24 4 25 5 26 25 27 26 28 27 29 28 30 29 31 30 32 31 33
REMARK SMILES IDX 32 34 78 35 33 36 77 37 34 38 35 39 36 40 71 41 37 42 76 43
REMARK SMILES IDX 70 44 72 45 38 46 75 47 69 48 68 49 39 51 61 52 46 53 60 54
REMARK SMILES IDX 47 55 50 56 59 57 73 58 48 59 49 60 58 62 74 63 51 64 40 65
REMARK SMILES IDX 41 66 45 67 42 68 44 69 43 70 62 71 63 72 67 73 64 74 66 75
REMARK SMILES IDX 65 76 52 77 53 78 57 79 54 80 56 81 55 82
REMARK H PARENT 10 11 72 50 50 61
REMARK Flexibility Score: inf
ROOT
ATOM      1  C   UNL A   1      36.901  22.589  23.632  1.00  0.00     0.202 C 
ENDROOT
BRANCH   1   2
ATOM      2  C   UNL A   1      35.590  23.394  23.819  1.00  0.00     0.261 C 
BRANCH   2   3
ATOM      3  O   UNL A   1      34.584  23.111  22.822  1.00  0.00    -0.463 OA
BRANCH   3   4
ATOM      4  C   UNL A   1      33.461  23.893  22.862  1.00  0.00     0.310 C 
ATOM      5  O   UNL A   1      33.458  25.105  22.686  1.00  0.00    -0.252 OA
BRANCH   4   6
ATOM      6  C   UNL A   1      32.197  23.115  23.178  1.00  0.00     0.161 C 
BRANCH   6   7
ATOM      7  C   UNL A   1      32.312  22.049  24.236  1.00  0.00     0.000 A 
ATOM      8  C   UNL A   1      32.330  22.164  25.635  1.00  0.00     0.093 A 
ATOM      9  N   UNL A   1      32.724  20.907  26.092  1.00  0.00    -0.352 N 
ATOM     10  C   UNL A   1      32.633  19.949  25.115  1.00  0.00     0.046 A 
ATOM     11  H   UNL A   1      33.032  20.728  27.010  1.00  0.00     0.167 HD
ATOM     12  C   UNL A   1      32.416  20.630  23.923  1.00  0.00     0.007 A 
ATOM     13  C   UNL A   1      32.689  18.547  25.210  1.00  0.00     0.030 A 
ATOM     14  C   UNL A   1      32.294  19.862  22.741  1.00  0.00     0.049 A 
ATOM     15  C   UNL A   1      32.506  17.812  24.036  1.00  0.00     0.041 A 
ATOM     16  C   UNL A   1      32.323  18.466  22.826  1.00  0.00     0.123 A 
ATOM     17  F   UNL A   1      32.140  17.739  21.715  1.00  0.00    -0.207 F 
BRANCH   8  18
ATOM     18  C   UNL A   1      32.188  23.214  26.661  1.00  0.00     0.227 C 
ATOM     19  O   UNL A   1      32.071  22.827  27.829  1.00  0.00    -0.285 OA
BRANCH  18  20
ATOM     20  C   UNL A   1      31.980  24.713  26.446  1.00  0.00     0.113 A 
ATOM     21  C   UNL A   1      33.691  27.942  25.317  1.00  0.00     0.044 C 
ATOM     22  C   UNL A   1      32.637  26.931  25.678  1.00  0.00    -0.047 A 
ATOM     23  C   UNL A   1      31.292  27.271  25.588  1.00  0.00     0.023 A 
ATOM     24  C   UNL A   1      32.973  25.637  26.127  1.00  0.00     0.036 A 
ATOM     25  C   UNL A   1      30.358  26.311  25.930  1.00  0.00     0.112 A 
ATOM     26  N   UNL A   1      30.667  25.063  26.354  1.00  0.00    -0.253 NA
ENDBRANCH  18  20
ENDBRANCH   8  18
ENDBRANCH   6   7
ENDBRANCH   4   6
ENDBRANCH   3   4
ENDBRANCH   2   3
ENDBRANCH   1   2
BRANCH   1  27
ATOM     27  O   UNL A   1      36.979  21.293  24.255  1.00  0.00    -0.374 OA
BRANCH  27  28
ATOM     28  C   UNL A   1      37.997  21.265  25.255  1.00  0.00     0.202 C 
BRANCH  28  29
ATOM     29  C   UNL A   1      38.877  20.019  25.361  1.00  0.00     0.261 C 
BRANCH  29  30
ATOM     30  O   UNL A   1      39.708  20.054  26.478  1.00  0.00    -0.460 OA
BRANCH  30  31
ATOM     31  C   UNL A   1      41.004  19.748  26.244  1.00  0.00     0.338 C 
ATOM     32  O   UNL A   1      41.484  18.832  25.629  1.00  0.00    -0.246 OA
BRANCH  31  33
ATOM     33  C   UNL A   1      41.635  20.999  26.659  1.00  0.00     0.060 A 
ATOM     34  C   UNL A   1      41.896  21.960  25.681  1.00  0.00     0.016 A 
ATOM     35  C   UNL A   1      41.650  21.288  28.032  1.00  0.00     0.016 A 
ATOM     36  C   UNL A   1      42.181  23.249  26.092  1.00  0.00     0.010 A 
ATOM     37  C   UNL A   1      41.818  22.584  28.431  1.00  0.00     0.010 A 
ATOM     38  C   UNL A   1      42.146  23.541  27.463  1.00  0.00    -0.014 A 
BRANCH  38  39
ATOM     39  C   UNL A   1      42.709  24.780  27.988  1.00  0.00     0.031 A 
ATOM     40  C   UNL A   1      41.717  25.850  28.319  1.00  0.00     0.074 A 
ATOM     41  C   UNL A   1      44.036  24.946  28.011  1.00  0.00     0.049 A 
ATOM     42  N   UNL A   1      41.921  27.107  28.588  1.00  0.00    -0.248 NA
ATOM     43  C   UNL A   1      40.290  25.463  28.272  1.00  0.00     0.031 C 
ATOM     44  C   UNL A   1      45.031  23.931  27.658  1.00  0.00     0.029 A 
ATOM     45  N   UNL A   1      44.768  26.051  28.323  1.00  0.00    -0.354 N 
ATOM     46  C   UNL A   1      40.653  27.659  28.706  1.00  0.00     0.074 A 
ATOM     47  C   UNL A   1      39.690  26.630  28.409  1.00  0.00     0.031 C 
ATOM     48  C   UNL A   1      46.257  24.467  27.786  1.00  0.00     0.029 A 
ATOM     49  C   UNL A   1      46.118  25.864  28.183  1.00  0.00     0.049 A 
ATOM     50  H   UNL A   1      44.367  26.900  28.619  1.00  0.00     0.167 HD
ATOM     51  C   UNL A   1      40.333  28.922  29.057  1.00  0.00     0.031 A 
ATOM     52  C   UNL A   1      47.111  26.752  28.351  1.00  0.00     0.031 A 
ATOM     53  C   UNL A   1      41.331  29.908  29.351  1.00  0.00     0.049 A 
ATOM     54  C   UNL A   1      46.731  28.151  28.754  1.00  0.00     0.074 A 
ATOM     55  C   UNL A   1      41.166  31.211  29.768  1.00  0.00     0.029 A 
ATOM     56  N   UNL A   1      42.698  29.676  29.253  1.00  0.00    -0.354 N 
ATOM     57  N   UNL A   1      45.534  28.665  28.925  1.00  0.00    -0.248 NA
ATOM     58  C   UNL A   1      47.834  29.085  28.998  1.00  0.00     0.031 C 
ATOM     59  C   UNL A   1      42.438  31.784  29.878  1.00  0.00     0.029 A 
ATOM     60  C   UNL A   1      43.393  30.819  29.587  1.00  0.00     0.049 A 
ATOM     61  H   UNL A   1      43.110  28.822  28.985  1.00  0.00     0.167 HD
ATOM     62  C   UNL A   1      45.736  29.978  29.326  1.00  0.00     0.074 A 
ATOM     63  C   UNL A   1      47.175  30.170  29.384  1.00  0.00     0.031 C 
ATOM     64  C   UNL A   1      44.830  30.944  29.622  1.00  0.00     0.031 A 
BRANCH  51  65
ATOM     65  C   UNL A   1      38.873  29.269  29.114  1.00  0.00    -0.014 A 
ATOM     66  C   UNL A   1      38.127  29.113  30.296  1.00  0.00     0.009 A 
ATOM     67  C   UNL A   1      38.220  29.724  27.959  1.00  0.00     0.009 A 
ATOM     68  C   UNL A   1      36.752  29.358  30.305  1.00  0.00     0.001 A 
ATOM     69  C   UNL A   1      36.853  30.003  27.981  1.00  0.00     0.001 A 
ATOM     70  C   UNL A   1      36.117  29.809  29.150  1.00  0.00     0.000 A 
ENDBRANCH  51  65
BRANCH  52  71
ATOM     71  C   UNL A   1      48.522  26.330  28.174  1.00  0.00    -0.014 A 
ATOM     72  C   UNL A   1      49.129  26.400  26.911  1.00  0.00     0.009 A 
ATOM     73  C   UNL A   1      49.286  25.896  29.269  1.00  0.00     0.009 A 
ATOM     74  C   UNL A   1      50.463  26.021  26.743  1.00  0.00     0.001 A 
ATOM     75  C   UNL A   1      50.628  25.544  29.103  1.00  0.00     0.001 A 
ATOM     76  C   UNL A   1      51.213  25.599  27.839  1.00  0.00     0.000 A 
ENDBRANCH  52  71
BRANCH  64  77
ATOM     77  C   UNL A   1      45.381  32.266  30.063  1.00  0.00    -0.014 A 
ATOM     78  C   UNL A   1      45.658  32.524  31.413  1.00  0.00     0.009 A 
ATOM     79  C   UNL A   1      45.677  33.243  29.099  1.00  0.00     0.009 A 
ATOM     80  C   UNL A   1      46.189  33.756  31.794  1.00  0.00     0.001 A 
ATOM     81  C   UNL A   1      46.239  34.458  29.480  1.00  0.00     0.001 A 
ATOM     82  C   UNL A   1      46.484  34.718  30.827  1.00  0.00     0.000 A 
ENDBRANCH  64  77
ENDBRANCH  38  39
ENDBRANCH  31  33
ENDBRANCH  30  31
ENDBRANCH  29  30
ENDBRANCH  28  29
ENDBRANCH  27  28
ENDBRANCH   1  27
TORSDOF 17
ENDMDL
MODEL 2
REMARK VINA RESULT:     -11.3      2.010      6.436
REMARK SMILES Cc1ccnc(C(=O)c2[nH]c3ccc(F)cc3c2CC(=O)OCCOCCOC(=O)c2ccc(-c3c4nc(c(-c5ccccc5)c5ccc([nH]5)c(-c5ccccc5)c5nc(c(-c6ccccc6)c6ccc3[nH]6)C=C5)C=C4)cc2)c1
REMARK SMILES IDX 24 1 23 2 22 3 20 4 21 5 19 6 18 7 9 8 10 9 11 10 17 12
REMARK SMILES IDX 12 13 16 14 13 15 14 16 15 17 7 18 8 19 6 20 1 21 2 22 3 23
REMARK SMILES IDX 79 24 4 25 5 26 25 27 26 28 27 29 28 30 29 31 30 32 31 33
REMARK SMILES IDX 32 34 78 35 33 36 77 37 34 38 35 39 36 40 71 41 37 42 76 43
REMARK SMILES IDX 70 44 72 45 38 46 75 47 69 48 68 49 39 51 61 52 46 53 60 54
REMARK SMILES IDX 47 55 50 56 59 57 73 58 48 59 49 60 58 62 74 63 51 64 40 65
REMARK SMILES IDX 41 66 45 67 42 68 44 69 43 70 62 71 63 72 67 73 64 74 66 75
REMARK SMILES IDX 65 76 52 77 53 78 57 79 54 80 56 81 55 82
REMARK H PARENT 10 11 72 50 50 61
REMARK Flexibility Score: inf
ROOT
ATOM      1  C   UNL A   1      40.711  21.346  26.344  1.00  0.00     0.202 C 
ENDROOT
BRANCH   1   2
ATOM      2  C   UNL A   1      39.268  21.889  26.183  1.00  0.00     0.261 C 
BRANCH   2   3
ATOM      3  O   UNL A   1      38.413  21.046  25.378  1.00  0.00    -0.463 OA
BRANCH   3   4
ATOM      4  C   UNL A   1      37.288  21.639  24.874  1.00  0.00     0.310 C 
ATOM      5  O   UNL A   1      37.254  22.282  23.832  1.00  0.00    -0.252 OA
BRANCH   4   6
ATOM      6  C   UNL A   1      36.064  21.451  25.752  1.00  0.00     0.161 C 
BRANCH   6   7
ATOM      7  C   UNL A   1      34.746  21.291  25.039  1.00  0.00     0.000 A 
ATOM      8  C   UNL A   1      33.822  22.262  24.621  1.00  0.00     0.093 A 
ATOM      9  N   UNL A   1      32.682  21.541  24.268  1.00  0.00    -0.352 N 
ATOM     10  C   UNL A   1      32.938  20.201  24.126  1.00  0.00     0.046 A 
ATOM     11  H   UNL A   1      31.794  21.947  24.136  1.00  0.00     0.167 HD
ATOM     12  C   UNL A   1      34.213  19.995  24.639  1.00  0.00     0.007 A 
ATOM     13  C   UNL A   1      32.157  19.183  23.555  1.00  0.00     0.030 A 
ATOM     14  C   UNL A   1      34.722  18.675  24.622  1.00  0.00     0.049 A 
ATOM     15  C   UNL A   1      32.708  17.901  23.496  1.00  0.00     0.041 A 
ATOM     16  C   UNL A   1      33.964  17.658  24.032  1.00  0.00     0.123 A 
ATOM     17  F   UNL A   1      34.476  16.421  23.957  1.00  0.00    -0.207 F 
BRANCH   8  18
ATOM     18  C   UNL A   1      33.699  23.731  24.588  1.00  0.00     0.227 C 
ATOM     19  O   UNL A   1      34.673  24.353  24.151  1.00  0.00    -0.285 OA
BRANCH  18  20
ATOM     20  C   UNL A   1      32.595  24.593  25.199  1.00  0.00     0.113 A 
ATOM     21  C   UNL A   1      31.912  27.775  27.209  1.00  0.00     0.044 C 
ATOM     22  C   UNL A   1      31.726  26.578  26.317  1.00  0.00    -0.047 A 
ATOM     23  C   UNL A   1      30.481  26.318  25.757  1.00  0.00     0.023 A 
ATOM     24  C   UNL A   1      32.786  25.690  26.038  1.00  0.00     0.036 A 
ATOM     25  C   UNL A   1      30.357  25.207  24.943  1.00  0.00     0.112 A 
ATOM     26  N   UNL A   1      31.367  24.352  24.661  1.00  0.00    -0.253 NA
ENDBRANCH  18  20
ENDBRANCH   8  18
ENDBRANCH   6   7
ENDBRANCH   4   6
ENDBRANCH   3   4
ENDBRANCH   2   3
ENDBRANCH   1   2
BRANCH   1  27
ATOM     27  O   UNL A   1      40.944  19.967  26.001  1.00  0.00    -0.374 OA
BRANCH  27  28
ATOM     28  C   UNL A   1      42.143  19.484  26.607  1.00  0.00     0.202 C 
BRANCH  28  29
ATOM     29  C   UNL A   1      43.113  18.671  25.749  1.00  0.00     0.261 C 
BRANCH  29  30
ATOM     30  O   UNL A   1      43.527  19.369  24.617  1.00  0.00    -0.460 OA
BRANCH  30  31
ATOM     31  C   UNL A   1      44.866  19.497  24.474  1.00  0.00     0.338 C 
ATOM     32  O   UNL A   1      45.673  18.726  24.021  1.00  0.00    -0.246 OA
BRANCH  31  33
ATOM     33  C   UNL A   1      45.007  20.931  24.713  1.00  0.00     0.060 A 
ATOM     34  C   UNL A   1      44.460  21.811  23.779  1.00  0.00     0.016 A 
ATOM     35  C   UNL A   1      45.395  21.333  26.001  1.00  0.00     0.016 A 
ATOM     36  C   UNL A   1      44.298  23.134  24.145  1.00  0.00     0.010 A 
ATOM     37  C   UNL A   1      45.128  22.613  26.399  1.00  0.00     0.010 A 
ATOM     38  C   UNL A   1      44.641  23.518  25.449  1.00  0.00    -0.014 A 
BRANCH  38  39
ATOM     39  C   UNL A   1      44.771  24.924  25.814  1.00  0.00     0.031 A 
ATOM     40  C   UNL A   1      46.149  25.496  25.699  1.00  0.00     0.074 A 
ATOM     41  C   UNL A   1      43.727  25.568  26.348  1.00  0.00     0.049 A 
ATOM     42  N   UNL A   1      46.612  26.625  26.150  1.00  0.00    -0.248 NA
ATOM     43  C   UNL A   1      47.164  24.642  25.044  1.00  0.00     0.031 C 
ATOM     44  C   UNL A   1      42.377  25.025  26.508  1.00  0.00     0.029 A 
ATOM     45  N   UNL A   1      43.660  26.819  26.882  1.00  0.00    -0.354 N 
ATOM     46  C   UNL A   1      47.970  26.596  25.863  1.00  0.00     0.074 A 
ATOM     47  C   UNL A   1      48.273  25.319  25.271  1.00  0.00     0.031 C 
ATOM     48  C   UNL A   1      41.605  25.954  27.097  1.00  0.00     0.029 A 
ATOM     49  C   UNL A   1      42.424  27.126  27.388  1.00  0.00     0.049 A 
ATOM     50  H   UNL A   1      44.422  27.442  26.901  1.00  0.00     0.167 HD
ATOM     51  C   UNL A   1      48.876  27.576  26.064  1.00  0.00     0.031 A 
ATOM     52  C   UNL A   1      42.031  28.239  28.028  1.00  0.00     0.031 A 
ATOM     53  C   UNL A   1      48.521  28.834  26.651  1.00  0.00     0.049 A 
ATOM     54  C   UNL A   1      43.055  29.323  28.230  1.00  0.00     0.074 A 
ATOM     55  C   UNL A   1      49.311  29.941  26.873  1.00  0.00     0.029 A 
ATOM     56  N   UNL A   1      47.244  29.140  27.108  1.00  0.00    -0.354 N 
ATOM     57  N   UNL A   1      44.329  29.326  27.908  1.00  0.00    -0.248 NA
ATOM     58  C   UNL A   1      42.588  30.556  28.869  1.00  0.00     0.031 C 
ATOM     59  C   UNL A   1      48.521  30.904  27.510  1.00  0.00     0.029 A 
ATOM     60  C   UNL A   1      47.226  30.417  27.629  1.00  0.00     0.049 A 
ATOM     61  H   UNL A   1      46.468  28.536  27.067  1.00  0.00     0.167 HD
ATOM     62  C   UNL A   1      44.813  30.572  28.279  1.00  0.00     0.074 A 
ATOM     63  C   UNL A   1      43.687  31.299  28.836  1.00  0.00     0.031 C 
ATOM     64  C   UNL A   1      46.067  31.082  28.173  1.00  0.00     0.031 A 
BRANCH  51  65
ATOM     65  C   UNL A   1      50.294  27.292  25.661  1.00  0.00    -0.014 A 
ATOM     66  C   UNL A   1      51.221  26.750  26.569  1.00  0.00     0.009 A 
ATOM     67  C   UNL A   1      50.726  27.605  24.364  1.00  0.00     0.009 A 
ATOM     68  C   UNL A   1      52.556  26.573  26.202  1.00  0.00     0.001 A 
ATOM     69  C   UNL A   1      52.053  27.394  23.988  1.00  0.00     0.001 A 
ATOM     70  C   UNL A   1      52.970  26.890  24.909  1.00  0.00     0.000 A 
ENDBRANCH  51  65
BRANCH  52  71
ATOM     71  C   UNL A   1      40.624  28.381  28.475  1.00  0.00    -0.014 A 
ATOM     72  C   UNL A   1      39.666  28.957  27.628  1.00  0.00     0.009 A 
ATOM     73  C   UNL A   1      40.218  27.906  29.733  1.00  0.00     0.009 A 
ATOM     74  C   UNL A   1      38.336  29.076  28.039  1.00  0.00     0.001 A 
ATOM     75  C   UNL A   1      38.882  28.002  30.130  1.00  0.00     0.001 A 
ATOM     76  C   UNL A   1      37.943  28.594  29.286  1.00  0.00     0.000 A 
ENDBRANCH  52  71
BRANCH  64  77
ATOM     77  C   UNL A   1      46.257  32.493  28.641  1.00  0.00    -0.014 A 
ATOM     78  C   UNL A   1      46.650  32.776  29.957  1.00  0.00     0.009 A 
ATOM     79  C   UNL A   1      46.093  33.547  27.729  1.00  0.00     0.009 A 
ATOM     80  C   UNL A   1      46.839  34.097  30.361  1.00  0.00     0.001 A 
ATOM     81  C   UNL A   1      46.317  34.862  28.127  1.00  0.00     0.001 A 
ATOM     82  C   UNL A   1      46.678  35.137  29.445  1.00  0.00     0.000 A 
ENDBRANCH  64  77
ENDBRANCH  38  39
ENDBRANCH  31  33
ENDBRANCH  30  31
ENDBRANCH  29  30
ENDBRANCH  28  29
ENDBRANCH  27  28
ENDBRANCH   1  27
TORSDOF 17
ENDMDL
MODEL 3
REMARK VINA RESULT:     -11.2      3.953      8.540
REMARK SMILES Cc1ccnc(C(=O)c2[nH]c3ccc(F)cc3c2CC(=O)OCCOCCOC(=O)c2ccc(-c3c4nc(c(-c5ccccc5)c5ccc([nH]5)c(-c5ccccc5)c5nc(c(-c6ccccc6)c6ccc3[nH]6)C=C5)C=C4)cc2)c1
REMARK SMILES IDX 24 1 23 2 22 3 20 4 21 5 19 6 18 7 9 8 10 9 11 10 17 12
REMARK SMILES IDX 12 13 16 14 13 15 14 16 15 17 7 18 8 19 6 20 1 21 2 22 3 23
REMARK SMILES IDX 79 24 4 25 5 26 25 27 26 28 27 29 28 30 29 31 30 32 31 33
REMARK SMILES IDX 32 34 78 35 33 36 77 37 34 38 35 39 36 40 71 41 37 42 76 43
REMARK SMILES IDX 70 44 72 45 38 46 75 47 69 48 68 49 39 51 61 52 46 53 60 54
REMARK SMILES IDX 47 55 50 56 59 57 73 58 48 59 49 60 58 62 74 63 51 64 40 65
REMARK SMILES IDX 41 66 45 67 42 68 44 69 43 70 62 71 63 72 67 73 64 74 66 75
REMARK SMILES IDX 65 76 52 77 53 78 57 79 54 80 56 81 55 82
REMARK H PARENT 10 11 72 50 50 61
REMARK Flexibility Score: inf
ROOT
ATOM      1  C   UNL A   1      31.751  28.891  27.186  1.00  0.00     0.202 C 
ENDROOT
BRANCH   1   2
ATOM      2  C   UNL A   1      32.463  27.611  26.680  1.00  0.00     0.261 C 
BRANCH   2   3
ATOM      3  O   UNL A   1      31.569  26.637  26.097  1.00  0.00    -0.463 OA
BRANCH   3   4
ATOM      4  C   UNL A   1      31.881  25.324  26.323  1.00  0.00     0.310 C 
ATOM      5  O   UNL A   1      31.274  24.594  27.097  1.00  0.00    -0.252 OA
BRANCH   4   6
ATOM      6  C   UNL A   1      33.088  24.847  25.536  1.00  0.00     0.161 C 
BRANCH   6   7
ATOM      7  C   UNL A   1      32.807  23.958  24.352  1.00  0.00     0.000 A 
ATOM      8  C   UNL A   1      32.629  24.287  22.998  1.00  0.00     0.093 A 
ATOM      9  N   UNL A   1      32.136  23.123  22.410  1.00  0.00    -0.352 N 
ATOM     10  C   UNL A   1      32.304  22.024  23.214  1.00  0.00     0.046 A 
ATOM     11  H   UNL A   1      31.715  23.093  21.520  1.00  0.00     0.167 HD
ATOM     12  C   UNL A   1      32.686  22.510  24.459  1.00  0.00     0.007 A 
ATOM     13  C   UNL A   1      32.183  20.656  22.918  1.00  0.00     0.030 A 
ATOM     14  C   UNL A   1      32.916  21.568  25.489  1.00  0.00     0.049 A 
ATOM     15  C   UNL A   1      32.474  19.746  23.937  1.00  0.00     0.041 A 
ATOM     16  C   UNL A   1      32.824  20.203  25.200  1.00  0.00     0.123 A 
ATOM     17  F   UNL A   1      33.108  19.310  26.159  1.00  0.00    -0.207 F 
BRANCH   8  18
ATOM     18  C   UNL A   1      32.689  25.478  22.132  1.00  0.00     0.227 C 
ATOM     19  O   UNL A   1      33.443  25.408  21.155  1.00  0.00    -0.285 OA
BRANCH  18  20
ATOM     20  C   UNL A   1      32.083  26.857  22.390  1.00  0.00     0.113 A 
ATOM     21  C   UNL A   1      28.794  28.744  22.892  1.00  0.00     0.044 C 
ATOM     22  C   UNL A   1      30.256  28.392  22.892  1.00  0.00    -0.047 A 
ATOM     23  C   UNL A   1      31.185  29.291  23.401  1.00  0.00     0.023 A 
ATOM     24  C   UNL A   1      30.724  27.168  22.370  1.00  0.00     0.036 A 
ATOM     25  C   UNL A   1      32.518  28.926  23.381  1.00  0.00     0.112 A 
ATOM     26  N   UNL A   1      32.980  27.752  22.891  1.00  0.00    -0.253 NA
ENDBRANCH  18  20
ENDBRANCH   8  18
ENDBRANCH   6   7
ENDBRANCH   4   6
ENDBRANCH   3   4
ENDBRANCH   2   3
ENDBRANCH   1   2
BRANCH   1  27
ATOM     27  O   UNL A   1      32.414  30.151  26.967  1.00  0.00    -0.374 OA
BRANCH  27  28
ATOM     28  C   UNL A   1      31.487  31.152  26.549  1.00  0.00     0.202 C 
BRANCH  28  29
ATOM     29  C   UNL A   1      31.729  32.596  26.992  1.00  0.00     0.261 C 
BRANCH  29  30
ATOM     30  O   UNL A   1      33.044  32.809  27.398  1.00  0.00    -0.460 OA
BRANCH  30  31
ATOM     31  C   UNL A   1      33.234  33.878  28.205  1.00  0.00     0.338 C 
ATOM     32  O   UNL A   1      32.472  34.755  28.518  1.00  0.00    -0.246 OA
BRANCH  31  33
ATOM     33  C   UNL A   1      34.493  33.493  28.837  1.00  0.00     0.060 A 
ATOM     34  C   UNL A   1      34.461  32.506  29.822  1.00  0.00     0.016 A 
ATOM     35  C   UNL A   1      35.680  33.899  28.206  1.00  0.00     0.016 A 
ATOM     36  C   UNL A   1      35.653  31.909  30.188  1.00  0.00     0.010 A 
ATOM     37  C   UNL A   1      36.837  33.229  28.486  1.00  0.00     0.010 A 
ATOM     38  C   UNL A   1      36.827  32.285  29.519  1.00  0.00    -0.014 A 
BRANCH  38  39
ATOM     39  C   UNL A   1      38.141  31.922  30.035  1.00  0.00     0.031 A 
ATOM     40  C   UNL A   1      38.723  30.657  29.487  1.00  0.00     0.074 A 
ATOM     41  C   UNL A   1      38.677  32.629  31.036  1.00  0.00     0.049 A 
ATOM     42  N   UNL A   1      39.750  29.975  29.904  1.00  0.00    -0.248 NA
ATOM     43  C   UNL A   1      38.003  30.038  28.352  1.00  0.00     0.031 C 
ATOM     44  C   UNL A   1      38.115  33.849  31.619  1.00  0.00     0.029 A 
ATOM     45  N   UNL A   1      39.809  32.394  31.757  1.00  0.00    -0.354 N 
ATOM     46  C   UNL A   1      39.773  28.838  29.107  1.00  0.00     0.074 A 
ATOM     47  C   UNL A   1      38.626  28.881  28.237  1.00  0.00     0.031 C 
ATOM     48  C   UNL A   1      38.921  34.264  32.611  1.00  0.00     0.029 A 
ATOM     49  C   UNL A   1      40.018  33.313  32.751  1.00  0.00     0.049 A 
ATOM     50  H   UNL A   1      40.416  31.640  31.580  1.00  0.00     0.167 HD
ATOM     51  C   UNL A   1      40.698  27.856  29.098  1.00  0.00     0.031 A 
ATOM     52  C   UNL A   1      40.996  33.347  33.672  1.00  0.00     0.031 A 
ATOM     53  C   UNL A   1      41.827  27.864  29.980  1.00  0.00     0.049 A 
ATOM     54  C   UNL A   1      42.022  32.247  33.636  1.00  0.00     0.074 A 
ATOM     55  C   UNL A   1      42.874  26.971  30.058  1.00  0.00     0.029 A 
ATOM     56  N   UNL A   1      42.045  28.840  30.947  1.00  0.00    -0.354 N 
ATOM     57  N   UNL A   1      42.084  31.200  32.844  1.00  0.00    -0.248 NA
ATOM     58  C   UNL A   1      43.117  32.341  34.605  1.00  0.00     0.031 C 
ATOM     59  C   UNL A   1      43.704  27.382  31.106  1.00  0.00     0.029 A 
ATOM     60  C   UNL A   1      43.205  28.563  31.640  1.00  0.00     0.049 A 
ATOM     61  H   UNL A   1      41.459  29.614  31.112  1.00  0.00     0.167 HD
ATOM     62  C   UNL A   1      43.240  30.520  33.200  1.00  0.00     0.074 A 
ATOM     63  C   UNL A   1      43.853  31.288  34.269  1.00  0.00     0.031 C 
ATOM     64  C   UNL A   1      43.759  29.370  32.699  1.00  0.00     0.031 A 
BRANCH  51  65
ATOM     65  C   UNL A   1      40.491  26.728  28.129  1.00  0.00    -0.014 A 
ATOM     66  C   UNL A   1      39.773  25.573  28.489  1.00  0.00     0.009 A 
ATOM     67  C   UNL A   1      41.054  26.799  26.847  1.00  0.00     0.009 A 
ATOM     68  C   UNL A   1      39.665  24.499  27.604  1.00  0.00     0.001 A 
ATOM     69  C   UNL A   1      40.914  25.738  25.951  1.00  0.00     0.001 A 
ATOM     70  C   UNL A   1      40.231  24.584  26.333  1.00  0.00     0.000 A 
ENDBRANCH  51  65
BRANCH  52  71
ATOM     71  C   UNL A   1      41.054  34.458  34.652  1.00  0.00    -0.014 A 
ATOM     72  C   UNL A   1      40.420  34.337  35.898  1.00  0.00     0.009 A 
ATOM     73  C   UNL A   1      41.776  35.628  34.371  1.00  0.00     0.009 A 
ATOM     74  C   UNL A   1      40.488  35.374  36.831  1.00  0.00     0.001 A 
ATOM     75  C   UNL A   1      41.865  36.652  35.317  1.00  0.00     0.001 A 
ATOM     76  C   UNL A   1      41.214  36.528  36.543  1.00  0.00     0.000 A 
ENDBRANCH  52  71
BRANCH  64  77
ATOM     77  C   UNL A   1      45.060  28.912  33.286  1.00  0.00    -0.014 A 
ATOM     78  C   UNL A   1      46.286  29.335  32.753  1.00  0.00     0.009 A 
ATOM     79  C   UNL A   1      45.049  28.090  34.423  1.00  0.00     0.009 A 
ATOM     80  C   UNL A   1      47.482  28.909  33.330  1.00  0.00     0.001 A 
ATOM     81  C   UNL A   1      46.245  27.696  35.017  1.00  0.00     0.001 A 
ATOM     82  C   UNL A   1      47.460  28.096  34.463  1.00  0.00     0.000 A 
ENDBRANCH  64  77
ENDBRANCH  38  39
ENDBRANCH  31  33
ENDBRANCH  30  31
ENDBRANCH  29  30
ENDBRANCH  28  29
ENDBRANCH  27  28
ENDBRANCH   1  27
TORSDOF 17
ENDMDL
