MODEL 1
REMARK VINA RESULT:     -11.9      0.000      0.000
REMARK SMILES O=C(OCCOCCOC(=O)[C@H]1[C@H]2CC[C@H](C2)[C@@H]1C(=O)Nc1sc2c(c1C(=O)NC1CCCCC1)CCCC2)c1ccc(-c2c3nc(c(-c4ccccc4)c4ccc([nH]4)c(-c4ccccc4)c4nc(c(-c5ccccc5)c5ccc2[nH]5)C=C4)C=C3)cc1
REMARK SMILES IDX 7 1 6 2 5 3 4 4 3 5 2 6 1 7 40 8 41 9 87 10 42 11 86 12
REMARK SMILES IDX 43 13 44 14 45 15 80 16 46 17 85 18 79 19 81 20 47 21 84 22
REMARK SMILES IDX 78 23 77 24 48 26 70 27 55 28 69 29 56 30 59 31 68 32 82 33
REMARK SMILES IDX 57 34 58 35 67 37 83 38 60 39 49 40 50 41 54 42 51 43 53 44
REMARK SMILES IDX 52 45 71 46 72 47 76 48 73 49 75 50 74 51 61 52 62 53 66 54
REMARK SMILES IDX 63 55 65 56 64 57 8 58 9 59 10 60 11 61 12 62 13 63 18 64
REMARK SMILES IDX 14 65 17 66 16 67 15 68 19 69 20 70 21 71 22 73 23 74 26 75
REMARK SMILES IDX 24 76 25 77 39 78 36 79 38 80 37 81 27 82 28 83 29 84 30 86
REMARK SMILES IDX 31 87 35 88 32 89 34 90 33 91
REMARK H PARENT 81 25 59 36 21 72 29 85
REMARK Flexibility Score: inf
ROOT
ATOM      1  C   UNL A   1      36.346  21.719  24.752  1.00  0.00     0.202 C 
ENDROOT
BRANCH   1   2
ATOM      2  O   UNL A   1      37.315  20.709  24.547  1.00  0.00    -0.374 OA
BRANCH   2   3
ATOM      3  C   UNL A   1      38.397  20.668  25.459  1.00  0.00     0.202 C 
BRANCH   3   4
ATOM      4  C   UNL A   1      38.997  19.296  25.768  1.00  0.00     0.261 C 
BRANCH   4   5
ATOM      5  O   UNL A   1      40.365  19.207  25.331  1.00  0.00    -0.460 OA
BRANCH   5   6
ATOM      6  C   UNL A   1      41.448  19.390  26.135  1.00  0.00     0.338 C 
ATOM      7  O   UNL A   1      42.196  18.461  26.413  1.00  0.00    -0.246 OA
BRANCH   6   8
ATOM      8  C   UNL A   1      41.764  20.755  26.621  1.00  0.00     0.060 A 
ATOM      9  C   UNL A   1      41.769  21.829  25.749  1.00  0.00     0.016 A 
ATOM     10  C   UNL A   1      42.051  20.996  27.963  1.00  0.00     0.016 A 
ATOM     11  C   UNL A   1      42.324  23.034  26.081  1.00  0.00     0.010 A 
ATOM     12  C   UNL A   1      42.372  22.297  28.371  1.00  0.00     0.010 A 
ATOM     13  C   UNL A   1      42.532  23.319  27.418  1.00  0.00    -0.014 A 
BRANCH  13  14
ATOM     14  C   UNL A   1      42.898  24.709  27.739  1.00  0.00     0.031 A 
ATOM     15  C   UNL A   1      44.323  25.127  27.604  1.00  0.00     0.074 A 
ATOM     16  C   UNL A   1      41.919  25.599  28.012  1.00  0.00     0.049 A 
ATOM     17  N   UNL A   1      44.883  26.250  27.957  1.00  0.00    -0.248 NA
ATOM     18  C   UNL A   1      45.247  24.152  26.997  1.00  0.00     0.031 C 
ATOM     19  C   UNL A   1      40.475  25.305  28.035  1.00  0.00     0.029 A 
ATOM     20  N   UNL A   1      41.971  26.944  28.263  1.00  0.00    -0.354 N 
ATOM     21  C   UNL A   1      46.232  26.095  27.676  1.00  0.00     0.074 A 
ATOM     22  C   UNL A   1      46.410  24.772  27.120  1.00  0.00     0.031 C 
ATOM     23  C   UNL A   1      39.789  26.443  28.202  1.00  0.00     0.029 A 
ATOM     24  C   UNL A   1      40.735  27.515  28.449  1.00  0.00     0.049 A 
ATOM     25  H   UNL A   1      42.814  27.451  28.307  1.00  0.00     0.167 HD
ATOM     26  C   UNL A   1      47.227  26.985  27.886  1.00  0.00     0.031 A 
ATOM     27  C   UNL A   1      40.405  28.757  28.845  1.00  0.00     0.031 A 
ATOM     28  C   UNL A   1      46.999  28.291  28.439  1.00  0.00     0.049 A 
ATOM     29  C   UNL A   1      41.535  29.691  29.156  1.00  0.00     0.074 A 
ATOM     30  C   UNL A   1      47.919  29.257  28.798  1.00  0.00     0.029 A 
ATOM     31  N   UNL A   1      45.737  28.817  28.697  1.00  0.00    -0.354 N 
ATOM     32  N   UNL A   1      42.826  29.497  29.017  1.00  0.00    -0.248 NA
ATOM     33  C   UNL A   1      41.172  31.001  29.706  1.00  0.00     0.031 C 
ATOM     34  C   UNL A   1      47.213  30.355  29.305  1.00  0.00     0.029 A 
ATOM     35  C   UNL A   1      45.852  30.094  29.211  1.00  0.00     0.049 A 
ATOM     36  H   UNL A   1      44.887  28.347  28.536  1.00  0.00     0.167 HD
ATOM     37  C   UNL A   1      43.434  30.661  29.458  1.00  0.00     0.074 A 
ATOM     38  C   UNL A   1      42.363  31.568  29.833  1.00  0.00     0.031 C 
ATOM     39  C   UNL A   1      44.752  30.955  29.563  1.00  0.00     0.031 A 
BRANCH  26  40
ATOM     40  C   UNL A   1      48.622  26.520  27.594  1.00  0.00    -0.014 A 
ATOM     41  C   UNL A   1      49.206  26.692  26.328  1.00  0.00     0.009 A 
ATOM     42  C   UNL A   1      49.348  25.847  28.590  1.00  0.00     0.009 A 
ATOM     43  C   UNL A   1      50.469  26.161  26.055  1.00  0.00     0.001 A 
ATOM     44  C   UNL A   1      50.621  25.341  28.321  1.00  0.00     0.001 A 
ATOM     45  C   UNL A   1      51.175  25.488  27.051  1.00  0.00     0.000 A 
ENDBRANCH  26  40
BRANCH  27  46
ATOM     46  C   UNL A   1      38.983  29.135  29.076  1.00  0.00    -0.014 A 
ATOM     47  C   UNL A   1      38.375  28.945  30.325  1.00  0.00     0.009 A 
ATOM     48  C   UNL A   1      38.213  29.678  28.032  1.00  0.00     0.009 A 
ATOM     49  C   UNL A   1      37.025  29.261  30.513  1.00  0.00     0.001 A 
ATOM     50  C   UNL A   1      36.876  30.030  28.232  1.00  0.00     0.001 A 
ATOM     51  C   UNL A   1      36.279  29.807  29.469  1.00  0.00     0.000 A 
ENDBRANCH  27  46
BRANCH  39  52
ATOM     52  C   UNL A   1      45.083  32.327  30.066  1.00  0.00    -0.014 A 
ATOM     53  C   UNL A   1      45.283  32.572  31.432  1.00  0.00     0.009 A 
ATOM     54  C   UNL A   1      45.214  33.381  29.148  1.00  0.00     0.009 A 
ATOM     55  C   UNL A   1      45.573  33.862  31.875  1.00  0.00     0.001 A 
ATOM     56  C   UNL A   1      45.535  34.661  29.592  1.00  0.00     0.001 A 
ATOM     57  C   UNL A   1      45.704  34.902  30.956  1.00  0.00     0.000 A 
ENDBRANCH  39  52
ENDBRANCH  13  14
ENDBRANCH   6   8
ENDBRANCH   5   6
ENDBRANCH   4   5
ENDBRANCH   3   4
ENDBRANCH   2   3
ENDBRANCH   1   2
BRANCH   1  58
ATOM     58  C   UNL A   1      34.959  21.097  24.626  1.00  0.00     0.261 C 
BRANCH  58  59
ATOM     59  O   UNL A   1      34.092  22.013  23.931  1.00  0.00    -0.463 OA
BRANCH  59  60
ATOM     60  C   UNL A   1      32.774  21.694  23.856  1.00  0.00     0.310 C 
ATOM     61  O   UNL A   1      32.315  20.632  23.449  1.00  0.00    -0.252 OA
BRANCH  60  62
ATOM     62  C   UNL A   1      31.913  22.861  24.276  1.00  0.00     0.115 C 
ATOM     63  C   UNL A   1      31.409  22.848  25.760  1.00  0.00     0.004 C 
ATOM     64  C   UNL A   1      32.517  24.276  24.128  1.00  0.00     0.096 C 
ATOM     65  C   UNL A   1      32.359  23.232  26.908  1.00  0.00     0.005 C 
ATOM     66  C   UNL A   1      30.675  24.176  25.722  1.00  0.00     0.009 C 
ATOM     67  C   UNL A   1      31.934  24.995  25.361  1.00  0.00     0.003 C 
ATOM     68  C   UNL A   1      32.822  24.652  26.572  1.00  0.00     0.005 C 
BRANCH  64  69
ATOM     69  C   UNL A   1      32.387  24.892  22.718  1.00  0.00     0.229 C 
ATOM     70  O   UNL A   1      32.419  24.120  21.748  1.00  0.00    -0.274 OA
ATOM     71  N   UNL A   1      32.075  26.190  22.454  1.00  0.00    -0.317 N 
ATOM     72  H   UNL A   1      31.747  26.371  21.543  1.00  0.00     0.170 HD
BRANCH  71  73
ATOM     73  C   UNL A   1      32.156  27.282  23.281  1.00  0.00     0.108 A 
ATOM     74  S   UNL A   1      33.692  27.986  23.459  1.00  0.00    -0.122 S 
ATOM     75  C   UNL A   1      31.128  28.072  23.808  1.00  0.00     0.078 A 
ATOM     76  C   UNL A   1      33.130  28.820  24.817  1.00  0.00     0.011 A 
ATOM     77  C   UNL A   1      31.751  28.999  24.771  1.00  0.00    -0.019 A 
ATOM     78  C   UNL A   1      34.054  29.266  25.913  1.00  0.00     0.047 C 
ATOM     79  C   UNL A   1      31.147  29.964  25.748  1.00  0.00     0.037 C 
ATOM     80  C   UNL A   1      33.228  29.703  27.129  1.00  0.00     0.006 C 
ATOM     81  C   UNL A   1      32.155  30.681  26.659  1.00  0.00     0.005 C 
BRANCH  75  82
ATOM     82  C   UNL A   1      29.746  27.749  23.365  1.00  0.00     0.254 C 
ATOM     83  O   UNL A   1      29.304  26.603  23.531  1.00  0.00    -0.269 OA
ATOM     84  N   UNL A   1      28.833  28.618  22.825  1.00  0.00    -0.349 N 
ATOM     85  H   UNL A   1      27.955  28.207  22.650  1.00  0.00     0.164 HD
BRANCH  84  86
ATOM     86  C   UNL A   1      28.900  30.009  22.462  1.00  0.00     0.082 C 
ATOM     87  C   UNL A   1      28.042  30.364  21.248  1.00  0.00     0.025 C 
ATOM     88  C   UNL A   1      28.560  30.941  23.629  1.00  0.00     0.025 C 
ATOM     89  C   UNL A   1      28.401  31.785  20.807  1.00  0.00     0.002 C 
ATOM     90  C   UNL A   1      28.778  32.411  23.258  1.00  0.00     0.002 C 
ATOM     91  C   UNL A   1      28.152  32.801  21.920  1.00  0.00     0.000 C 
ENDBRANCH  84  86
ENDBRANCH  75  82
ENDBRANCH  71  73
ENDBRANCH  64  69
ENDBRANCH  60  62
ENDBRANCH  59  60
ENDBRANCH  58  59
ENDBRANCH   1  58
TORSDOF 18
ENDMDL
MODEL 2
REMARK VINA RESULT:     -11.5      1.395      1.968
REMARK SMILES O=C(OCCOCCOC(=O)[C@H]1[C@H]2CC[C@H](C2)[C@@H]1C(=O)Nc1sc2c(c1C(=O)NC1CCCCC1)CCCC2)c1ccc(-c2c3nc(c(-c4ccccc4)c4ccc([nH]4)c(-c4ccccc4)c4nc(c(-c5ccccc5)c5ccc2[nH]5)C=C4)C=C3)cc1
REMARK SMILES IDX 7 1 6 2 5 3 4 4 3 5 2 6 1 7 40 8 41 9 87 10 42 11 86 12
REMARK SMILES IDX 43 13 44 14 45 15 80 16 46 17 85 18 79 19 81 20 47 21 84 22
REMARK SMILES IDX 78 23 77 24 48 26 70 27 55 28 69 29 56 30 59 31 68 32 82 33
REMARK SMILES IDX 57 34 58 35 67 37 83 38 60 39 49 40 50 41 54 42 51 43 53 44
REMARK SMILES IDX 52 45 71 46 72 47 76 48 73 49 75 50 74 51 61 52 62 53 66 54
REMARK SMILES IDX 63 55 65 56 64 57 8 58 9 59 10 60 11 61 12 62 13 63 18 64
REMARK SMILES IDX 14 65 17 66 16 67 15 68 19 69 20 70 21 71 22 73 23 74 26 75
REMARK SMILES IDX 24 76 25 77 39 78 36 79 38 80 37 81 27 82 28 83 29 84 30 86
REMARK SMILES IDX 31 87 35 88 32 89 34 90 33 91
REMARK H PARENT 81 25 59 36 21 72 29 85
REMARK Flexibility Score: inf
ROOT
ATOM      1  C   UNL A   1      37.347  22.687  25.013  1.00  0.00     0.202 C 
ENDROOT
BRANCH   1   2
ATOM      2  O   UNL A   1      37.773  21.339  24.956  1.00  0.00    -0.374 OA
BRANCH   2   3
ATOM      3  C   UNL A   1      38.901  20.993  25.738  1.00  0.00     0.202 C 
BRANCH   3   4
ATOM      4  C   UNL A   1      39.319  19.523  25.747  1.00  0.00     0.261 C 
BRANCH   4   5
ATOM      5  O   UNL A   1      40.717  19.368  25.441  1.00  0.00    -0.460 OA
BRANCH   5   6
ATOM      6  C   UNL A   1      41.730  19.574  26.325  1.00  0.00     0.338 C 
ATOM      7  O   UNL A   1      42.388  18.639  26.765  1.00  0.00    -0.246 OA
BRANCH   6   8
ATOM      8  C   UNL A   1      42.087  20.962  26.704  1.00  0.00     0.060 A 
ATOM      9  C   UNL A   1      42.121  21.341  28.035  1.00  0.00     0.016 A 
ATOM     10  C   UNL A   1      42.408  21.915  25.741  1.00  0.00     0.016 A 
ATOM     11  C   UNL A   1      42.161  22.654  28.418  1.00  0.00     0.010 A 
ATOM     12  C   UNL A   1      42.710  23.221  26.145  1.00  0.00     0.010 A 
ATOM     13  C   UNL A   1      42.564  23.598  27.491  1.00  0.00    -0.014 A 
BRANCH  13  14
ATOM     14  C   UNL A   1      42.825  24.952  28.013  1.00  0.00     0.031 A 
ATOM     15  C   UNL A   1      44.236  25.377  28.235  1.00  0.00     0.074 A 
ATOM     16  C   UNL A   1      41.792  25.813  28.144  1.00  0.00     0.049 A 
ATOM     17  N   UNL A   1      44.683  26.461  28.806  1.00  0.00    -0.248 NA
ATOM     18  C   UNL A   1      45.289  24.463  27.759  1.00  0.00     0.031 C 
ATOM     19  C   UNL A   1      40.384  25.522  27.821  1.00  0.00     0.029 A 
ATOM     20  N   UNL A   1      41.763  27.128  28.525  1.00  0.00    -0.354 N 
ATOM     21  C   UNL A   1      46.063  26.330  28.816  1.00  0.00     0.074 A 
ATOM     22  C   UNL A   1      46.384  25.066  28.193  1.00  0.00     0.031 C 
ATOM     23  C   UNL A   1      39.657  26.640  27.937  1.00  0.00     0.029 A 
ATOM     24  C   UNL A   1      40.505  27.682  28.485  1.00  0.00     0.049 A 
ATOM     25  H   UNL A   1      42.565  27.627  28.800  1.00  0.00     0.167 HD
ATOM     26  C   UNL A   1      46.971  27.194  29.323  1.00  0.00     0.031 A 
ATOM     27  C   UNL A   1      40.073  28.881  28.912  1.00  0.00     0.031 A 
ATOM     28  C   UNL A   1      46.602  28.443  29.930  1.00  0.00     0.049 A 
ATOM     29  C   UNL A   1      41.088  29.780  29.550  1.00  0.00     0.074 A 
ATOM     30  C   UNL A   1      47.402  29.369  30.571  1.00  0.00     0.029 A 
ATOM     31  N   UNL A   1      45.305  28.944  29.950  1.00  0.00    -0.354 N 
ATOM     32  N   UNL A   1      42.382  29.597  29.682  1.00  0.00    -0.248 NA
ATOM     33  C   UNL A   1      40.588  31.032  30.125  1.00  0.00     0.031 C 
ATOM     34  C   UNL A   1      46.581  30.415  31.010  1.00  0.00     0.029 A 
ATOM     35  C   UNL A   1      45.280  30.167  30.593  1.00  0.00     0.049 A 
ATOM     36  H   UNL A   1      44.519  28.494  29.563  1.00  0.00     0.167 HD
ATOM     37  C   UNL A   1      42.855  30.712  30.352  1.00  0.00     0.074 A 
ATOM     38  C   UNL A   1      41.711  31.582  30.564  1.00  0.00     0.031 C 
ATOM     39  C   UNL A   1      44.113  30.993  30.773  1.00  0.00     0.031 A 
BRANCH  26  40
ATOM     40  C   UNL A   1      48.405  26.757  29.304  1.00  0.00    -0.014 A 
ATOM     41  C   UNL A   1      49.263  27.091  28.243  1.00  0.00     0.009 A 
ATOM     42  C   UNL A   1      48.892  25.947  30.342  1.00  0.00     0.009 A 
ATOM     43  C   UNL A   1      50.565  26.586  28.203  1.00  0.00     0.001 A 
ATOM     44  C   UNL A   1      50.203  25.467  30.312  1.00  0.00     0.001 A 
ATOM     45  C   UNL A   1      51.034  25.777  29.237  1.00  0.00     0.000 A 
ENDBRANCH  26  40
BRANCH  27  46
ATOM     46  C   UNL A   1      38.628  29.238  28.857  1.00  0.00    -0.014 A 
ATOM     47  C   UNL A   1      37.794  29.068  29.972  1.00  0.00     0.009 A 
ATOM     48  C   UNL A   1      38.064  29.742  27.670  1.00  0.00     0.009 A 
ATOM     49  C   UNL A   1      36.430  29.363  29.891  1.00  0.00     0.001 A 
ATOM     50  C   UNL A   1      36.709  30.074  27.603  1.00  0.00     0.001 A 
ATOM     51  C   UNL A   1      35.889  29.870  28.709  1.00  0.00     0.000 A 
ENDBRANCH  27  46
BRANCH  39  52
ATOM     52  C   UNL A   1      44.298  32.310  31.461  1.00  0.00    -0.014 A 
ATOM     53  C   UNL A   1      44.673  33.457  30.747  1.00  0.00     0.009 A 
ATOM     54  C   UNL A   1      44.074  32.400  32.844  1.00  0.00     0.009 A 
ATOM     55  C   UNL A   1      44.856  34.668  31.415  1.00  0.00     0.001 A 
ATOM     56  C   UNL A   1      44.226  33.618  33.501  1.00  0.00     0.001 A 
ATOM     57  C   UNL A   1      44.627  34.748  32.788  1.00  0.00     0.000 A 
ENDBRANCH  39  52
ENDBRANCH  13  14
ENDBRANCH   6   8
ENDBRANCH   5   6
ENDBRANCH   4   5
ENDBRANCH   3   4
ENDBRANCH   2   3
ENDBRANCH   1   2
BRANCH   1  58
ATOM     58  C   UNL A   1      36.627  23.026  23.712  1.00  0.00     0.261 C 
BRANCH  58  59
ATOM     59  O   UNL A   1      35.272  23.412  24.008  1.00  0.00    -0.463 OA
BRANCH  59  60
ATOM     60  C   UNL A   1      34.312  23.067  23.111  1.00  0.00     0.310 C 
ATOM     61  O   UNL A   1      34.272  23.413  21.935  1.00  0.00    -0.252 OA
BRANCH  60  62
ATOM     62  C   UNL A   1      33.230  22.246  23.770  1.00  0.00     0.115 C 
ATOM     63  C   UNL A   1      33.717  21.076  24.692  1.00  0.00     0.004 C 
ATOM     64  C   UNL A   1      32.218  22.995  24.665  1.00  0.00     0.096 C 
ATOM     65  C   UNL A   1      34.250  21.371  26.106  1.00  0.00     0.005 C 
ATOM     66  C   UNL A   1      32.346  20.608  25.144  1.00  0.00     0.009 C 
ATOM     67  C   UNL A   1      31.963  21.962  25.781  1.00  0.00     0.003 C 
ATOM     68  C   UNL A   1      33.099  22.093  26.814  1.00  0.00     0.005 C 
BRANCH  64  69
ATOM     69  C   UNL A   1      31.041  23.647  23.907  1.00  0.00     0.229 C 
ATOM     70  O   UNL A   1      30.333  22.913  23.201  1.00  0.00    -0.274 OA
ATOM     71  N   UNL A   1      30.612  24.928  24.076  1.00  0.00    -0.317 N 
ATOM     72  H   UNL A   1      29.700  25.115  23.756  1.00  0.00     0.170 HD
BRANCH  71  73
ATOM     73  C   UNL A   1      31.276  25.994  24.629  1.00  0.00     0.108 A 
ATOM     74  S   UNL A   1      31.747  25.832  26.254  1.00  0.00    -0.122 S 
ATOM     75  C   UNL A   1      31.857  27.100  23.999  1.00  0.00     0.078 A 
ATOM     76  C   UNL A   1      32.006  27.501  26.324  1.00  0.00     0.011 A 
ATOM     77  C   UNL A   1      32.280  28.027  25.065  1.00  0.00    -0.019 A 
ATOM     78  C   UNL A   1      31.916  28.264  27.614  1.00  0.00     0.047 C 
ATOM     79  C   UNL A   1      32.813  29.428  25.005  1.00  0.00     0.037 C 
ATOM     80  C   UNL A   1      31.885  29.768  27.314  1.00  0.00     0.006 C 
ATOM     81  C   UNL A   1      33.039  30.096  26.369  1.00  0.00     0.005 C 
BRANCH  75  82
ATOM     82  C   UNL A   1      31.830  27.110  22.513  1.00  0.00     0.254 C 
ATOM     83  O   UNL A   1      32.651  26.431  21.883  1.00  0.00    -0.269 OA
ATOM     84  N   UNL A   1      30.927  27.762  21.713  1.00  0.00    -0.349 N 
ATOM     85  H   UNL A   1      31.059  27.594  20.751  1.00  0.00     0.164 HD
BRANCH  84  86
ATOM     86  C   UNL A   1      29.826  28.645  21.996  1.00  0.00     0.082 C 
ATOM     87  C   UNL A   1      28.877  28.110  23.069  1.00  0.00     0.025 C 
ATOM     88  C   UNL A   1      30.281  30.059  22.365  1.00  0.00     0.025 C 
ATOM     89  C   UNL A   1      27.628  28.993  23.087  1.00  0.00     0.002 C 
ATOM     90  C   UNL A   1      29.093  31.013  22.520  1.00  0.00     0.002 C 
ATOM     91  C   UNL A   1      27.971  30.450  23.394  1.00  0.00     0.000 C 
ENDBRANCH  84  86
ENDBRANCH  75  82
ENDBRANCH  71  73
ENDBRANCH  64  69
ENDBRANCH  60  62
ENDBRANCH  59  60
ENDBRANCH  58  59
ENDBRANCH   1  58
TORSDOF 18
ENDMDL
MODEL 3
REMARK VINA RESULT:     -11.2      1.365      5.816
REMARK SMILES O=C(OCCOCCOC(=O)[C@H]1[C@H]2CC[C@H](C2)[C@@H]1C(=O)Nc1sc2c(c1C(=O)NC1CCCCC1)CCCC2)c1ccc(-c2c3nc(c(-c4ccccc4)c4ccc([nH]4)c(-c4ccccc4)c4nc(c(-c5ccccc5)c5ccc2[nH]5)C=C4)C=C3)cc1
REMARK SMILES IDX 7 1 6 2 5 3 4 4 3 5 2 6 1 7 40 8 41 9 87 10 42 11 86 12
REMARK SMILES IDX 43 13 44 14 45 15 80 16 46 17 85 18 79 19 81 20 47 21 84 22
REMARK SMILES IDX 78 23 77 24 48 26 70 27 55 28 69 29 56 30 59 31 68 32 82 33
REMARK SMILES IDX 57 34 58 35 67 37 83 38 60 39 49 40 50 41 54 42 51 43 53 44
REMARK SMILES IDX 52 45 71 46 72 47 76 48 73 49 75 50 74 51 61 52 62 53 66 54
REMARK SMILES IDX 63 55 65 56 64 57 8 58 9 59 10 60 11 61 12 62 13 63 18 64
REMARK SMILES IDX 14 65 17 66 16 67 15 68 19 69 20 70 21 71 22 73 23 74 26 75
REMARK SMILES IDX 24 76 25 77 39 78 36 79 38 80 37 81 27 82 28 83 29 84 30 86
REMARK SMILES IDX 31 87 35 88 32 89 34 90 33 91
REMARK H PARENT 81 25 59 36 21 72 29 85
REMARK Flexibility Score: inf
ROOT
ATOM      1  C   UNL A   1      37.310  22.697  25.022  1.00  0.00     0.202 C 
ENDROOT
BRANCH   1   2
ATOM      2  O   UNL A   1      37.715  21.343  24.954  1.00  0.00    -0.374 OA
BRANCH   2   3
ATOM      3  C   UNL A   1      38.867  20.984  25.693  1.00  0.00     0.202 C 
BRANCH   3   4
ATOM      4  C   UNL A   1      39.277  19.512  25.675  1.00  0.00     0.261 C 
BRANCH   4   5
ATOM      5  O   UNL A   1      40.636  19.347  25.232  1.00  0.00    -0.460 OA
BRANCH   5   6
ATOM      6  C   UNL A   1      41.730  19.456  26.034  1.00  0.00     0.338 C 
ATOM      7  O   UNL A   1      42.402  18.475  26.327  1.00  0.00    -0.246 OA
BRANCH   6   8
ATOM      8  C   UNL A   1      42.153  20.799  26.501  1.00  0.00     0.060 A 
ATOM      9  C   UNL A   1      42.303  21.840  25.602  1.00  0.00     0.016 A 
ATOM     10  C   UNL A   1      42.397  21.052  27.848  1.00  0.00     0.016 A 
ATOM     11  C   UNL A   1      42.956  22.996  25.930  1.00  0.00     0.010 A 
ATOM     12  C   UNL A   1      42.822  22.328  28.238  1.00  0.00     0.010 A 
ATOM     13  C   UNL A   1      43.126  23.301  27.269  1.00  0.00    -0.014 A 
BRANCH  13  14
ATOM     14  C   UNL A   1      43.609  24.659  27.572  1.00  0.00     0.031 A 
ATOM     15  C   UNL A   1      42.652  25.655  28.132  1.00  0.00     0.074 A 
ATOM     16  C   UNL A   1      44.930  24.923  27.463  1.00  0.00     0.049 A 
ATOM     17  N   UNL A   1      42.830  26.930  28.344  1.00  0.00    -0.248 NA
ATOM     18  C   UNL A   1      41.315  25.158  28.501  1.00  0.00     0.031 C 
ATOM     19  C   UNL A   1      45.966  23.962  27.046  1.00  0.00     0.029 A 
ATOM     20  N   UNL A   1      45.646  26.055  27.749  1.00  0.00    -0.354 N 
ATOM     21  C   UNL A   1      41.610  27.399  28.808  1.00  0.00     0.074 A 
ATOM     22  C   UNL A   1      40.701  26.277  28.851  1.00  0.00     0.031 C 
ATOM     23  C   UNL A   1      47.176  24.519  27.184  1.00  0.00     0.029 A 
ATOM     24  C   UNL A   1      46.999  25.912  27.550  1.00  0.00     0.049 A 
ATOM     25  H   UNL A   1      45.231  26.889  28.066  1.00  0.00     0.167 HD
ATOM     26  C   UNL A   1      41.289  28.667  29.148  1.00  0.00     0.031 A 
ATOM     27  C   UNL A   1      47.981  26.829  27.591  1.00  0.00     0.031 A 
ATOM     28  C   UNL A   1      42.231  29.751  29.091  1.00  0.00     0.049 A 
ATOM     29  C   UNL A   1      47.579  28.242  27.883  1.00  0.00     0.074 A 
ATOM     30  C   UNL A   1      42.022  31.098  29.310  1.00  0.00     0.029 A 
ATOM     31  N   UNL A   1      43.583  29.591  28.805  1.00  0.00    -0.354 N 
ATOM     32  N   UNL A   1      46.392  28.712  28.192  1.00  0.00    -0.248 NA
ATOM     33  C   UNL A   1      48.634  29.256  27.803  1.00  0.00     0.031 C 
ATOM     34  C   UNL A   1      43.242  31.758  29.122  1.00  0.00     0.029 A 
ATOM     35  C   UNL A   1      44.222  30.815  28.840  1.00  0.00     0.049 A 
ATOM     36  H   UNL A   1      44.020  28.731  28.606  1.00  0.00     0.167 HD
ATOM     37  C   UNL A   1      46.556  30.079  28.349  1.00  0.00     0.074 A 
ATOM     38  C   UNL A   1      47.967  30.351  28.137  1.00  0.00     0.031 C 
ATOM     39  C   UNL A   1      45.630  31.029  28.625  1.00  0.00     0.031 A 
BRANCH  26  40
ATOM     40  C   UNL A   1      39.859  28.928  29.515  1.00  0.00    -0.014 A 
ATOM     41  C   UNL A   1      39.414  28.846  30.845  1.00  0.00     0.009 A 
ATOM     42  C   UNL A   1      38.926  29.205  28.504  1.00  0.00     0.009 A 
ATOM     43  C   UNL A   1      38.057  28.995  31.146  1.00  0.00     0.001 A 
ATOM     44  C   UNL A   1      37.576  29.379  28.811  1.00  0.00     0.001 A 
ATOM     45  C   UNL A   1      37.140  29.263  30.129  1.00  0.00     0.000 A 
ENDBRANCH  26  40
BRANCH  27  46
ATOM     46  C   UNL A   1      49.383  26.464  27.242  1.00  0.00    -0.014 A 
ATOM     47  C   UNL A   1      49.809  26.414  25.906  1.00  0.00     0.009 A 
ATOM     48  C   UNL A   1      50.308  26.146  28.252  1.00  0.00     0.009 A 
ATOM     49  C   UNL A   1      51.115  26.024  25.592  1.00  0.00     0.001 A 
ATOM     50  C   UNL A   1      51.624  25.795  27.938  1.00  0.00     0.001 A 
ATOM     51  C   UNL A   1      52.022  25.720  26.607  1.00  0.00     0.000 A 
ENDBRANCH  27  46
BRANCH  39  52
ATOM     52  C   UNL A   1      46.143  32.431  28.749  1.00  0.00    -0.014 A 
ATOM     53  C   UNL A   1      46.562  32.946  29.984  1.00  0.00     0.009 A 
ATOM     54  C   UNL A   1      46.222  33.237  27.602  1.00  0.00     0.009 A 
ATOM     55  C   UNL A   1      47.018  34.261  30.075  1.00  0.00     0.001 A 
ATOM     56  C   UNL A   1      46.710  34.539  27.692  1.00  0.00     0.001 A 
ATOM     57  C   UNL A   1      47.097  35.052  28.930  1.00  0.00     0.000 A 
ENDBRANCH  39  52
ENDBRANCH  13  14
ENDBRANCH   6   8
ENDBRANCH   5   6
ENDBRANCH   4   5
ENDBRANCH   3   4
ENDBRANCH   2   3
ENDBRANCH   1   2
BRANCH   1  58
ATOM     58  C   UNL A   1      36.578  23.053  23.733  1.00  0.00     0.261 C 
BRANCH  58  59
ATOM     59  O   UNL A   1      35.220  23.417  24.045  1.00  0.00    -0.463 OA
BRANCH  59  60
ATOM     60  C   UNL A   1      34.263  23.112  23.130  1.00  0.00     0.310 C 
ATOM     61  O   UNL A   1      34.239  23.492  21.964  1.00  0.00    -0.252 OA
BRANCH  60  62
ATOM     62  C   UNL A   1      33.163  22.289  23.756  1.00  0.00     0.115 C 
ATOM     63  C   UNL A   1      33.624  21.114  24.685  1.00  0.00     0.004 C 
ATOM     64  C   UNL A   1      32.128  23.035  24.627  1.00  0.00     0.096 C 
ATOM     65  C   UNL A   1      34.119  21.402  26.115  1.00  0.00     0.005 C 
ATOM     66  C   UNL A   1      32.241  20.646  25.097  1.00  0.00     0.009 C 
ATOM     67  C   UNL A   1      31.843  21.997  25.731  1.00  0.00     0.003 C 
ATOM     68  C   UNL A   1      32.951  22.122  26.794  1.00  0.00     0.005 C 
BRANCH  64  69
ATOM     69  C   UNL A   1      30.973  23.692  23.840  1.00  0.00     0.229 C 
ATOM     70  O   UNL A   1      30.288  22.963  23.107  1.00  0.00    -0.274 OA
ATOM     71  N   UNL A   1      30.536  24.971  24.008  1.00  0.00    -0.317 N 
ATOM     72  H   UNL A   1      29.633  25.159  23.664  1.00  0.00     0.170 HD
BRANCH  71  73
ATOM     73  C   UNL A   1      31.180  26.032  24.592  1.00  0.00     0.108 A 
ATOM     74  S   UNL A   1      31.644  25.838  26.215  1.00  0.00    -0.122 S 
ATOM     75  C   UNL A   1      31.748  27.162  23.992  1.00  0.00     0.078 A 
ATOM     76  C   UNL A   1      31.878  27.508  26.327  1.00  0.00     0.011 A 
ATOM     77  C   UNL A   1      32.151  28.069  25.084  1.00  0.00    -0.019 A 
ATOM     78  C   UNL A   1      31.769  28.238  27.635  1.00  0.00     0.047 C 
ATOM     79  C   UNL A   1      32.663  29.479  25.060  1.00  0.00     0.037 C 
ATOM     80  C   UNL A   1      31.717  29.748  27.371  1.00  0.00     0.006 C 
ATOM     81  C   UNL A   1      32.871  30.117  26.442  1.00  0.00     0.005 C 
BRANCH  75  82
ATOM     82  C   UNL A   1      31.729  27.208  22.507  1.00  0.00     0.254 C 
ATOM     83  O   UNL A   1      32.555  26.545  21.865  1.00  0.00    -0.269 OA
ATOM     84  N   UNL A   1      30.830  27.879  21.718  1.00  0.00    -0.349 N 
ATOM     85  H   UNL A   1      30.967  27.733  20.753  1.00  0.00     0.164 HD
BRANCH  84  86
ATOM     86  C   UNL A   1      29.726  28.752  22.016  1.00  0.00     0.082 C 
ATOM     87  C   UNL A   1      28.766  28.186  23.062  1.00  0.00     0.025 C 
ATOM     88  C   UNL A   1      30.178  30.155  22.433  1.00  0.00     0.025 C 
ATOM     89  C   UNL A   1      27.516  29.069  23.094  1.00  0.00     0.002 C 
ATOM     90  C   UNL A   1      28.988  31.104  22.604  1.00  0.00     0.002 C 
ATOM     91  C   UNL A   1      27.857  30.515  23.448  1.00  0.00     0.000 C 
ENDBRANCH  84  86
ENDBRANCH  75  82
ENDBRANCH  71  73
ENDBRANCH  64  69
ENDBRANCH  60  62
ENDBRANCH  59  60
ENDBRANCH  58  59
ENDBRANCH   1  58
TORSDOF 18
ENDMDL
