MODEL 1
REMARK VINA RESULT:     -11.1      0.000      0.000
REMARK SMILES O=C(OCCOCCOC(=O)[C@@H]1[C@@H](C(=O)Nc2cccc(C(F)(F)F)c2)[C@@H]2C=C[C@H]1O2)c1ccc(-c2c3nc(c(-c4ccccc4)c4ccc([nH]4)c(-c4ccccc4)c4nc(c(-c5ccccc5)c5ccc2[nH]5)C=C4)C=C3)cc1
REMARK SMILES IDX 7 1 6 2 5 3 4 4 3 5 2 6 1 7 32 8 33 9 79 10 34 11 78 12
REMARK SMILES IDX 35 13 36 14 37 15 72 16 38 17 77 18 71 19 73 20 39 21 76 22
REMARK SMILES IDX 70 23 69 24 40 26 62 27 47 28 61 29 48 30 51 31 60 32 74 33
REMARK SMILES IDX 49 34 50 35 59 37 75 38 52 39 41 40 42 41 46 42 43 43 45 44
REMARK SMILES IDX 44 45 63 46 64 47 68 48 65 49 67 50 66 51 53 52 54 53 58 54
REMARK SMILES IDX 55 55 57 56 56 57 8 58 9 59 10 60 11 61 12 62 13 63 30 64
REMARK SMILES IDX 27 65 29 66 31 67 28 68 14 69 15 70 16 71 17 73 18 74 26 75
REMARK SMILES IDX 19 76 21 77 20 78 22 79 23 80 24 81 25 82
REMARK H PARENT 73 25 51 36 16 72
REMARK Flexibility Score: inf
ROOT
ATOM      1  C   UNL A   1      38.255  21.973  25.372  1.00  0.00     0.202 C 
ENDROOT
BRANCH   1   2
ATOM      2  O   UNL A   1      37.545  20.807  24.921  1.00  0.00    -0.374 OA
BRANCH   2   3
ATOM      3  C   UNL A   1      38.307  19.595  24.880  1.00  0.00     0.202 C 
BRANCH   3   4
ATOM      4  C   UNL A   1      39.266  19.349  26.051  1.00  0.00     0.261 C 
BRANCH   4   5
ATOM      5  O   UNL A   1      40.551  18.914  25.573  1.00  0.00    -0.460 OA
BRANCH   5   6
ATOM      6  C   UNL A   1      41.769  19.423  25.874  1.00  0.00     0.338 C 
ATOM      7  O   UNL A   1      42.764  18.718  25.719  1.00  0.00    -0.246 OA
BRANCH   6   8
ATOM      8  C   UNL A   1      41.967  20.818  26.361  1.00  0.00     0.060 A 
ATOM      9  C   UNL A   1      42.030  21.941  25.537  1.00  0.00     0.016 A 
ATOM     10  C   UNL A   1      42.028  21.013  27.750  1.00  0.00     0.016 A 
ATOM     11  C   UNL A   1      42.237  23.205  26.045  1.00  0.00     0.010 A 
ATOM     12  C   UNL A   1      42.192  22.294  28.282  1.00  0.00     0.010 A 
ATOM     13  C   UNL A   1      42.320  23.386  27.418  1.00  0.00    -0.014 A 
BRANCH  13  14
ATOM     14  C   UNL A   1      42.665  24.735  27.875  1.00  0.00     0.031 A 
ATOM     15  C   UNL A   1      44.103  25.140  27.841  1.00  0.00     0.074 A 
ATOM     16  C   UNL A   1      41.675  25.615  28.099  1.00  0.00     0.049 A 
ATOM     17  N   UNL A   1      44.644  26.277  28.176  1.00  0.00    -0.248 NA
ATOM     18  C   UNL A   1      45.057  24.138  27.333  1.00  0.00     0.031 C 
ATOM     19  C   UNL A   1      40.243  25.325  27.971  1.00  0.00     0.029 A 
ATOM     20  N   UNL A   1      41.720  26.941  28.423  1.00  0.00    -0.354 N 
ATOM     21  C   UNL A   1      46.006  26.115  27.958  1.00  0.00     0.074 A 
ATOM     22  C   UNL A   1      46.209  24.779  27.447  1.00  0.00     0.031 C 
ATOM     23  C   UNL A   1      39.548  26.454  28.179  1.00  0.00     0.029 A 
ATOM     24  C   UNL A   1      40.479  27.517  28.532  1.00  0.00     0.049 A 
ATOM     25  H   UNL A   1      42.560  27.435  28.563  1.00  0.00     0.167 HD
ATOM     26  C   UNL A   1      46.993  27.008  28.191  1.00  0.00     0.031 A 
ATOM     27  C   UNL A   1      40.145  28.762  28.916  1.00  0.00     0.031 A 
ATOM     28  C   UNL A   1      46.749  28.320  28.720  1.00  0.00     0.049 A 
ATOM     29  C   UNL A   1      41.264  29.695  29.285  1.00  0.00     0.074 A 
ATOM     30  C   UNL A   1      47.657  29.286  29.103  1.00  0.00     0.029 A 
ATOM     31  N   UNL A   1      45.480  28.844  28.937  1.00  0.00    -0.354 N 
ATOM     32  N   UNL A   1      42.559  29.505  29.187  1.00  0.00    -0.248 NA
ATOM     33  C   UNL A   1      40.881  30.998  29.838  1.00  0.00     0.031 C 
ATOM     34  C   UNL A   1      46.935  30.381  29.594  1.00  0.00     0.029 A 
ATOM     35  C   UNL A   1      45.579  30.115  29.467  1.00  0.00     0.049 A 
ATOM     36  H   UNL A   1      44.635  28.377  28.743  1.00  0.00     0.167 HD
ATOM     37  C   UNL A   1      43.150  30.665  29.665  1.00  0.00     0.074 A 
ATOM     38  C   UNL A   1      42.067  31.562  30.024  1.00  0.00     0.031 C 
ATOM     39  C   UNL A   1      44.466  30.964  29.808  1.00  0.00     0.031 A 
BRANCH  26  40
ATOM     40  C   UNL A   1      48.398  26.531  27.973  1.00  0.00    -0.014 A 
ATOM     41  C   UNL A   1      49.059  26.707  26.748  1.00  0.00     0.009 A 
ATOM     42  C   UNL A   1      49.050  25.831  29.002  1.00  0.00     0.009 A 
ATOM     43  C   UNL A   1      50.329  26.159  26.544  1.00  0.00     0.001 A 
ATOM     44  C   UNL A   1      50.327  25.305  28.803  1.00  0.00     0.001 A 
ATOM     45  C   UNL A   1      50.961  25.459  27.572  1.00  0.00     0.000 A 
ENDBRANCH  26  40
BRANCH  27  46
ATOM     46  C   UNL A   1      38.717  29.150  29.051  1.00  0.00    -0.014 A 
ATOM     47  C   UNL A   1      38.032  28.988  30.265  1.00  0.00     0.009 A 
ATOM     48  C   UNL A   1      38.025  29.693  27.955  1.00  0.00     0.009 A 
ATOM     49  C   UNL A   1      36.685  29.347  30.371  1.00  0.00     0.001 A 
ATOM     50  C   UNL A   1      36.688  30.080  28.072  1.00  0.00     0.001 A 
ATOM     51  C   UNL A   1      36.017  29.898  29.279  1.00  0.00     0.000 A 
ENDBRANCH  27  46
BRANCH  39  52
ATOM     52  C   UNL A   1      44.783  32.322  30.354  1.00  0.00    -0.014 A 
ATOM     53  C   UNL A   1      45.019  32.513  31.724  1.00  0.00     0.009 A 
ATOM     54  C   UNL A   1      44.895  33.410  29.476  1.00  0.00     0.009 A 
ATOM     55  C   UNL A   1      45.334  33.782  32.209  1.00  0.00     0.001 A 
ATOM     56  C   UNL A   1      45.235  34.672  29.961  1.00  0.00     0.001 A 
ATOM     57  C   UNL A   1      45.447  34.857  31.328  1.00  0.00     0.000 A 
ENDBRANCH  39  52
ENDBRANCH  13  14
ENDBRANCH   6   8
ENDBRANCH   5   6
ENDBRANCH   4   5
ENDBRANCH   3   4
ENDBRANCH   2   3
ENDBRANCH   1   2
BRANCH   1  58
ATOM     58  C   UNL A   1      37.268  23.058  25.789  1.00  0.00     0.261 C 
BRANCH  58  59
ATOM     59  O   UNL A   1      36.976  23.809  24.603  1.00  0.00    -0.463 OA
BRANCH  59  60
ATOM     60  C   UNL A   1      35.686  23.756  24.199  1.00  0.00     0.312 C 
ATOM     61  O   UNL A   1      35.293  23.270  23.144  1.00  0.00    -0.252 OA
BRANCH  60  62
ATOM     62  C   UNL A   1      34.740  24.240  25.257  1.00  0.00     0.147 C 
ATOM     63  C   UNL A   1      33.493  23.339  25.338  1.00  0.00     0.129 C 
ATOM     64  C   UNL A   1      34.104  25.627  25.081  1.00  0.00     0.157 C 
ATOM     65  C   UNL A   1      32.356  24.366  25.379  1.00  0.00     0.155 C 
ATOM     66  C   UNL A   1      33.287  25.766  23.837  1.00  0.00     0.004 C 
ATOM     67  O   UNL A   1      33.010  25.490  26.029  1.00  0.00    -0.365 OA
ATOM     68  C   UNL A   1      32.205  24.996  24.019  1.00  0.00     0.004 C 
BRANCH  63  69
ATOM     69  C   UNL A   1      33.472  22.254  26.412  1.00  0.00     0.231 C 
ATOM     70  O   UNL A   1      33.882  22.542  27.544  1.00  0.00    -0.274 OA
ATOM     71  N   UNL A   1      32.903  21.023  26.253  1.00  0.00    -0.326 N 
ATOM     72  H   UNL A   1      32.486  20.662  27.067  1.00  0.00     0.169 HD
BRANCH  71  73
ATOM     73  C   UNL A   1      32.806  20.185  25.137  1.00  0.00     0.041 A 
ATOM     74  C   UNL A   1      32.192  20.668  23.982  1.00  0.00     0.026 A 
ATOM     75  C   UNL A   1      33.266  18.872  25.165  1.00  0.00     0.039 A 
ATOM     76  C   UNL A   1      32.146  19.880  22.829  1.00  0.00     0.003 A 
ATOM     77  C   UNL A   1      33.247  18.073  24.014  1.00  0.00     0.058 A 
ATOM     78  C   UNL A   1      32.691  18.596  22.838  1.00  0.00     0.013 A 
BRANCH  77  79
ATOM     79  C   UNL A   1      33.856  16.693  24.031  1.00  0.00     0.416 C 
ATOM     80  F   UNL A   1      34.968  16.624  24.815  1.00  0.00    -0.166 F 
ATOM     81  F   UNL A   1      32.994  15.760  24.526  1.00  0.00    -0.166 F 
ATOM     82  F   UNL A   1      34.241  16.241  22.805  1.00  0.00    -0.166 F 
ENDBRANCH  77  79
ENDBRANCH  71  73
ENDBRANCH  63  69
ENDBRANCH  60  62
ENDBRANCH  59  60
ENDBRANCH  58  59
ENDBRANCH   1  58
TORSDOF 17
ENDMDL
MODEL 2
REMARK VINA RESULT:     -11.1      5.373      9.998
REMARK SMILES O=C(OCCOCCOC(=O)[C@@H]1[C@@H](C(=O)Nc2cccc(C(F)(F)F)c2)[C@@H]2C=C[C@H]1O2)c1ccc(-c2c3nc(c(-c4ccccc4)c4ccc([nH]4)c(-c4ccccc4)c4nc(c(-c5ccccc5)c5ccc2[nH]5)C=C4)C=C3)cc1
REMARK SMILES IDX 7 1 6 2 5 3 4 4 3 5 2 6 1 7 32 8 33 9 79 10 34 11 78 12
REMARK SMILES IDX 35 13 36 14 37 15 72 16 38 17 77 18 71 19 73 20 39 21 76 22
REMARK SMILES IDX 70 23 69 24 40 26 62 27 47 28 61 29 48 30 51 31 60 32 74 33
REMARK SMILES IDX 49 34 50 35 59 37 75 38 52 39 41 40 42 41 46 42 43 43 45 44
REMARK SMILES IDX 44 45 63 46 64 47 68 48 65 49 67 50 66 51 53 52 54 53 58 54
REMARK SMILES IDX 55 55 57 56 56 57 8 58 9 59 10 60 11 61 12 62 13 63 30 64
REMARK SMILES IDX 27 65 29 66 31 67 28 68 14 69 15 70 16 71 17 73 18 74 26 75
REMARK SMILES IDX 19 76 21 77 20 78 22 79 23 80 24 81 25 82
REMARK H PARENT 73 25 51 36 16 72
REMARK Flexibility Score: inf
ROOT
ATOM      1  C   UNL A   1      32.696  28.864  27.386  1.00  0.00     0.202 C 
ENDROOT
BRANCH   1   2
ATOM      2  O   UNL A   1      32.969  30.270  27.264  1.00  0.00    -0.374 OA
BRANCH   2   3
ATOM      3  C   UNL A   1      32.025  31.021  26.492  1.00  0.00     0.202 C 
BRANCH   3   4
ATOM      4  C   UNL A   1      31.424  32.261  27.165  1.00  0.00     0.261 C 
BRANCH   4   5
ATOM      5  O   UNL A   1      32.322  33.381  27.063  1.00  0.00    -0.460 OA
BRANCH   5   6
ATOM      6  C   UNL A   1      32.974  34.021  28.062  1.00  0.00     0.338 C 
ATOM      7  O   UNL A   1      32.478  35.039  28.539  1.00  0.00    -0.246 OA
BRANCH   6   8
ATOM      8  C   UNL A   1      34.259  33.532  28.635  1.00  0.00     0.060 A 
ATOM      9  C   UNL A   1      35.522  33.901  28.173  1.00  0.00     0.016 A 
ATOM     10  C   UNL A   1      34.186  32.694  29.759  1.00  0.00     0.016 A 
ATOM     11  C   UNL A   1      36.677  33.397  28.731  1.00  0.00     0.010 A 
ATOM     12  C   UNL A   1      35.349  32.211  30.365  1.00  0.00     0.010 A 
ATOM     13  C   UNL A   1      36.595  32.550  29.827  1.00  0.00    -0.014 A 
BRANCH  13  14
ATOM     14  C   UNL A   1      37.855  31.957  30.284  1.00  0.00     0.031 A 
ATOM     15  C   UNL A   1      38.494  32.527  31.508  1.00  0.00     0.074 A 
ATOM     16  C   UNL A   1      38.270  30.809  29.724  1.00  0.00     0.049 A 
ATOM     17  N   UNL A   1      39.591  32.162  32.108  1.00  0.00    -0.248 NA
ATOM     18  C   UNL A   1      37.784  33.642  32.163  1.00  0.00     0.031 C 
ATOM     19  C   UNL A   1      37.584  30.103  28.637  1.00  0.00     0.029 A 
ATOM     20  N   UNL A   1      39.331  30.004  30.028  1.00  0.00    -0.354 N 
ATOM     21  C   UNL A   1      39.727  33.026  33.187  1.00  0.00     0.074 A 
ATOM     22  C   UNL A   1      38.594  33.921  33.172  1.00  0.00     0.031 C 
ATOM     23  C   UNL A   1      38.224  28.950  28.391  1.00  0.00     0.029 A 
ATOM     24  C   UNL A   1      39.403  28.880  29.243  1.00  0.00     0.049 A 
ATOM     25  H   UNL A   1      39.980  30.210  30.739  1.00  0.00     0.167 HD
ATOM     26  C   UNL A   1      40.730  33.069  34.091  1.00  0.00     0.031 A 
ATOM     27  C   UNL A   1      40.350  27.925  29.203  1.00  0.00     0.031 A 
ATOM     28  C   UNL A   1      41.850  32.172  34.057  1.00  0.00     0.049 A 
ATOM     29  C   UNL A   1      41.515  28.067  30.141  1.00  0.00     0.074 A 
ATOM     30  C   UNL A   1      42.985  32.168  34.842  1.00  0.00     0.029 A 
ATOM     31  N   UNL A   1      41.962  31.106  33.172  1.00  0.00    -0.354 N 
ATOM     32  N   UNL A   1      41.702  28.952  31.092  1.00  0.00    -0.248 NA
ATOM     33  C   UNL A   1      42.607  27.101  29.987  1.00  0.00     0.031 C 
ATOM     34  C   UNL A   1      43.806  31.122  34.401  1.00  0.00     0.029 A 
ATOM     35  C   UNL A   1      43.157  30.446  33.378  1.00  0.00     0.049 A 
ATOM     36  H   UNL A   1      41.289  30.859  32.497  1.00  0.00     0.167 HD
ATOM     37  C   UNL A   1      42.934  28.652  31.653  1.00  0.00     0.074 A 
ATOM     38  C   UNL A   1      43.432  27.482  30.953  1.00  0.00     0.031 C 
ATOM     39  C   UNL A   1      43.603  29.286  32.649  1.00  0.00     0.031 A 
BRANCH  26  40
ATOM     40  C   UNL A   1      40.685  34.184  35.093  1.00  0.00    -0.014 A 
ATOM     41  C   UNL A   1      40.067  34.031  36.344  1.00  0.00     0.009 A 
ATOM     42  C   UNL A   1      41.220  35.436  34.748  1.00  0.00     0.009 A 
ATOM     43  C   UNL A   1      39.952  35.120  37.213  1.00  0.00     0.001 A 
ATOM     44  C   UNL A   1      41.124  36.515  35.627  1.00  0.00     0.001 A 
ATOM     45  C   UNL A   1      40.480  36.360  36.853  1.00  0.00     0.000 A 
ENDBRANCH  26  40
BRANCH  27  46
ATOM     46  C   UNL A   1      40.272  26.830  28.201  1.00  0.00    -0.014 A 
ATOM     47  C   UNL A   1      40.857  26.965  26.932  1.00  0.00     0.009 A 
ATOM     48  C   UNL A   1      39.608  25.632  28.512  1.00  0.00     0.009 A 
ATOM     49  C   UNL A   1      40.763  25.929  25.997  1.00  0.00     0.001 A 
ATOM     50  C   UNL A   1      39.543  24.587  27.587  1.00  0.00     0.001 A 
ATOM     51  C   UNL A   1      40.114  24.741  26.327  1.00  0.00     0.000 A 
ENDBRANCH  27  46
BRANCH  39  52
ATOM     52  C   UNL A   1      44.927  28.702  33.037  1.00  0.00    -0.014 A 
ATOM     53  C   UNL A   1      46.116  29.144  32.437  1.00  0.00     0.009 A 
ATOM     54  C   UNL A   1      44.984  27.733  34.050  1.00  0.00     0.009 A 
ATOM     55  C   UNL A   1      47.340  28.602  32.828  1.00  0.00     0.001 A 
ATOM     56  C   UNL A   1      46.211  27.212  34.456  1.00  0.00     0.001 A 
ATOM     57  C   UNL A   1      47.386  27.642  33.839  1.00  0.00     0.000 A 
ENDBRANCH  39  52
ENDBRANCH  13  14
ENDBRANCH   6   8
ENDBRANCH   5   6
ENDBRANCH   4   5
ENDBRANCH   3   4
ENDBRANCH   2   3
ENDBRANCH   1   2
BRANCH   1  58
ATOM     58  C   UNL A   1      33.689  28.064  26.549  1.00  0.00     0.261 C 
BRANCH  58  59
ATOM     59  O   UNL A   1      32.913  27.114  25.806  1.00  0.00    -0.463 OA
BRANCH  59  60
ATOM     60  C   UNL A   1      33.585  26.005  25.422  1.00  0.00     0.312 C 
ATOM     61  O   UNL A   1      33.818  25.035  26.135  1.00  0.00    -0.252 OA
BRANCH  60  62
ATOM     62  C   UNL A   1      33.912  26.019  23.959  1.00  0.00     0.147 C 
ATOM     63  C   UNL A   1      32.812  26.738  23.154  1.00  0.00     0.129 C 
ATOM     64  C   UNL A   1      33.999  24.674  23.223  1.00  0.00     0.157 C 
ATOM     65  C   UNL A   1      32.580  25.770  21.989  1.00  0.00     0.155 C 
ATOM     66  C   UNL A   1      32.733  23.880  23.258  1.00  0.00     0.004 C 
ATOM     67  O   UNL A   1      33.895  25.163  21.857  1.00  0.00    -0.365 OA
ATOM     68  C   UNL A   1      31.858  24.548  22.494  1.00  0.00     0.004 C 
BRANCH  63  69
ATOM     69  C   UNL A   1      33.044  28.202  22.789  1.00  0.00     0.231 C 
ATOM     70  O   UNL A   1      34.203  28.638  22.823  1.00  0.00    -0.274 OA
ATOM     71  N   UNL A   1      32.083  29.034  22.291  1.00  0.00    -0.326 N 
ATOM     72  H   UNL A   1      32.414  29.689  21.637  1.00  0.00     0.169 HD
BRANCH  71  73
ATOM     73  C   UNL A   1      30.710  29.120  22.546  1.00  0.00     0.041 A 
ATOM     74  C   UNL A   1      29.983  27.943  22.725  1.00  0.00     0.026 A 
ATOM     75  C   UNL A   1      30.046  30.342  22.580  1.00  0.00     0.039 A 
ATOM     76  C   UNL A   1      28.626  28.000  23.053  1.00  0.00     0.003 A 
ATOM     77  C   UNL A   1      28.691  30.421  22.927  1.00  0.00     0.058 A 
ATOM     78  C   UNL A   1      27.987  29.234  23.176  1.00  0.00     0.013 A 
BRANCH  77  79
ATOM     79  C   UNL A   1      28.015  31.762  23.076  1.00  0.00     0.416 C 
ATOM     80  F   UNL A   1      26.910  31.703  23.870  1.00  0.00    -0.166 F 
ATOM     81  F   UNL A   1      28.837  32.686  23.650  1.00  0.00    -0.166 F 
ATOM     82  F   UNL A   1      27.597  32.306  21.900  1.00  0.00    -0.166 F 
ENDBRANCH  77  79
ENDBRANCH  71  73
ENDBRANCH  63  69
ENDBRANCH  60  62
ENDBRANCH  59  60
ENDBRANCH  58  59
ENDBRANCH   1  58
TORSDOF 17
ENDMDL
MODEL 3
REMARK VINA RESULT:     -11.0      5.449      9.533
REMARK SMILES O=C(OCCOCCOC(=O)[C@@H]1[C@@H](C(=O)Nc2cccc(C(F)(F)F)c2)[C@@H]2C=C[C@H]1O2)c1ccc(-c2c3nc(c(-c4ccccc4)c4ccc([nH]4)c(-c4ccccc4)c4nc(c(-c5ccccc5)c5ccc2[nH]5)C=C4)C=C3)cc1
REMARK SMILES IDX 7 1 6 2 5 3 4 4 3 5 2 6 1 7 32 8 33 9 79 10 34 11 78 12
REMARK SMILES IDX 35 13 36 14 37 15 72 16 38 17 77 18 71 19 73 20 39 21 76 22
REMARK SMILES IDX 70 23 69 24 40 26 62 27 47 28 61 29 48 30 51 31 60 32 74 33
REMARK SMILES IDX 49 34 50 35 59 37 75 38 52 39 41 40 42 41 46 42 43 43 45 44
REMARK SMILES IDX 44 45 63 46 64 47 68 48 65 49 67 50 66 51 53 52 54 53 58 54
REMARK SMILES IDX 55 55 57 56 56 57 8 58 9 59 10 60 11 61 12 62 13 63 30 64
REMARK SMILES IDX 27 65 29 66 31 67 28 68 14 69 15 70 16 71 17 73 18 74 26 75
REMARK SMILES IDX 19 76 21 77 20 78 22 79 23 80 24 81 25 82
REMARK H PARENT 73 25 51 36 16 72
REMARK Flexibility Score: inf
ROOT
ATOM      1  C   UNL A   1      33.664  29.186  26.640  1.00  0.00     0.202 C 
ENDROOT
BRANCH   1   2
ATOM      2  O   UNL A   1      33.207  30.407  27.245  1.00  0.00    -0.374 OA
BRANCH   2   3
ATOM      3  C   UNL A   1      32.184  31.108  26.529  1.00  0.00     0.202 C 
BRANCH   3   4
ATOM      4  C   UNL A   1      31.498  32.262  27.272  1.00  0.00     0.261 C 
BRANCH   4   5
ATOM      5  O   UNL A   1      32.291  33.460  27.192  1.00  0.00    -0.460 OA
BRANCH   5   6
ATOM      6  C   UNL A   1      33.048  34.025  28.162  1.00  0.00     0.338 C 
ATOM      7  O   UNL A   1      32.688  35.093  28.652  1.00  0.00    -0.246 OA
BRANCH   6   8
ATOM      8  C   UNL A   1      34.293  33.396  28.688  1.00  0.00     0.060 A 
ATOM      9  C   UNL A   1      34.346  32.566  29.807  1.00  0.00     0.016 A 
ATOM     10  C   UNL A   1      35.477  33.605  27.964  1.00  0.00     0.016 A 
ATOM     11  C   UNL A   1      35.532  32.031  30.260  1.00  0.00     0.010 A 
ATOM     12  C   UNL A   1      36.679  33.032  28.384  1.00  0.00     0.010 A 
ATOM     13  C   UNL A   1      36.702  32.262  29.551  1.00  0.00    -0.014 A 
BRANCH  13  14
ATOM     14  C   UNL A   1      37.939  31.766  30.161  1.00  0.00     0.031 A 
ATOM     15  C   UNL A   1      38.561  30.536  29.584  1.00  0.00     0.074 A 
ATOM     16  C   UNL A   1      38.572  32.539  31.060  1.00  0.00     0.049 A 
ATOM     17  N   UNL A   1      39.654  29.924  29.941  1.00  0.00    -0.248 NA
ATOM     18  C   UNL A   1      37.873  29.931  28.429  1.00  0.00     0.031 C 
ATOM     19  C   UNL A   1      38.100  33.845  31.531  1.00  0.00     0.029 A 
ATOM     20  N   UNL A   1      39.772  32.369  31.691  1.00  0.00    -0.354 N 
ATOM     21  C   UNL A   1      39.766  28.839  29.082  1.00  0.00     0.074 A 
ATOM     22  C   UNL A   1      38.641  28.884  28.176  1.00  0.00     0.031 C 
ATOM     23  C   UNL A   1      39.022  34.374  32.351  1.00  0.00     0.029 A 
ATOM     24  C   UNL A   1      40.102  33.411  32.522  1.00  0.00     0.049 A 
ATOM     25  H   UNL A   1      40.342  31.578  31.562  1.00  0.00     0.167 HD
ATOM     26  C   UNL A   1      40.720  27.882  29.077  1.00  0.00     0.031 A 
ATOM     27  C   UNL A   1      41.149  33.540  33.355  1.00  0.00     0.031 A 
ATOM     28  C   UNL A   1      41.810  27.864  30.011  1.00  0.00     0.049 A 
ATOM     29  C   UNL A   1      42.130  32.403  33.415  1.00  0.00     0.074 A 
ATOM     30  C   UNL A   1      42.786  26.904  30.189  1.00  0.00     0.029 A 
ATOM     31  N   UNL A   1      42.061  28.876  30.930  1.00  0.00    -0.354 N 
ATOM     32  N   UNL A   1      42.175  31.317  32.679  1.00  0.00    -0.248 NA
ATOM     33  C   UNL A   1      43.184  32.494  34.430  1.00  0.00     0.031 C 
ATOM     34  C   UNL A   1      43.604  27.317  31.249  1.00  0.00     0.029 A 
ATOM     35  C   UNL A   1      43.166  28.557  31.693  1.00  0.00     0.049 A 
ATOM     36  H   UNL A   1      41.527  29.698  31.024  1.00  0.00     0.167 HD
ATOM     37  C   UNL A   1      43.263  30.592  33.140  1.00  0.00     0.074 A 
ATOM     38  C   UNL A   1      43.866  31.381  34.199  1.00  0.00     0.031 C 
ATOM     39  C   UNL A   1      43.722  29.380  32.737  1.00  0.00     0.031 A 
BRANCH  26  40
ATOM     40  C   UNL A   1      40.536  26.752  28.108  1.00  0.00    -0.014 A 
ATOM     41  C   UNL A   1      41.060  26.800  26.807  1.00  0.00     0.009 A 
ATOM     42  C   UNL A   1      39.765  25.643  28.490  1.00  0.00     0.009 A 
ATOM     43  C   UNL A   1      40.782  25.777  25.896  1.00  0.00     0.001 A 
ATOM     44  C   UNL A   1      39.508  24.612  27.585  1.00  0.00     0.001 A 
ATOM     45  C   UNL A   1      40.008  24.685  26.286  1.00  0.00     0.000 A 
ENDBRANCH  26  40
BRANCH  27  46
ATOM     46  C   UNL A   1      41.264  34.728  34.240  1.00  0.00    -0.014 A 
ATOM     47  C   UNL A   1      40.548  34.809  35.444  1.00  0.00     0.009 A 
ATOM     48  C   UNL A   1      42.101  35.799  33.882  1.00  0.00     0.009 A 
ATOM     49  C   UNL A   1      40.659  35.940  36.259  1.00  0.00     0.001 A 
ATOM     50  C   UNL A   1      42.233  36.914  34.712  1.00  0.00     0.001 A 
ATOM     51  C   UNL A   1      41.504  36.987  35.897  1.00  0.00     0.000 A 
ENDBRANCH  27  46
BRANCH  39  52
ATOM     52  C   UNL A   1      44.942  28.864  33.438  1.00  0.00    -0.014 A 
ATOM     53  C   UNL A   1      44.835  27.936  34.485  1.00  0.00     0.009 A 
ATOM     54  C   UNL A   1      46.211  29.278  33.009  1.00  0.00     0.009 A 
ATOM     55  C   UNL A   1      45.984  27.453  35.111  1.00  0.00     0.001 A 
ATOM     56  C   UNL A   1      47.358  28.773  33.620  1.00  0.00     0.001 A 
ATOM     57  C   UNL A   1      47.242  27.867  34.674  1.00  0.00     0.000 A 
ENDBRANCH  39  52
ENDBRANCH  13  14
ENDBRANCH   6   8
ENDBRANCH   5   6
ENDBRANCH   4   5
ENDBRANCH   3   4
ENDBRANCH   2   3
ENDBRANCH   1   2
BRANCH   1  58
ATOM     58  C   UNL A   1      32.726  28.039  27.002  1.00  0.00     0.261 C 
BRANCH  58  59
ATOM     59  O   UNL A   1      32.455  27.342  25.779  1.00  0.00    -0.463 OA
BRANCH  59  60
ATOM     60  C   UNL A   1      33.219  26.247  25.565  1.00  0.00     0.312 C 
ATOM     61  O   UNL A   1      33.369  25.322  26.355  1.00  0.00    -0.252 OA
BRANCH  60  62
ATOM     62  C   UNL A   1      33.776  26.208  24.173  1.00  0.00     0.147 C 
ATOM     63  C   UNL A   1      32.788  26.826  23.165  1.00  0.00     0.129 C 
ATOM     64  C   UNL A   1      34.043  24.836  23.538  1.00  0.00     0.157 C 
ATOM     65  C   UNL A   1      32.792  25.791  22.035  1.00  0.00     0.155 C 
ATOM     66  C   UNL A   1      32.827  23.976  23.417  1.00  0.00     0.004 C 
ATOM     67  O   UNL A   1      34.137  25.252  22.147  1.00  0.00    -0.365 OA
ATOM     68  C   UNL A   1      32.056  24.557  22.487  1.00  0.00     0.004 C 
BRANCH  63  69
ATOM     69  C   UNL A   1      33.008  28.281  22.760  1.00  0.00     0.231 C 
ATOM     70  O   UNL A   1      34.163  28.726  22.775  1.00  0.00    -0.274 OA
ATOM     71  N   UNL A   1      32.037  29.092  22.245  1.00  0.00    -0.326 N 
ATOM     72  H   UNL A   1      32.360  29.732  21.571  1.00  0.00     0.169 HD
BRANCH  71  73
ATOM     73  C   UNL A   1      30.666  29.176  22.506  1.00  0.00     0.041 A 
ATOM     74  C   UNL A   1      29.938  27.997  22.671  1.00  0.00     0.026 A 
ATOM     75  C   UNL A   1      30.002  30.398  22.559  1.00  0.00     0.039 A 
ATOM     76  C   UNL A   1      28.583  28.050  23.005  1.00  0.00     0.003 A 
ATOM     77  C   UNL A   1      28.648  30.473  22.912  1.00  0.00     0.058 A 
ATOM     78  C   UNL A   1      27.945  29.283  23.147  1.00  0.00     0.013 A 
BRANCH  77  79
ATOM     79  C   UNL A   1      27.974  31.812  23.081  1.00  0.00     0.416 C 
ATOM     80  F   UNL A   1      28.789  32.735  23.663  1.00  0.00    -0.166 F 
ATOM     81  F   UNL A   1      27.600  32.349  21.885  1.00  0.00    -0.166 F 
ATOM     82  F   UNL A   1      26.851  31.775  23.849  1.00  0.00    -0.166 F 
ENDBRANCH  77  79
ENDBRANCH  71  73
ENDBRANCH  63  69
ENDBRANCH  60  62
ENDBRANCH  59  60
ENDBRANCH  58  59
ENDBRANCH   1  58
TORSDOF 17
ENDMDL
