MODEL 1
REMARK VINA RESULT:      -9.9      0.000      0.000
REMARK SMILES CCn1cc(C[N@@H+]2CCC[C@H]2C(=O)OCCOCCOC(=O)c2ccc(-c3c4nc(c(-c5ccccc5)c5ccc([nH]5)c(-c5ccccc5)c5nc(c(-c6ccccc6)c6ccc3[nH]6)C=C5)C=C4)cc2)c(C)n1
REMARK SMILES IDX 16 1 15 2 14 3 12 4 13 5 11 6 7 7 8 8 9 10 10 11 6 12 5 13
REMARK SMILES IDX 3 14 4 15 73 16 71 17 72 18 2 19 1 20 17 21 18 22 19 23
REMARK SMILES IDX 20 24 21 25 22 26 23 27 24 28 70 29 25 30 69 31 26 32 27 33
REMARK SMILES IDX 28 34 63 35 29 36 68 37 62 38 64 39 30 40 67 41 61 42 60 43
REMARK SMILES IDX 31 45 53 46 38 47 52 48 39 49 42 50 51 51 65 52 40 53 41 54
REMARK SMILES IDX 50 56 66 57 43 58 32 59 33 60 37 61 34 62 36 63 35 64 54 65
REMARK SMILES IDX 55 66 59 67 56 68 58 69 57 70 44 71 45 72 49 73 46 74 48 75
REMARK SMILES IDX 47 76
REMARK H PARENT 7 9 64 44 42 55
REMARK Flexibility Score: inf
ROOT
ATOM      1  C   UNL A   1      33.071  28.466  25.356  1.00  0.00     0.202 C 
ENDROOT
BRANCH   1   2
ATOM      2  C   UNL A   1      33.717  27.909  24.084  1.00  0.00     0.261 C 
BRANCH   2   3
ATOM      3  O   UNL A   1      32.720  27.326  23.223  1.00  0.00    -0.459 OA
BRANCH   3   4
ATOM      4  C   UNL A   1      32.827  25.990  22.974  1.00  0.00     0.365 C 
ATOM      5  O   UNL A   1      33.720  25.482  22.305  1.00  0.00    -0.245 OA
BRANCH   4   6
ATOM      6  C   UNL A   1      31.687  25.187  23.639  1.00  0.00     0.295 C 
ATOM      7  N   UNL A   1      32.220  24.442  24.808  1.00  0.00    -0.319 N 
ATOM      8  C   UNL A   1      31.626  24.975  26.024  1.00  0.00     0.263 C 
ATOM      9  H   UNL A   1      33.227  24.606  24.843  1.00  0.00     0.349 HD
ATOM     10  C   UNL A   1      30.297  25.564  25.612  1.00  0.00     0.068 C 
ATOM     11  C   UNL A   1      30.507  26.009  24.176  1.00  0.00     0.083 C 
BRANCH   7  12
ATOM     12  C   UNL A   1      32.189  22.980  24.697  1.00  0.00     0.303 C 
BRANCH  12  13
ATOM     13  C   UNL A   1      33.544  22.351  24.723  1.00  0.00     0.047 A 
ATOM     14  N   UNL A   1      35.723  22.071  24.608  1.00  0.00    -0.272 N 
ATOM     15  C   UNL A   1      34.747  23.017  24.590  1.00  0.00     0.118 A 
ATOM     16  N   UNL A   1      35.255  20.829  24.797  1.00  0.00    -0.178 NA
ATOM     17  C   UNL A   1      33.928  20.987  24.900  1.00  0.00     0.068 A 
ATOM     18  C   UNL A   1      33.079  19.789  25.126  1.00  0.00     0.069 C 
BRANCH  14  19
ATOM     19  C   UNL A   1      37.139  22.290  24.385  1.00  0.00     0.141 C 
ATOM     20  C   UNL A   1      37.999  21.747  25.512  1.00  0.00     0.029 C 
ENDBRANCH  14  19
ENDBRANCH  12  13
ENDBRANCH   7  12
ENDBRANCH   4   6
ENDBRANCH   3   4
ENDBRANCH   2   3
ENDBRANCH   1   2
BRANCH   1  21
ATOM     21  O   UNL A   1      33.364  29.828  25.673  1.00  0.00    -0.374 OA
BRANCH  21  22
ATOM     22  C   UNL A   1      32.745  30.403  26.818  1.00  0.00     0.202 C 
BRANCH  22  23
ATOM     23  C   UNL A   1      33.624  31.289  27.690  1.00  0.00     0.261 C 
BRANCH  23  24
ATOM     24  O   UNL A   1      34.995  30.925  27.583  1.00  0.00    -0.460 OA
BRANCH  24  25
ATOM     25  C   UNL A   1      35.767  31.358  28.605  1.00  0.00     0.338 C 
ATOM     26  O   UNL A   1      35.491  32.201  29.437  1.00  0.00    -0.246 OA
BRANCH  25  27
ATOM     27  C   UNL A   1      37.097  30.754  28.464  1.00  0.00     0.060 A 
ATOM     28  C   UNL A   1      37.142  29.519  27.813  1.00  0.00     0.016 A 
ATOM     29  C   UNL A   1      38.188  31.252  29.193  1.00  0.00     0.016 A 
ATOM     30  C   UNL A   1      38.198  28.682  28.084  1.00  0.00     0.010 A 
ATOM     31  C   UNL A   1      39.237  30.409  29.471  1.00  0.00     0.010 A 
ATOM     32  C   UNL A   1      39.179  29.107  28.985  1.00  0.00    -0.014 A 
BRANCH  32  33
ATOM     33  C   UNL A   1      40.220  28.167  29.334  1.00  0.00     0.031 A 
ATOM     34  C   UNL A   1      40.559  28.214  30.768  1.00  0.00     0.074 A 
ATOM     35  C   UNL A   1      40.748  27.305  28.448  1.00  0.00     0.049 A 
ATOM     36  N   UNL A   1      41.630  28.694  31.303  1.00  0.00    -0.248 NA
ATOM     37  C   UNL A   1      39.497  27.873  31.729  1.00  0.00     0.031 C 
ATOM     38  C   UNL A   1      40.285  27.006  27.089  1.00  0.00     0.029 A 
ATOM     39  N   UNL A   1      41.769  26.427  28.626  1.00  0.00    -0.354 N 
ATOM     40  C   UNL A   1      41.466  28.516  32.670  1.00  0.00     0.074 A 
ATOM     41  C   UNL A   1      40.073  28.216  32.880  1.00  0.00     0.031 C 
ATOM     42  C   UNL A   1      40.872  25.864  26.662  1.00  0.00     0.029 A 
ATOM     43  C   UNL A   1      41.847  25.439  27.654  1.00  0.00     0.049 A 
ATOM     44  H   UNL A   1      42.400  26.486  29.379  1.00  0.00     0.167 HD
ATOM     45  C   UNL A   1      42.539  28.316  33.479  1.00  0.00     0.031 A 
ATOM     46  C   UNL A   1      42.618  24.326  27.702  1.00  0.00     0.031 A 
ATOM     47  C   UNL A   1      43.767  28.709  32.838  1.00  0.00     0.049 A 
ATOM     48  C   UNL A   1      43.678  24.559  28.708  1.00  0.00     0.074 A 
ATOM     49  C   UNL A   1      44.296  29.891  32.365  1.00  0.00     0.029 A 
ATOM     50  N   UNL A   1      44.485  27.695  32.250  1.00  0.00    -0.354 N 
ATOM     51  N   UNL A   1      44.641  25.419  28.545  1.00  0.00    -0.248 NA
ATOM     52  C   UNL A   1      43.437  24.149  30.082  1.00  0.00     0.031 C 
ATOM     53  C   UNL A   1      45.049  29.530  31.209  1.00  0.00     0.029 A 
ATOM     54  C   UNL A   1      44.993  28.142  31.060  1.00  0.00     0.049 A 
ATOM     55  H   UNL A   1      44.613  26.795  32.624  1.00  0.00     0.167 HD
ATOM     56  C   UNL A   1      44.818  25.990  29.797  1.00  0.00     0.074 A 
ATOM     57  C   UNL A   1      44.154  25.079  30.723  1.00  0.00     0.031 C 
ATOM     58  C   UNL A   1      45.233  27.286  29.916  1.00  0.00     0.031 A 
BRANCH  45  59
ATOM     59  C   UNL A   1      42.517  27.313  34.610  1.00  0.00    -0.014 A 
ATOM     60  C   UNL A   1      42.788  25.967  34.314  1.00  0.00     0.009 A 
ATOM     61  C   UNL A   1      41.957  27.580  35.874  1.00  0.00     0.009 A 
ATOM     62  C   UNL A   1      42.440  24.943  35.204  1.00  0.00     0.001 A 
ATOM     63  C   UNL A   1      41.647  26.567  36.782  1.00  0.00     0.001 A 
ATOM     64  C   UNL A   1      41.863  25.243  36.434  1.00  0.00     0.000 A 
ENDBRANCH  45  59
BRANCH  46  65
ATOM     65  C   UNL A   1      42.346  22.982  27.151  1.00  0.00    -0.014 A 
ATOM     66  C   UNL A   1      43.238  22.374  26.254  1.00  0.00     0.009 A 
ATOM     67  C   UNL A   1      41.344  22.181  27.726  1.00  0.00     0.009 A 
ATOM     68  C   UNL A   1      43.148  21.003  25.970  1.00  0.00     0.001 A 
ATOM     69  C   UNL A   1      41.256  20.814  27.444  1.00  0.00     0.001 A 
ATOM     70  C   UNL A   1      42.167  20.222  26.575  1.00  0.00     0.000 A 
ENDBRANCH  46  65
BRANCH  58  71
ATOM     71  C   UNL A   1      45.785  27.954  28.679  1.00  0.00    -0.014 A 
ATOM     72  C   UNL A   1      47.148  27.939  28.332  1.00  0.00     0.009 A 
ATOM     73  C   UNL A   1      44.874  28.512  27.772  1.00  0.00     0.009 A 
ATOM     74  C   UNL A   1      47.585  28.496  27.125  1.00  0.00     0.001 A 
ATOM     75  C   UNL A   1      45.306  29.046  26.557  1.00  0.00     0.001 A 
ATOM     76  C   UNL A   1      46.662  29.045  26.236  1.00  0.00     0.000 A 
ENDBRANCH  58  71
ENDBRANCH  32  33
ENDBRANCH  25  27
ENDBRANCH  24  25
ENDBRANCH  23  24
ENDBRANCH  22  23
ENDBRANCH  21  22
ENDBRANCH   1  21
TORSDOF 17
ENDMDL
MODEL 2
REMARK VINA RESULT:      -9.8      1.357      3.009
REMARK SMILES CCn1cc(C[N@@H+]2CCC[C@H]2C(=O)OCCOCCOC(=O)c2ccc(-c3c4nc(c(-c5ccccc5)c5ccc([nH]5)c(-c5ccccc5)c5nc(c(-c6ccccc6)c6ccc3[nH]6)C=C5)C=C4)cc2)c(C)n1
REMARK SMILES IDX 16 1 15 2 14 3 12 4 13 5 11 6 7 7 8 8 9 10 10 11 6 12 5 13
REMARK SMILES IDX 3 14 4 15 73 16 71 17 72 18 2 19 1 20 17 21 18 22 19 23
REMARK SMILES IDX 20 24 21 25 22 26 23 27 24 28 70 29 25 30 69 31 26 32 27 33
REMARK SMILES IDX 28 34 63 35 29 36 68 37 62 38 64 39 30 40 67 41 61 42 60 43
REMARK SMILES IDX 31 45 53 46 38 47 52 48 39 49 42 50 51 51 65 52 40 53 41 54
REMARK SMILES IDX 50 56 66 57 43 58 32 59 33 60 37 61 34 62 36 63 35 64 54 65
REMARK SMILES IDX 55 66 59 67 56 68 58 69 57 70 44 71 45 72 49 73 46 74 48 75
REMARK SMILES IDX 47 76
REMARK H PARENT 7 9 64 44 42 55
REMARK Flexibility Score: inf
ROOT
ATOM      1  C   UNL A   1      33.917  28.016  26.043  1.00  0.00     0.202 C 
ENDROOT
BRANCH   1   2
ATOM      2  C   UNL A   1      33.221  26.667  25.837  1.00  0.00     0.261 C 
BRANCH   2   3
ATOM      3  O   UNL A   1      34.193  25.615  25.681  1.00  0.00    -0.459 OA
BRANCH   3   4
ATOM      4  C   UNL A   1      33.925  24.666  24.739  1.00  0.00     0.365 C 
ATOM      5  O   UNL A   1      34.640  24.436  23.769  1.00  0.00    -0.245 OA
BRANCH   4   6
ATOM      6  C   UNL A   1      32.612  23.910  25.039  1.00  0.00     0.295 C 
ATOM      7  N   UNL A   1      32.097  23.294  23.789  1.00  0.00    -0.319 N 
ATOM      8  C   UNL A   1      32.153  21.846  23.914  1.00  0.00     0.263 C 
ATOM      9  H   UNL A   1      32.717  23.577  23.030  1.00  0.00     0.349 HD
ATOM     10  C   UNL A   1      32.075  21.553  25.395  1.00  0.00     0.068 C 
ATOM     11  C   UNL A   1      32.711  22.763  26.055  1.00  0.00     0.083 C 
BRANCH   7  12
ATOM     12  C   UNL A   1      30.818  23.821  23.303  1.00  0.00     0.303 C 
BRANCH  12  13
ATOM     13  C   UNL A   1      30.841  25.292  23.041  1.00  0.00     0.047 A 
ATOM     14  N   UNL A   1      30.393  27.444  23.147  1.00  0.00    -0.272 N 
ATOM     15  C   UNL A   1      30.141  26.251  23.747  1.00  0.00     0.118 A 
ATOM     16  N   UNL A   1      31.254  27.351  22.123  1.00  0.00    -0.178 NA
ATOM     17  C   UNL A   1      31.560  26.047  22.065  1.00  0.00     0.068 A 
ATOM     18  C   UNL A   1      32.516  25.580  21.027  1.00  0.00     0.069 C 
BRANCH  14  19
ATOM     19  C   UNL A   1      29.785  28.718  23.473  1.00  0.00     0.141 C 
ATOM     20  C   UNL A   1      29.638  29.622  22.263  1.00  0.00     0.029 C 
ENDBRANCH  14  19
ENDBRANCH  12  13
ENDBRANCH   7  12
ENDBRANCH   4   6
ENDBRANCH   3   4
ENDBRANCH   2   3
ENDBRANCH   1   2
BRANCH   1  21
ATOM     21  O   UNL A   1      33.473  28.796  27.154  1.00  0.00    -0.374 OA
BRANCH  21  22
ATOM     22  C   UNL A   1      33.063  30.138  26.917  1.00  0.00     0.202 C 
BRANCH  22  23
ATOM     23  C   UNL A   1      33.880  31.227  27.599  1.00  0.00     0.261 C 
BRANCH  23  24
ATOM     24  O   UNL A   1      35.254  30.869  27.680  1.00  0.00    -0.460 OA
BRANCH  24  25
ATOM     25  C   UNL A   1      36.015  31.740  28.381  1.00  0.00     0.338 C 
ATOM     26  O   UNL A   1      36.016  32.954  28.302  1.00  0.00    -0.246 OA
BRANCH  25  27
ATOM     27  C   UNL A   1      36.988  30.972  29.165  1.00  0.00     0.060 A 
ATOM     28  C   UNL A   1      38.303  31.442  29.141  1.00  0.00     0.016 A 
ATOM     29  C   UNL A   1      36.663  29.697  29.655  1.00  0.00     0.016 A 
ATOM     30  C   UNL A   1      39.317  30.549  29.393  1.00  0.00     0.010 A 
ATOM     31  C   UNL A   1      37.678  28.802  29.896  1.00  0.00     0.010 A 
ATOM     32  C   UNL A   1      38.987  29.219  29.673  1.00  0.00    -0.014 A 
BRANCH  32  33
ATOM     33  C   UNL A   1      40.072  28.278  29.828  1.00  0.00     0.031 A 
ATOM     34  C   UNL A   1      40.592  28.246  31.207  1.00  0.00     0.074 A 
ATOM     35  C   UNL A   1      40.492  27.481  28.830  1.00  0.00     0.049 A 
ATOM     36  N   UNL A   1      41.718  28.712  31.630  1.00  0.00    -0.248 NA
ATOM     37  C   UNL A   1      39.665  27.829  32.273  1.00  0.00     0.031 C 
ATOM     38  C   UNL A   1      39.862  27.256  27.525  1.00  0.00     0.029 A 
ATOM     39  N   UNL A   1      41.536  26.612  28.822  1.00  0.00    -0.354 N 
ATOM     40  C   UNL A   1      41.731  28.450  32.993  1.00  0.00     0.074 A 
ATOM     41  C   UNL A   1      40.380  28.113  33.360  1.00  0.00     0.031 C 
ATOM     42  C   UNL A   1      40.401  26.151  26.958  1.00  0.00     0.029 A 
ATOM     43  C   UNL A   1      41.499  25.686  27.790  1.00  0.00     0.049 A 
ATOM     44  H   UNL A   1      42.257  26.637  29.492  1.00  0.00     0.167 HD
ATOM     45  C   UNL A   1      42.901  28.221  33.646  1.00  0.00     0.031 A 
ATOM     46  C   UNL A   1      42.281  24.586  27.671  1.00  0.00     0.031 A 
ATOM     47  C   UNL A   1      44.033  28.674  32.879  1.00  0.00     0.049 A 
ATOM     48  C   UNL A   1      43.459  24.777  28.546  1.00  0.00     0.074 A 
ATOM     49  C   UNL A   1      44.485  29.891  32.417  1.00  0.00     0.029 A 
ATOM     50  N   UNL A   1      44.680  27.710  32.143  1.00  0.00    -0.354 N 
ATOM     51  N   UNL A   1      44.385  25.663  28.316  1.00  0.00    -0.248 NA
ATOM     52  C   UNL A   1      43.400  24.282  29.912  1.00  0.00     0.031 C 
ATOM     53  C   UNL A   1      45.088  29.613  31.154  1.00  0.00     0.029 A 
ATOM     54  C   UNL A   1      45.028  28.236  30.928  1.00  0.00     0.049 A 
ATOM     55  H   UNL A   1      44.865  26.791  32.442  1.00  0.00     0.167 HD
ATOM     56  C   UNL A   1      44.714  26.161  29.567  1.00  0.00     0.074 A 
ATOM     57  C   UNL A   1      44.183  25.184  30.513  1.00  0.00     0.031 C 
ATOM     58  C   UNL A   1      45.128  27.454  29.713  1.00  0.00     0.031 A 
BRANCH  45  59
ATOM     59  C   UNL A   1      43.035  27.152  34.706  1.00  0.00    -0.014 A 
ATOM     60  C   UNL A   1      43.044  25.807  34.301  1.00  0.00     0.009 A 
ATOM     61  C   UNL A   1      42.851  27.395  36.082  1.00  0.00     0.009 A 
ATOM     62  C   UNL A   1      42.802  24.772  35.213  1.00  0.00     0.001 A 
ATOM     63  C   UNL A   1      42.651  26.364  37.001  1.00  0.00     0.001 A 
ATOM     64  C   UNL A   1      42.597  25.052  36.560  1.00  0.00     0.000 A 
ENDBRANCH  45  59
BRANCH  46  65
ATOM     65  C   UNL A   1      41.955  23.273  27.077  1.00  0.00    -0.014 A 
ATOM     66  C   UNL A   1      42.820  22.660  26.156  1.00  0.00     0.009 A 
ATOM     67  C   UNL A   1      40.923  22.493  27.630  1.00  0.00     0.009 A 
ATOM     68  C   UNL A   1      42.674  21.304  25.828  1.00  0.00     0.001 A 
ATOM     69  C   UNL A   1      40.780  21.140  27.303  1.00  0.00     0.001 A 
ATOM     70  C   UNL A   1      41.665  20.542  26.411  1.00  0.00     0.000 A 
ENDBRANCH  46  65
BRANCH  58  71
ATOM     71  C   UNL A   1      45.510  28.205  28.459  1.00  0.00    -0.014 A 
ATOM     72  C   UNL A   1      44.641  29.084  27.786  1.00  0.00     0.009 A 
ATOM     73  C   UNL A   1      46.836  28.112  28.016  1.00  0.00     0.009 A 
ATOM     74  C   UNL A   1      45.084  29.822  26.684  1.00  0.00     0.001 A 
ATOM     75  C   UNL A   1      47.285  28.866  26.929  1.00  0.00     0.001 A 
ATOM     76  C   UNL A   1      46.408  29.715  26.259  1.00  0.00     0.000 A 
ENDBRANCH  58  71
ENDBRANCH  32  33
ENDBRANCH  25  27
ENDBRANCH  24  25
ENDBRANCH  23  24
ENDBRANCH  22  23
ENDBRANCH  21  22
ENDBRANCH   1  21
TORSDOF 17
ENDMDL
MODEL 3
REMARK VINA RESULT:      -9.8      2.242      6.497
REMARK SMILES CCn1cc(C[N@@H+]2CCC[C@H]2C(=O)OCCOCCOC(=O)c2ccc(-c3c4nc(c(-c5ccccc5)c5ccc([nH]5)c(-c5ccccc5)c5nc(c(-c6ccccc6)c6ccc3[nH]6)C=C5)C=C4)cc2)c(C)n1
REMARK SMILES IDX 16 1 15 2 14 3 12 4 13 5 11 6 7 7 8 8 9 10 10 11 6 12 5 13
REMARK SMILES IDX 3 14 4 15 73 16 71 17 72 18 2 19 1 20 17 21 18 22 19 23
REMARK SMILES IDX 20 24 21 25 22 26 23 27 24 28 70 29 25 30 69 31 26 32 27 33
REMARK SMILES IDX 28 34 63 35 29 36 68 37 62 38 64 39 30 40 67 41 61 42 60 43
REMARK SMILES IDX 31 45 53 46 38 47 52 48 39 49 42 50 51 51 65 52 40 53 41 54
REMARK SMILES IDX 50 56 66 57 43 58 32 59 33 60 37 61 34 62 36 63 35 64 54 65
REMARK SMILES IDX 55 66 59 67 56 68 58 69 57 70 44 71 45 72 49 73 46 74 48 75
REMARK SMILES IDX 47 76
REMARK H PARENT 7 9 64 44 42 55
REMARK Flexibility Score: inf
ROOT
ATOM      1  C   UNL A   1      33.649  27.805  25.417  1.00  0.00     0.202 C 
ENDROOT
BRANCH   1   2
ATOM      2  C   UNL A   1      34.098  26.392  25.798  1.00  0.00     0.261 C 
BRANCH   2   3
ATOM      3  O   UNL A   1      33.230  25.407  25.203  1.00  0.00    -0.459 OA
BRANCH   3   4
ATOM      4  C   UNL A   1      33.221  24.170  25.775  1.00  0.00     0.365 C 
ATOM      5  O   UNL A   1      32.635  23.896  26.817  1.00  0.00    -0.245 OA
BRANCH   4   6
ATOM      6  C   UNL A   1      34.036  23.148  24.953  1.00  0.00     0.295 C 
ATOM      7  N   UNL A   1      35.321  22.866  25.644  1.00  0.00    -0.319 N 
ATOM      8  C   UNL A   1      35.329  21.481  26.088  1.00  0.00     0.263 C 
ATOM      9  H   UNL A   1      35.364  23.469  26.466  1.00  0.00     0.349 HD
ATOM     10  C   UNL A   1      34.400  20.741  25.153  1.00  0.00     0.068 C 
ATOM     11  C   UNL A   1      33.377  21.779  24.732  1.00  0.00     0.083 C 
BRANCH   7  12
ATOM     12  C   UNL A   1      36.530  23.293  24.933  1.00  0.00     0.303 C 
BRANCH  12  13
ATOM     13  C   UNL A   1      37.793  22.779  25.545  1.00  0.00     0.047 A 
ATOM     14  N   UNL A   1      39.462  21.458  26.101  1.00  0.00    -0.272 N 
ATOM     15  C   UNL A   1      38.368  21.547  25.299  1.00  0.00     0.118 A 
ATOM     16  N   UNL A   1      39.683  22.565  26.823  1.00  0.00    -0.178 NA
ATOM     17  C   UNL A   1      38.689  23.393  26.472  1.00  0.00     0.068 A 
ATOM     18  C   UNL A   1      38.628  24.744  27.090  1.00  0.00     0.069 C 
BRANCH  14  19
ATOM     19  C   UNL A   1      40.314  20.297  26.268  1.00  0.00     0.141 C 
ATOM     20  C   UNL A   1      41.255  20.429  27.453  1.00  0.00     0.029 C 
ENDBRANCH  14  19
ENDBRANCH  12  13
ENDBRANCH   7  12
ENDBRANCH   4   6
ENDBRANCH   3   4
ENDBRANCH   2   3
ENDBRANCH   1   2
BRANCH   1  21
ATOM     21  O   UNL A   1      33.016  28.569  26.446  1.00  0.00    -0.374 OA
BRANCH  21  22
ATOM     22  C   UNL A   1      33.769  28.892  27.609  1.00  0.00     0.202 C 
BRANCH  22  23
ATOM     23  C   UNL A   1      34.585  30.177  27.552  1.00  0.00     0.261 C 
BRANCH  23  24
ATOM     24  O   UNL A   1      35.947  29.912  27.240  1.00  0.00    -0.460 OA
BRANCH  24  25
ATOM     25  C   UNL A   1      36.770  29.891  28.313  1.00  0.00     0.338 C 
ATOM     26  O   UNL A   1      36.670  30.539  29.336  1.00  0.00    -0.246 OA
BRANCH  25  27
ATOM     27  C   UNL A   1      37.932  29.058  27.983  1.00  0.00     0.060 A 
ATOM     28  C   UNL A   1      38.348  28.167  28.974  1.00  0.00     0.016 A 
ATOM     29  C   UNL A   1      38.730  29.355  26.867  1.00  0.00     0.016 A 
ATOM     30  C   UNL A   1      39.658  27.751  28.965  1.00  0.00     0.010 A 
ATOM     31  C   UNL A   1      40.043  28.949  26.866  1.00  0.00     0.010 A 
ATOM     32  C   UNL A   1      40.508  28.229  27.961  1.00  0.00    -0.014 A 
BRANCH  32  33
ATOM     33  C   UNL A   1      41.904  27.863  28.036  1.00  0.00     0.031 A 
ATOM     34  C   UNL A   1      42.181  26.575  27.375  1.00  0.00     0.074 A 
ATOM     35  C   UNL A   1      42.835  28.661  28.586  1.00  0.00     0.049 A 
ATOM     36  N   UNL A   1      42.465  25.451  27.941  1.00  0.00    -0.248 NA
ATOM     37  C   UNL A   1      41.913  26.481  25.931  1.00  0.00     0.031 C 
ATOM     38  C   UNL A   1      42.694  30.056  29.014  1.00  0.00     0.029 A 
ATOM     39  N   UNL A   1      44.156  28.410  28.782  1.00  0.00    -0.354 N 
ATOM     40  C   UNL A   1      42.624  24.549  26.898  1.00  0.00     0.074 A 
ATOM     41  C   UNL A   1      42.067  25.175  25.726  1.00  0.00     0.031 C 
ATOM     42  C   UNL A   1      43.925  30.590  29.197  1.00  0.00     0.029 A 
ATOM     43  C   UNL A   1      44.919  29.542  29.037  1.00  0.00     0.049 A 
ATOM     44  H   UNL A   1      44.540  27.505  28.746  1.00  0.00     0.167 HD
ATOM     45  C   UNL A   1      43.480  23.499  27.010  1.00  0.00     0.031 A 
ATOM     46  C   UNL A   1      46.272  29.609  29.053  1.00  0.00     0.031 A 
ATOM     47  C   UNL A   1      43.830  23.246  28.384  1.00  0.00     0.049 A 
ATOM     48  C   UNL A   1      46.787  28.231  29.212  1.00  0.00     0.074 A 
ATOM     49  C   UNL A   1      43.148  22.860  29.518  1.00  0.00     0.029 A 
ATOM     50  N   UNL A   1      45.020  23.787  28.807  1.00  0.00    -0.354 N 
ATOM     51  N   UNL A   1      46.645  27.536  30.303  1.00  0.00    -0.248 NA
ATOM     52  C   UNL A   1      47.089  27.457  28.018  1.00  0.00     0.031 C 
ATOM     53  C   UNL A   1      43.786  23.548  30.592  1.00  0.00     0.029 A 
ATOM     54  C   UNL A   1      44.861  24.276  30.075  1.00  0.00     0.049 A 
ATOM     55  H   UNL A   1      45.852  23.819  28.283  1.00  0.00     0.167 HD
ATOM     56  C   UNL A   1      46.390  26.244  29.867  1.00  0.00     0.074 A 
ATOM     57  C   UNL A   1      46.811  26.229  28.469  1.00  0.00     0.031 C 
ATOM     58  C   UNL A   1      45.598  25.407  30.600  1.00  0.00     0.031 A 
BRANCH  45  59
ATOM     59  C   UNL A   1      44.368  23.060  25.869  1.00  0.00    -0.014 A 
ATOM     60  C   UNL A   1      44.420  21.693  25.550  1.00  0.00     0.009 A 
ATOM     61  C   UNL A   1      45.366  23.878  25.302  1.00  0.00     0.009 A 
ATOM     62  C   UNL A   1      45.460  21.167  24.775  1.00  0.00     0.001 A 
ATOM     63  C   UNL A   1      46.381  23.364  24.494  1.00  0.00     0.001 A 
ATOM     64  C   UNL A   1      46.445  22.001  24.254  1.00  0.00     0.000 A 
ENDBRANCH  45  59
BRANCH  46  65
ATOM     65  C   UNL A   1      47.152  30.731  28.666  1.00  0.00    -0.014 A 
ATOM     66  C   UNL A   1      47.395  31.027  27.315  1.00  0.00     0.009 A 
ATOM     67  C   UNL A   1      47.530  31.687  29.626  1.00  0.00     0.009 A 
ATOM     68  C   UNL A   1      47.967  32.252  26.941  1.00  0.00     0.001 A 
ATOM     69  C   UNL A   1      48.099  32.908  29.252  1.00  0.00     0.001 A 
ATOM     70  C   UNL A   1      48.306  33.196  27.907  1.00  0.00     0.000 A 
ENDBRANCH  46  65
BRANCH  58  71
ATOM     71  C   UNL A   1      45.281  25.818  32.018  1.00  0.00    -0.014 A 
ATOM     72  C   UNL A   1      46.175  25.652  33.092  1.00  0.00     0.009 A 
ATOM     73  C   UNL A   1      44.084  26.509  32.250  1.00  0.00     0.009 A 
ATOM     74  C   UNL A   1      45.861  26.138  34.365  1.00  0.00     0.001 A 
ATOM     75  C   UNL A   1      43.781  27.014  33.516  1.00  0.00     0.001 A 
ATOM     76  C   UNL A   1      44.665  26.823  34.575  1.00  0.00     0.000 A 
ENDBRANCH  58  71
ENDBRANCH  32  33
ENDBRANCH  25  27
ENDBRANCH  24  25
ENDBRANCH  23  24
ENDBRANCH  22  23
ENDBRANCH  21  22
ENDBRANCH   1  21
TORSDOF 17
ENDMDL
