MODEL 1
REMARK VINA RESULT:     -10.9      0.000      0.000
REMARK SMILES COc1ccc2c(c1)c(CC(=O)OCCOCCOC(=O)c1ccc(-c3c4nc(c(-c5ccccc5)c5ccc([nH]5)c(-c5ccccc5)c5nc(c(-c6ccccc6)c6ccc3[nH]6)C=C5)C=C4)cc1)c(C)n2Cc1ccn(C(F)F)c(=O)c1
REMARK SMILES IDX 15 1 14 2 13 3 11 4 12 5 10 6 9 7 3 8 4 9 8 10 5 11 7 12
REMARK SMILES IDX 6 13 72 14 70 15 71 16 2 17 1 18 73 19 74 20 75 21 83 22
REMARK SMILES IDX 76 23 81 24 77 25 82 26 78 27 79 28 80 29 16 30 17 31 18 32
REMARK SMILES IDX 19 33 20 34 21 35 22 36 23 37 69 38 24 39 68 40 25 41 26 42
REMARK SMILES IDX 27 43 62 44 28 45 67 46 61 47 63 48 29 49 66 50 60 51 59 52
REMARK SMILES IDX 30 54 52 55 37 56 51 57 38 58 41 59 50 60 64 61 39 62 40 63
REMARK SMILES IDX 49 65 65 66 42 67 31 68 32 69 36 70 33 71 35 72 34 73 53 74
REMARK SMILES IDX 54 75 58 76 55 77 57 78 56 79 43 80 44 81 48 82 45 83 47 84
REMARK SMILES IDX 46 85
REMARK H PARENT 63 53 41 64
REMARK Flexibility Score: inf
ROOT
ATOM      1  C   UNL A   1      33.743  29.071  26.037  1.00  0.00     0.202 C 
ENDROOT
BRANCH   1   2
ATOM      2  C   UNL A   1      32.745  29.529  24.957  1.00  0.00     0.261 C 
BRANCH   2   3
ATOM      3  O   UNL A   1      31.377  29.135  25.158  1.00  0.00    -0.463 OA
BRANCH   3   4
ATOM      4  C   UNL A   1      30.727  28.756  24.027  1.00  0.00     0.310 C 
ATOM      5  O   UNL A   1      30.751  29.401  22.979  1.00  0.00    -0.252 OA
BRANCH   4   6
ATOM      6  C   UNL A   1      29.960  27.453  24.095  1.00  0.00     0.160 C 
BRANCH   6   7
ATOM      7  C   UNL A   1      30.700  26.142  24.161  1.00  0.00    -0.008 A 
ATOM      8  C   UNL A   1      32.635  25.207  20.994  1.00  0.00     0.119 A 
ATOM      9  C   UNL A   1      33.208  24.047  21.499  1.00  0.00     0.048 A 
ATOM     10  C   UNL A   1      31.733  25.929  21.779  1.00  0.00     0.057 A 
ATOM     11  C   UNL A   1      32.883  23.586  22.788  1.00  0.00     0.031 A 
ATOM     12  C   UNL A   1      31.458  25.542  23.108  1.00  0.00     0.007 A 
ATOM     13  C   UNL A   1      32.003  24.348  23.584  1.00  0.00     0.049 A 
ATOM     14  N   UNL A   1      31.487  24.148  24.861  1.00  0.00    -0.340 N 
ATOM     15  C   UNL A   1      30.616  25.187  25.168  1.00  0.00     0.020 A 
ATOM     16  C   UNL A   1      29.725  25.220  26.361  1.00  0.00     0.065 C 
BRANCH   8  17
ATOM     17  O   UNL A   1      32.988  25.834  19.831  1.00  0.00    -0.497 OA
ATOM     18  C   UNL A   1      32.369  25.373  18.639  1.00  0.00     0.278 C 
ENDBRANCH   8  17
BRANCH  14  19
ATOM     19  C   UNL A   1      31.706  22.929  25.661  1.00  0.00     0.158 C 
BRANCH  19  20
ATOM     20  C   UNL A   1      33.148  22.473  25.714  1.00  0.00    -0.021 A 
ATOM     21  C   UNL A   1      34.148  23.379  26.244  1.00  0.00     0.024 A 
ATOM     22  C   UNL A   1      33.545  21.245  25.334  1.00  0.00     0.077 A 
ATOM     23  C   UNL A   1      35.452  23.116  26.111  1.00  0.00     0.095 A 
ATOM     24  C   UNL A   1      34.996  20.886  25.292  1.00  0.00     0.255 A 
ATOM     25  N   UNL A   1      35.877  21.917  25.580  1.00  0.00    -0.258 N 
ATOM     26  O   UNL A   1      35.310  19.742  24.982  1.00  0.00    -0.269 OA
BRANCH  25  27
ATOM     27  C   UNL A   1      37.283  21.669  25.388  1.00  0.00     0.451 C 
ATOM     28  F   UNL A   1      37.651  21.911  24.109  1.00  0.00    -0.185 F 
ATOM     29  F   UNL A   1      38.031  22.454  26.201  1.00  0.00    -0.185 F 
ENDBRANCH  25  27
ENDBRANCH  19  20
ENDBRANCH  14  19
ENDBRANCH   6   7
ENDBRANCH   4   6
ENDBRANCH   3   4
ENDBRANCH   2   3
ENDBRANCH   1   2
BRANCH   1  30
ATOM     30  O   UNL A   1      34.311  29.997  26.950  1.00  0.00    -0.374 OA
BRANCH  30  31
ATOM     31  C   UNL A   1      33.586  31.198  27.209  1.00  0.00     0.202 C 
BRANCH  31  32
ATOM     32  C   UNL A   1      34.075  32.186  28.286  1.00  0.00     0.261 C 
BRANCH  32  33
ATOM     33  O   UNL A   1      35.158  31.674  29.060  1.00  0.00    -0.460 OA
BRANCH  33  34
ATOM     34  C   UNL A   1      36.292  32.428  29.015  1.00  0.00     0.338 C 
ATOM     35  O   UNL A   1      36.447  33.574  29.370  1.00  0.00    -0.246 OA
BRANCH  34  36
ATOM     36  C   UNL A   1      37.369  31.434  28.864  1.00  0.00     0.060 A 
ATOM     37  C   UNL A   1      37.064  30.122  28.498  1.00  0.00     0.016 A 
ATOM     38  C   UNL A   1      38.599  31.765  29.457  1.00  0.00     0.016 A 
ATOM     39  C   UNL A   1      37.970  29.122  28.823  1.00  0.00     0.010 A 
ATOM     40  C   UNL A   1      39.492  30.756  29.800  1.00  0.00     0.010 A 
ATOM     41  C   UNL A   1      39.162  29.431  29.515  1.00  0.00    -0.014 A 
BRANCH  41  42
ATOM     42  C   UNL A   1      40.158  28.364  29.632  1.00  0.00     0.031 A 
ATOM     43  C   UNL A   1      40.598  28.218  31.043  1.00  0.00     0.074 A 
ATOM     44  C   UNL A   1      40.604  27.513  28.683  1.00  0.00     0.049 A 
ATOM     45  N   UNL A   1      41.774  28.464  31.511  1.00  0.00    -0.248 NA
ATOM     46  C   UNL A   1      39.574  27.966  32.069  1.00  0.00     0.031 C 
ATOM     47  C   UNL A   1      40.116  27.334  27.316  1.00  0.00     0.029 A 
ATOM     48  N   UNL A   1      41.569  26.544  28.791  1.00  0.00    -0.354 N 
ATOM     49  C   UNL A   1      41.685  28.251  32.882  1.00  0.00     0.074 A 
ATOM     50  C   UNL A   1      40.288  28.093  33.187  1.00  0.00     0.031 C 
ATOM     51  C   UNL A   1      40.616  26.180  26.807  1.00  0.00     0.029 A 
ATOM     52  C   UNL A   1      41.573  25.621  27.750  1.00  0.00     0.049 A 
ATOM     53  H   UNL A   1      42.204  26.504  29.542  1.00  0.00     0.167 HD
ATOM     54  C   UNL A   1      42.794  28.005  33.625  1.00  0.00     0.031 A 
ATOM     55  C   UNL A   1      42.298  24.474  27.682  1.00  0.00     0.031 A 
ATOM     56  C   UNL A   1      43.995  28.326  32.903  1.00  0.00     0.049 A 
ATOM     57  C   UNL A   1      43.472  24.626  28.561  1.00  0.00     0.074 A 
ATOM     58  C   UNL A   1      44.676  29.476  32.577  1.00  0.00     0.029 A 
ATOM     59  N   UNL A   1      44.429  27.334  32.065  1.00  0.00    -0.354 N 
ATOM     60  N   UNL A   1      44.444  25.453  28.310  1.00  0.00    -0.248 NA
ATOM     61  C   UNL A   1      43.453  24.066  29.906  1.00  0.00     0.031 C 
ATOM     62  C   UNL A   1      45.370  29.188  31.366  1.00  0.00     0.029 A 
ATOM     63  C   UNL A   1      45.134  27.859  31.014  1.00  0.00     0.049 A 
ATOM     64  H   UNL A   1      44.257  26.373  32.199  1.00  0.00     0.167 HD
ATOM     65  C   UNL A   1      44.859  25.867  29.559  1.00  0.00     0.074 A 
ATOM     66  C   UNL A   1      44.366  24.853  30.483  1.00  0.00     0.031 C 
ATOM     67  C   UNL A   1      45.278  27.147  29.761  1.00  0.00     0.031 A 
BRANCH  54  68
ATOM     68  C   UNL A   1      42.808  27.067  34.803  1.00  0.00    -0.014 A 
ATOM     69  C   UNL A   1      42.544  27.484  36.122  1.00  0.00     0.009 A 
ATOM     70  C   UNL A   1      42.808  25.682  34.566  1.00  0.00     0.009 A 
ATOM     71  C   UNL A   1      42.296  26.575  37.153  1.00  0.00     0.001 A 
ATOM     72  C   UNL A   1      42.525  24.769  35.589  1.00  0.00     0.001 A 
ATOM     73  C   UNL A   1      42.268  25.215  36.881  1.00  0.00     0.000 A 
ENDBRANCH  54  68
BRANCH  55  74
ATOM     74  C   UNL A   1      41.968  23.150  27.108  1.00  0.00    -0.014 A 
ATOM     75  C   UNL A   1      41.015  22.339  27.747  1.00  0.00     0.009 A 
ATOM     76  C   UNL A   1      42.821  22.541  26.167  1.00  0.00     0.009 A 
ATOM     77  C   UNL A   1      40.966  20.959  27.510  1.00  0.00     0.001 A 
ATOM     78  C   UNL A   1      42.768  21.160  25.929  1.00  0.00     0.001 A 
ATOM     79  C   UNL A   1      41.856  20.367  26.618  1.00  0.00     0.000 A 
ENDBRANCH  55  74
BRANCH  67  80
ATOM     80  C   UNL A   1      45.720  27.941  28.559  1.00  0.00    -0.014 A 
ATOM     81  C   UNL A   1      44.765  28.757  27.934  1.00  0.00     0.009 A 
ATOM     82  C   UNL A   1      46.989  27.824  27.969  1.00  0.00     0.009 A 
ATOM     83  C   UNL A   1      45.057  29.418  26.741  1.00  0.00     0.001 A 
ATOM     84  C   UNL A   1      47.292  28.510  26.788  1.00  0.00     0.001 A 
ATOM     85  C   UNL A   1      46.320  29.295  26.169  1.00  0.00     0.000 A 
ENDBRANCH  67  80
ENDBRANCH  41  42
ENDBRANCH  34  36
ENDBRANCH  33  34
ENDBRANCH  32  33
ENDBRANCH  31  32
ENDBRANCH  30  31
ENDBRANCH   1  30
TORSDOF 19
ENDMDL
MODEL 2
REMARK VINA RESULT:     -10.9      2.945      8.484
REMARK SMILES COc1ccc2c(c1)c(CC(=O)OCCOCCOC(=O)c1ccc(-c3c4nc(c(-c5ccccc5)c5ccc([nH]5)c(-c5ccccc5)c5nc(c(-c6ccccc6)c6ccc3[nH]6)C=C5)C=C4)cc1)c(C)n2Cc1ccn(C(F)F)c(=O)c1
REMARK SMILES IDX 15 1 14 2 13 3 11 4 12 5 10 6 9 7 3 8 4 9 8 10 5 11 7 12
REMARK SMILES IDX 6 13 72 14 70 15 71 16 2 17 1 18 73 19 74 20 75 21 83 22
REMARK SMILES IDX 76 23 81 24 77 25 82 26 78 27 79 28 80 29 16 30 17 31 18 32
REMARK SMILES IDX 19 33 20 34 21 35 22 36 23 37 69 38 24 39 68 40 25 41 26 42
REMARK SMILES IDX 27 43 62 44 28 45 67 46 61 47 63 48 29 49 66 50 60 51 59 52
REMARK SMILES IDX 30 54 52 55 37 56 51 57 38 58 41 59 50 60 64 61 39 62 40 63
REMARK SMILES IDX 49 65 65 66 42 67 31 68 32 69 36 70 33 71 35 72 34 73 53 74
REMARK SMILES IDX 54 75 58 76 55 77 57 78 56 79 43 80 44 81 48 82 45 83 47 84
REMARK SMILES IDX 46 85
REMARK H PARENT 63 53 41 64
REMARK Flexibility Score: inf
ROOT
ATOM      1  C   UNL A   1      40.943  20.669  27.458  1.00  0.00     0.202 C 
ENDROOT
BRANCH   1   2
ATOM      2  C   UNL A   1      40.045  20.396  26.237  1.00  0.00     0.261 C 
BRANCH   2   3
ATOM      3  O   UNL A   1      39.607  21.554  25.506  1.00  0.00    -0.463 OA
BRANCH   3   4
ATOM      4  C   UNL A   1      38.305  21.887  25.704  1.00  0.00     0.310 C 
ATOM      5  O   UNL A   1      37.943  22.855  26.373  1.00  0.00    -0.252 OA
BRANCH   4   6
ATOM      6  C   UNL A   1      37.275  21.005  25.031  1.00  0.00     0.160 C 
BRANCH   6   7
ATOM      7  C   UNL A   1      35.970  21.593  24.558  1.00  0.00    -0.008 A 
ATOM      8  C   UNL A   1      32.872  19.467  25.287  1.00  0.00     0.119 A 
ATOM      9  C   UNL A   1      31.942  20.375  24.796  1.00  0.00     0.048 A 
ATOM     10  C   UNL A   1      34.235  19.753  25.184  1.00  0.00     0.057 A 
ATOM     11  C   UNL A   1      32.358  21.574  24.189  1.00  0.00     0.031 A 
ATOM     12  C   UNL A   1      34.680  20.987  24.664  1.00  0.00     0.007 A 
ATOM     13  C   UNL A   1      33.736  21.867  24.130  1.00  0.00     0.049 A 
ATOM     14  N   UNL A   1      34.442  22.937  23.588  1.00  0.00    -0.340 N 
ATOM     15  C   UNL A   1      35.804  22.717  23.758  1.00  0.00     0.020 A 
ATOM     16  C   UNL A   1      36.878  23.542  23.139  1.00  0.00     0.065 C 
BRANCH   8  17
ATOM     17  O   UNL A   1      32.589  18.355  26.031  1.00  0.00    -0.497 OA
ATOM     18  C   UNL A   1      32.465  17.127  25.329  1.00  0.00     0.278 C 
ENDBRANCH   8  17
BRANCH  14  19
ATOM     19  C   UNL A   1      33.825  24.024  22.805  1.00  0.00     0.158 C 
BRANCH  19  20
ATOM     20  C   UNL A   1      33.206  25.119  23.645  1.00  0.00    -0.021 A 
ATOM     21  C   UNL A   1      33.978  25.688  24.732  1.00  0.00     0.024 A 
ATOM     22  C   UNL A   1      31.982  25.626  23.406  1.00  0.00     0.077 A 
ATOM     23  C   UNL A   1      33.406  26.492  25.633  1.00  0.00     0.095 A 
ATOM     24  C   UNL A   1      31.367  26.621  24.337  1.00  0.00     0.255 A 
ATOM     25  N   UNL A   1      32.098  26.902  25.482  1.00  0.00    -0.258 N 
ATOM     26  O   UNL A   1      30.270  27.090  24.056  1.00  0.00    -0.269 OA
BRANCH  25  27
ATOM     27  C   UNL A   1      31.476  27.720  26.489  1.00  0.00     0.451 C 
ATOM     28  F   UNL A   1      32.070  27.549  27.693  1.00  0.00    -0.185 F 
ATOM     29  F   UNL A   1      31.549  29.034  26.163  1.00  0.00    -0.185 F 
ENDBRANCH  25  27
ENDBRANCH  19  20
ENDBRANCH  14  19
ENDBRANCH   6   7
ENDBRANCH   4   6
ENDBRANCH   3   4
ENDBRANCH   2   3
ENDBRANCH   1   2
BRANCH   1  30
ATOM     30  O   UNL A   1      42.218  20.059  27.581  1.00  0.00    -0.374 OA
BRANCH  30  31
ATOM     31  C   UNL A   1      42.519  18.976  26.703  1.00  0.00     0.202 C 
BRANCH  31  32
ATOM     32  C   UNL A   1      43.250  19.232  25.370  1.00  0.00     0.261 C 
BRANCH  32  33
ATOM     33  O   UNL A   1      44.448  19.991  25.531  1.00  0.00    -0.460 OA
BRANCH  33  34
ATOM     34  C   UNL A   1      44.535  21.088  24.727  1.00  0.00     0.338 C 
ATOM     35  O   UNL A   1      44.625  21.132  23.522  1.00  0.00    -0.246 OA
BRANCH  34  36
ATOM     36  C   UNL A   1      44.055  22.188  25.583  1.00  0.00     0.060 A 
ATOM     37  C   UNL A   1      42.993  22.990  25.163  1.00  0.00     0.016 A 
ATOM     38  C   UNL A   1      44.931  22.601  26.601  1.00  0.00     0.016 A 
ATOM     39  C   UNL A   1      42.875  24.261  25.708  1.00  0.00     0.010 A 
ATOM     40  C   UNL A   1      44.820  23.884  27.126  1.00  0.00     0.010 A 
ATOM     41  C   UNL A   1      43.814  24.726  26.655  1.00  0.00    -0.014 A 
BRANCH  41  42
ATOM     42  C   UNL A   1      43.502  25.984  27.336  1.00  0.00     0.031 A 
ATOM     43  C   UNL A   1      44.564  26.991  27.077  1.00  0.00     0.074 A 
ATOM     44  C   UNL A   1      42.398  26.319  28.036  1.00  0.00     0.049 A 
ATOM     45  N   UNL A   1      45.380  27.489  27.942  1.00  0.00    -0.248 NA
ATOM     46  C   UNL A   1      44.880  27.325  25.679  1.00  0.00     0.031 C 
ATOM     47  C   UNL A   1      41.153  25.566  28.190  1.00  0.00     0.029 A 
ATOM     48  N   UNL A   1      42.132  27.485  28.708  1.00  0.00    -0.354 N 
ATOM     49  C   UNL A   1      46.226  28.326  27.223  1.00  0.00     0.074 A 
ATOM     50  C   UNL A   1      45.971  28.074  25.829  1.00  0.00     0.031 C 
ATOM     51  C   UNL A   1      40.195  26.381  28.699  1.00  0.00     0.029 A 
ATOM     52  C   UNL A   1      40.794  27.659  29.048  1.00  0.00     0.049 A 
ATOM     53  H   UNL A   1      42.829  28.144  28.929  1.00  0.00     0.167 HD
ATOM     54  C   UNL A   1      46.917  29.318  27.838  1.00  0.00     0.031 A 
ATOM     55  C   UNL A   1      40.225  28.780  29.561  1.00  0.00     0.031 A 
ATOM     56  C   UNL A   1      46.915  29.155  29.267  1.00  0.00     0.049 A 
ATOM     57  C   UNL A   1      41.282  29.562  30.229  1.00  0.00     0.074 A 
ATOM     58  C   UNL A   1      47.580  28.363  30.173  1.00  0.00     0.029 A 
ATOM     59  N   UNL A   1      45.799  29.651  29.887  1.00  0.00    -0.354 N 
ATOM     60  N   UNL A   1      41.879  29.167  31.315  1.00  0.00    -0.248 NA
ATOM     61  C   UNL A   1      41.912  30.678  29.536  1.00  0.00     0.031 C 
ATOM     62  C   UNL A   1      46.701  28.223  31.287  1.00  0.00     0.029 A 
ATOM     63  C   UNL A   1      45.549  28.974  31.051  1.00  0.00     0.049 A 
ATOM     64  H   UNL A   1      45.250  30.393  29.543  1.00  0.00     0.167 HD
ATOM     65  C   UNL A   1      43.165  29.650  31.182  1.00  0.00     0.074 A 
ATOM     66  C   UNL A   1      43.073  30.718  30.194  1.00  0.00     0.031 C 
ATOM     67  C   UNL A   1      44.226  28.929  31.639  1.00  0.00     0.031 A 
BRANCH  54  68
ATOM     68  C   UNL A   1      47.196  30.651  27.196  1.00  0.00    -0.014 A 
ATOM     69  C   UNL A   1      46.180  31.550  26.818  1.00  0.00     0.009 A 
ATOM     70  C   UNL A   1      48.508  31.153  27.219  1.00  0.00     0.009 A 
ATOM     71  C   UNL A   1      46.452  32.878  26.477  1.00  0.00     0.001 A 
ATOM     72  C   UNL A   1      48.781  32.492  26.912  1.00  0.00     0.001 A 
ATOM     73  C   UNL A   1      47.753  33.353  26.542  1.00  0.00     0.000 A 
ENDBRANCH  54  68
BRANCH  55  74
ATOM     74  C   UNL A   1      38.887  29.377  29.342  1.00  0.00    -0.014 A 
ATOM     75  C   UNL A   1      37.933  29.324  30.371  1.00  0.00     0.009 A 
ATOM     76  C   UNL A   1      38.433  29.666  28.041  1.00  0.00     0.009 A 
ATOM     77  C   UNL A   1      36.568  29.483  30.099  1.00  0.00     0.001 A 
ATOM     78  C   UNL A   1      37.066  29.827  27.771  1.00  0.00     0.001 A 
ATOM     79  C   UNL A   1      36.133  29.712  28.796  1.00  0.00     0.000 A 
ENDBRANCH  55  74
BRANCH  67  80
ATOM     80  C   UNL A   1      43.963  27.868  32.675  1.00  0.00    -0.014 A 
ATOM     81  C   UNL A   1      43.871  28.277  34.014  1.00  0.00     0.009 A 
ATOM     82  C   UNL A   1      43.918  26.492  32.392  1.00  0.00     0.009 A 
ATOM     83  C   UNL A   1      43.763  27.343  35.044  1.00  0.00     0.001 A 
ATOM     84  C   UNL A   1      43.781  25.557  33.423  1.00  0.00     0.001 A 
ATOM     85  C   UNL A   1      43.717  25.984  34.749  1.00  0.00     0.000 A 
ENDBRANCH  67  80
ENDBRANCH  41  42
ENDBRANCH  34  36
ENDBRANCH  33  34
ENDBRANCH  32  33
ENDBRANCH  31  32
ENDBRANCH  30  31
ENDBRANCH   1  30
TORSDOF 19
ENDMDL
MODEL 3
REMARK VINA RESULT:     -10.5      1.915      3.086
REMARK SMILES COc1ccc2c(c1)c(CC(=O)OCCOCCOC(=O)c1ccc(-c3c4nc(c(-c5ccccc5)c5ccc([nH]5)c(-c5ccccc5)c5nc(c(-c6ccccc6)c6ccc3[nH]6)C=C5)C=C4)cc1)c(C)n2Cc1ccn(C(F)F)c(=O)c1
REMARK SMILES IDX 15 1 14 2 13 3 11 4 12 5 10 6 9 7 3 8 4 9 8 10 5 11 7 12
REMARK SMILES IDX 6 13 72 14 70 15 71 16 2 17 1 18 73 19 74 20 75 21 83 22
REMARK SMILES IDX 76 23 81 24 77 25 82 26 78 27 79 28 80 29 16 30 17 31 18 32
REMARK SMILES IDX 19 33 20 34 21 35 22 36 23 37 69 38 24 39 68 40 25 41 26 42
REMARK SMILES IDX 27 43 62 44 28 45 67 46 61 47 63 48 29 49 66 50 60 51 59 52
REMARK SMILES IDX 30 54 52 55 37 56 51 57 38 58 41 59 50 60 64 61 39 62 40 63
REMARK SMILES IDX 49 65 65 66 42 67 31 68 32 69 36 70 33 71 35 72 34 73 53 74
REMARK SMILES IDX 54 75 58 76 55 77 57 78 56 79 43 80 44 81 48 82 45 83 47 84
REMARK SMILES IDX 46 85
REMARK H PARENT 63 53 41 64
REMARK Flexibility Score: inf
ROOT
ATOM      1  C   UNL A   1      34.980  32.943  27.802  1.00  0.00     0.202 C 
ENDROOT
BRANCH   1   2
ATOM      2  C   UNL A   1      34.102  31.746  28.211  1.00  0.00     0.261 C 
BRANCH   2   3
ATOM      3  O   UNL A   1      34.179  30.590  27.359  1.00  0.00    -0.463 OA
BRANCH   3   4
ATOM      4  C   UNL A   1      33.051  30.340  26.645  1.00  0.00     0.310 C 
ATOM      5  O   UNL A   1      31.964  30.868  26.881  1.00  0.00    -0.252 OA
BRANCH   4   6
ATOM      6  C   UNL A   1      33.185  29.368  25.491  1.00  0.00     0.160 C 
BRANCH   6   7
ATOM      7  C   UNL A   1      32.056  28.426  25.162  1.00  0.00    -0.008 A 
ATOM      8  C   UNL A   1      29.466  29.790  22.697  1.00  0.00     0.119 A 
ATOM      9  C   UNL A   1      28.708  28.630  22.611  1.00  0.00     0.048 A 
ATOM     10  C   UNL A   1      30.553  29.840  23.572  1.00  0.00     0.057 A 
ATOM     11  C   UNL A   1      29.016  27.508  23.402  1.00  0.00     0.031 A 
ATOM     12  C   UNL A   1      30.942  28.702  24.311  1.00  0.00     0.007 A 
ATOM     13  C   UNL A   1      30.141  27.559  24.251  1.00  0.00     0.049 A 
ATOM     14  N   UNL A   1      30.678  26.641  25.148  1.00  0.00    -0.340 N 
ATOM     15  C   UNL A   1      31.781  27.209  25.776  1.00  0.00     0.020 A 
ATOM     16  C   UNL A   1      32.497  26.609  26.935  1.00  0.00     0.065 C 
BRANCH   8  17
ATOM     17  O   UNL A   1      29.362  30.877  21.874  1.00  0.00    -0.497 OA
ATOM     18  C   UNL A   1      28.067  31.190  21.382  1.00  0.00     0.278 C 
ENDBRANCH   8  17
BRANCH  14  19
ATOM     19  C   UNL A   1      30.049  25.352  25.489  1.00  0.00     0.158 C 
BRANCH  19  20
ATOM     20  C   UNL A   1      30.802  24.141  24.983  1.00  0.00    -0.021 A 
ATOM     21  C   UNL A   1      30.810  22.936  25.788  1.00  0.00     0.024 A 
ATOM     22  C   UNL A   1      31.432  24.111  23.794  1.00  0.00     0.077 A 
ATOM     23  C   UNL A   1      31.633  21.923  25.499  1.00  0.00     0.095 A 
ATOM     24  C   UNL A   1      32.262  22.934  23.394  1.00  0.00     0.255 A 
ATOM     25  N   UNL A   1      32.402  21.945  24.355  1.00  0.00    -0.258 N 
ATOM     26  O   UNL A   1      32.782  22.931  22.283  1.00  0.00    -0.269 OA
BRANCH  25  27
ATOM     27  C   UNL A   1      33.326  20.875  24.085  1.00  0.00     0.451 C 
ATOM     28  F   UNL A   1      34.129  20.641  25.149  1.00  0.00    -0.185 F 
ATOM     29  F   UNL A   1      32.669  19.727  23.790  1.00  0.00    -0.185 F 
ENDBRANCH  25  27
ENDBRANCH  19  20
ENDBRANCH  14  19
ENDBRANCH   6   7
ENDBRANCH   4   6
ENDBRANCH   3   4
ENDBRANCH   2   3
ENDBRANCH   1   2
BRANCH   1  30
ATOM     30  O   UNL A   1      35.090  34.088  28.633  1.00  0.00    -0.374 OA
BRANCH  30  31
ATOM     31  C   UNL A   1      34.236  34.161  29.773  1.00  0.00     0.202 C 
BRANCH  31  32
ATOM     32  C   UNL A   1      34.833  34.180  31.194  1.00  0.00     0.261 C 
BRANCH  32  33
ATOM     33  O   UNL A   1      36.096  33.521  31.275  1.00  0.00    -0.460 OA
BRANCH  33  34
ATOM     34  C   UNL A   1      36.124  32.454  32.122  1.00  0.00     0.338 C 
ATOM     35  O   UNL A   1      35.327  32.154  32.980  1.00  0.00    -0.246 OA
BRANCH  34  36
ATOM     36  C   UNL A   1      37.072  31.525  31.482  1.00  0.00     0.060 A 
ATOM     37  C   UNL A   1      36.766  30.166  31.387  1.00  0.00     0.016 A 
ATOM     38  C   UNL A   1      38.389  31.994  31.339  1.00  0.00     0.016 A 
ATOM     39  C   UNL A   1      37.812  29.266  31.244  1.00  0.00     0.010 A 
ATOM     40  C   UNL A   1      39.434  31.084  31.218  1.00  0.00     0.010 A 
ATOM     41  C   UNL A   1      39.149  29.720  31.206  1.00  0.00    -0.014 A 
BRANCH  41  42
ATOM     42  C   UNL A   1      40.173  28.738  30.841  1.00  0.00     0.031 A 
ATOM     43  C   UNL A   1      40.984  28.369  32.030  1.00  0.00     0.074 A 
ATOM     44  C   UNL A   1      40.373  28.121  29.657  1.00  0.00     0.049 A 
ATOM     45  N   UNL A   1      42.234  28.623  32.217  1.00  0.00    -0.248 NA
ATOM     46  C   UNL A   1      40.285  27.843  33.213  1.00  0.00     0.031 C 
ATOM     47  C   UNL A   1      39.538  28.160  28.456  1.00  0.00     0.029 A 
ATOM     48  N   UNL A   1      41.360  27.235  29.312  1.00  0.00    -0.354 N 
ATOM     49  C   UNL A   1      42.527  28.150  33.491  1.00  0.00     0.074 A 
ATOM     50  C   UNL A   1      41.271  27.819  34.110  1.00  0.00     0.031 C 
ATOM     51  C   UNL A   1      39.918  27.168  27.612  1.00  0.00     0.029 A 
ATOM     52  C   UNL A   1      41.112  26.526  28.140  1.00  0.00     0.049 A 
ATOM     53  H   UNL A   1      42.176  27.109  29.848  1.00  0.00     0.167 HD
ATOM     54  C   UNL A   1      43.803  27.865  33.856  1.00  0.00     0.031 A 
ATOM     55  C   UNL A   1      41.827  25.479  27.656  1.00  0.00     0.031 A 
ATOM     56  C   UNL A   1      44.753  28.417  32.928  1.00  0.00     0.049 A 
ATOM     57  C   UNL A   1      43.191  25.563  28.212  1.00  0.00     0.074 A 
ATOM     58  C   UNL A   1      45.283  29.661  32.676  1.00  0.00     0.029 A 
ATOM     59  N   UNL A   1      44.974  27.639  31.822  1.00  0.00    -0.354 N 
ATOM     60  N   UNL A   1      44.032  26.502  27.891  1.00  0.00    -0.248 NA
ATOM     61  C   UNL A   1      43.555  24.762  29.373  1.00  0.00     0.031 C 
ATOM     62  C   UNL A   1      45.630  29.665  31.294  1.00  0.00     0.029 A 
ATOM     63  C   UNL A   1      45.351  28.410  30.754  1.00  0.00     0.049 A 
ATOM     64  H   UNL A   1      44.876  26.659  31.798  1.00  0.00     0.167 HD
ATOM     65  C   UNL A   1      44.756  26.709  29.047  1.00  0.00     0.074 A 
ATOM     66  C   UNL A   1      44.565  25.502  29.841  1.00  0.00     0.031 C 
ATOM     67  C   UNL A   1      45.172  27.960  29.388  1.00  0.00     0.031 A 
BRANCH  54  68
ATOM     68  C   UNL A   1      44.166  26.728  34.773  1.00  0.00    -0.014 A 
ATOM     69  C   UNL A   1      45.018  26.878  35.884  1.00  0.00     0.009 A 
ATOM     70  C   UNL A   1      43.425  25.537  34.701  1.00  0.00     0.009 A 
ATOM     71  C   UNL A   1      45.132  25.896  36.871  1.00  0.00     0.001 A 
ATOM     72  C   UNL A   1      43.509  24.565  35.706  1.00  0.00     0.001 A 
ATOM     73  C   UNL A   1      44.362  24.746  36.791  1.00  0.00     0.000 A 
ENDBRANCH  54  68
BRANCH  55  74
ATOM     74  C   UNL A   1      41.397  24.262  26.930  1.00  0.00    -0.014 A 
ATOM     75  C   UNL A   1      40.195  23.632  27.292  1.00  0.00     0.009 A 
ATOM     76  C   UNL A   1      42.311  23.528  26.150  1.00  0.00     0.009 A 
ATOM     77  C   UNL A   1      39.947  22.296  26.951  1.00  0.00     0.001 A 
ATOM     78  C   UNL A   1      42.061  22.191  25.808  1.00  0.00     0.001 A 
ATOM     79  C   UNL A   1      40.889  21.570  26.228  1.00  0.00     0.000 A 
ENDBRANCH  55  74
BRANCH  67  80
ATOM     80  C   UNL A   1      45.247  28.999  28.300  1.00  0.00    -0.014 A 
ATOM     81  C   UNL A   1      46.483  29.184  27.663  1.00  0.00     0.009 A 
ATOM     82  C   UNL A   1      44.189  29.864  27.971  1.00  0.00     0.009 A 
ATOM     83  C   UNL A   1      46.668  30.214  26.742  1.00  0.00     0.001 A 
ATOM     84  C   UNL A   1      44.367  30.879  27.026  1.00  0.00     0.001 A 
ATOM     85  C   UNL A   1      45.611  31.062  26.423  1.00  0.00     0.000 A 
ENDBRANCH  67  80
ENDBRANCH  41  42
ENDBRANCH  34  36
ENDBRANCH  33  34
ENDBRANCH  32  33
ENDBRANCH  31  32
ENDBRANCH  30  31
ENDBRANCH   1  30
TORSDOF 19
ENDMDL
