MODEL 1
REMARK VINA RESULT:     -11.0      0.000      0.000
REMARK SMILES O=C1CN(S(=O)(=O)c2ccc(CC(=O)OCCOCCOC(=O)c3ccc(-c4c5nc(c(-c6ccccc6)c6ccc([nH]6)c(-c6ccccc6)c6nc(c(-c7ccccc7)c7ccc4[nH]7)C=C6)C=C5)cc3)cc2)CCN1
REMARK SMILES IDX 17 1 16 2 15 3 13 4 14 5 12 6 11 7 8 8 9 9 73 10 10 11 72 12
REMARK SMILES IDX 5 13 6 14 7 15 4 16 1 17 2 18 3 19 76 20 75 21 74 23 18 24
REMARK SMILES IDX 19 25 20 26 21 27 22 28 23 29 24 30 25 31 71 32 26 33 70 34
REMARK SMILES IDX 27 35 28 36 29 37 64 38 30 39 69 40 63 41 65 42 31 43 68 44
REMARK SMILES IDX 62 45 61 46 32 48 54 49 39 50 53 51 40 52 43 53 52 54 66 55
REMARK SMILES IDX 41 56 42 57 51 59 67 60 44 61 33 62 34 63 38 64 35 65 37 66
REMARK SMILES IDX 36 67 55 68 56 69 60 70 57 71 59 72 58 73 45 74 46 75 50 76
REMARK SMILES IDX 47 77 49 78 48 79
REMARK H PARENT 76 22 65 47 43 58
REMARK Flexibility Score: inf
ROOT
ATOM      1  C   UNL A   1      42.258  19.744  25.806  1.00  0.00     0.202 C 
ENDROOT
BRANCH   1   2
ATOM      2  C   UNL A   1      41.424  20.976  26.171  1.00  0.00     0.261 C 
BRANCH   2   3
ATOM      3  O   UNL A   1      40.061  20.660  26.513  1.00  0.00    -0.463 OA
BRANCH   3   4
ATOM      4  C   UNL A   1      39.121  21.482  25.975  1.00  0.00     0.310 C 
ATOM      5  O   UNL A   1      39.015  22.678  26.238  1.00  0.00    -0.252 OA
BRANCH   4   6
ATOM      6  C   UNL A   1      38.163  20.809  25.019  1.00  0.00     0.158 C 
BRANCH   6   7
ATOM      7  C   UNL A   1      36.837  21.472  24.710  1.00  0.00    -0.037 A 
ATOM      8  C   UNL A   1      34.361  22.617  24.033  1.00  0.00     0.082 A 
ATOM      9  C   UNL A   1      34.427  21.665  25.053  1.00  0.00     0.022 A 
ATOM     10  C   UNL A   1      35.525  23.019  23.372  1.00  0.00     0.022 A 
ATOM     11  C   UNL A   1      35.663  21.093  25.384  1.00  0.00     0.006 A 
ATOM     12  C   UNL A   1      36.753  22.440  23.701  1.00  0.00     0.006 A 
BRANCH   8  13
ATOM     13  S   UNL A   1      32.838  23.482  23.715  1.00  0.00     0.243 S 
ATOM     14  O   UNL A   1      31.758  22.574  24.045  1.00  0.00    -0.207 OA
ATOM     15  O   UNL A   1      32.924  24.054  22.389  1.00  0.00    -0.207 OA
BRANCH  13  16
ATOM     16  N   UNL A   1      32.801  24.792  24.817  1.00  0.00    -0.187 NA
ATOM     17  O   UNL A   1      30.389  23.577  27.266  1.00  0.00    -0.274 OA
ATOM     18  C   UNL A   1      30.861  24.264  26.362  1.00  0.00     0.235 C 
ATOM     19  C   UNL A   1      32.359  24.479  26.205  1.00  0.00     0.202 C 
ATOM     20  N   UNL A   1      30.036  24.969  25.521  1.00  0.00    -0.354 N 
ATOM     21  C   UNL A   1      30.492  25.646  24.319  1.00  0.00     0.132 C 
ATOM     22  H   UNL A   1      29.079  25.018  25.746  1.00  0.00     0.163 HD
ATOM     23  C   UNL A   1      31.995  25.963  24.319  1.00  0.00     0.124 C 
ENDBRANCH  13  16
ENDBRANCH   8  13
ENDBRANCH   6   7
ENDBRANCH   4   6
ENDBRANCH   3   4
ENDBRANCH   2   3
ENDBRANCH   1   2
BRANCH   1  24
ATOM     24  O   UNL A   1      43.415  19.934  24.997  1.00  0.00    -0.374 OA
BRANCH  24  25
ATOM     25  C   UNL A   1      44.285  21.016  25.315  1.00  0.00     0.202 C 
BRANCH  25  26
ATOM     26  C   UNL A   1      44.460  22.135  24.278  1.00  0.00     0.261 C 
BRANCH  26  27
ATOM     27  O   UNL A   1      43.635  23.283  24.533  1.00  0.00    -0.460 OA
BRANCH  27  28
ATOM     28  C   UNL A   1      44.317  24.365  24.982  1.00  0.00     0.338 C 
ATOM     29  O   UNL A   1      45.433  24.727  24.650  1.00  0.00    -0.246 OA
BRANCH  28  30
ATOM     30  C   UNL A   1      43.451  25.202  25.832  1.00  0.00     0.060 A 
ATOM     31  C   UNL A   1      43.813  26.547  25.984  1.00  0.00     0.016 A 
ATOM     32  C   UNL A   1      42.380  24.668  26.548  1.00  0.00     0.016 A 
ATOM     33  C   UNL A   1      43.154  27.346  26.912  1.00  0.00     0.010 A 
ATOM     34  C   UNL A   1      41.719  25.472  27.483  1.00  0.00     0.010 A 
ATOM     35  C   UNL A   1      42.137  26.797  27.704  1.00  0.00    -0.014 A 
BRANCH  35  36
ATOM     36  C   UNL A   1      41.644  27.562  28.874  1.00  0.00     0.031 A 
ATOM     37  C   UNL A   1      42.393  27.462  30.176  1.00  0.00     0.074 A 
ATOM     38  C   UNL A   1      40.579  28.375  28.766  1.00  0.00     0.049 A 
ATOM     39  N   UNL A   1      42.143  28.038  31.324  1.00  0.00    -0.248 NA
ATOM     40  C   UNL A   1      43.583  26.594  30.186  1.00  0.00     0.031 C 
ATOM     41  C   UNL A   1      39.804  28.596  27.547  1.00  0.00     0.029 A 
ATOM     42  N   UNL A   1      39.969  29.170  29.703  1.00  0.00    -0.354 N 
ATOM     43  C   UNL A   1      43.134  27.594  32.192  1.00  0.00     0.074 A 
ATOM     44  C   UNL A   1      43.969  26.676  31.450  1.00  0.00     0.031 C 
ATOM     45  C   UNL A   1      38.818  29.470  27.810  1.00  0.00     0.029 A 
ATOM     46  C   UNL A   1      38.873  29.842  29.223  1.00  0.00     0.049 A 
ATOM     47  H   UNL A   1      40.288  29.252  30.631  1.00  0.00     0.167 HD
ATOM     48  C   UNL A   1      43.336  27.926  33.490  1.00  0.00     0.031 A 
ATOM     49  C   UNL A   1      38.002  30.649  29.856  1.00  0.00     0.031 A 
ATOM     50  C   UNL A   1      42.497  28.831  34.229  1.00  0.00     0.049 A 
ATOM     51  C   UNL A   1      38.204  30.945  31.319  1.00  0.00     0.074 A 
ATOM     52  C   UNL A   1      42.620  29.242  35.544  1.00  0.00     0.029 A 
ATOM     53  N   UNL A   1      41.371  29.458  33.717  1.00  0.00    -0.354 N 
ATOM     54  N   UNL A   1      39.156  30.536  32.123  1.00  0.00    -0.248 NA
ATOM     55  C   UNL A   1      37.214  31.824  31.958  1.00  0.00     0.031 C 
ATOM     56  C   UNL A   1      41.534  30.069  35.847  1.00  0.00     0.029 A 
ATOM     57  C   UNL A   1      40.776  30.232  34.698  1.00  0.00     0.049 A 
ATOM     58  H   UNL A   1      41.044  29.366  32.794  1.00  0.00     0.167 HD
ATOM     59  C   UNL A   1      38.903  31.139  33.350  1.00  0.00     0.074 A 
ATOM     60  C   UNL A   1      37.714  31.949  33.179  1.00  0.00     0.031 C 
ATOM     61  C   UNL A   1      39.595  31.035  34.512  1.00  0.00     0.031 A 
BRANCH  48  62
ATOM     62  C   UNL A   1      44.488  27.273  34.202  1.00  0.00    -0.014 A 
ATOM     63  C   UNL A   1      45.760  27.868  34.245  1.00  0.00     0.009 A 
ATOM     64  C   UNL A   1      44.292  26.051  34.866  1.00  0.00     0.009 A 
ATOM     65  C   UNL A   1      46.816  27.235  34.906  1.00  0.00     0.001 A 
ATOM     66  C   UNL A   1      45.341  25.438  35.553  1.00  0.00     0.001 A 
ATOM     67  C   UNL A   1      46.604  26.024  35.564  1.00  0.00     0.000 A 
ENDBRANCH  48  62
BRANCH  49  68
ATOM     68  C   UNL A   1      36.848  31.229  29.117  1.00  0.00    -0.014 A 
ATOM     69  C   UNL A   1      35.730  30.444  28.799  1.00  0.00     0.009 A 
ATOM     70  C   UNL A   1      36.871  32.573  28.709  1.00  0.00     0.009 A 
ATOM     71  C   UNL A   1      34.672  30.984  28.063  1.00  0.00     0.001 A 
ATOM     72  C   UNL A   1      35.797  33.119  28.003  1.00  0.00     0.001 A 
ATOM     73  C   UNL A   1      34.704  32.322  27.672  1.00  0.00     0.000 A 
ENDBRANCH  49  68
BRANCH  61  74
ATOM     74  C   UNL A   1      39.117  31.862  35.675  1.00  0.00    -0.014 A 
ATOM     75  C   UNL A   1      38.204  31.358  36.614  1.00  0.00     0.009 A 
ATOM     76  C   UNL A   1      39.626  33.159  35.852  1.00  0.00     0.009 A 
ATOM     77  C   UNL A   1      37.779  32.151  37.682  1.00  0.00     0.001 A 
ATOM     78  C   UNL A   1      39.226  33.937  36.939  1.00  0.00     0.001 A 
ATOM     79  C   UNL A   1      38.295  33.437  37.847  1.00  0.00     0.000 A 
ENDBRANCH  61  74
ENDBRANCH  35  36
ENDBRANCH  28  30
ENDBRANCH  27  28
ENDBRANCH  26  27
ENDBRANCH  25  26
ENDBRANCH  24  25
ENDBRANCH   1  24
TORSDOF 17
ENDMDL
MODEL 2
REMARK VINA RESULT:     -10.3      3.595      5.350
REMARK SMILES O=C1CN(S(=O)(=O)c2ccc(CC(=O)OCCOCCOC(=O)c3ccc(-c4c5nc(c(-c6ccccc6)c6ccc([nH]6)c(-c6ccccc6)c6nc(c(-c7ccccc7)c7ccc4[nH]7)C=C6)C=C5)cc3)cc2)CCN1
REMARK SMILES IDX 17 1 16 2 15 3 13 4 14 5 12 6 11 7 8 8 9 9 73 10 10 11 72 12
REMARK SMILES IDX 5 13 6 14 7 15 4 16 1 17 2 18 3 19 76 20 75 21 74 23 18 24
REMARK SMILES IDX 19 25 20 26 21 27 22 28 23 29 24 30 25 31 71 32 26 33 70 34
REMARK SMILES IDX 27 35 28 36 29 37 64 38 30 39 69 40 63 41 65 42 31 43 68 44
REMARK SMILES IDX 62 45 61 46 32 48 54 49 39 50 53 51 40 52 43 53 52 54 66 55
REMARK SMILES IDX 41 56 42 57 51 59 67 60 44 61 33 62 34 63 38 64 35 65 37 66
REMARK SMILES IDX 36 67 55 68 56 69 60 70 57 71 59 72 58 73 45 74 46 75 50 76
REMARK SMILES IDX 47 77 49 78 48 79
REMARK H PARENT 76 22 65 47 43 58
REMARK Flexibility Score: inf
ROOT
ATOM      1  C   UNL A   1      35.878  21.479  25.579  1.00  0.00     0.202 C 
ENDROOT
BRANCH   1   2
ATOM      2  C   UNL A   1      34.548  20.737  25.752  1.00  0.00     0.261 C 
BRANCH   2   3
ATOM      3  O   UNL A   1      34.204  19.914  24.622  1.00  0.00    -0.463 OA
BRANCH   3   4
ATOM      4  C   UNL A   1      32.872  19.783  24.383  1.00  0.00     0.310 C 
ATOM      5  O   UNL A   1      32.129  19.023  25.000  1.00  0.00    -0.252 OA
BRANCH   4   6
ATOM      6  C   UNL A   1      32.343  20.639  23.255  1.00  0.00     0.158 C 
BRANCH   6   7
ATOM      7  C   UNL A   1      32.430  22.146  23.365  1.00  0.00    -0.037 A 
ATOM      8  C   UNL A   1      32.680  24.929  23.674  1.00  0.00     0.082 A 
ATOM      9  C   UNL A   1      33.430  24.272  22.697  1.00  0.00     0.022 A 
ATOM     10  C   UNL A   1      31.787  24.210  24.476  1.00  0.00     0.022 A 
ATOM     11  C   UNL A   1      33.307  22.884  22.550  1.00  0.00     0.006 A 
ATOM     12  C   UNL A   1      31.674  22.826  24.329  1.00  0.00     0.006 A 
BRANCH   8  13
ATOM     13  S   UNL A   1      32.688  26.707  23.763  1.00  0.00     0.243 S 
ATOM     14  O   UNL A   1      32.612  27.199  22.401  1.00  0.00    -0.207 OA
ATOM     15  O   UNL A   1      33.788  27.101  24.615  1.00  0.00    -0.207 OA
BRANCH  13  16
ATOM     16  N   UNL A   1      31.248  27.145  24.579  1.00  0.00    -0.187 NA
ATOM     17  O   UNL A   1      29.489  28.971  21.959  1.00  0.00    -0.274 OA
ATOM     18  C   UNL A   1      30.100  28.771  23.007  1.00  0.00     0.235 C 
ATOM     19  C   UNL A   1      30.061  27.429  23.724  1.00  0.00     0.202 C 
ATOM     20  N   UNL A   1      30.752  29.799  23.639  1.00  0.00    -0.354 N 
ATOM     21  C   UNL A   1      31.651  29.617  24.766  1.00  0.00     0.132 C 
ATOM     22  H   UNL A   1      30.603  30.714  23.309  1.00  0.00     0.163 HD
ATOM     23  C   UNL A   1      31.432  28.300  25.527  1.00  0.00     0.124 C 
ENDBRANCH  13  16
ENDBRANCH   8  13
ENDBRANCH   6   7
ENDBRANCH   4   6
ENDBRANCH   3   4
ENDBRANCH   2   3
ENDBRANCH   1   2
BRANCH   1  24
ATOM     24  O   UNL A   1      36.777  21.017  24.577  1.00  0.00    -0.374 OA
BRANCH  24  25
ATOM     25  C   UNL A   1      37.865  20.191  24.982  1.00  0.00     0.202 C 
BRANCH  25  26
ATOM     26  C   UNL A   1      39.047  20.852  25.706  1.00  0.00     0.261 C 
BRANCH  26  27
ATOM     27  O   UNL A   1      39.864  19.921  26.433  1.00  0.00    -0.460 OA
BRANCH  27  28
ATOM     28  C   UNL A   1      41.169  19.926  26.065  1.00  0.00     0.338 C 
ATOM     29  O   UNL A   1      41.726  19.151  25.305  1.00  0.00    -0.246 OA
BRANCH  28  30
ATOM     30  C   UNL A   1      41.843  21.135  26.572  1.00  0.00     0.060 A 
ATOM     31  C   UNL A   1      41.802  21.355  27.955  1.00  0.00     0.016 A 
ATOM     32  C   UNL A   1      42.403  22.083  25.716  1.00  0.00     0.016 A 
ATOM     33  C   UNL A   1      42.251  22.561  28.482  1.00  0.00     0.010 A 
ATOM     34  C   UNL A   1      42.852  23.296  26.247  1.00  0.00     0.010 A 
ATOM     35  C   UNL A   1      42.731  23.559  27.625  1.00  0.00    -0.014 A 
BRANCH  35  36
ATOM     36  C   UNL A   1      42.934  24.928  28.156  1.00  0.00     0.031 A 
ATOM     37  C   UNL A   1      44.326  25.364  28.526  1.00  0.00     0.074 A 
ATOM     38  C   UNL A   1      41.905  25.788  28.255  1.00  0.00     0.049 A 
ATOM     39  N   UNL A   1      44.736  26.510  29.008  1.00  0.00    -0.248 NA
ATOM     40  C   UNL A   1      45.400  24.377  28.328  1.00  0.00     0.031 C 
ATOM     41  C   UNL A   1      40.522  25.499  27.879  1.00  0.00     0.029 A 
ATOM     42  N   UNL A   1      41.871  27.084  28.702  1.00  0.00    -0.354 N 
ATOM     43  C   UNL A   1      46.109  26.375  29.182  1.00  0.00     0.074 A 
ATOM     44  C   UNL A   1      46.458  25.029  28.785  1.00  0.00     0.031 C 
ATOM     45  C   UNL A   1      39.772  26.589  28.112  1.00  0.00     0.029 A 
ATOM     46  C   UNL A   1      40.614  27.637  28.685  1.00  0.00     0.049 A 
ATOM     47  H   UNL A   1      42.670  27.572  29.005  1.00  0.00     0.167 HD
ATOM     48  C   UNL A   1      47.002  27.293  29.625  1.00  0.00     0.031 A 
ATOM     49  C   UNL A   1      40.190  28.844  29.103  1.00  0.00     0.031 A 
ATOM     50  C   UNL A   1      46.650  28.628  30.030  1.00  0.00     0.049 A 
ATOM     51  C   UNL A   1      41.190  29.822  29.662  1.00  0.00     0.074 A 
ATOM     52  C   UNL A   1      47.479  29.638  30.484  1.00  0.00     0.029 A 
ATOM     53  N   UNL A   1      45.359  29.135  30.037  1.00  0.00    -0.354 N 
ATOM     54  N   UNL A   1      42.488  29.691  29.801  1.00  0.00    -0.248 NA
ATOM     55  C   UNL A   1      40.666  31.119  30.111  1.00  0.00     0.031 C 
ATOM     56  C   UNL A   1      46.683  30.736  30.825  1.00  0.00     0.029 A 
ATOM     57  C   UNL A   1      45.367  30.435  30.513  1.00  0.00     0.049 A 
ATOM     58  H   UNL A   1      44.558  28.644  29.747  1.00  0.00     0.167 HD
ATOM     59  C   UNL A   1      42.939  30.901  30.316  1.00  0.00     0.074 A 
ATOM     60  C   UNL A   1      41.777  31.755  30.453  1.00  0.00     0.031 C 
ATOM     61  C   UNL A   1      44.202  31.273  30.640  1.00  0.00     0.031 A 
BRANCH  48  62
ATOM     62  C   UNL A   1      48.440  26.866  29.733  1.00  0.00    -0.014 A 
ATOM     63  C   UNL A   1      48.954  26.305  30.913  1.00  0.00     0.009 A 
ATOM     64  C   UNL A   1      49.291  27.003  28.623  1.00  0.00     0.009 A 
ATOM     65  C   UNL A   1      50.296  25.925  30.990  1.00  0.00     0.001 A 
ATOM     66  C   UNL A   1      50.623  26.592  28.693  1.00  0.00     0.001 A 
ATOM     67  C   UNL A   1      51.127  26.064  29.879  1.00  0.00     0.000 A 
ENDBRANCH  48  62
BRANCH  49  68
ATOM     68  C   UNL A   1      38.748  29.197  29.022  1.00  0.00    -0.014 A 
ATOM     69  C   UNL A   1      38.196  29.699  27.834  1.00  0.00     0.009 A 
ATOM     70  C   UNL A   1      37.918  29.049  30.145  1.00  0.00     0.009 A 
ATOM     71  C   UNL A   1      36.850  30.073  27.781  1.00  0.00     0.001 A 
ATOM     72  C   UNL A   1      36.566  29.392  30.079  1.00  0.00     0.001 A 
ATOM     73  C   UNL A   1      36.035  29.913  28.901  1.00  0.00     0.000 A 
ENDBRANCH  49  68
BRANCH  61  74
ATOM     74  C   UNL A   1      44.403  32.684  31.122  1.00  0.00    -0.014 A 
ATOM     75  C   UNL A   1      44.547  33.757  30.228  1.00  0.00     0.009 A 
ATOM     76  C   UNL A   1      44.407  32.947  32.502  1.00  0.00     0.009 A 
ATOM     77  C   UNL A   1      44.734  35.055  30.707  1.00  0.00     0.001 A 
ATOM     78  C   UNL A   1      44.559  34.250  32.978  1.00  0.00     0.001 A 
ATOM     79  C   UNL A   1      44.733  35.301  32.080  1.00  0.00     0.000 A 
ENDBRANCH  61  74
ENDBRANCH  35  36
ENDBRANCH  28  30
ENDBRANCH  27  28
ENDBRANCH  26  27
ENDBRANCH  25  26
ENDBRANCH  24  25
ENDBRANCH   1  24
TORSDOF 17
ENDMDL
MODEL 3
REMARK VINA RESULT:     -10.2      3.869      7.731
REMARK SMILES O=C1CN(S(=O)(=O)c2ccc(CC(=O)OCCOCCOC(=O)c3ccc(-c4c5nc(c(-c6ccccc6)c6ccc([nH]6)c(-c6ccccc6)c6nc(c(-c7ccccc7)c7ccc4[nH]7)C=C6)C=C5)cc3)cc2)CCN1
REMARK SMILES IDX 17 1 16 2 15 3 13 4 14 5 12 6 11 7 8 8 9 9 73 10 10 11 72 12
REMARK SMILES IDX 5 13 6 14 7 15 4 16 1 17 2 18 3 19 76 20 75 21 74 23 18 24
REMARK SMILES IDX 19 25 20 26 21 27 22 28 23 29 24 30 25 31 71 32 26 33 70 34
REMARK SMILES IDX 27 35 28 36 29 37 64 38 30 39 69 40 63 41 65 42 31 43 68 44
REMARK SMILES IDX 62 45 61 46 32 48 54 49 39 50 53 51 40 52 43 53 52 54 66 55
REMARK SMILES IDX 41 56 42 57 51 59 67 60 44 61 33 62 34 63 38 64 35 65 37 66
REMARK SMILES IDX 36 67 55 68 56 69 60 70 57 71 59 72 58 73 45 74 46 75 50 76
REMARK SMILES IDX 47 77 49 78 48 79
REMARK H PARENT 76 22 65 47 43 58
REMARK Flexibility Score: inf
ROOT
ATOM      1  C   UNL A   1      36.568  21.605  25.377  1.00  0.00     0.202 C 
ENDROOT
BRANCH   1   2
ATOM      2  C   UNL A   1      35.582  20.493  25.006  1.00  0.00     0.261 C 
BRANCH   2   3
ATOM      3  O   UNL A   1      34.251  20.721  25.507  1.00  0.00    -0.463 OA
BRANCH   3   4
ATOM      4  C   UNL A   1      33.297  19.881  25.024  1.00  0.00     0.310 C 
ATOM      5  O   UNL A   1      33.064  18.763  25.478  1.00  0.00    -0.252 OA
BRANCH   4   6
ATOM      6  C   UNL A   1      32.527  20.411  23.836  1.00  0.00     0.158 C 
BRANCH   6   7
ATOM      7  C   UNL A   1      32.399  21.908  23.646  1.00  0.00    -0.037 A 
ATOM      8  C   UNL A   1      32.088  24.663  23.181  1.00  0.00     0.082 A 
ATOM      9  C   UNL A   1      31.249  24.016  24.090  1.00  0.00     0.022 A 
ATOM     10  C   UNL A   1      33.096  23.949  22.526  1.00  0.00     0.022 A 
ATOM     11  C   UNL A   1      31.403  22.641  24.316  1.00  0.00     0.006 A 
ATOM     12  C   UNL A   1      33.241  22.577  22.749  1.00  0.00     0.006 A 
BRANCH   8  13
ATOM     13  S   UNL A   1      32.025  26.433  23.009  1.00  0.00     0.243 S 
ATOM     14  O   UNL A   1      31.582  26.712  21.657  1.00  0.00    -0.207 OA
ATOM     15  O   UNL A   1      33.282  26.967  23.483  1.00  0.00    -0.207 OA
BRANCH  13  16
ATOM     16  N   UNL A   1      30.818  26.970  24.097  1.00  0.00    -0.187 NA
ATOM     17  O   UNL A   1      28.975  29.312  21.997  1.00  0.00    -0.274 OA
ATOM     18  C   UNL A   1      29.704  28.910  22.901  1.00  0.00     0.235 C 
ATOM     19  C   UNL A   1      29.570  27.513  23.490  1.00  0.00     0.202 C 
ATOM     20  N   UNL A   1      30.600  29.758  23.502  1.00  0.00    -0.354 N 
ATOM     21  C   UNL A   1      31.626  29.325  24.435  1.00  0.00     0.132 C 
ATOM     22  H   UNL A   1      30.546  30.717  23.286  1.00  0.00     0.163 HD
ATOM     23  C   UNL A   1      31.326  27.972  25.100  1.00  0.00     0.124 C 
ENDBRANCH  13  16
ENDBRANCH   8  13
ENDBRANCH   6   7
ENDBRANCH   4   6
ENDBRANCH   3   4
ENDBRANCH   2   3
ENDBRANCH   1   2
BRANCH   1  24
ATOM     24  O   UNL A   1      37.955  21.286  25.411  1.00  0.00    -0.374 OA
BRANCH  24  25
ATOM     25  C   UNL A   1      38.354  19.982  25.000  1.00  0.00     0.202 C 
BRANCH  25  26
ATOM     26  C   UNL A   1      39.328  19.205  25.898  1.00  0.00     0.261 C 
BRANCH  26  27
ATOM     27  O   UNL A   1      40.663  19.145  25.372  1.00  0.00    -0.460 OA
BRANCH  27  28
ATOM     28  C   UNL A   1      41.632  19.364  26.296  1.00  0.00     0.338 C 
ATOM     29  O   UNL A   1      42.492  18.582  26.666  1.00  0.00    -0.246 OA
BRANCH  28  30
ATOM     30  C   UNL A   1      41.645  20.781  26.701  1.00  0.00     0.060 A 
ATOM     31  C   UNL A   1      42.016  21.719  25.728  1.00  0.00     0.016 A 
ATOM     32  C   UNL A   1      41.409  21.175  28.018  1.00  0.00     0.016 A 
ATOM     33  C   UNL A   1      42.229  23.046  26.086  1.00  0.00     0.010 A 
ATOM     34  C   UNL A   1      41.625  22.509  28.376  1.00  0.00     0.010 A 
ATOM     35  C   UNL A   1      42.085  23.438  27.423  1.00  0.00    -0.014 A 
BRANCH  35  36
ATOM     36  C   UNL A   1      42.587  24.768  27.842  1.00  0.00     0.031 A 
ATOM     37  C   UNL A   1      41.593  25.851  28.164  1.00  0.00     0.074 A 
ATOM     38  C   UNL A   1      43.905  24.993  27.987  1.00  0.00     0.049 A 
ATOM     39  N   UNL A   1      41.804  27.084  28.548  1.00  0.00    -0.248 NA
ATOM     40  C   UNL A   1      40.169  25.497  28.036  1.00  0.00     0.031 C 
ATOM     41  C   UNL A   1      44.961  24.009  27.756  1.00  0.00     0.029 A 
ATOM     42  N   UNL A   1      44.576  26.127  28.368  1.00  0.00    -0.354 N 
ATOM     43  C   UNL A   1      40.544  27.655  28.693  1.00  0.00     0.074 A 
ATOM     44  C   UNL A   1      39.576  26.645  28.327  1.00  0.00     0.031 C 
ATOM     45  C   UNL A   1      46.151  24.583  28.000  1.00  0.00     0.029 A 
ATOM     46  C   UNL A   1      45.941  25.982  28.369  1.00  0.00     0.049 A 
ATOM     47  H   UNL A   1      44.123  26.964  28.618  1.00  0.00     0.167 HD
ATOM     48  C   UNL A   1      40.221  28.905  29.103  1.00  0.00     0.031 A 
ATOM     49  C   UNL A   1      46.911  26.881  28.621  1.00  0.00     0.031 A 
ATOM     50  C   UNL A   1      41.187  29.911  29.456  1.00  0.00     0.049 A 
ATOM     51  C   UNL A   1      46.528  28.286  29.002  1.00  0.00     0.074 A 
ATOM     52  C   UNL A   1      40.965  31.204  29.894  1.00  0.00     0.029 A 
ATOM     53  N   UNL A   1      42.562  29.736  29.403  1.00  0.00    -0.354 N 
ATOM     54  N   UNL A   1      45.334  28.807  29.157  1.00  0.00    -0.248 NA
ATOM     55  C   UNL A   1      47.631  29.225  29.255  1.00  0.00     0.031 C 
ATOM     56  C   UNL A   1      42.204  31.833  30.046  1.00  0.00     0.029 A 
ATOM     57  C   UNL A   1      43.200  30.907  29.775  1.00  0.00     0.049 A 
ATOM     58  H   UNL A   1      43.016  28.904  29.141  1.00  0.00     0.167 HD
ATOM     59  C   UNL A   1      45.542  30.121  29.563  1.00  0.00     0.074 A 
ATOM     60  C   UNL A   1      46.976  30.312  29.640  1.00  0.00     0.031 C 
ATOM     61  C   UNL A   1      44.628  31.080  29.850  1.00  0.00     0.031 A 
BRANCH  48  62
ATOM     62  C   UNL A   1      38.762  29.264  29.150  1.00  0.00    -0.014 A 
ATOM     63  C   UNL A   1      38.011  29.139  30.331  1.00  0.00     0.009 A 
ATOM     64  C   UNL A   1      38.132  29.763  27.998  1.00  0.00     0.009 A 
ATOM     65  C   UNL A   1      36.654  29.472  30.345  1.00  0.00     0.001 A 
ATOM     66  C   UNL A   1      36.784  30.125  28.025  1.00  0.00     0.001 A 
ATOM     67  C   UNL A   1      36.044  29.969  29.194  1.00  0.00     0.000 A 
ENDBRANCH  48  62
BRANCH  49  68
ATOM     68  C   UNL A   1      48.341  26.487  28.510  1.00  0.00    -0.014 A 
ATOM     69  C   UNL A   1      49.032  26.623  27.297  1.00  0.00     0.009 A 
ATOM     70  C   UNL A   1      49.017  25.953  29.619  1.00  0.00     0.009 A 
ATOM     71  C   UNL A   1      50.361  26.207  27.189  1.00  0.00     0.001 A 
ATOM     72  C   UNL A   1      50.356  25.569  29.517  1.00  0.00     0.001 A 
ATOM     73  C   UNL A   1      51.023  25.686  28.300  1.00  0.00     0.000 A 
ENDBRANCH  49  68
BRANCH  61  74
ATOM     74  C   UNL A   1      45.150  32.408  30.331  1.00  0.00    -0.014 A 
ATOM     75  C   UNL A   1      45.392  32.657  31.690  1.00  0.00     0.009 A 
ATOM     76  C   UNL A   1      45.440  33.413  29.394  1.00  0.00     0.009 A 
ATOM     77  C   UNL A   1      45.875  33.901  32.105  1.00  0.00     0.001 A 
ATOM     78  C   UNL A   1      45.956  34.642  29.807  1.00  0.00     0.001 A 
ATOM     79  C   UNL A   1      46.162  34.889  31.163  1.00  0.00     0.000 A 
ENDBRANCH  61  74
ENDBRANCH  35  36
ENDBRANCH  28  30
ENDBRANCH  27  28
ENDBRANCH  26  27
ENDBRANCH  25  26
ENDBRANCH  24  25
ENDBRANCH   1  24
TORSDOF 17
ENDMDL
