MODEL 1
REMARK VINA RESULT:     -11.6      0.000      0.000
REMARK SMILES CC[C@@](C)(NC(=O)[C@H]1Cc2[nH]cnc2C[NH2+]1)C(=O)OCCOCCOC(=O)c1ccc(-c2c3nc(c(-c4ccccc4)c4ccc([nH]4)c(-c4ccccc4)c4nc(c(-c5ccccc5)c5ccc2[nH]5)C=C4)C=C3)cc1
REMARK SMILES IDX 22 1 21 2 20 3 19 4 17 5 18 6 3 7 4 8 2 9 1 10 5 11 6 12
REMARK SMILES IDX 7 14 8 15 9 16 16 17 10 18 15 19 11 22 14 23 12 24 13 26
REMARK SMILES IDX 23 27 24 28 25 29 26 30 27 31 28 32 29 33 75 34 30 35 74 36
REMARK SMILES IDX 31 37 32 38 33 39 68 40 34 41 73 42 67 43 69 44 35 45 72 46
REMARK SMILES IDX 66 47 65 48 36 50 58 51 43 52 57 53 44 54 47 55 56 56 70 57
REMARK SMILES IDX 45 58 46 59 55 61 71 62 48 63 37 64 38 65 42 66 39 67 41 68
REMARK SMILES IDX 40 69 59 70 60 71 64 72 61 73 63 74 62 75 49 76 50 77 54 78
REMARK SMILES IDX 51 79 53 80 52 81
REMARK H PARENT 5 13 16 20 16 21 11 25 69 49 47 60
REMARK Flexibility Score: inf
ROOT
ATOM      1  O   UNL A   1      33.197  31.080  27.200  1.00  0.00    -0.374 OA
ENDROOT
BRANCH   1   2
ATOM      2  C   UNL A   1      31.877  29.715  26.709  1.00  0.00     0.202 C 
BRANCH   2   3
ATOM      3  C   UNL A   1      31.772  28.065  27.035  1.00  0.00     0.261 C 
BRANCH   3   4
ATOM      4  O   UNL A   1      32.740  27.186  26.430  1.00  0.00    -0.462 OA
BRANCH   4   5
ATOM      5  C   UNL A   1      32.276  25.919  26.217  1.00  0.00     0.331 C 
ATOM      6  O   UNL A   1      31.370  25.421  26.877  1.00  0.00    -0.249 OA
BRANCH   5   7
ATOM      7  C   UNL A   1      33.063  25.187  25.081  1.00  0.00     0.135 C 
ATOM      8  C   UNL A   1      33.934  26.295  24.447  1.00  0.00     0.047 C 
BRANCH   7   9
ATOM      9  C   UNL A   1      34.022  24.040  25.530  1.00  0.00     0.037 C 
ATOM     10  C   UNL A   1      35.326  23.885  24.766  1.00  0.00     0.007 C 
ENDBRANCH   7   9
BRANCH   7  11
ATOM     11  N   UNL A   1      32.216  24.633  23.990  1.00  0.00    -0.335 N 
ATOM     12  C   UNL A   1      30.911  24.929  23.666  1.00  0.00     0.279 C 
ATOM     13  H   UNL A   1      32.651  23.961  23.418  1.00  0.00     0.164 HD
ATOM     14  O   UNL A   1      30.283  23.913  23.380  1.00  0.00    -0.268 OA
BRANCH  12  15
ATOM     15  C   UNL A   1      30.409  26.484  23.628  1.00  0.00     0.278 C 
ATOM     16  C   UNL A   1      31.000  28.157  22.658  1.00  0.00     0.131 C 
ATOM     17  N   UNL A   1      28.526  26.363  24.011  1.00  0.00    -0.331 N 
ATOM     18  C   UNL A   1      29.697  29.467  22.388  1.00  0.00     0.050 A 
ATOM     19  C   UNL A   1      27.460  27.828  23.497  1.00  0.00     0.320 C 
ATOM     20  H   UNL A   1      28.423  26.245  25.019  1.00  0.00     0.347 HD
ATOM     21  H   UNL A   1      28.190  25.578  23.454  1.00  0.00     0.347 HD
ATOM     22  N   UNL A   1      29.876  30.769  22.056  1.00  0.00    -0.348 N 
ATOM     23  C   UNL A   1      28.231  29.323  22.680  1.00  0.00     0.116 A 
ATOM     24  C   UNL A   1      28.672  31.394  22.318  1.00  0.00     0.197 A 
ATOM     25  H   UNL A   1      30.695  31.184  21.701  1.00  0.00     0.167 HD
ATOM     26  N   UNL A   1      27.690  30.584  22.689  1.00  0.00    -0.236 NA
ENDBRANCH  12  15
ENDBRANCH   7  11
ENDBRANCH   5   7
ENDBRANCH   4   5
ENDBRANCH   3   4
ENDBRANCH   2   3
ENDBRANCH   1   2
BRANCH   1  27
ATOM     27  C   UNL A   1      34.061  31.806  28.346  1.00  0.00     0.202 C 
BRANCH  27  28
ATOM     28  C   UNL A   1      34.000  33.339  28.859  1.00  0.00     0.261 C 
BRANCH  28  29
ATOM     29  O   UNL A   1      33.982  33.489  30.301  1.00  0.00    -0.460 OA
BRANCH  29  30
ATOM     30  C   UNL A   1      34.118  34.672  30.902  1.00  0.00     0.338 C 
ATOM     31  O   UNL A   1      34.012  35.777  30.354  1.00  0.00    -0.246 OA
BRANCH  30  32
ATOM     32  C   UNL A   1      34.073  34.432  32.410  1.00  0.00     0.060 A 
ATOM     33  C   UNL A   1      34.903  35.333  33.095  1.00  0.00     0.016 A 
ATOM     34  C   UNL A   1      34.171  33.081  32.697  1.00  0.00     0.016 A 
ATOM     35  C   UNL A   1      36.193  34.942  33.222  1.00  0.00     0.010 A 
ATOM     36  C   UNL A   1      35.450  32.637  32.869  1.00  0.00     0.010 A 
ATOM     37  C   UNL A   1      36.447  33.614  32.915  1.00  0.00    -0.014 A 
BRANCH  37  38
ATOM     38  C   UNL A   1      37.807  33.298  32.586  1.00  0.00     0.031 A 
ATOM     39  C   UNL A   1      38.697  33.522  33.733  1.00  0.00     0.074 A 
ATOM     40  C   UNL A   1      38.082  32.818  31.361  1.00  0.00     0.049 A 
ATOM     41  N   UNL A   1      39.767  34.237  33.804  1.00  0.00    -0.248 NA
ATOM     42  C   UNL A   1      38.186  33.044  35.035  1.00  0.00     0.031 C 
ATOM     43  C   UNL A   1      37.132  32.430  30.308  1.00  0.00     0.029 A 
ATOM     44  N   UNL A   1      39.266  32.374  30.877  1.00  0.00    -0.354 N 
ATOM     45  C   UNL A   1      40.171  34.115  35.127  1.00  0.00     0.074 A 
ATOM     46  C   UNL A   1      39.052  33.603  35.870  1.00  0.00     0.031 C 
ATOM     47  C   UNL A   1      37.727  31.535  29.494  1.00  0.00     0.029 A 
ATOM     48  C   UNL A   1      39.106  31.382  29.922  1.00  0.00     0.049 A 
ATOM     49  H   UNL A   1      40.142  32.717  31.170  1.00  0.00     0.167 HD
ATOM     50  C   UNL A   1      41.487  34.071  35.455  1.00  0.00     0.031 A 
ATOM     51  C   UNL A   1      39.990  30.397  29.646  1.00  0.00     0.031 A 
ATOM     52  C   UNL A   1      42.314  34.705  34.467  1.00  0.00     0.049 A 
ATOM     53  C   UNL A   1      41.287  30.777  30.262  1.00  0.00     0.074 A 
ATOM     54  C   UNL A   1      42.381  35.982  33.947  1.00  0.00     0.029 A 
ATOM     55  N   UNL A   1      42.983  33.893  33.581  1.00  0.00    -0.354 N 
ATOM     56  N   UNL A   1      42.012  31.782  29.861  1.00  0.00    -0.248 NA
ATOM     57  C   UNL A   1      41.563  30.320  31.618  1.00  0.00     0.031 C 
ATOM     58  C   UNL A   1      42.716  35.813  32.574  1.00  0.00     0.029 A 
ATOM     59  C   UNL A   1      42.868  34.447  32.330  1.00  0.00     0.049 A 
ATOM     60  H   UNL A   1      43.461  33.062  33.805  1.00  0.00     0.167 HD
ATOM     61  C   UNL A   1      42.524  32.345  31.025  1.00  0.00     0.074 A 
ATOM     62  C   UNL A   1      42.315  31.334  32.057  1.00  0.00     0.031 C 
ATOM     63  C   UNL A   1      42.791  33.683  31.102  1.00  0.00     0.031 A 
BRANCH  50  64
ATOM     64  C   UNL A   1      41.994  33.048  36.438  1.00  0.00    -0.014 A 
ATOM     65  C   UNL A   1      42.593  33.487  37.623  1.00  0.00     0.009 A 
ATOM     66  C   UNL A   1      42.133  31.676  36.127  1.00  0.00     0.009 A 
ATOM     67  C   UNL A   1      43.322  32.605  38.429  1.00  0.00     0.001 A 
ATOM     68  C   UNL A   1      42.814  30.783  36.951  1.00  0.00     0.001 A 
ATOM     69  C   UNL A   1      43.432  31.256  38.094  1.00  0.00     0.000 A 
ENDBRANCH  50  64
BRANCH  51  70
ATOM     70  C   UNL A   1      39.668  29.018  29.220  1.00  0.00    -0.014 A 
ATOM     71  C   UNL A   1      40.125  28.530  27.990  1.00  0.00     0.009 A 
ATOM     72  C   UNL A   1      39.081  28.096  30.113  1.00  0.00     0.009 A 
ATOM     73  C   UNL A   1      40.013  27.170  27.673  1.00  0.00     0.001 A 
ATOM     74  C   UNL A   1      38.957  26.742  29.791  1.00  0.00     0.001 A 
ATOM     75  C   UNL A   1      39.436  26.277  28.573  1.00  0.00     0.000 A 
ENDBRANCH  51  70
BRANCH  63  76
ATOM     76  C   UNL A   1      42.716  34.483  29.821  1.00  0.00    -0.014 A 
ATOM     77  C   UNL A   1      41.505  34.993  29.318  1.00  0.00     0.009 A 
ATOM     78  C   UNL A   1      43.909  34.868  29.194  1.00  0.00     0.009 A 
ATOM     79  C   UNL A   1      41.487  35.835  28.201  1.00  0.00     0.001 A 
ATOM     80  C   UNL A   1      43.892  35.726  28.091  1.00  0.00     0.001 A 
ATOM     81  C   UNL A   1      42.682  36.204  27.591  1.00  0.00     0.000 A 
ENDBRANCH  63  76
ENDBRANCH  37  38
ENDBRANCH  30  32
ENDBRANCH  29  30
ENDBRANCH  28  29
ENDBRANCH  27  28
ENDBRANCH   1  27
TORSDOF 17
ENDMDL
MODEL 2
REMARK VINA RESULT:     -11.3      5.778     10.163
REMARK SMILES CC[C@@](C)(NC(=O)[C@H]1Cc2[nH]cnc2C[NH2+]1)C(=O)OCCOCCOC(=O)c1ccc(-c2c3nc(c(-c4ccccc4)c4ccc([nH]4)c(-c4ccccc4)c4nc(c(-c5ccccc5)c5ccc2[nH]5)C=C4)C=C3)cc1
REMARK SMILES IDX 22 1 21 2 20 3 19 4 17 5 18 6 3 7 4 8 2 9 1 10 5 11 6 12
REMARK SMILES IDX 7 14 8 15 9 16 16 17 10 18 15 19 11 22 14 23 12 24 13 26
REMARK SMILES IDX 23 27 24 28 25 29 26 30 27 31 28 32 29 33 75 34 30 35 74 36
REMARK SMILES IDX 31 37 32 38 33 39 68 40 34 41 73 42 67 43 69 44 35 45 72 46
REMARK SMILES IDX 66 47 65 48 36 50 58 51 43 52 57 53 44 54 47 55 56 56 70 57
REMARK SMILES IDX 45 58 46 59 55 61 71 62 48 63 37 64 38 65 42 66 39 67 41 68
REMARK SMILES IDX 40 69 59 70 60 71 64 72 61 73 63 74 62 75 49 76 50 77 54 78
REMARK SMILES IDX 51 79 53 80 52 81
REMARK H PARENT 5 13 16 20 16 21 11 25 69 49 47 60
REMARK Flexibility Score: inf
ROOT
ATOM      1  O   UNL A   1      38.535  21.700  25.516  1.00  0.00    -0.374 OA
ENDROOT
BRANCH   1   2
ATOM      2  C   UNL A   1      36.606  22.049  25.610  1.00  0.00     0.202 C 
BRANCH   2   3
ATOM      3  C   UNL A   1      35.715  23.387  26.114  1.00  0.00     0.261 C 
BRANCH   3   4
ATOM      4  O   UNL A   1      34.285  23.359  25.945  1.00  0.00    -0.462 OA
BRANCH   4   5
ATOM      5  C   UNL A   1      33.674  22.330  26.604  1.00  0.00     0.331 C 
ATOM      6  O   UNL A   1      33.981  21.991  27.742  1.00  0.00    -0.249 OA
BRANCH   5   7
ATOM      7  C   UNL A   1      32.591  21.627  25.722  1.00  0.00     0.135 C 
ATOM      8  C   UNL A   1      32.779  22.249  24.321  1.00  0.00     0.047 C 
BRANCH   7   9
ATOM      9  C   UNL A   1      32.722  20.078  25.565  1.00  0.00     0.037 C 
ATOM     10  C   UNL A   1      32.528  19.502  24.174  1.00  0.00     0.007 C 
ENDBRANCH   7   9
BRANCH   7  11
ATOM     11  N   UNL A   1      31.184  21.897  26.124  1.00  0.00    -0.335 N 
ATOM     12  C   UNL A   1      30.591  23.092  26.464  1.00  0.00     0.279 C 
ATOM     13  H   UNL A   1      30.593  21.111  26.150  1.00  0.00     0.164 HD
ATOM     14  O   UNL A   1      29.840  22.958  27.428  1.00  0.00    -0.268 OA
BRANCH  12  15
ATOM     15  C   UNL A   1      30.873  24.430  25.569  1.00  0.00     0.278 C 
ATOM     16  C   UNL A   1      29.913  25.374  24.060  1.00  0.00     0.131 C 
ATOM     17  N   UNL A   1      31.884  25.564  26.752  1.00  0.00    -0.331 N 
ATOM     18  C   UNL A   1      30.239  27.203  23.880  1.00  0.00     0.050 A 
ATOM     19  C   UNL A   1      31.913  27.403  26.346  1.00  0.00     0.320 C 
ATOM     20  H   UNL A   1      32.848  25.232  26.750  1.00  0.00     0.347 HD
ATOM     21  H   UNL A   1      31.412  25.497  27.654  1.00  0.00     0.347 HD
ATOM     22  N   UNL A   1      29.984  27.998  22.811  1.00  0.00    -0.348 N 
ATOM     23  C   UNL A   1      31.015  28.057  24.841  1.00  0.00     0.116 A 
ATOM     24  C   UNL A   1      30.708  29.155  23.020  1.00  0.00     0.197 A 
ATOM     25  H   UNL A   1      29.401  27.792  22.045  1.00  0.00     0.167 HD
ATOM     26  N   UNL A   1      31.328  29.224  24.190  1.00  0.00    -0.236 NA
ENDBRANCH  12  15
ENDBRANCH   7  11
ENDBRANCH   5   7
ENDBRANCH   4   5
ENDBRANCH   3   4
ENDBRANCH   2   3
ENDBRANCH   1   2
BRANCH   1  27
ATOM     27  C   UNL A   1      39.984  21.806  26.204  1.00  0.00     0.202 C 
BRANCH  27  28
ATOM     28  C   UNL A   1      41.233  20.780  26.126  1.00  0.00     0.261 C 
BRANCH  28  29
ATOM     29  O   UNL A   1      42.372  21.278  25.381  1.00  0.00    -0.460 OA
BRANCH  29  30
ATOM     30  C   UNL A   1      43.599  20.776  25.524  1.00  0.00     0.338 C 
ATOM     31  O   UNL A   1      43.887  19.733  26.126  1.00  0.00    -0.246 OA
BRANCH  30  32
ATOM     32  C   UNL A   1      44.514  21.500  24.537  1.00  0.00     0.060 A 
ATOM     33  C   UNL A   1      45.815  21.627  25.047  1.00  0.00     0.016 A 
ATOM     34  C   UNL A   1      43.887  22.619  24.016  1.00  0.00     0.016 A 
ATOM     35  C   UNL A   1      46.027  22.722  25.816  1.00  0.00     0.010 A 
ATOM     36  C   UNL A   1      44.093  23.761  24.733  1.00  0.00     0.010 A 
ATOM     37  C   UNL A   1      45.033  23.688  25.764  1.00  0.00    -0.014 A 
BRANCH  37  38
ATOM     38  C   UNL A   1      44.986  24.594  26.874  1.00  0.00     0.031 A 
ATOM     39  C   UNL A   1      46.243  25.343  27.004  1.00  0.00     0.074 A 
ATOM     40  C   UNL A   1      43.851  24.683  27.589  1.00  0.00     0.049 A 
ATOM     41  N   UNL A   1      47.017  25.459  28.028  1.00  0.00    -0.248 NA
ATOM     42  C   UNL A   1      46.812  25.851  25.738  1.00  0.00     0.031 C 
ATOM     43  C   UNL A   1      42.553  24.055  27.306  1.00  0.00     0.029 A 
ATOM     44  N   UNL A   1      43.561  25.529  28.607  1.00  0.00    -0.354 N 
ATOM     45  C   UNL A   1      48.070  26.242  27.572  1.00  0.00     0.074 A 
ATOM     46  C   UNL A   1      48.020  26.229  26.135  1.00  0.00     0.031 C 
ATOM     47  C   UNL A   1      41.581  24.777  27.899  1.00  0.00     0.029 A 
ATOM     48  C   UNL A   1      42.210  25.837  28.666  1.00  0.00     0.049 A 
ATOM     49  H   UNL A   1      44.233  25.885  29.233  1.00  0.00     0.167 HD
ATOM     50  C   UNL A   1      48.669  27.150  28.383  1.00  0.00     0.031 A 
ATOM     51  C   UNL A   1      41.679  26.980  29.155  1.00  0.00     0.031 A 
ATOM     52  C   UNL A   1      48.519  26.819  29.772  1.00  0.00     0.049 A 
ATOM     53  C   UNL A   1      42.738  27.665  29.939  1.00  0.00     0.074 A 
ATOM     54  C   UNL A   1      48.885  25.735  30.545  1.00  0.00     0.029 A 
ATOM     55  N   UNL A   1      47.562  27.498  30.489  1.00  0.00    -0.354 N 
ATOM     56  N   UNL A   1      43.223  27.204  31.056  1.00  0.00    -0.248 NA
ATOM     57  C   UNL A   1      43.584  28.632  29.251  1.00  0.00     0.031 C 
ATOM     58  C   UNL A   1      47.835  25.578  31.494  1.00  0.00     0.029 A 
ATOM     59  C   UNL A   1      46.898  26.590  31.275  1.00  0.00     0.049 A 
ATOM     60  H   UNL A   1      47.386  28.466  30.447  1.00  0.00     0.167 HD
ATOM     61  C   UNL A   1      44.583  27.489  31.004  1.00  0.00     0.074 A 
ATOM     62  C   UNL A   1      44.723  28.472  29.934  1.00  0.00     0.031 C 
ATOM     63  C   UNL A   1      45.496  26.683  31.625  1.00  0.00     0.031 A 
BRANCH  50  64
ATOM     64  C   UNL A   1      48.967  28.540  27.882  1.00  0.00    -0.014 A 
ATOM     65  C   UNL A   1      50.261  29.050  28.034  1.00  0.00     0.009 A 
ATOM     66  C   UNL A   1      47.964  29.458  27.497  1.00  0.00     0.009 A 
ATOM     67  C   UNL A   1      50.522  30.412  27.846  1.00  0.00     0.001 A 
ATOM     68  C   UNL A   1      48.228  30.804  27.260  1.00  0.00     0.001 A 
ATOM     69  C   UNL A   1      49.508  31.288  27.460  1.00  0.00     0.000 A 
ENDBRANCH  50  64
BRANCH  51  70
ATOM     70  C   UNL A   1      40.461  27.664  28.668  1.00  0.00    -0.014 A 
ATOM     71  C   UNL A   1      39.325  27.754  29.481  1.00  0.00     0.009 A 
ATOM     72  C   UNL A   1      40.473  28.417  27.475  1.00  0.00     0.009 A 
ATOM     73  C   UNL A   1      38.250  28.577  29.122  1.00  0.00     0.001 A 
ATOM     74  C   UNL A   1      39.395  29.228  27.110  1.00  0.00     0.001 A 
ATOM     75  C   UNL A   1      38.287  29.318  27.942  1.00  0.00     0.000 A 
ENDBRANCH  51  70
BRANCH  63  76
ATOM     76  C   UNL A   1      44.963  25.606  32.542  1.00  0.00    -0.014 A 
ATOM     77  C   UNL A   1      44.531  24.354  32.067  1.00  0.00     0.009 A 
ATOM     78  C   UNL A   1      45.050  25.794  33.929  1.00  0.00     0.009 A 
ATOM     79  C   UNL A   1      44.163  23.335  32.952  1.00  0.00     0.001 A 
ATOM     80  C   UNL A   1      44.703  24.768  34.813  1.00  0.00     0.001 A 
ATOM     81  C   UNL A   1      44.254  23.542  34.325  1.00  0.00     0.000 A 
ENDBRANCH  63  76
ENDBRANCH  37  38
ENDBRANCH  30  32
ENDBRANCH  29  30
ENDBRANCH  28  29
ENDBRANCH  27  28
ENDBRANCH   1  27
TORSDOF 17
ENDMDL
MODEL 3
REMARK VINA RESULT:     -11.2      3.792      7.931
REMARK SMILES CC[C@@](C)(NC(=O)[C@H]1Cc2[nH]cnc2C[NH2+]1)C(=O)OCCOCCOC(=O)c1ccc(-c2c3nc(c(-c4ccccc4)c4ccc([nH]4)c(-c4ccccc4)c4nc(c(-c5ccccc5)c5ccc2[nH]5)C=C4)C=C3)cc1
REMARK SMILES IDX 22 1 21 2 20 3 19 4 17 5 18 6 3 7 4 8 2 9 1 10 5 11 6 12
REMARK SMILES IDX 7 14 8 15 9 16 16 17 10 18 15 19 11 22 14 23 12 24 13 26
REMARK SMILES IDX 23 27 24 28 25 29 26 30 27 31 28 32 29 33 75 34 30 35 74 36
REMARK SMILES IDX 31 37 32 38 33 39 68 40 34 41 73 42 67 43 69 44 35 45 72 46
REMARK SMILES IDX 66 47 65 48 36 50 58 51 43 52 57 53 44 54 47 55 56 56 70 57
REMARK SMILES IDX 45 58 46 59 55 61 71 62 48 63 37 64 38 65 42 66 39 67 41 68
REMARK SMILES IDX 40 69 59 70 60 71 64 72 61 73 63 74 62 75 49 76 50 77 54 78
REMARK SMILES IDX 51 79 53 80 52 81
REMARK H PARENT 5 13 16 20 16 21 11 25 69 49 47 60
REMARK Flexibility Score: inf
ROOT
ATOM      1  O   UNL A   1      34.355  31.872  28.521  1.00  0.00    -0.374 OA
ENDROOT
BRANCH   1   2
ATOM      2  C   UNL A   1      33.526  30.277  27.735  1.00  0.00     0.202 C 
BRANCH   2   3
ATOM      3  C   UNL A   1      33.971  29.279  26.452  1.00  0.00     0.261 C 
BRANCH   3   4
ATOM      4  O   UNL A   1      32.932  28.586  25.734  1.00  0.00    -0.462 OA
BRANCH   4   5
ATOM      5  C   UNL A   1      33.401  27.747  24.762  1.00  0.00     0.331 C 
ATOM      6  O   UNL A   1      34.081  28.135  23.818  1.00  0.00    -0.249 OA
BRANCH   5   7
ATOM      7  C   UNL A   1      32.928  26.273  24.980  1.00  0.00     0.135 C 
ATOM      8  C   UNL A   1      34.241  25.470  25.124  1.00  0.00     0.047 C 
BRANCH   7   9
ATOM      9  C   UNL A   1      32.073  26.000  26.259  1.00  0.00     0.037 C 
ATOM     10  C   UNL A   1      31.796  24.549  26.613  1.00  0.00     0.007 C 
ENDBRANCH   7   9
BRANCH   7  11
ATOM     11  N   UNL A   1      32.187  25.677  23.836  1.00  0.00    -0.335 N 
ATOM     12  C   UNL A   1      30.882  25.877  23.446  1.00  0.00     0.279 C 
ATOM     13  H   UNL A   1      32.703  25.053  23.277  1.00  0.00     0.164 HD
ATOM     14  O   UNL A   1      30.352  24.821  23.109  1.00  0.00    -0.268 OA
BRANCH  12  15
ATOM     15  C   UNL A   1      30.261  27.389  23.407  1.00  0.00     0.278 C 
ATOM     16  C   UNL A   1      30.763  29.120  22.490  1.00  0.00     0.131 C 
ATOM     17  N   UNL A   1      28.378  27.115  23.699  1.00  0.00    -0.331 N 
ATOM     18  C   UNL A   1      29.375  30.329  22.177  1.00  0.00     0.050 A 
ATOM     19  C   UNL A   1      27.225  28.501  23.155  1.00  0.00     0.320 C 
ATOM     20  H   UNL A   1      28.238  26.971  24.699  1.00  0.00     0.347 HD
ATOM     21  H   UNL A   1      28.131  26.317  23.115  1.00  0.00     0.347 HD
ATOM     22  N   UNL A   1      29.466  31.647  21.873  1.00  0.00    -0.348 N 
ATOM     23  C   UNL A   1      27.913  30.066  22.398  1.00  0.00     0.116 A 
ATOM     24  C   UNL A   1      28.206  32.172  22.086  1.00  0.00     0.197 A 
ATOM     25  H   UNL A   1      30.265  32.131  21.562  1.00  0.00     0.167 HD
ATOM     26  N   UNL A   1      27.275  31.281  22.399  1.00  0.00    -0.236 NA
ENDBRANCH  12  15
ENDBRANCH   7  11
ENDBRANCH   5   7
ENDBRANCH   4   5
ENDBRANCH   3   4
ENDBRANCH   2   3
ENDBRANCH   1   2
BRANCH   1  27
ATOM     27  C   UNL A   1      35.312  32.510  29.645  1.00  0.00     0.202 C 
BRANCH  27  28
ATOM     28  C   UNL A   1      36.861  32.965  29.535  1.00  0.00     0.261 C 
BRANCH  28  29
ATOM     29  O   UNL A   1      37.786  31.882  29.268  1.00  0.00    -0.460 OA
BRANCH  29  30
ATOM     30  C   UNL A   1      38.071  30.943  30.172  1.00  0.00     0.338 C 
ATOM     31  O   UNL A   1      38.475  31.148  31.324  1.00  0.00    -0.246 OA
BRANCH  30  32
ATOM     32  C   UNL A   1      37.484  29.625  29.669  1.00  0.00     0.060 A 
ATOM     33  C   UNL A   1      37.770  28.571  30.551  1.00  0.00     0.016 A 
ATOM     34  C   UNL A   1      37.740  29.456  28.319  1.00  0.00     0.016 A 
ATOM     35  C   UNL A   1      38.955  27.950  30.341  1.00  0.00     0.010 A 
ATOM     36  C   UNL A   1      38.909  28.805  28.048  1.00  0.00     0.010 A 
ATOM     37  C   UNL A   1      39.579  28.250  29.139  1.00  0.00    -0.014 A 
BRANCH  37  38
ATOM     38  C   UNL A   1      40.992  28.005  29.093  1.00  0.00     0.031 A 
ATOM     39  C   UNL A   1      41.281  26.646  28.619  1.00  0.00     0.074 A 
ATOM     40  C   UNL A   1      41.833  29.002  29.420  1.00  0.00     0.049 A 
ATOM     41  N   UNL A   1      41.994  25.726  29.173  1.00  0.00    -0.248 NA
ATOM     42  C   UNL A   1      40.476  26.192  27.465  1.00  0.00     0.031 C 
ATOM     43  C   UNL A   1      41.503  30.406  29.705  1.00  0.00     0.029 A 
ATOM     44  N   UNL A   1      43.186  29.017  29.357  1.00  0.00    -0.354 N 
ATOM     45  C   UNL A   1      41.887  24.644  28.308  1.00  0.00     0.074 A 
ATOM     46  C   UNL A   1      40.766  24.898  27.444  1.00  0.00     0.031 C 
ATOM     47  C   UNL A   1      42.589  31.166  29.461  1.00  0.00     0.029 A 
ATOM     48  C   UNL A   1      43.687  30.285  29.105  1.00  0.00     0.049 A 
ATOM     49  H   UNL A   1      43.749  28.218  29.477  1.00  0.00     0.167 HD
ATOM     50  C   UNL A   1      42.935  23.809  28.099  1.00  0.00     0.031 A 
ATOM     51  C   UNL A   1      44.850  30.567  28.478  1.00  0.00     0.031 A 
ATOM     52  C   UNL A   1      43.856  23.808  29.201  1.00  0.00     0.049 A 
ATOM     53  C   UNL A   1      45.654  29.319  28.444  1.00  0.00     0.074 A 
ATOM     54  C   UNL A   1      43.747  23.501  30.543  1.00  0.00     0.029 A 
ATOM     55  N   UNL A   1      45.011  24.543  29.067  1.00  0.00    -0.354 N 
ATOM     56  N   UNL A   1      46.157  28.754  29.505  1.00  0.00    -0.248 NA
ATOM     57  C   UNL A   1      45.516  28.444  27.287  1.00  0.00     0.031 C 
ATOM     58  C   UNL A   1      44.608  24.418  31.210  1.00  0.00     0.029 A 
ATOM     59  C   UNL A   1      45.223  25.217  30.243  1.00  0.00     0.049 A 
ATOM     60  H   UNL A   1      45.584  24.579  28.267  1.00  0.00     0.167 HD
ATOM     61  C   UNL A   1      46.010  27.388  29.291  1.00  0.00     0.074 A 
ATOM     62  C   UNL A   1      45.725  27.257  27.865  1.00  0.00     0.031 C 
ATOM     63  C   UNL A   1      45.835  26.525  30.337  1.00  0.00     0.031 A 
BRANCH  50  64
ATOM     64  C   UNL A   1      43.304  23.382  26.702  1.00  0.00    -0.014 A 
ATOM     65  C   UNL A   1      43.368  22.016  26.407  1.00  0.00     0.009 A 
ATOM     66  C   UNL A   1      43.835  24.266  25.736  1.00  0.00     0.009 A 
ATOM     67  C   UNL A   1      43.966  21.564  25.225  1.00  0.00     0.001 A 
ATOM     68  C   UNL A   1      44.386  23.825  24.535  1.00  0.00     0.001 A 
ATOM     69  C   UNL A   1      44.474  22.466  24.291  1.00  0.00     0.000 A 
ENDBRANCH  50  64
BRANCH  51  70
ATOM     70  C   UNL A   1      45.119  31.727  27.600  1.00  0.00    -0.014 A 
ATOM     71  C   UNL A   1      44.331  31.956  26.465  1.00  0.00     0.009 A 
ATOM     72  C   UNL A   1      46.024  32.739  27.982  1.00  0.00     0.009 A 
ATOM     73  C   UNL A   1      44.433  33.156  25.751  1.00  0.00     0.001 A 
ATOM     74  C   UNL A   1      46.136  33.932  27.262  1.00  0.00     0.001 A 
ATOM     75  C   UNL A   1      45.330  34.145  26.152  1.00  0.00     0.000 A 
ENDBRANCH  51  70
BRANCH  63  76
ATOM     76  C   UNL A   1      46.024  27.077  31.732  1.00  0.00    -0.014 A 
ATOM     77  C   UNL A   1      47.261  27.036  32.401  1.00  0.00     0.009 A 
ATOM     78  C   UNL A   1      44.977  27.800  32.321  1.00  0.00     0.009 A 
ATOM     79  C   UNL A   1      47.434  27.667  33.637  1.00  0.00     0.001 A 
ATOM     80  C   UNL A   1      45.156  28.449  33.546  1.00  0.00     0.001 A 
ATOM     81  C   UNL A   1      46.381  28.377  34.206  1.00  0.00     0.000 A 
ENDBRANCH  63  76
ENDBRANCH  37  38
ENDBRANCH  30  32
ENDBRANCH  29  30
ENDBRANCH  28  29
ENDBRANCH  27  28
ENDBRANCH   1  27
TORSDOF 17
ENDMDL
