MODEL 1
REMARK VINA RESULT:     -10.8      0.000      0.000
REMARK SMILES COc1cc(OC)cc(-c2ccc([C@@H](C)C(=O)OCCOCCOC(=O)c3ccc(-c4c5nc(c(-c6ccccc6)c6ccc([nH]6)c(-c6ccccc6)c6nc(c(-c7ccccc7)c7ccc4[nH]7)C=C6)C=C5)cc3)cc2F)c1
REMARK SMILES IDX 20 1 19 2 18 3 16 4 17 5 14 6 15 7 13 8 10 9 11 10 76 11
REMARK SMILES IDX 12 12 75 13 77 14 9 15 3 16 4 17 78 18 5 19 8 20 2 21 1 22
REMARK SMILES IDX 6 23 7 24 21 25 22 26 23 27 24 28 25 29 26 30 27 31 28 32
REMARK SMILES IDX 74 33 29 34 73 35 30 36 31 37 32 38 67 39 33 40 72 41 66 42
REMARK SMILES IDX 68 43 34 44 71 45 65 46 64 47 35 49 57 50 42 51 56 52 43 53
REMARK SMILES IDX 46 54 55 55 69 56 44 57 45 58 54 60 70 61 47 62 36 63 37 64
REMARK SMILES IDX 41 65 38 66 40 67 39 68 58 69 59 70 63 71 60 72 62 73 61 74
REMARK SMILES IDX 48 75 49 76 53 77 50 78 52 79 51 80
REMARK H PARENT 68 48 46 59
REMARK Flexibility Score: inf
ROOT
ATOM      1  C   UNL A   1      44.384  18.975  25.239  1.00  0.00     0.202 C 
ENDROOT
BRANCH   1   2
ATOM      2  C   UNL A   1      43.160  18.410  25.964  1.00  0.00     0.261 C 
BRANCH   2   3
ATOM      3  O   UNL A   1      42.515  19.435  26.744  1.00  0.00    -0.463 OA
BRANCH   3   4
ATOM      4  C   UNL A   1      41.274  19.802  26.336  1.00  0.00     0.313 C 
ATOM      5  O   UNL A   1      40.494  19.065  25.740  1.00  0.00    -0.252 OA
BRANCH   4   6
ATOM      6  C   UNL A   1      40.929  21.250  26.647  1.00  0.00     0.126 C 
ATOM      7  C   UNL A   1      41.023  21.472  28.155  1.00  0.00     0.025 C 
BRANCH   6   8
ATOM      8  C   UNL A   1      39.635  21.818  26.067  1.00  0.00    -0.031 A 
ATOM      9  C   UNL A   1      37.099  22.853  25.254  1.00  0.00     0.018 A 
ATOM     10  C   UNL A   1      37.526  21.573  24.862  1.00  0.00     0.012 A 
ATOM     11  C   UNL A   1      37.996  23.620  26.006  1.00  0.00     0.131 A 
ATOM     12  C   UNL A   1      38.772  21.062  25.261  1.00  0.00     0.005 A 
ATOM     13  C   UNL A   1      39.238  23.120  26.408  1.00  0.00     0.044 A 
ATOM     14  F   UNL A   1      37.657  24.854  26.409  1.00  0.00    -0.206 F 
BRANCH   9  15
ATOM     15  C   UNL A   1      35.728  23.321  24.973  1.00  0.00    -0.008 A 
ATOM     16  C   UNL A   1      34.039  24.231  23.467  1.00  0.00     0.123 A 
ATOM     17  C   UNL A   1      33.147  24.331  24.536  1.00  0.00     0.092 A 
ATOM     18  C   UNL A   1      35.328  23.735  23.688  1.00  0.00     0.055 A 
ATOM     19  C   UNL A   1      33.517  23.932  25.817  1.00  0.00     0.123 A 
ATOM     20  C   UNL A   1      34.797  23.417  26.027  1.00  0.00     0.055 A 
BRANCH  16  21
ATOM     21  O   UNL A   1      33.547  24.690  22.276  1.00  0.00    -0.497 OA
ATOM     22  C   UNL A   1      32.690  25.822  22.333  1.00  0.00     0.278 C 
ENDBRANCH  16  21
BRANCH  19  23
ATOM     23  O   UNL A   1      32.551  24.091  26.772  1.00  0.00    -0.497 OA
ATOM     24  C   UNL A   1      31.580  23.056  26.881  1.00  0.00     0.278 C 
ENDBRANCH  19  23
ENDBRANCH   9  15
ENDBRANCH   6   8
ENDBRANCH   4   6
ENDBRANCH   3   4
ENDBRANCH   2   3
ENDBRANCH   1   2
BRANCH   1  25
ATOM     25  O   UNL A   1      44.152  20.150  24.462  1.00  0.00    -0.374 OA
BRANCH  25  26
ATOM     26  C   UNL A   1      44.717  21.372  24.938  1.00  0.00     0.202 C 
BRANCH  26  27
ATOM     27  C   UNL A   1      44.690  22.549  23.957  1.00  0.00     0.261 C 
BRANCH  27  28
ATOM     28  O   UNL A   1      43.835  23.613  24.411  1.00  0.00    -0.460 OA
BRANCH  28  29
ATOM     29  C   UNL A   1      44.478  24.630  25.024  1.00  0.00     0.338 C 
ATOM     30  O   UNL A   1      45.637  24.989  24.849  1.00  0.00    -0.246 OA
BRANCH  29  31
ATOM     31  C   UNL A   1      43.548  25.405  25.866  1.00  0.00     0.060 A 
ATOM     32  C   UNL A   1      43.803  26.776  26.001  1.00  0.00     0.016 A 
ATOM     33  C   UNL A   1      42.522  24.800  26.595  1.00  0.00     0.016 A 
ATOM     34  C   UNL A   1      43.085  27.533  26.922  1.00  0.00     0.010 A 
ATOM     35  C   UNL A   1      41.802  25.562  27.526  1.00  0.00     0.010 A 
ATOM     36  C   UNL A   1      42.117  26.918  27.729  1.00  0.00    -0.014 A 
BRANCH  36  37
ATOM     37  C   UNL A   1      41.589  27.662  28.900  1.00  0.00     0.031 A 
ATOM     38  C   UNL A   1      42.316  27.555  30.216  1.00  0.00     0.074 A 
ATOM     39  C   UNL A   1      40.528  28.480  28.784  1.00  0.00     0.049 A 
ATOM     40  N   UNL A   1      42.067  28.157  31.352  1.00  0.00    -0.248 NA
ATOM     41  C   UNL A   1      43.480  26.656  30.254  1.00  0.00     0.031 C 
ATOM     42  C   UNL A   1      39.762  28.708  27.560  1.00  0.00     0.029 A 
ATOM     43  N   UNL A   1      39.920  29.282  29.718  1.00  0.00    -0.354 N 
ATOM     44  C   UNL A   1      43.037  27.705  32.237  1.00  0.00     0.074 A 
ATOM     45  C   UNL A   1      43.862  26.759  31.518  1.00  0.00     0.031 C 
ATOM     46  C   UNL A   1      38.782  29.593  27.820  1.00  0.00     0.029 A 
ATOM     47  C   UNL A   1      38.843  29.978  29.228  1.00  0.00     0.049 A 
ATOM     48  H   UNL A   1      40.227  29.351  30.651  1.00  0.00     0.167 HD
ATOM     49  C   UNL A   1      43.234  28.051  33.532  1.00  0.00     0.031 A 
ATOM     50  C   UNL A   1      37.998  30.826  29.848  1.00  0.00     0.031 A 
ATOM     51  C   UNL A   1      42.419  28.988  34.256  1.00  0.00     0.049 A 
ATOM     52  C   UNL A   1      38.210  31.157  31.302  1.00  0.00     0.074 A 
ATOM     53  C   UNL A   1      42.549  29.409  35.569  1.00  0.00     0.029 A 
ATOM     54  N   UNL A   1      41.322  29.648  33.730  1.00  0.00    -0.354 N 
ATOM     55  N   UNL A   1      39.150  30.744  32.116  1.00  0.00    -0.248 NA
ATOM     56  C   UNL A   1      37.249  32.087  31.914  1.00  0.00     0.031 C 
ATOM     57  C   UNL A   1      41.503  30.293  35.849  1.00  0.00     0.029 A 
ATOM     58  C   UNL A   1      40.753  30.460  34.696  1.00  0.00     0.049 A 
ATOM     59  H   UNL A   1      40.995  29.554  32.806  1.00  0.00     0.167 HD
ATOM     60  C   UNL A   1      38.914  31.389  33.325  1.00  0.00     0.074 A 
ATOM     61  C   UNL A   1      37.750  32.228  33.134  1.00  0.00     0.031 C 
ATOM     62  C   UNL A   1      39.602  31.297  34.488  1.00  0.00     0.031 A 
BRANCH  49  63
ATOM     63  C   UNL A   1      44.367  27.386  34.260  1.00  0.00    -0.014 A 
ATOM     64  C   UNL A   1      45.619  28.008  34.378  1.00  0.00     0.009 A 
ATOM     65  C   UNL A   1      44.165  26.138  34.870  1.00  0.00     0.009 A 
ATOM     66  C   UNL A   1      46.657  27.380  35.072  1.00  0.00     0.001 A 
ATOM     67  C   UNL A   1      45.196  25.524  35.582  1.00  0.00     0.001 A 
ATOM     68  C   UNL A   1      46.442  26.142  35.677  1.00  0.00     0.000 A 
ENDBRANCH  49  63
BRANCH  50  69
ATOM     69  C   UNL A   1      36.860  31.422  29.102  1.00  0.00    -0.014 A 
ATOM     70  C   UNL A   1      36.907  32.752  28.660  1.00  0.00     0.009 A 
ATOM     71  C   UNL A   1      35.699  30.669  28.865  1.00  0.00     0.009 A 
ATOM     72  C   UNL A   1      35.804  33.325  28.022  1.00  0.00     0.001 A 
ATOM     73  C   UNL A   1      34.609  31.236  28.203  1.00  0.00     0.001 A 
ATOM     74  C   UNL A   1      34.658  32.566  27.793  1.00  0.00     0.000 A 
ENDBRANCH  50  69
BRANCH  62  75
ATOM     75  C   UNL A   1      39.145  32.161  35.630  1.00  0.00    -0.014 A 
ATOM     76  C   UNL A   1      39.591  33.483  35.771  1.00  0.00     0.009 A 
ATOM     77  C   UNL A   1      38.221  31.650  36.557  1.00  0.00     0.009 A 
ATOM     78  C   UNL A   1      39.150  34.265  36.841  1.00  0.00     0.001 A 
ATOM     79  C   UNL A   1      37.762  32.443  37.609  1.00  0.00     0.001 A 
ATOM     80  C   UNL A   1      38.234  33.746  37.756  1.00  0.00     0.000 A 
ENDBRANCH  62  75
ENDBRANCH  36  37
ENDBRANCH  29  31
ENDBRANCH  28  29
ENDBRANCH  27  28
ENDBRANCH  26  27
ENDBRANCH  25  26
ENDBRANCH   1  25
TORSDOF 18
ENDMDL
MODEL 2
REMARK VINA RESULT:     -10.5      4.684     11.430
REMARK SMILES COc1cc(OC)cc(-c2ccc([C@@H](C)C(=O)OCCOCCOC(=O)c3ccc(-c4c5nc(c(-c6ccccc6)c6ccc([nH]6)c(-c6ccccc6)c6nc(c(-c7ccccc7)c7ccc4[nH]7)C=C6)C=C5)cc3)cc2F)c1
REMARK SMILES IDX 20 1 19 2 18 3 16 4 17 5 14 6 15 7 13 8 10 9 11 10 76 11
REMARK SMILES IDX 12 12 75 13 77 14 9 15 3 16 4 17 78 18 5 19 8 20 2 21 1 22
REMARK SMILES IDX 6 23 7 24 21 25 22 26 23 27 24 28 25 29 26 30 27 31 28 32
REMARK SMILES IDX 74 33 29 34 73 35 30 36 31 37 32 38 67 39 33 40 72 41 66 42
REMARK SMILES IDX 68 43 34 44 71 45 65 46 64 47 35 49 57 50 42 51 56 52 43 53
REMARK SMILES IDX 46 54 55 55 69 56 44 57 45 58 54 60 70 61 47 62 36 63 37 64
REMARK SMILES IDX 41 65 38 66 40 67 39 68 58 69 59 70 63 71 60 72 62 73 61 74
REMARK SMILES IDX 48 75 49 76 53 77 50 78 52 79 51 80
REMARK H PARENT 68 48 46 59
REMARK Flexibility Score: inf
ROOT
ATOM      1  C   UNL A   1      33.001  35.795  30.981  1.00  0.00     0.202 C 
ENDROOT
BRANCH   1   2
ATOM      2  C   UNL A   1      34.084  35.739  32.059  1.00  0.00     0.261 C 
BRANCH   2   3
ATOM      3  O   UNL A   1      33.827  34.662  32.981  1.00  0.00    -0.463 OA
BRANCH   3   4
ATOM      4  C   UNL A   1      34.480  33.498  32.736  1.00  0.00     0.313 C 
ATOM      5  O   UNL A   1      34.013  32.564  32.091  1.00  0.00    -0.252 OA
BRANCH   4   6
ATOM      6  C   UNL A   1      35.858  33.422  33.374  1.00  0.00     0.126 C 
ATOM      7  C   UNL A   1      35.835  34.176  34.703  1.00  0.00     0.025 C 
BRANCH   6   8
ATOM      8  C   UNL A   1      37.064  33.810  32.521  1.00  0.00    -0.031 A 
ATOM      9  C   UNL A   1      39.374  34.245  30.897  1.00  0.00     0.018 A 
ATOM     10  C   UNL A   1      39.382  34.533  32.271  1.00  0.00     0.012 A 
ATOM     11  C   UNL A   1      38.167  33.796  30.348  1.00  0.00     0.131 A 
ATOM     12  C   UNL A   1      38.248  34.320  33.072  1.00  0.00     0.005 A 
ATOM     13  C   UNL A   1      37.033  33.580  31.137  1.00  0.00     0.044 A 
ATOM     14  F   UNL A   1      38.085  33.507  29.040  1.00  0.00    -0.206 F 
BRANCH   9  15
ATOM     15  C   UNL A   1      40.611  34.314  30.093  1.00  0.00    -0.008 A 
ATOM     16  C   UNL A   1      42.869  33.561  29.566  1.00  0.00     0.123 A 
ATOM     17  C   UNL A   1      42.987  34.587  28.628  1.00  0.00     0.092 A 
ATOM     18  C   UNL A   1      41.687  33.431  30.303  1.00  0.00     0.055 A 
ATOM     19  C   UNL A   1      41.940  35.476  28.403  1.00  0.00     0.123 A 
ATOM     20  C   UNL A   1      40.754  35.328  29.125  1.00  0.00     0.055 A 
BRANCH  16  21
ATOM     21  O   UNL A   1      43.989  32.786  29.700  1.00  0.00    -0.497 OA
ATOM     22  C   UNL A   1      43.936  31.750  30.671  1.00  0.00     0.278 C 
ENDBRANCH  16  21
BRANCH  19  23
ATOM     23  O   UNL A   1      42.190  36.437  27.463  1.00  0.00    -0.497 OA
ATOM     24  C   UNL A   1      42.661  37.692  27.940  1.00  0.00     0.278 C 
ENDBRANCH  19  23
ENDBRANCH   9  15
ENDBRANCH   6   8
ENDBRANCH   4   6
ENDBRANCH   3   4
ENDBRANCH   2   3
ENDBRANCH   1   2
BRANCH   1  25
ATOM     25  O   UNL A   1      33.473  35.877  29.636  1.00  0.00    -0.374 OA
BRANCH  25  26
ATOM     26  C   UNL A   1      33.158  34.790  28.765  1.00  0.00     0.202 C 
BRANCH  26  27
ATOM     27  C   UNL A   1      34.354  33.998  28.225  1.00  0.00     0.261 C 
BRANCH  27  28
ATOM     28  O   UNL A   1      34.626  32.824  29.011  1.00  0.00    -0.460 OA
BRANCH  28  29
ATOM     29  C   UNL A   1      34.421  31.655  28.367  1.00  0.00     0.338 C 
ATOM     30  O   UNL A   1      33.488  31.369  27.626  1.00  0.00    -0.246 OA
BRANCH  29  31
ATOM     31  C   UNL A   1      35.577  30.755  28.537  1.00  0.00     0.060 A 
ATOM     32  C   UNL A   1      35.676  30.068  29.754  1.00  0.00     0.016 A 
ATOM     33  C   UNL A   1      36.597  30.665  27.587  1.00  0.00     0.016 A 
ATOM     34  C   UNL A   1      36.829  29.350  30.059  1.00  0.00     0.010 A 
ATOM     35  C   UNL A   1      37.759  29.946  27.897  1.00  0.00     0.010 A 
ATOM     36  C   UNL A   1      37.900  29.330  29.154  1.00  0.00    -0.014 A 
BRANCH  36  37
ATOM     37  C   UNL A   1      39.217  28.827  29.621  1.00  0.00     0.031 A 
ATOM     38  C   UNL A   1      39.852  29.468  30.828  1.00  0.00     0.074 A 
ATOM     39  C   UNL A   1      39.806  27.771  29.034  1.00  0.00     0.049 A 
ATOM     40  N   UNL A   1      40.967  29.158  31.441  1.00  0.00    -0.248 NA
ATOM     41  C   UNL A   1      39.133  30.605  31.426  1.00  0.00     0.031 C 
ATOM     42  C   UNL A   1      39.278  27.034  27.887  1.00  0.00     0.029 A 
ATOM     43  N   UNL A   1      40.982  27.130  29.336  1.00  0.00    -0.354 N 
ATOM     44  C   UNL A   1      41.084  30.062  32.489  1.00  0.00     0.074 A 
ATOM     45  C   UNL A   1      39.944  30.950  32.415  1.00  0.00     0.031 C 
ATOM     46  C   UNL A   1      40.130  26.039  27.582  1.00  0.00     0.029 A 
ATOM     47  C   UNL A   1      41.268  26.081  28.498  1.00  0.00     0.049 A 
ATOM     48  H   UNL A   1      41.565  27.398  30.083  1.00  0.00     0.167 HD
ATOM     49  C   UNL A   1      42.047  30.143  33.438  1.00  0.00     0.031 A 
ATOM     50  C   UNL A   1      42.329  25.252  28.470  1.00  0.00     0.031 A 
ATOM     51  C   UNL A   1      43.184  29.268  33.520  1.00  0.00     0.049 A 
ATOM     52  C   UNL A   1      43.412  25.395  29.508  1.00  0.00     0.074 A 
ATOM     53  C   UNL A   1      44.206  29.268  34.453  1.00  0.00     0.029 A 
ATOM     54  N   UNL A   1      43.449  28.237  32.635  1.00  0.00    -0.354 N 
ATOM     55  N   UNL A   1      43.492  26.235  30.510  1.00  0.00    -0.248 NA
ATOM     56  C   UNL A   1      44.542  24.458  29.416  1.00  0.00     0.031 C 
ATOM     57  C   UNL A   1      45.114  28.262  34.107  1.00  0.00     0.029 A 
ATOM     58  C   UNL A   1      44.628  27.605  32.988  1.00  0.00     0.049 A 
ATOM     59  H   UNL A   1      42.882  27.990  31.868  1.00  0.00     0.167 HD
ATOM     60  C   UNL A   1      44.662  25.908  31.187  1.00  0.00     0.074 A 
ATOM     61  C   UNL A   1      45.252  24.786  30.488  1.00  0.00     0.031 C 
ATOM     62  C   UNL A   1      45.197  26.483  32.290  1.00  0.00     0.031 A 
BRANCH  49  63
ATOM     63  C   UNL A   1      41.924  31.243  34.454  1.00  0.00    -0.014 A 
ATOM     64  C   UNL A   1      42.498  32.504  34.233  1.00  0.00     0.009 A 
ATOM     65  C   UNL A   1      41.189  31.025  35.629  1.00  0.00     0.009 A 
ATOM     66  C   UNL A   1      42.360  33.519  35.184  1.00  0.00     0.001 A 
ATOM     67  C   UNL A   1      41.033  32.048  36.566  1.00  0.00     0.001 A 
ATOM     68  C   UNL A   1      41.623  33.290  36.346  1.00  0.00     0.000 A 
ENDBRANCH  49  63
BRANCH  50  69
ATOM     69  C   UNL A   1      42.436  24.210  27.417  1.00  0.00    -0.014 A 
ATOM     70  C   UNL A   1      42.006  22.897  27.658  1.00  0.00     0.009 A 
ATOM     71  C   UNL A   1      43.008  24.520  26.173  1.00  0.00     0.009 A 
ATOM     72  C   UNL A   1      42.175  21.908  26.685  1.00  0.00     0.001 A 
ATOM     73  C   UNL A   1      43.150  23.536  25.193  1.00  0.00     0.001 A 
ATOM     74  C   UNL A   1      42.744  22.229  25.454  1.00  0.00     0.000 A 
ENDBRANCH  50  69
BRANCH  62  75
ATOM     75  C   UNL A   1      46.459  25.879  32.839  1.00  0.00    -0.014 A 
ATOM     76  C   UNL A   1      47.723  26.315  32.415  1.00  0.00     0.009 A 
ATOM     77  C   UNL A   1      46.377  24.883  33.826  1.00  0.00     0.009 A 
ATOM     78  C   UNL A   1      48.881  25.739  32.941  1.00  0.00     0.001 A 
ATOM     79  C   UNL A   1      47.536  24.328  34.369  1.00  0.00     0.001 A 
ATOM     80  C   UNL A   1      48.787  24.749  33.919  1.00  0.00     0.000 A 
ENDBRANCH  62  75
ENDBRANCH  36  37
ENDBRANCH  29  31
ENDBRANCH  28  29
ENDBRANCH  27  28
ENDBRANCH  26  27
ENDBRANCH  25  26
ENDBRANCH   1  25
TORSDOF 18
ENDMDL
MODEL 3
REMARK VINA RESULT:     -10.1      4.724     11.468
REMARK SMILES COc1cc(OC)cc(-c2ccc([C@@H](C)C(=O)OCCOCCOC(=O)c3ccc(-c4c5nc(c(-c6ccccc6)c6ccc([nH]6)c(-c6ccccc6)c6nc(c(-c7ccccc7)c7ccc4[nH]7)C=C6)C=C5)cc3)cc2F)c1
REMARK SMILES IDX 20 1 19 2 18 3 16 4 17 5 14 6 15 7 13 8 10 9 11 10 76 11
REMARK SMILES IDX 12 12 75 13 77 14 9 15 3 16 4 17 78 18 5 19 8 20 2 21 1 22
REMARK SMILES IDX 6 23 7 24 21 25 22 26 23 27 24 28 25 29 26 30 27 31 28 32
REMARK SMILES IDX 74 33 29 34 73 35 30 36 31 37 32 38 67 39 33 40 72 41 66 42
REMARK SMILES IDX 68 43 34 44 71 45 65 46 64 47 35 49 57 50 42 51 56 52 43 53
REMARK SMILES IDX 46 54 55 55 69 56 44 57 45 58 54 60 70 61 47 62 36 63 37 64
REMARK SMILES IDX 41 65 38 66 40 67 39 68 58 69 59 70 63 71 60 72 62 73 61 74
REMARK SMILES IDX 48 75 49 76 53 77 50 78 52 79 51 80
REMARK H PARENT 68 48 46 59
REMARK Flexibility Score: inf
ROOT
ATOM      1  C   UNL A   1      32.944  35.682  30.838  1.00  0.00     0.202 C 
ENDROOT
BRANCH   1   2
ATOM      2  C   UNL A   1      34.059  35.786  31.880  1.00  0.00     0.261 C 
BRANCH   2   3
ATOM      3  O   UNL A   1      33.915  34.759  32.881  1.00  0.00    -0.463 OA
BRANCH   3   4
ATOM      4  C   UNL A   1      34.489  33.563  32.594  1.00  0.00     0.313 C 
ATOM      5  O   UNL A   1      33.956  32.680  31.929  1.00  0.00    -0.252 OA
BRANCH   4   6
ATOM      6  C   UNL A   1      35.866  33.381  33.213  1.00  0.00     0.126 C 
ATOM      7  C   UNL A   1      35.886  34.043  34.589  1.00  0.00     0.025 C 
BRANCH   6   8
ATOM      8  C   UNL A   1      37.083  33.768  32.376  1.00  0.00    -0.031 A 
ATOM      9  C   UNL A   1      39.418  34.203  30.788  1.00  0.00     0.018 A 
ATOM     10  C   UNL A   1      39.399  34.511  32.158  1.00  0.00     0.012 A 
ATOM     11  C   UNL A   1      38.226  33.734  30.224  1.00  0.00     0.131 A 
ATOM     12  C   UNL A   1      38.252  34.298  32.941  1.00  0.00     0.005 A 
ATOM     13  C   UNL A   1      37.080  33.518  30.995  1.00  0.00     0.044 A 
ATOM     14  F   UNL A   1      38.171  33.426  28.919  1.00  0.00    -0.206 F 
BRANCH   9  15
ATOM     15  C   UNL A   1      40.669  34.272  30.006  1.00  0.00    -0.008 A 
ATOM     16  C   UNL A   1      42.900  33.458  29.454  1.00  0.00     0.123 A 
ATOM     17  C   UNL A   1      43.077  34.541  28.592  1.00  0.00     0.092 A 
ATOM     18  C   UNL A   1      41.703  33.330  30.165  1.00  0.00     0.055 A 
ATOM     19  C   UNL A   1      42.073  35.490  28.419  1.00  0.00     0.123 A 
ATOM     20  C   UNL A   1      40.871  35.344  29.114  1.00  0.00     0.055 A 
BRANCH  16  21
ATOM     21  O   UNL A   1      43.983  32.627  29.546  1.00  0.00    -0.497 OA
ATOM     22  C   UNL A   1      43.750  31.331  30.082  1.00  0.00     0.278 C 
ENDBRANCH  16  21
BRANCH  19  23
ATOM     23  O   UNL A   1      42.379  36.503  27.552  1.00  0.00    -0.497 OA
ATOM     24  C   UNL A   1      42.031  37.821  27.959  1.00  0.00     0.278 C 
ENDBRANCH  19  23
ENDBRANCH   9  15
ENDBRANCH   6   8
ENDBRANCH   4   6
ENDBRANCH   3   4
ENDBRANCH   2   3
ENDBRANCH   1   2
BRANCH   1  25
ATOM     25  O   UNL A   1      33.370  35.698  29.475  1.00  0.00    -0.374 OA
BRANCH  25  26
ATOM     26  C   UNL A   1      33.136  34.522  28.702  1.00  0.00     0.202 C 
BRANCH  26  27
ATOM     27  C   UNL A   1      34.380  33.854  28.106  1.00  0.00     0.261 C 
BRANCH  27  28
ATOM     28  O   UNL A   1      34.808  32.718  28.878  1.00  0.00    -0.460 OA
BRANCH  28  29
ATOM     29  C   UNL A   1      34.701  31.531  28.243  1.00  0.00     0.338 C 
ATOM     30  O   UNL A   1      33.839  31.196  27.439  1.00  0.00    -0.246 OA
BRANCH  29  31
ATOM     31  C   UNL A   1      35.876  30.684  28.515  1.00  0.00     0.060 A 
ATOM     32  C   UNL A   1      35.859  29.931  29.696  1.00  0.00     0.016 A 
ATOM     33  C   UNL A   1      37.013  30.702  27.703  1.00  0.00     0.016 A 
ATOM     34  C   UNL A   1      37.004  29.257  30.112  1.00  0.00     0.010 A 
ATOM     35  C   UNL A   1      38.166  30.027  28.125  1.00  0.00     0.010 A 
ATOM     36  C   UNL A   1      38.180  29.345  29.355  1.00  0.00    -0.014 A 
BRANCH  36  37
ATOM     37  C   UNL A   1      39.454  28.884  29.963  1.00  0.00     0.031 A 
ATOM     38  C   UNL A   1      40.181  27.724  29.333  1.00  0.00     0.074 A 
ATOM     39  C   UNL A   1      39.998  29.527  31.011  1.00  0.00     0.049 A 
ATOM     40  N   UNL A   1      41.330  27.189  29.660  1.00  0.00    -0.248 NA
ATOM     41  C   UNL A   1      39.529  27.088  28.176  1.00  0.00     0.031 C 
ATOM     42  C   UNL A   1      39.421  30.687  31.687  1.00  0.00     0.029 A 
ATOM     43  N   UNL A   1      41.173  29.294  31.682  1.00  0.00    -0.354 N 
ATOM     44  C   UNL A   1      41.533  26.153  28.757  1.00  0.00     0.074 A 
ATOM     45  C   UNL A   1      40.380  26.115  27.885  1.00  0.00     0.031 C 
ATOM     46  C   UNL A   1      40.246  31.065  32.680  1.00  0.00     0.029 A 
ATOM     47  C   UNL A   1      41.396  30.165  32.719  1.00  0.00     0.049 A 
ATOM     48  H   UNL A   1      41.796  28.571  31.442  1.00  0.00     0.167 HD
ATOM     49  C   UNL A   1      42.590  25.313  28.652  1.00  0.00     0.031 A 
ATOM     50  C   UNL A   1      42.411  30.225  33.603  1.00  0.00     0.031 A 
ATOM     51  C   UNL A   1      43.741  25.340  29.514  1.00  0.00     0.049 A 
ATOM     52  C   UNL A   1      43.551  29.247  33.495  1.00  0.00     0.074 A 
ATOM     53  C   UNL A   1      44.865  24.534  29.476  1.00  0.00     0.029 A 
ATOM     54  N   UNL A   1      43.912  26.220  30.568  1.00  0.00    -0.354 N 
ATOM     55  N   UNL A   1      43.743  28.294  32.617  1.00  0.00    -0.248 NA
ATOM     56  C   UNL A   1      44.624  29.369  34.494  1.00  0.00     0.031 C 
ATOM     57  C   UNL A   1      45.699  24.899  30.538  1.00  0.00     0.029 A 
ATOM     58  C   UNL A   1      45.116  25.965  31.202  1.00  0.00     0.049 A 
ATOM     59  H   UNL A   1      43.273  26.922  30.829  1.00  0.00     0.167 HD
ATOM     60  C   UNL A   1      44.971  27.725  32.937  1.00  0.00     0.074 A 
ATOM     61  C   UNL A   1      45.483  28.448  34.082  1.00  0.00     0.031 C 
ATOM     62  C   UNL A   1      45.618  26.699  32.333  1.00  0.00     0.031 A 
BRANCH  49  63
ATOM     63  C   UNL A   1      42.536  24.266  27.575  1.00  0.00    -0.014 A 
ATOM     64  C   UNL A   1      41.907  23.031  27.793  1.00  0.00     0.009 A 
ATOM     65  C   UNL A   1      43.087  24.538  26.314  1.00  0.00     0.009 A 
ATOM     66  C   UNL A   1      41.854  22.077  26.775  1.00  0.00     0.001 A 
ATOM     67  C   UNL A   1      43.011  23.591  25.290  1.00  0.00     0.001 A 
ATOM     68  C   UNL A   1      42.401  22.360  25.524  1.00  0.00     0.000 A 
ENDBRANCH  49  63
BRANCH  50  69
ATOM     69  C   UNL A   1      42.400  31.245  34.684  1.00  0.00    -0.014 A 
ATOM     70  C   UNL A   1      42.927  32.526  34.469  1.00  0.00     0.009 A 
ATOM     71  C   UNL A   1      41.894  30.922  35.953  1.00  0.00     0.009 A 
ATOM     72  C   UNL A   1      42.976  33.455  35.512  1.00  0.00     0.001 A 
ATOM     73  C   UNL A   1      41.919  31.861  36.986  1.00  0.00     0.001 A 
ATOM     74  C   UNL A   1      42.470  33.122  36.768  1.00  0.00     0.000 A 
ENDBRANCH  50  69
BRANCH  62  75
ATOM     75  C   UNL A   1      46.972  26.328  32.869  1.00  0.00    -0.014 A 
ATOM     76  C   UNL A   1      48.139  26.954  32.404  1.00  0.00     0.009 A 
ATOM     77  C   UNL A   1      47.074  25.362  33.883  1.00  0.00     0.009 A 
ATOM     78  C   UNL A   1      49.386  26.592  32.919  1.00  0.00     0.001 A 
ATOM     79  C   UNL A   1      48.319  25.022  34.414  1.00  0.00     0.001 A 
ATOM     80  C   UNL A   1      49.474  25.629  33.925  1.00  0.00     0.000 A 
ENDBRANCH  62  75
ENDBRANCH  36  37
ENDBRANCH  29  31
ENDBRANCH  28  29
ENDBRANCH  27  28
ENDBRANCH  26  27
ENDBRANCH  25  26
ENDBRANCH   1  25
TORSDOF 18
ENDMDL
