MODEL 1
REMARK VINA RESULT:     -10.9      0.000      0.000
REMARK SMILES C[C@H](NC(=O)N1CC[C@@H](C(=O)OCCOCCOC(=O)c2ccc(-c3c4nc(c(-c5ccccc5)c5ccc([nH]5)c(-c5ccccc5)c5nc(c(-c6ccccc6)c6ccc3[nH]6)C=C5)C=C4)cc2)[C@H]1C)c1ccc(Cl)cc1
REMARK SMILES IDX 14 1 13 2 12 3 10 4 11 5 9 6 6 7 7 8 69 9 8 10 70 11 4 12
REMARK SMILES IDX 3 13 5 15 2 16 1 17 71 18 72 19 77 20 73 21 76 22 74 23
REMARK SMILES IDX 75 24 15 25 16 26 17 27 18 28 19 29 20 30 21 31 22 32 68 33
REMARK SMILES IDX 23 34 67 35 24 36 25 37 26 38 61 39 27 40 66 41 60 42 62 43
REMARK SMILES IDX 28 44 65 45 59 46 58 47 29 49 51 50 36 51 50 52 37 53 40 54
REMARK SMILES IDX 49 55 63 56 38 57 39 58 48 60 64 61 41 62 30 63 31 64 35 65
REMARK SMILES IDX 32 66 34 67 33 68 52 69 53 70 57 71 54 72 56 73 55 74 42 75
REMARK SMILES IDX 43 76 47 77 44 78 46 79 45 80
REMARK H PARENT 3 14 62 48 40 59
REMARK Flexibility Score: inf
ROOT
ATOM      1  C   UNL A   1      38.058  21.806  25.442  1.00  0.00     0.202 C 
ENDROOT
BRANCH   1   2
ATOM      2  C   UNL A   1      36.822  22.659  25.792  1.00  0.00     0.261 C 
BRANCH   2   3
ATOM      3  O   UNL A   1      36.581  23.692  24.811  1.00  0.00    -0.463 OA
BRANCH   3   4
ATOM      4  C   UNL A   1      35.913  23.339  23.689  1.00  0.00     0.311 C 
ATOM      5  O   UNL A   1      36.445  23.162  22.601  1.00  0.00    -0.252 OA
BRANCH   4   6
ATOM      6  C   UNL A   1      34.423  23.122  23.914  1.00  0.00     0.123 C 
ATOM      7  N   UNL A   1      32.185  23.790  24.400  1.00  0.00    -0.321 N 
ATOM      8  C   UNL A   1      32.200  22.944  23.208  1.00  0.00     0.122 C 
ATOM      9  C   UNL A   1      33.594  24.081  24.820  1.00  0.00     0.098 C 
ATOM     10  C   UNL A   1      33.601  23.081  22.636  1.00  0.00     0.039 C 
ATOM     11  C   UNL A   1      33.994  25.553  24.656  1.00  0.00     0.032 C 
BRANCH   7  12
ATOM     12  C   UNL A   1      31.074  23.679  25.220  1.00  0.00     0.318 C 
ATOM     13  N   UNL A   1      30.303  24.781  25.461  1.00  0.00    -0.331 N 
ATOM     14  H   UNL A   1      29.636  24.716  26.183  1.00  0.00     0.165 HD
ATOM     15  O   UNL A   1      30.661  22.592  25.628  1.00  0.00    -0.249 OA
BRANCH  13  16
ATOM     16  C   UNL A   1      30.383  26.028  24.749  1.00  0.00     0.111 C 
ATOM     17  C   UNL A   1      29.084  26.374  24.016  1.00  0.00     0.036 C 
BRANCH  16  18
ATOM     18  C   UNL A   1      30.975  27.254  25.414  1.00  0.00    -0.026 A 
ATOM     19  C   UNL A   1      31.406  27.333  26.738  1.00  0.00     0.007 A 
ATOM     20  C   UNL A   1      31.062  28.416  24.607  1.00  0.00     0.007 A 
ATOM     21  C   UNL A   1      31.889  28.551  27.243  1.00  0.00     0.021 A 
ATOM     22  C   UNL A   1      31.530  29.625  25.113  1.00  0.00     0.021 A 
ATOM     23  C   UNL A   1      31.939  29.688  26.434  1.00  0.00     0.041 A 
ATOM     24  Cl  UNL A   1      32.501  31.184  27.068  1.00  0.00    -0.084 Cl
ENDBRANCH  16  18
ENDBRANCH  13  16
ENDBRANCH   7  12
ENDBRANCH   4   6
ENDBRANCH   3   4
ENDBRANCH   2   3
ENDBRANCH   1   2
BRANCH   1  25
ATOM     25  O   UNL A   1      37.782  20.537  24.847  1.00  0.00    -0.374 OA
BRANCH  25  26
ATOM     26  C   UNL A   1      38.639  19.450  25.188  1.00  0.00     0.202 C 
BRANCH  26  27
ATOM     27  C   UNL A   1      39.929  19.811  25.938  1.00  0.00     0.261 C 
BRANCH  27  28
ATOM     28  O   UNL A   1      41.039  18.989  25.538  1.00  0.00    -0.460 OA
BRANCH  28  29
ATOM     29  C   UNL A   1      42.179  19.215  26.231  1.00  0.00     0.338 C 
ATOM     30  O   UNL A   1      43.106  18.433  26.408  1.00  0.00    -0.246 OA
BRANCH  29  31
ATOM     31  C   UNL A   1      42.252  20.628  26.644  1.00  0.00     0.060 A 
ATOM     32  C   UNL A   1      42.618  21.567  25.672  1.00  0.00     0.016 A 
ATOM     33  C   UNL A   1      42.048  21.024  27.968  1.00  0.00     0.016 A 
ATOM     34  C   UNL A   1      42.833  22.897  26.029  1.00  0.00     0.010 A 
ATOM     35  C   UNL A   1      42.258  22.362  28.321  1.00  0.00     0.010 A 
ATOM     36  C   UNL A   1      42.691  23.298  27.364  1.00  0.00    -0.014 A 
BRANCH  36  37
ATOM     37  C   UNL A   1      43.140  24.651  27.787  1.00  0.00     0.031 A 
ATOM     38  C   UNL A   1      42.107  25.706  28.086  1.00  0.00     0.074 A 
ATOM     39  C   UNL A   1      44.447  24.938  27.928  1.00  0.00     0.049 A 
ATOM     40  N   UNL A   1      42.275  26.957  28.436  1.00  0.00    -0.248 NA
ATOM     41  C   UNL A   1      40.696  25.301  27.966  1.00  0.00     0.031 C 
ATOM     42  C   UNL A   1      45.550  24.004  27.706  1.00  0.00     0.029 A 
ATOM     43  N   UNL A   1      45.065  26.109  28.293  1.00  0.00    -0.354 N 
ATOM     44  C   UNL A   1      40.997  27.488  28.565  1.00  0.00     0.074 A 
ATOM     45  C   UNL A   1      40.065  26.438  28.217  1.00  0.00     0.031 C 
ATOM     46  C   UNL A   1      46.711  24.639  27.941  1.00  0.00     0.029 A 
ATOM     47  C   UNL A   1      46.436  26.031  28.296  1.00  0.00     0.049 A 
ATOM     48  H   UNL A   1      44.572  26.927  28.529  1.00  0.00     0.167 HD
ATOM     49  C   UNL A   1      40.626  28.733  28.951  1.00  0.00     0.031 A 
ATOM     50  C   UNL A   1      47.365  26.976  28.541  1.00  0.00     0.031 A 
ATOM     51  C   UNL A   1      41.546  29.782  29.299  1.00  0.00     0.049 A 
ATOM     52  C   UNL A   1      46.929  28.373  28.898  1.00  0.00     0.074 A 
ATOM     53  C   UNL A   1      41.263  31.069  29.726  1.00  0.00     0.029 A 
ATOM     54  N   UNL A   1      42.926  29.669  29.257  1.00  0.00    -0.354 N 
ATOM     55  N   UNL A   1      45.717  28.850  29.049  1.00  0.00    -0.248 NA
ATOM     56  C   UNL A   1      47.995  29.361  29.131  1.00  0.00     0.031 C 
ATOM     57  C   UNL A   1      42.472  31.753  29.885  1.00  0.00     0.029 A 
ATOM     58  C   UNL A   1      43.508  30.871  29.623  1.00  0.00     0.049 A 
ATOM     59  H   UNL A   1      43.420  28.856  29.004  1.00  0.00     0.167 HD
ATOM     60  C   UNL A   1      45.876  30.179  29.427  1.00  0.00     0.074 A 
ATOM     61  C   UNL A   1      47.300  30.429  29.496  1.00  0.00     0.031 C 
ATOM     62  C   UNL A   1      44.926  31.108  29.696  1.00  0.00     0.031 A 
BRANCH  49  63
ATOM     63  C   UNL A   1      39.154  29.036  28.992  1.00  0.00    -0.014 A 
ATOM     64  C   UNL A   1      38.465  29.469  27.847  1.00  0.00     0.009 A 
ATOM     65  C   UNL A   1      38.437  28.845  30.184  1.00  0.00     0.009 A 
ATOM     66  C   UNL A   1      37.095  29.737  27.906  1.00  0.00     0.001 A 
ATOM     67  C   UNL A   1      37.063  29.084  30.231  1.00  0.00     0.001 A 
ATOM     68  C   UNL A   1      36.395  29.540  29.096  1.00  0.00     0.000 A 
ENDBRANCH  49  63
BRANCH  50  69
ATOM     69  C   UNL A   1      48.812  26.647  28.442  1.00  0.00    -0.014 A 
ATOM     70  C   UNL A   1      49.481  26.719  27.209  1.00  0.00     0.009 A 
ATOM     71  C   UNL A   1      49.524  26.219  29.574  1.00  0.00     0.009 A 
ATOM     72  C   UNL A   1      50.822  26.340  27.108  1.00  0.00     0.001 A 
ATOM     73  C   UNL A   1      50.873  25.871  29.475  1.00  0.00     0.001 A 
ATOM     74  C   UNL A   1      51.517  25.920  28.240  1.00  0.00     0.000 A 
ENDBRANCH  50  69
BRANCH  62  75
ATOM     75  C   UNL A   1      45.390  32.469  30.140  1.00  0.00    -0.014 A 
ATOM     76  C   UNL A   1      45.600  33.510  29.223  1.00  0.00     0.009 A 
ATOM     77  C   UNL A   1      45.571  32.725  31.509  1.00  0.00     0.009 A 
ATOM     78  C   UNL A   1      46.016  34.768  29.664  1.00  0.00     0.001 A 
ATOM     79  C   UNL A   1      45.956  33.992  31.951  1.00  0.00     0.001 A 
ATOM     80  C   UNL A   1      46.189  35.009  31.027  1.00  0.00     0.000 A 
ENDBRANCH  62  75
ENDBRANCH  36  37
ENDBRANCH  29  31
ENDBRANCH  28  29
ENDBRANCH  27  28
ENDBRANCH  26  27
ENDBRANCH  25  26
ENDBRANCH   1  25
TORSDOF 17
ENDMDL
MODEL 2
REMARK VINA RESULT:     -10.9      0.917      5.793
REMARK SMILES C[C@H](NC(=O)N1CC[C@@H](C(=O)OCCOCCOC(=O)c2ccc(-c3c4nc(c(-c5ccccc5)c5ccc([nH]5)c(-c5ccccc5)c5nc(c(-c6ccccc6)c6ccc3[nH]6)C=C5)C=C4)cc2)[C@H]1C)c1ccc(Cl)cc1
REMARK SMILES IDX 14 1 13 2 12 3 10 4 11 5 9 6 6 7 7 8 69 9 8 10 70 11 4 12
REMARK SMILES IDX 3 13 5 15 2 16 1 17 71 18 72 19 77 20 73 21 76 22 74 23
REMARK SMILES IDX 75 24 15 25 16 26 17 27 18 28 19 29 20 30 21 31 22 32 68 33
REMARK SMILES IDX 23 34 67 35 24 36 25 37 26 38 61 39 27 40 66 41 60 42 62 43
REMARK SMILES IDX 28 44 65 45 59 46 58 47 29 49 51 50 36 51 50 52 37 53 40 54
REMARK SMILES IDX 49 55 63 56 38 57 39 58 48 60 64 61 41 62 30 63 31 64 35 65
REMARK SMILES IDX 32 66 34 67 33 68 52 69 53 70 57 71 54 72 56 73 55 74 42 75
REMARK SMILES IDX 43 76 47 77 44 78 46 79 45 80
REMARK H PARENT 3 14 62 48 40 59
REMARK Flexibility Score: inf
ROOT
ATOM      1  C   UNL A   1      38.059  21.576  25.413  1.00  0.00     0.202 C 
ENDROOT
BRANCH   1   2
ATOM      2  C   UNL A   1      36.767  22.367  25.700  1.00  0.00     0.261 C 
BRANCH   2   3
ATOM      3  O   UNL A   1      36.563  23.435  24.748  1.00  0.00    -0.463 OA
BRANCH   3   4
ATOM      4  C   UNL A   1      35.843  23.148  23.639  1.00  0.00     0.311 C 
ATOM      5  O   UNL A   1      36.332  22.976  22.530  1.00  0.00    -0.252 OA
BRANCH   4   6
ATOM      6  C   UNL A   1      34.353  23.000  23.905  1.00  0.00     0.123 C 
ATOM      7  N   UNL A   1      32.156  23.775  24.421  1.00  0.00    -0.321 N 
ATOM      8  C   UNL A   1      32.107  22.892  23.257  1.00  0.00     0.122 C 
ATOM      9  C   UNL A   1      33.585  24.021  24.798  1.00  0.00     0.098 C 
ATOM     10  C   UNL A   1      33.499  22.953  22.649  1.00  0.00     0.039 C 
ATOM     11  C   UNL A   1      34.040  25.469  24.577  1.00  0.00     0.032 C 
BRANCH   7  12
ATOM     12  C   UNL A   1      31.061  23.736  25.269  1.00  0.00     0.318 C 
ATOM     13  N   UNL A   1      30.305  24.860  25.444  1.00  0.00    -0.331 N 
ATOM     14  H   UNL A   1      29.653  24.856  26.182  1.00  0.00     0.165 HD
ATOM     15  O   UNL A   1      30.648  22.686  25.765  1.00  0.00    -0.249 OA
BRANCH  13  16
ATOM     16  C   UNL A   1      30.380  26.050  24.640  1.00  0.00     0.111 C 
ATOM     17  C   UNL A   1      29.082  26.331  23.877  1.00  0.00     0.036 C 
BRANCH  16  18
ATOM     18  C   UNL A   1      30.961  27.328  25.213  1.00  0.00    -0.026 A 
ATOM     19  C   UNL A   1      31.118  28.530  24.524  1.00  0.00     0.007 A 
ATOM     20  C   UNL A   1      31.400  27.260  26.558  1.00  0.00     0.007 A 
ATOM     21  C   UNL A   1      31.721  29.626  25.163  1.00  0.00     0.021 A 
ATOM     22  C   UNL A   1      32.007  28.343  27.186  1.00  0.00     0.021 A 
ATOM     23  C   UNL A   1      32.169  29.524  26.482  1.00  0.00     0.041 A 
ATOM     24  Cl  UNL A   1      32.935  30.859  27.247  1.00  0.00    -0.084 Cl
ENDBRANCH  16  18
ENDBRANCH  13  16
ENDBRANCH   7  12
ENDBRANCH   4   6
ENDBRANCH   3   4
ENDBRANCH   2   3
ENDBRANCH   1   2
BRANCH   1  25
ATOM     25  O   UNL A   1      37.873  20.281  24.837  1.00  0.00    -0.374 OA
BRANCH  25  26
ATOM     26  C   UNL A   1      38.620  19.202  25.392  1.00  0.00     0.202 C 
BRANCH  26  27
ATOM     27  C   UNL A   1      39.922  19.576  26.114  1.00  0.00     0.261 C 
BRANCH  27  28
ATOM     28  O   UNL A   1      41.050  18.826  25.628  1.00  0.00    -0.460 OA
BRANCH  28  29
ATOM     29  C   UNL A   1      42.239  19.209  26.145  1.00  0.00     0.338 C 
ATOM     30  O   UNL A   1      43.271  18.550  26.198  1.00  0.00    -0.246 OA
BRANCH  29  31
ATOM     31  C   UNL A   1      42.197  20.634  26.520  1.00  0.00     0.060 A 
ATOM     32  C   UNL A   1      42.186  21.575  25.484  1.00  0.00     0.016 A 
ATOM     33  C   UNL A   1      42.246  21.050  27.852  1.00  0.00     0.016 A 
ATOM     34  C   UNL A   1      42.279  22.935  25.772  1.00  0.00     0.010 A 
ATOM     35  C   UNL A   1      42.332  22.418  28.138  1.00  0.00     0.010 A 
ATOM     36  C   UNL A   1      42.390  23.366  27.100  1.00  0.00    -0.014 A 
BRANCH  36  37
ATOM     37  C   UNL A   1      42.720  24.785  27.398  1.00  0.00     0.031 A 
ATOM     38  C   UNL A   1      44.108  25.293  27.105  1.00  0.00     0.074 A 
ATOM     39  C   UNL A   1      41.796  25.623  27.902  1.00  0.00     0.049 A 
ATOM     40  N   UNL A   1      44.619  26.480  27.316  1.00  0.00    -0.248 NA
ATOM     41  C   UNL A   1      45.047  24.333  26.500  1.00  0.00     0.031 C 
ATOM     42  C   UNL A   1      40.407  25.276  28.202  1.00  0.00     0.029 A 
ATOM     43  N   UNL A   1      41.895  26.948  28.253  1.00  0.00    -0.354 N 
ATOM     44  C   UNL A   1      45.938  26.404  26.884  1.00  0.00     0.074 A 
ATOM     45  C   UNL A   1      46.161  25.047  26.436  1.00  0.00     0.031 C 
ATOM     46  C   UNL A   1      39.783  26.361  28.690  1.00  0.00     0.029 A 
ATOM     47  C   UNL A   1      40.734  27.469  28.770  1.00  0.00     0.049 A 
ATOM     48  H   UNL A   1      42.719  27.473  28.145  1.00  0.00     0.167 HD
ATOM     49  C   UNL A   1      46.880  27.378  26.849  1.00  0.00     0.031 A 
ATOM     50  C   UNL A   1      40.471  28.694  29.268  1.00  0.00     0.031 A 
ATOM     51  C   UNL A   1      46.668  28.729  27.291  1.00  0.00     0.049 A 
ATOM     52  C   UNL A   1      41.556  29.739  29.283  1.00  0.00     0.074 A 
ATOM     53  C   UNL A   1      47.556  29.792  27.270  1.00  0.00     0.029 A 
ATOM     54  N   UNL A   1      45.487  29.205  27.838  1.00  0.00    -0.354 N 
ATOM     55  N   UNL A   1      42.787  29.663  28.840  1.00  0.00    -0.248 NA
ATOM     56  C   UNL A   1      41.207  31.047  29.861  1.00  0.00     0.031 C 
ATOM     57  C   UNL A   1      46.931  30.895  27.860  1.00  0.00     0.029 A 
ATOM     58  C   UNL A   1      45.633  30.538  28.184  1.00  0.00     0.049 A 
ATOM     59  H   UNL A   1      44.667  28.675  27.962  1.00  0.00     0.167 HD
ATOM     60  C   UNL A   1      43.346  30.918  29.052  1.00  0.00     0.074 A 
ATOM     61  C   UNL A   1      42.317  31.741  29.651  1.00  0.00     0.031 C 
ATOM     62  C   UNL A   1      44.600  31.351  28.772  1.00  0.00     0.031 A 
BRANCH  49  63
ATOM     63  C   UNL A   1      48.243  27.005  26.333  1.00  0.00    -0.014 A 
ATOM     64  C   UNL A   1      48.571  27.138  24.974  1.00  0.00     0.009 A 
ATOM     65  C   UNL A   1      49.227  26.555  27.229  1.00  0.00     0.009 A 
ATOM     66  C   UNL A   1      49.846  26.794  24.519  1.00  0.00     0.001 A 
ATOM     67  C   UNL A   1      50.509  26.242  26.775  1.00  0.00     0.001 A 
ATOM     68  C   UNL A   1      50.815  26.352  25.419  1.00  0.00     0.000 A 
ENDBRANCH  49  63
BRANCH  50  69
ATOM     69  C   UNL A   1      39.123  29.007  29.813  1.00  0.00    -0.014 A 
ATOM     70  C   UNL A   1      38.127  29.560  28.991  1.00  0.00     0.009 A 
ATOM     71  C   UNL A   1      38.837  28.792  31.171  1.00  0.00     0.009 A 
ATOM     72  C   UNL A   1      36.888  29.918  29.525  1.00  0.00     0.001 A 
ATOM     73  C   UNL A   1      37.585  29.123  31.694  1.00  0.00     0.001 A 
ATOM     74  C   UNL A   1      36.616  29.697  30.873  1.00  0.00     0.000 A 
ENDBRANCH  50  69
BRANCH  62  75
ATOM     75  C   UNL A   1      44.919  32.792  29.062  1.00  0.00    -0.014 A 
ATOM     76  C   UNL A   1      44.670  33.804  28.121  1.00  0.00     0.009 A 
ATOM     77  C   UNL A   1      45.432  33.148  30.320  1.00  0.00     0.009 A 
ATOM     78  C   UNL A   1      44.962  35.136  28.422  1.00  0.00     0.001 A 
ATOM     79  C   UNL A   1      45.693  34.484  30.630  1.00  0.00     0.001 A 
ATOM     80  C   UNL A   1      45.468  35.475  29.678  1.00  0.00     0.000 A 
ENDBRANCH  62  75
ENDBRANCH  36  37
ENDBRANCH  29  31
ENDBRANCH  28  29
ENDBRANCH  27  28
ENDBRANCH  26  27
ENDBRANCH  25  26
ENDBRANCH   1  25
TORSDOF 17
ENDMDL
MODEL 3
REMARK VINA RESULT:     -10.8      3.839      7.358
REMARK SMILES C[C@H](NC(=O)N1CC[C@@H](C(=O)OCCOCCOC(=O)c2ccc(-c3c4nc(c(-c5ccccc5)c5ccc([nH]5)c(-c5ccccc5)c5nc(c(-c6ccccc6)c6ccc3[nH]6)C=C5)C=C4)cc2)[C@H]1C)c1ccc(Cl)cc1
REMARK SMILES IDX 14 1 13 2 12 3 10 4 11 5 9 6 6 7 7 8 69 9 8 10 70 11 4 12
REMARK SMILES IDX 3 13 5 15 2 16 1 17 71 18 72 19 77 20 73 21 76 22 74 23
REMARK SMILES IDX 75 24 15 25 16 26 17 27 18 28 19 29 20 30 21 31 22 32 68 33
REMARK SMILES IDX 23 34 67 35 24 36 25 37 26 38 61 39 27 40 66 41 60 42 62 43
REMARK SMILES IDX 28 44 65 45 59 46 58 47 29 49 51 50 36 51 50 52 37 53 40 54
REMARK SMILES IDX 49 55 63 56 38 57 39 58 48 60 64 61 41 62 30 63 31 64 35 65
REMARK SMILES IDX 32 66 34 67 33 68 52 69 53 70 57 71 54 72 56 73 55 74 42 75
REMARK SMILES IDX 43 76 47 77 44 78 46 79 45 80
REMARK H PARENT 3 14 62 48 40 59
REMARK Flexibility Score: inf
ROOT
ATOM      1  C   UNL A   1      40.421  21.127  26.564  1.00  0.00     0.202 C 
ENDROOT
BRANCH   1   2
ATOM      2  C   UNL A   1      39.398  22.052  25.873  1.00  0.00     0.261 C 
BRANCH   2   3
ATOM      3  O   UNL A   1      38.046  21.784  26.305  1.00  0.00    -0.463 OA
BRANCH   3   4
ATOM      4  C   UNL A   1      37.147  21.442  25.353  1.00  0.00     0.311 C 
ATOM      5  O   UNL A   1      37.450  21.015  24.246  1.00  0.00    -0.252 OA
BRANCH   4   6
ATOM      6  C   UNL A   1      35.702  21.584  25.805  1.00  0.00     0.123 C 
ATOM      7  N   UNL A   1      33.610  22.704  26.055  1.00  0.00    -0.321 N 
ATOM      8  C   UNL A   1      33.389  21.354  25.540  1.00  0.00     0.122 C 
ATOM      9  C   UNL A   1      35.081  22.983  26.101  1.00  0.00     0.098 C 
ATOM     10  C   UNL A   1      34.689  20.969  24.854  1.00  0.00     0.039 C 
ATOM     11  C   UNL A   1      35.535  24.061  25.109  1.00  0.00     0.032 C 
BRANCH   7  12
ATOM     12  C   UNL A   1      32.635  23.206  26.903  1.00  0.00     0.318 C 
ATOM     13  N   UNL A   1      31.798  24.190  26.457  1.00  0.00    -0.331 N 
ATOM     14  H   UNL A   1      31.245  24.650  27.130  1.00  0.00     0.165 HD
ATOM     15  O   UNL A   1      32.391  22.701  28.000  1.00  0.00    -0.249 OA
BRANCH  13  16
ATOM     16  C   UNL A   1      31.657  24.611  25.089  1.00  0.00     0.111 C 
ATOM     17  C   UNL A   1      30.832  23.630  24.252  1.00  0.00     0.036 C 
BRANCH  16  18
ATOM     18  C   UNL A   1      31.294  26.046  24.761  1.00  0.00    -0.026 A 
ATOM     19  C   UNL A   1      31.782  27.177  25.413  1.00  0.00     0.007 A 
ATOM     20  C   UNL A   1      30.354  26.223  23.716  1.00  0.00     0.007 A 
ATOM     21  C   UNL A   1      31.321  28.450  25.041  1.00  0.00     0.021 A 
ATOM     22  C   UNL A   1      29.889  27.484  23.356  1.00  0.00     0.021 A 
ATOM     23  C   UNL A   1      30.374  28.596  24.025  1.00  0.00     0.041 A 
ATOM     24  Cl  UNL A   1      29.790  30.155  23.596  1.00  0.00    -0.084 Cl
ENDBRANCH  16  18
ENDBRANCH  13  16
ENDBRANCH   7  12
ENDBRANCH   4   6
ENDBRANCH   3   4
ENDBRANCH   2   3
ENDBRANCH   1   2
BRANCH   1  25
ATOM     25  O   UNL A   1      41.428  20.578  25.712  1.00  0.00    -0.374 OA
BRANCH  25  26
ATOM     26  C   UNL A   1      42.783  20.691  26.139  1.00  0.00     0.202 C 
BRANCH  26  27
ATOM     27  C   UNL A   1      43.679  21.628  25.316  1.00  0.00     0.261 C 
BRANCH  27  28
ATOM     28  O   UNL A   1      42.975  22.799  24.866  1.00  0.00    -0.460 OA
BRANCH  28  29
ATOM     29  C   UNL A   1      43.677  23.950  24.978  1.00  0.00     0.338 C 
ATOM     30  O   UNL A   1      44.679  24.271  24.348  1.00  0.00    -0.246 OA
BRANCH  29  31
ATOM     31  C   UNL A   1      42.982  24.886  25.879  1.00  0.00     0.060 A 
ATOM     32  C   UNL A   1      43.478  26.192  25.962  1.00  0.00     0.016 A 
ATOM     33  C   UNL A   1      41.917  24.481  26.687  1.00  0.00     0.016 A 
ATOM     34  C   UNL A   1      42.947  27.084  26.892  1.00  0.00     0.010 A 
ATOM     35  C   UNL A   1      41.381  25.383  27.614  1.00  0.00     0.010 A 
ATOM     36  C   UNL A   1      41.919  26.676  27.751  1.00  0.00    -0.014 A 
BRANCH  36  37
ATOM     37  C   UNL A   1      41.512  27.541  28.889  1.00  0.00     0.031 A 
ATOM     38  C   UNL A   1      42.282  27.464  30.182  1.00  0.00     0.074 A 
ATOM     39  C   UNL A   1      40.485  28.403  28.775  1.00  0.00     0.049 A 
ATOM     40  N   UNL A   1      42.080  28.101  31.308  1.00  0.00    -0.248 NA
ATOM     41  C   UNL A   1      43.429  26.540  30.212  1.00  0.00     0.031 C 
ATOM     42  C   UNL A   1      39.675  28.605  27.575  1.00  0.00     0.029 A 
ATOM     43  N   UNL A   1      39.947  29.271  29.695  1.00  0.00    -0.354 N 
ATOM     44  C   UNL A   1      43.062  27.646  32.180  1.00  0.00     0.074 A 
ATOM     45  C   UNL A   1      43.834  26.652  31.468  1.00  0.00     0.031 C 
ATOM     46  C   UNL A   1      38.744  29.541  27.831  1.00  0.00     0.029 A 
ATOM     47  C   UNL A   1      38.869  29.978  29.220  1.00  0.00     0.049 A 
ATOM     48  H   UNL A   1      40.301  29.377  30.607  1.00  0.00     0.167 HD
ATOM     49  C   UNL A   1      43.311  28.028  33.456  1.00  0.00     0.031 A 
ATOM     50  C   UNL A   1      38.064  30.863  29.840  1.00  0.00     0.031 A 
ATOM     51  C   UNL A   1      42.549  29.015  34.172  1.00  0.00     0.049 A 
ATOM     52  C   UNL A   1      38.317  31.219  31.281  1.00  0.00     0.074 A 
ATOM     53  C   UNL A   1      42.743  29.485  35.460  1.00  0.00     0.029 A 
ATOM     54  N   UNL A   1      41.446  29.682  33.665  1.00  0.00    -0.354 N 
ATOM     55  N   UNL A   1      39.270  30.806  32.082  1.00  0.00    -0.248 NA
ATOM     56  C   UNL A   1      37.386  32.175  31.902  1.00  0.00     0.031 C 
ATOM     57  C   UNL A   1      41.721  30.393  35.753  1.00  0.00     0.029 A 
ATOM     58  C   UNL A   1      40.932  30.539  34.624  1.00  0.00     0.049 A 
ATOM     59  H   UNL A   1      41.081  29.564  32.758  1.00  0.00     0.167 HD
ATOM     60  C   UNL A   1      39.074  31.477  33.284  1.00  0.00     0.074 A 
ATOM     61  C   UNL A   1      37.921  32.333  33.104  1.00  0.00     0.031 C 
ATOM     62  C   UNL A   1      39.788  31.392  34.433  1.00  0.00     0.031 A 
BRANCH  49  63
ATOM     63  C   UNL A   1      44.447  27.351  34.173  1.00  0.00    -0.014 A 
ATOM     64  C   UNL A   1      44.238  26.208  34.959  1.00  0.00     0.009 A 
ATOM     65  C   UNL A   1      45.755  27.842  34.023  1.00  0.00     0.009 A 
ATOM     66  C   UNL A   1      45.309  25.591  35.609  1.00  0.00     0.001 A 
ATOM     67  C   UNL A   1      46.827  27.205  34.649  1.00  0.00     0.001 A 
ATOM     68  C   UNL A   1      46.603  26.086  35.449  1.00  0.00     0.000 A 
ENDBRANCH  49  63
BRANCH  50  69
ATOM     69  C   UNL A   1      36.920  31.473  29.109  1.00  0.00    -0.014 A 
ATOM     70  C   UNL A   1      37.004  32.784  28.612  1.00  0.00     0.009 A 
ATOM     71  C   UNL A   1      35.722  30.762  28.941  1.00  0.00     0.009 A 
ATOM     72  C   UNL A   1      35.903  33.378  27.990  1.00  0.00     0.001 A 
ATOM     73  C   UNL A   1      34.633  31.347  28.290  1.00  0.00     0.001 A 
ATOM     74  C   UNL A   1      34.721  32.658  27.827  1.00  0.00     0.000 A 
ENDBRANCH  50  69
BRANCH  62  75
ATOM     75  C   UNL A   1      39.379  32.284  35.573  1.00  0.00    -0.014 A 
ATOM     76  C   UNL A   1      38.475  31.852  36.557  1.00  0.00     0.009 A 
ATOM     77  C   UNL A   1      39.947  33.563  35.691  1.00  0.00     0.009 A 
ATOM     78  C   UNL A   1      38.125  32.696  37.614  1.00  0.00     0.001 A 
ATOM     79  C   UNL A   1      39.620  34.392  36.764  1.00  0.00     0.001 A 
ATOM     80  C   UNL A   1      38.700  33.962  37.719  1.00  0.00     0.000 A 
ENDBRANCH  62  75
ENDBRANCH  36  37
ENDBRANCH  29  31
ENDBRANCH  28  29
ENDBRANCH  27  28
ENDBRANCH  26  27
ENDBRANCH  25  26
ENDBRANCH   1  25
TORSDOF 17
ENDMDL
