MODEL 1
REMARK VINA RESULT:     -11.8      0.000      0.000
REMARK SMILES Cc1cc(S(F)(F)(F)(F)F)cc2c1O[C@H](C(F)(F)F)C(C(=O)OCCOCCOC(=O)c1ccc(-c3c4nc(c(-c5ccccc5)c5ccc([nH]5)c(-c5ccccc5)c5nc(c(-c6ccccc6)c6ccc3[nH]6)C=C5)C=C4)cc1)=C2
REMARK SMILES IDX 27 1 26 2 25 3 24 4 23 5 21 6 22 7 20 8 1 9 2 10 3 11 13 12
REMARK SMILES IDX 4 13 12 14 14 15 11 16 80 17 15 18 5 19 6 20 7 21 8 22 9 23
REMARK SMILES IDX 10 24 16 25 17 26 18 27 19 28 28 29 29 30 30 31 31 32 32 33
REMARK SMILES IDX 33 34 79 35 34 36 78 37 35 38 36 39 37 40 72 41 38 42 77 43
REMARK SMILES IDX 71 44 73 45 39 46 76 47 70 48 69 49 40 51 62 52 47 53 61 54
REMARK SMILES IDX 48 55 51 56 60 57 74 58 49 59 50 60 59 62 75 63 52 64 41 65
REMARK SMILES IDX 42 66 46 67 43 68 45 69 44 70 63 71 64 72 68 73 65 74 67 75
REMARK SMILES IDX 66 76 53 77 54 78 58 79 55 80 57 81 56 82
REMARK H PARENT 73 50 51 61
REMARK Flexibility Score: inf
ROOT
ATOM      1  C   UNL A   1      38.035  19.262  25.067  1.00  0.00     0.202 C 
ENDROOT
BRANCH   1   2
ATOM      2  O   UNL A   1      37.117  20.298  24.753  1.00  0.00    -0.374 OA
BRANCH   2   3
ATOM      3  C   UNL A   1      37.540  21.507  25.367  1.00  0.00     0.202 C 
BRANCH   3   4
ATOM      4  C   UNL A   1      36.326  22.359  25.697  1.00  0.00     0.261 C 
BRANCH   4   5
ATOM      5  O   UNL A   1      35.318  22.148  24.720  1.00  0.00    -0.460 OA
BRANCH   5   6
ATOM      6  C   UNL A   1      35.184  23.052  23.632  1.00  0.00     0.338 C 
ATOM      7  O   UNL A   1      35.921  22.924  22.605  1.00  0.00    -0.246 OA
BRANCH   6   8
ATOM      8  C   UNL A   1      34.157  24.172  23.696  1.00  0.00     0.087 C 
ATOM      9  C   UNL A   1      30.128  27.297  22.884  1.00  0.00     0.048 C 
ATOM     10  C   UNL A   1      31.310  27.235  23.837  1.00  0.00    -0.007 A 
ATOM     11  C   UNL A   1      31.463  28.235  24.774  1.00  0.00     0.031 A 
ATOM     12  C   UNL A   1      32.249  26.206  23.775  1.00  0.00     0.130 A 
ATOM     13  C   UNL A   1      32.541  28.227  25.649  1.00  0.00     0.108 A 
ATOM     14  C   UNL A   1      33.341  26.200  24.671  1.00  0.00     0.019 A 
ATOM     15  O   UNL A   1      32.143  25.114  22.800  1.00  0.00    -0.475 OA
ATOM     16  C   UNL A   1      33.470  27.225  25.610  1.00  0.00     0.036 A 
ATOM     17  C   UNL A   1      34.312  25.108  24.584  1.00  0.00     0.027 C 
ATOM     18  C   UNL A   1      33.089  24.151  22.798  1.00  0.00     0.316 C 
BRANCH  13  19
ATOM     19  S   UNL A   1      32.719  29.563  26.857  1.00  0.00     0.310 S 
ATOM     20  F   UNL A   1      33.677  28.712  27.792  1.00  0.00    -0.094 F 
ATOM     21  F   UNL A   1      31.507  28.923  27.633  1.00  0.00    -0.094 F 
ATOM     22  F   UNL A   1      32.819  30.710  27.903  1.00  0.00    -0.094 F 
ATOM     23  F   UNL A   1      34.019  30.110  26.145  1.00  0.00    -0.094 F 
ATOM     24  F   UNL A   1      32.700  28.343  25.853  1.00  0.00    -0.094 F 
ENDBRANCH  13  19
BRANCH  18  25
ATOM     25  C   UNL A   1      32.309  22.929  23.254  1.00  0.00     0.430 C 
ATOM     26  F   UNL A   1      31.034  23.059  22.896  1.00  0.00    -0.167 F 
ATOM     27  F   UNL A   1      32.819  21.840  22.686  1.00  0.00    -0.167 F 
ATOM     28  F   UNL A   1      32.389  22.819  24.577  1.00  0.00    -0.167 F 
ENDBRANCH  18  25
ENDBRANCH   6   8
ENDBRANCH   5   6
ENDBRANCH   4   5
ENDBRANCH   3   4
ENDBRANCH   2   3
ENDBRANCH   1   2
BRANCH   1  29
ATOM     29  C   UNL A   1      39.340  19.871  25.554  1.00  0.00     0.261 C 
BRANCH  29  30
ATOM     30  O   UNL A   1      40.308  18.846  25.721  1.00  0.00    -0.460 OA
BRANCH  30  31
ATOM     31  C   UNL A   1      41.662  19.184  25.979  1.00  0.00     0.338 C 
ATOM     32  O   UNL A   1      42.580  18.328  25.782  1.00  0.00    -0.246 OA
BRANCH  31  33
ATOM     33  C   UNL A   1      42.015  20.571  26.491  1.00  0.00     0.060 A 
ATOM     34  C   UNL A   1      42.605  21.498  25.639  1.00  0.00     0.016 A 
ATOM     35  C   UNL A   1      41.758  20.936  27.729  1.00  0.00     0.016 A 
ATOM     36  C   UNL A   1      42.430  22.861  25.969  1.00  0.00     0.010 A 
ATOM     37  C   UNL A   1      42.082  22.220  28.180  1.00  0.00     0.010 A 
ATOM     38  C   UNL A   1      42.409  23.169  27.329  1.00  0.00    -0.014 A 
BRANCH  38  39
ATOM     39  C   UNL A   1      42.756  24.566  27.815  1.00  0.00     0.031 A 
ATOM     40  C   UNL A   1      44.113  24.853  27.978  1.00  0.00     0.074 A 
ATOM     41  C   UNL A   1      41.739  25.475  28.056  1.00  0.00     0.049 A 
ATOM     42  N   UNL A   1      44.661  26.012  28.344  1.00  0.00    -0.248 NA
ATOM     43  C   UNL A   1      45.193  23.880  27.757  1.00  0.00     0.031 C 
ATOM     44  C   UNL A   1      40.368  25.196  27.885  1.00  0.00     0.029 A 
ATOM     45  N   UNL A   1      41.853  26.777  28.490  1.00  0.00    -0.354 N 
ATOM     46  C   UNL A   1      45.991  25.905  28.372  1.00  0.00     0.074 A 
ATOM     47  C   UNL A   1      46.352  24.531  28.000  1.00  0.00     0.031 C 
ATOM     48  C   UNL A   1      39.666  26.309  28.224  1.00  0.00     0.029 A 
ATOM     49  C   UNL A   1      40.586  27.303  28.611  1.00  0.00     0.049 A 
ATOM     50  H   UNL A   1      42.695  27.249  28.682  1.00  0.00     0.167 HD
ATOM     51  C   UNL A   1      46.916  26.900  28.689  1.00  0.00     0.031 A 
ATOM     52  C   UNL A   1      40.232  28.574  29.033  1.00  0.00     0.031 A 
ATOM     53  C   UNL A   1      46.564  28.185  29.070  1.00  0.00     0.049 A 
ATOM     54  C   UNL A   1      41.156  29.553  29.407  1.00  0.00     0.074 A 
ATOM     55  C   UNL A   1      47.485  29.203  29.386  1.00  0.00     0.029 A 
ATOM     56  N   UNL A   1      45.296  28.704  29.213  1.00  0.00    -0.354 N 
ATOM     57  N   UNL A   1      42.487  29.458  29.395  1.00  0.00    -0.248 NA
ATOM     58  C   UNL A   1      40.792  30.892  29.887  1.00  0.00     0.031 C 
ATOM     59  C   UNL A   1      46.782  30.316  29.725  1.00  0.00     0.029 A 
ATOM     60  C   UNL A   1      45.411  30.012  29.627  1.00  0.00     0.049 A 
ATOM     61  H   UNL A   1      44.453  28.223  29.049  1.00  0.00     0.167 HD
ATOM     62  C   UNL A   1      43.033  30.605  29.803  1.00  0.00     0.074 A 
ATOM     63  C   UNL A   1      41.950  31.542  30.131  1.00  0.00     0.031 C 
ATOM     64  C   UNL A   1      44.391  30.909  29.909  1.00  0.00     0.031 A 
BRANCH  51  65
ATOM     65  C   UNL A   1      48.395  26.555  28.613  1.00  0.00    -0.014 A 
ATOM     66  C   UNL A   1      49.026  25.951  29.695  1.00  0.00     0.009 A 
ATOM     67  C   UNL A   1      49.102  26.789  27.529  1.00  0.00     0.009 A 
ATOM     68  C   UNL A   1      50.180  25.189  29.408  1.00  0.00     0.001 A 
ATOM     69  C   UNL A   1      50.458  26.447  27.470  1.00  0.00     0.001 A 
ATOM     70  C   UNL A   1      50.995  25.665  28.382  1.00  0.00     0.000 A 
ENDBRANCH  51  65
BRANCH  52  71
ATOM     71  C   UNL A   1      38.754  28.924  29.093  1.00  0.00    -0.014 A 
ATOM     72  C   UNL A   1      37.986  28.650  30.219  1.00  0.00     0.009 A 
ATOM     73  C   UNL A   1      38.167  29.484  28.057  1.00  0.00     0.009 A 
ATOM     74  C   UNL A   1      36.811  29.416  30.384  1.00  0.00     0.001 A 
ATOM     75  C   UNL A   1      36.801  29.787  28.087  1.00  0.00     0.001 A 
ATOM     76  C   UNL A   1      36.129  29.760  29.218  1.00  0.00     0.000 A 
ENDBRANCH  52  71
BRANCH  64  77
ATOM     77  C   UNL A   1      44.776  32.308  30.362  1.00  0.00    -0.014 A 
ATOM     78  C   UNL A   1      44.940  33.321  29.424  1.00  0.00     0.009 A 
ATOM     79  C   UNL A   1      44.946  32.601  31.633  1.00  0.00     0.009 A 
ATOM     80  C   UNL A   1      44.772  34.645  29.888  1.00  0.00     0.001 A 
ATOM     81  C   UNL A   1      45.291  33.897  32.030  1.00  0.00     0.001 A 
ATOM     82  C   UNL A   1      45.208  34.904  31.186  1.00  0.00     0.000 A 
ENDBRANCH  64  77
ENDBRANCH  38  39
ENDBRANCH  31  33
ENDBRANCH  30  31
ENDBRANCH  29  30
ENDBRANCH   1  29
TORSDOF 16
ENDMDL
MODEL 2
REMARK VINA RESULT:     -11.8      0.235      5.685
REMARK SMILES Cc1cc(S(F)(F)(F)(F)F)cc2c1O[C@H](C(F)(F)F)C(C(=O)OCCOCCOC(=O)c1ccc(-c3c4nc(c(-c5ccccc5)c5ccc([nH]5)c(-c5ccccc5)c5nc(c(-c6ccccc6)c6ccc3[nH]6)C=C5)C=C4)cc1)=C2
REMARK SMILES IDX 27 1 26 2 25 3 24 4 23 5 21 6 22 7 20 8 1 9 2 10 3 11 13 12
REMARK SMILES IDX 4 13 12 14 14 15 11 16 80 17 15 18 5 19 6 20 7 21 8 22 9 23
REMARK SMILES IDX 10 24 16 25 17 26 18 27 19 28 28 29 29 30 30 31 31 32 32 33
REMARK SMILES IDX 33 34 79 35 34 36 78 37 35 38 36 39 37 40 72 41 38 42 77 43
REMARK SMILES IDX 71 44 73 45 39 46 76 47 70 48 69 49 40 51 62 52 47 53 61 54
REMARK SMILES IDX 48 55 51 56 60 57 74 58 49 59 50 60 59 62 75 63 52 64 41 65
REMARK SMILES IDX 42 66 46 67 43 68 45 69 44 70 63 71 64 72 68 73 65 74 67 75
REMARK SMILES IDX 66 76 53 77 54 78 58 79 55 80 57 81 56 82
REMARK H PARENT 73 50 51 61
REMARK Flexibility Score: inf
ROOT
ATOM      1  C   UNL A   1      38.137  19.384  24.965  1.00  0.00     0.202 C 
ENDROOT
BRANCH   1   2
ATOM      2  O   UNL A   1      37.259  20.480  24.759  1.00  0.00    -0.374 OA
BRANCH   2   3
ATOM      3  C   UNL A   1      37.810  21.647  25.352  1.00  0.00     0.202 C 
BRANCH   3   4
ATOM      4  C   UNL A   1      36.711  22.674  25.566  1.00  0.00     0.261 C 
BRANCH   4   5
ATOM      5  O   UNL A   1      35.601  22.362  24.737  1.00  0.00    -0.460 OA
BRANCH   5   6
ATOM      6  C   UNL A   1      35.313  23.166  23.603  1.00  0.00     0.338 C 
ATOM      7  O   UNL A   1      35.946  22.984  22.516  1.00  0.00    -0.246 OA
BRANCH   6   8
ATOM      8  C   UNL A   1      34.247  24.247  23.688  1.00  0.00     0.087 C 
ATOM      9  C   UNL A   1      30.082  27.213  22.965  1.00  0.00     0.048 C 
ATOM     10  C   UNL A   1      31.289  27.200  23.887  1.00  0.00    -0.007 A 
ATOM     11  C   UNL A   1      31.426  28.209  24.816  1.00  0.00     0.031 A 
ATOM     12  C   UNL A   1      32.264  26.207  23.807  1.00  0.00     0.130 A 
ATOM     13  C   UNL A   1      32.525  28.248  25.665  1.00  0.00     0.108 A 
ATOM     14  C   UNL A   1      33.378  26.247  24.675  1.00  0.00     0.019 A 
ATOM     15  O   UNL A   1      32.176  25.107  22.839  1.00  0.00    -0.475 OA
ATOM     16  C   UNL A   1      33.491  27.281  25.607  1.00  0.00     0.036 A 
ATOM     17  C   UNL A   1      34.387  25.193  24.568  1.00  0.00     0.027 C 
ATOM     18  C   UNL A   1      33.158  24.181  22.817  1.00  0.00     0.316 C 
BRANCH  13  19
ATOM     19  S   UNL A   1      32.682  29.595  26.862  1.00  0.00     0.310 S 
ATOM     20  F   UNL A   1      33.595  28.742  27.839  1.00  0.00    -0.094 F 
ATOM     21  F   UNL A   1      31.435  28.982  27.604  1.00  0.00    -0.094 F 
ATOM     22  F   UNL A   1      32.763  30.753  27.898  1.00  0.00    -0.094 F 
ATOM     23  F   UNL A   1      34.012  30.115  26.189  1.00  0.00    -0.094 F 
ATOM     24  F   UNL A   1      32.679  28.363  25.872  1.00  0.00    -0.094 F 
ENDBRANCH  13  19
BRANCH  18  25
ATOM     25  C   UNL A   1      32.436  22.932  23.297  1.00  0.00     0.430 C 
ATOM     26  F   UNL A   1      32.567  22.825  24.617  1.00  0.00    -0.167 F 
ATOM     27  F   UNL A   1      31.147  23.018  22.984  1.00  0.00    -0.167 F 
ATOM     28  F   UNL A   1      32.965  21.862  22.711  1.00  0.00    -0.167 F 
ENDBRANCH  18  25
ENDBRANCH   6   8
ENDBRANCH   5   6
ENDBRANCH   4   5
ENDBRANCH   3   4
ENDBRANCH   2   3
ENDBRANCH   1   2
BRANCH   1  29
ATOM     29  C   UNL A   1      39.386  19.865  25.688  1.00  0.00     0.261 C 
BRANCH  29  30
ATOM     30  O   UNL A   1      40.381  18.854  25.639  1.00  0.00    -0.460 OA
BRANCH  30  31
ATOM     31  C   UNL A   1      41.733  19.174  25.930  1.00  0.00     0.338 C 
ATOM     32  O   UNL A   1      42.643  18.304  25.756  1.00  0.00    -0.246 OA
BRANCH  31  33
ATOM     33  C   UNL A   1      42.092  20.557  26.448  1.00  0.00     0.060 A 
ATOM     34  C   UNL A   1      42.670  21.491  25.595  1.00  0.00     0.016 A 
ATOM     35  C   UNL A   1      41.852  20.911  27.692  1.00  0.00     0.016 A 
ATOM     36  C   UNL A   1      42.499  22.851  25.939  1.00  0.00     0.010 A 
ATOM     37  C   UNL A   1      42.181  22.192  28.148  1.00  0.00     0.010 A 
ATOM     38  C   UNL A   1      42.497  23.148  27.301  1.00  0.00    -0.014 A 
BRANCH  38  39
ATOM     39  C   UNL A   1      42.850  24.541  27.794  1.00  0.00     0.031 A 
ATOM     40  C   UNL A   1      41.786  25.422  27.994  1.00  0.00     0.074 A 
ATOM     41  C   UNL A   1      44.176  24.863  28.032  1.00  0.00     0.049 A 
ATOM     42  N   UNL A   1      41.839  26.670  28.462  1.00  0.00    -0.248 NA
ATOM     43  C   UNL A   1      40.381  25.095  27.709  1.00  0.00     0.031 C 
ATOM     44  C   UNL A   1      45.255  23.977  27.841  1.00  0.00     0.029 A 
ATOM     45  N   UNL A   1      44.688  26.059  28.483  1.00  0.00    -0.354 N 
ATOM     46  C   UNL A   1      40.612  27.190  28.530  1.00  0.00     0.074 A 
ATOM     47  C   UNL A   1      39.657  26.187  28.041  1.00  0.00     0.031 C 
ATOM     48  C   UNL A   1      46.400  24.633  28.160  1.00  0.00     0.029 A 
ATOM     49  C   UNL A   1      46.058  25.940  28.557  1.00  0.00     0.049 A 
ATOM     50  H   UNL A   1      44.165  26.861  28.711  1.00  0.00     0.167 HD
ATOM     51  C   UNL A   1      40.252  28.460  28.982  1.00  0.00     0.031 A 
ATOM     52  C   UNL A   1      46.974  26.905  28.944  1.00  0.00     0.031 A 
ATOM     53  C   UNL A   1      41.164  29.411  29.412  1.00  0.00     0.049 A 
ATOM     54  C   UNL A   1      46.619  28.196  29.342  1.00  0.00     0.074 A 
ATOM     55  C   UNL A   1      40.818  30.693  29.878  1.00  0.00     0.029 A 
ATOM     56  N   UNL A   1      42.537  29.299  29.463  1.00  0.00    -0.354 N 
ATOM     57  N   UNL A   1      45.389  28.702  29.448  1.00  0.00    -0.248 NA
ATOM     58  C   UNL A   1      47.582  29.236  29.724  1.00  0.00     0.031 C 
ATOM     59  C   UNL A   1      41.965  31.350  30.197  1.00  0.00     0.029 A 
ATOM     60  C   UNL A   1      43.047  30.488  29.934  1.00  0.00     0.049 A 
ATOM     61  H   UNL A   1      43.062  28.507  29.207  1.00  0.00     0.167 HD
ATOM     62  C   UNL A   1      45.446  29.964  29.876  1.00  0.00     0.074 A 
ATOM     63  C   UNL A   1      46.859  30.328  30.054  1.00  0.00     0.031 C 
ATOM     64  C   UNL A   1      44.378  30.825  30.131  1.00  0.00     0.031 A 
BRANCH  51  65
ATOM     65  C   UNL A   1      38.776  28.821  29.006  1.00  0.00    -0.014 A 
ATOM     66  C   UNL A   1      38.008  28.541  30.131  1.00  0.00     0.009 A 
ATOM     67  C   UNL A   1      38.198  29.425  27.990  1.00  0.00     0.009 A 
ATOM     68  C   UNL A   1      36.857  29.335  30.325  1.00  0.00     0.001 A 
ATOM     69  C   UNL A   1      36.841  29.767  28.038  1.00  0.00     0.001 A 
ATOM     70  C   UNL A   1      36.177  29.729  29.173  1.00  0.00     0.000 A 
ENDBRANCH  51  65
BRANCH  52  71
ATOM     71  C   UNL A   1      48.448  26.537  28.937  1.00  0.00    -0.014 A 
ATOM     72  C   UNL A   1      49.068  25.990  30.055  1.00  0.00     0.009 A 
ATOM     73  C   UNL A   1      49.176  26.750  27.861  1.00  0.00     0.009 A 
ATOM     74  C   UNL A   1      50.248  25.249  29.825  1.00  0.00     0.001 A 
ATOM     75  C   UNL A   1      50.541  26.441  27.848  1.00  0.00     0.001 A 
ATOM     76  C   UNL A   1      51.075  25.707  28.800  1.00  0.00     0.000 A 
ENDBRANCH  52  71
BRANCH  64  77
ATOM     77  C   UNL A   1      44.691  32.216  30.657  1.00  0.00    -0.014 A 
ATOM     78  C   UNL A   1      44.910  32.412  32.016  1.00  0.00     0.009 A 
ATOM     79  C   UNL A   1      44.781  33.255  29.854  1.00  0.00     0.009 A 
ATOM     80  C   UNL A   1      45.685  33.537  32.376  1.00  0.00     0.001 A 
ATOM     81  C   UNL A   1      45.080  34.525  30.357  1.00  0.00     0.001 A 
ATOM     82  C   UNL A   1      45.524  34.675  31.587  1.00  0.00     0.000 A 
ENDBRANCH  64  77
ENDBRANCH  38  39
ENDBRANCH  31  33
ENDBRANCH  30  31
ENDBRANCH  29  30
ENDBRANCH   1  29
TORSDOF 16
ENDMDL
MODEL 3
REMARK VINA RESULT:     -11.5      4.601      9.484
REMARK SMILES Cc1cc(S(F)(F)(F)(F)F)cc2c1O[C@H](C(F)(F)F)C(C(=O)OCCOCCOC(=O)c1ccc(-c3c4nc(c(-c5ccccc5)c5ccc([nH]5)c(-c5ccccc5)c5nc(c(-c6ccccc6)c6ccc3[nH]6)C=C5)C=C4)cc1)=C2
REMARK SMILES IDX 27 1 26 2 25 3 24 4 23 5 21 6 22 7 20 8 1 9 2 10 3 11 13 12
REMARK SMILES IDX 4 13 12 14 14 15 11 16 80 17 15 18 5 19 6 20 7 21 8 22 9 23
REMARK SMILES IDX 10 24 16 25 17 26 18 27 19 28 28 29 29 30 30 31 31 32 32 33
REMARK SMILES IDX 33 34 79 35 34 36 78 37 35 38 36 39 37 40 72 41 38 42 77 43
REMARK SMILES IDX 71 44 73 45 39 46 76 47 70 48 69 49 40 51 62 52 47 53 61 54
REMARK SMILES IDX 48 55 51 56 60 57 74 58 49 59 50 60 59 62 75 63 52 64 41 65
REMARK SMILES IDX 42 66 46 67 43 68 45 69 44 70 63 71 64 72 68 73 65 74 67 75
REMARK SMILES IDX 66 76 53 77 54 78 58 79 55 80 57 81 56 82
REMARK H PARENT 73 50 51 61
REMARK Flexibility Score: inf
ROOT
ATOM      1  C   UNL A   1      31.417  32.267  26.614  1.00  0.00     0.202 C 
ENDROOT
BRANCH   1   2
ATOM      2  O   UNL A   1      31.678  30.874  26.529  1.00  0.00    -0.374 OA
BRANCH   2   3
ATOM      3  C   UNL A   1      32.973  30.603  27.044  1.00  0.00     0.202 C 
BRANCH   3   4
ATOM      4  C   UNL A   1      33.614  29.483  26.240  1.00  0.00     0.261 C 
BRANCH   4   5
ATOM      5  O   UNL A   1      33.089  29.487  24.920  1.00  0.00    -0.460 OA
BRANCH   5   6
ATOM      6  C   UNL A   1      33.196  28.326  24.110  1.00  0.00     0.338 C 
ATOM      7  O   UNL A   1      33.683  28.409  22.939  1.00  0.00    -0.246 OA
BRANCH   6   8
ATOM      8  C   UNL A   1      32.729  26.980  24.644  1.00  0.00     0.087 C 
ATOM      9  C   UNL A   1      30.105  23.148  26.902  1.00  0.00     0.048 C 
ATOM     10  C   UNL A   1      31.406  23.299  26.131  1.00  0.00    -0.007 A 
ATOM     11  C   UNL A   1      32.191  22.185  25.925  1.00  0.00     0.031 A 
ATOM     12  C   UNL A   1      31.830  24.535  25.642  1.00  0.00     0.130 A 
ATOM     13  C   UNL A   1      33.397  22.283  25.244  1.00  0.00     0.108 A 
ATOM     14  C   UNL A   1      33.056  24.628  24.945  1.00  0.00     0.019 A 
ATOM     15  O   UNL A   1      31.041  25.758  25.829  1.00  0.00    -0.475 OA
ATOM     16  C   UNL A   1      33.830  23.483  24.752  1.00  0.00     0.036 A 
ATOM     17  C   UNL A   1      33.477  25.937  24.445  1.00  0.00     0.027 C 
ATOM     18  C   UNL A   1      31.515  26.919  25.329  1.00  0.00     0.316 C 
BRANCH  13  19
ATOM     19  S   UNL A   1      34.410  20.803  25.005  1.00  0.00     0.310 S 
ATOM     20  F   UNL A   1      33.467  19.902  25.907  1.00  0.00    -0.094 F 
ATOM     21  F   UNL A   1      35.174  21.202  26.324  1.00  0.00    -0.094 F 
ATOM     22  F   UNL A   1      35.322  19.556  24.822  1.00  0.00    -0.094 F 
ATOM     23  F   UNL A   1      33.545  20.341  23.767  1.00  0.00    -0.094 F 
ATOM     24  F   UNL A   1      33.406  22.000  25.243  1.00  0.00    -0.094 F 
ENDBRANCH  13  19
BRANCH  18  25
ATOM     25  C   UNL A   1      30.510  27.233  24.232  1.00  0.00     0.430 C 
ATOM     26  F   UNL A   1      29.361  26.614  24.493  1.00  0.00    -0.167 F 
ATOM     27  F   UNL A   1      30.305  28.546  24.183  1.00  0.00    -0.167 F 
ATOM     28  F   UNL A   1      30.985  26.814  23.063  1.00  0.00    -0.167 F 
ENDBRANCH  18  25
ENDBRANCH   6   8
ENDBRANCH   5   6
ENDBRANCH   4   5
ENDBRANCH   3   4
ENDBRANCH   2   3
ENDBRANCH   1   2
BRANCH   1  29
ATOM     29  C   UNL A   1      32.578  32.958  27.311  1.00  0.00     0.261 C 
BRANCH  29  30
ATOM     30  O   UNL A   1      32.126  34.172  27.893  1.00  0.00    -0.460 OA
BRANCH  30  31
ATOM     31  C   UNL A   1      33.011  34.953  28.681  1.00  0.00     0.338 C 
ATOM     32  O   UNL A   1      32.743  36.172  28.919  1.00  0.00    -0.246 OA
BRANCH  31  33
ATOM     33  C   UNL A   1      34.279  34.330  29.242  1.00  0.00     0.060 A 
ATOM     34  C   UNL A   1      34.237  33.627  30.441  1.00  0.00     0.016 A 
ATOM     35  C   UNL A   1      35.430  34.422  28.612  1.00  0.00     0.016 A 
ATOM     36  C   UNL A   1      35.250  32.662  30.643  1.00  0.00     0.010 A 
ATOM     37  C   UNL A   1      36.585  33.834  29.139  1.00  0.00     0.010 A 
ATOM     38  C   UNL A   1      36.509  32.971  30.131  1.00  0.00    -0.014 A 
BRANCH  38  39
ATOM     39  C   UNL A   1      37.761  32.329  30.702  1.00  0.00     0.031 A 
ATOM     40  C   UNL A   1      38.297  32.914  31.851  1.00  0.00     0.074 A 
ATOM     41  C   UNL A   1      38.295  31.210  30.084  1.00  0.00     0.049 A 
ATOM     42  N   UNL A   1      39.352  32.506  32.556  1.00  0.00    -0.248 NA
ATOM     43  C   UNL A   1      37.753  34.122  32.489  1.00  0.00     0.031 C 
ATOM     44  C   UNL A   1      37.756  30.608  28.929  1.00  0.00     0.029 A 
ATOM     45  N   UNL A   1      39.409  30.491  30.452  1.00  0.00    -0.354 N 
ATOM     46  C   UNL A   1      39.549  33.312  33.601  1.00  0.00     0.074 A 
ATOM     47  C   UNL A   1      38.526  34.366  33.570  1.00  0.00     0.031 C 
ATOM     48  C   UNL A   1      38.540  29.549  28.601  1.00  0.00     0.029 A 
ATOM     49  C   UNL A   1      39.583  29.471  29.544  1.00  0.00     0.049 A 
ATOM     50  H   UNL A   1      39.983  30.675  31.231  1.00  0.00     0.167 HD
ATOM     51  C   UNL A   1      40.538  33.208  34.580  1.00  0.00     0.031 A 
ATOM     52  C   UNL A   1      40.589  28.517  29.521  1.00  0.00     0.031 A 
ATOM     53  C   UNL A   1      41.517  32.228  34.582  1.00  0.00     0.049 A 
ATOM     54  C   UNL A   1      41.613  28.447  30.468  1.00  0.00     0.074 A 
ATOM     55  C   UNL A   1      42.517  32.104  35.565  1.00  0.00     0.029 A 
ATOM     56  N   UNL A   1      41.705  31.222  33.660  1.00  0.00    -0.354 N 
ATOM     57  N   UNL A   1      41.785  29.229  31.536  1.00  0.00    -0.248 NA
ATOM     58  C   UNL A   1      42.701  27.461  30.436  1.00  0.00     0.031 C 
ATOM     59  C   UNL A   1      43.303  31.044  35.236  1.00  0.00     0.029 A 
ATOM     60  C   UNL A   1      42.807  30.489  34.041  1.00  0.00     0.049 A 
ATOM     61  H   UNL A   1      41.148  31.055  32.865  1.00  0.00     0.167 HD
ATOM     62  C   UNL A   1      42.866  28.845  32.217  1.00  0.00     0.074 A 
ATOM     63  C   UNL A   1      43.475  27.706  31.515  1.00  0.00     0.031 C 
ATOM     64  C   UNL A   1      43.367  29.396  33.398  1.00  0.00     0.031 A 
BRANCH  51  65
ATOM     65  C   UNL A   1      40.541  34.227  35.708  1.00  0.00    -0.014 A 
ATOM     66  C   UNL A   1      41.206  35.438  35.551  1.00  0.00     0.009 A 
ATOM     67  C   UNL A   1      39.901  34.007  36.836  1.00  0.00     0.009 A 
ATOM     68  C   UNL A   1      40.754  36.515  36.345  1.00  0.00     0.001 A 
ATOM     69  C   UNL A   1      39.899  34.966  37.857  1.00  0.00     0.001 A 
ATOM     70  C   UNL A   1      40.312  36.194  37.627  1.00  0.00     0.000 A 
ENDBRANCH  51  65
BRANCH  52  71
ATOM     71  C   UNL A   1      40.575  27.488  28.403  1.00  0.00    -0.014 A 
ATOM     72  C   UNL A   1      39.981  26.241  28.567  1.00  0.00     0.009 A 
ATOM     73  C   UNL A   1      41.148  27.759  27.249  1.00  0.00     0.009 A 
ATOM     74  C   UNL A   1      39.585  25.569  27.390  1.00  0.00     0.001 A 
ATOM     75  C   UNL A   1      41.167  26.812  26.219  1.00  0.00     0.001 A 
ATOM     76  C   UNL A   1      40.406  25.740  26.276  1.00  0.00     0.000 A 
ENDBRANCH  52  71
BRANCH  64  77
ATOM     77  C   UNL A   1      44.600  28.758  34.016  1.00  0.00    -0.014 A 
ATOM     78  C   UNL A   1      44.461  27.710  34.920  1.00  0.00     0.009 A 
ATOM     79  C   UNL A   1      45.814  29.160  33.707  1.00  0.00     0.009 A 
ATOM     80  C   UNL A   1      45.564  26.837  35.050  1.00  0.00     0.001 A 
ATOM     81  C   UNL A   1      46.937  28.553  34.280  1.00  0.00     0.001 A 
ATOM     82  C   UNL A   1      46.827  27.417  34.937  1.00  0.00     0.000 A 
ENDBRANCH  64  77
ENDBRANCH  38  39
ENDBRANCH  31  33
ENDBRANCH  30  31
ENDBRANCH  29  30
ENDBRANCH   1  29
TORSDOF 16
ENDMDL
