MODEL 1
REMARK VINA RESULT:     -10.9      0.000      0.000
REMARK SMILES Cc1noc2c1-c1c(c(C(=O)OCCOCCOC(=O)c3ccc(-c4c5nc(c(-c6ccccc6)c6ccc([nH]6)c(-c6ccccc6)c6nc(c(-c7ccccc7)c7ccc4[nH]7)C=C6)C=C5)cc3)nn1C)CC2
REMARK SMILES IDX 16 1 15 2 14 3 13 4 12 5 10 6 11 7 9 8 1 9 2 10 3 11 6 12
REMARK SMILES IDX 4 13 5 14 7 15 73 16 8 17 70 18 72 19 69 20 71 21 17 22
REMARK SMILES IDX 18 23 19 24 20 25 21 26 22 27 68 28 23 29 67 30 24 31 25 32
REMARK SMILES IDX 26 33 61 34 27 35 66 36 60 37 62 38 28 39 65 40 59 41 58 42
REMARK SMILES IDX 29 44 51 45 36 46 50 47 37 48 40 49 49 50 63 51 38 52 39 53
REMARK SMILES IDX 48 55 64 56 41 57 30 58 31 59 35 60 32 61 34 62 33 63 52 64
REMARK SMILES IDX 53 65 57 66 54 67 56 68 55 69 42 70 43 71 47 72 44 73 46 74
REMARK SMILES IDX 45 75
REMARK H PARENT 62 43 40 54
REMARK Flexibility Score: inf
ROOT
ATOM      1  C   UNL A   1      41.235  20.231  27.457  1.00  0.00     0.202 C 
ENDROOT
BRANCH   1   2
ATOM      2  O   UNL A   1      40.288  21.293  27.412  1.00  0.00    -0.374 OA
BRANCH   2   3
ATOM      3  C   UNL A   1      39.796  21.734  26.147  1.00  0.00     0.202 C 
BRANCH   3   4
ATOM      4  C   UNL A   1      38.383  22.320  26.128  1.00  0.00     0.261 C 
BRANCH   4   5
ATOM      5  O   UNL A   1      37.757  22.152  24.843  1.00  0.00    -0.458 OA
BRANCH   5   6
ATOM      6  C   UNL A   1      36.720  21.256  24.821  1.00  0.00     0.359 C 
ATOM      7  O   UNL A   1      36.851  20.056  25.029  1.00  0.00    -0.244 OA
BRANCH   6   8
ATOM      8  C   UNL A   1      35.412  21.902  24.620  1.00  0.00     0.174 A 
ATOM      9  C   UNL A   1      30.600  24.934  24.192  1.00  0.00     0.071 C 
ATOM     10  C   UNL A   1      31.122  24.231  25.383  1.00  0.00     0.090 A 
ATOM     11  N   UNL A   1      30.447  24.397  26.537  1.00  0.00    -0.084 NA
ATOM     12  C   UNL A   1      32.246  23.400  25.582  1.00  0.00     0.066 A 
ATOM     13  O   UNL A   1      31.148  23.704  27.508  1.00  0.00    -0.360 OA
ATOM     14  C   UNL A   1      32.213  23.117  26.928  1.00  0.00     0.146 A 
ATOM     15  C   UNL A   1      33.409  22.859  24.842  1.00  0.00     0.077 A 
ATOM     16  C   UNL A   1      33.206  22.389  27.758  1.00  0.00     0.084 C 
ATOM     17  C   UNL A   1      34.296  22.009  25.497  1.00  0.00     0.014 A 
ATOM     18  N   UNL A   1      33.909  23.031  23.590  1.00  0.00    -0.267 N 
ATOM     19  C   UNL A   1      34.050  21.444  26.870  1.00  0.00     0.048 C 
ATOM     20  N   UNL A   1      35.137  22.503  23.446  1.00  0.00    -0.165 NA
ATOM     21  C   UNL A   1      33.328  23.688  22.448  1.00  0.00     0.174 C 
ENDBRANCH   6   8
ENDBRANCH   5   6
ENDBRANCH   4   5
ENDBRANCH   3   4
ENDBRANCH   2   3
ENDBRANCH   1   2
BRANCH   1  22
ATOM     22  C   UNL A   1      41.958  19.900  26.160  1.00  0.00     0.261 C 
BRANCH  22  23
ATOM     23  O   UNL A   1      43.335  20.249  26.220  1.00  0.00    -0.460 OA
BRANCH  23  24
ATOM     24  C   UNL A   1      43.825  20.801  25.086  1.00  0.00     0.338 C 
ATOM     25  O   UNL A   1      44.133  20.235  24.055  1.00  0.00    -0.246 OA
BRANCH  24  26
ATOM     26  C   UNL A   1      44.091  22.220  25.352  1.00  0.00     0.060 A 
ATOM     27  C   UNL A   1      45.067  22.512  26.311  1.00  0.00     0.016 A 
ATOM     28  C   UNL A   1      43.198  23.192  24.880  1.00  0.00     0.016 A 
ATOM     29  C   UNL A   1      45.023  23.736  26.945  1.00  0.00     0.010 A 
ATOM     30  C   UNL A   1      43.129  24.392  25.538  1.00  0.00     0.010 A 
ATOM     31  C   UNL A   1      43.998  24.620  26.604  1.00  0.00    -0.014 A 
BRANCH  31  32
ATOM     32  C   UNL A   1      43.834  25.829  27.379  1.00  0.00     0.031 A 
ATOM     33  C   UNL A   1      44.838  26.874  27.092  1.00  0.00     0.074 A 
ATOM     34  C   UNL A   1      42.727  26.027  28.119  1.00  0.00     0.049 A 
ATOM     35  N   UNL A   1      45.693  27.404  27.902  1.00  0.00    -0.248 NA
ATOM     36  C   UNL A   1      44.996  27.288  25.686  1.00  0.00     0.031 C 
ATOM     37  C   UNL A   1      41.533  25.175  28.166  1.00  0.00     0.029 A 
ATOM     38  N   UNL A   1      42.369  27.109  28.859  1.00  0.00    -0.354 N 
ATOM     39  C   UNL A   1      46.357  28.365  27.148  1.00  0.00     0.074 A 
ATOM     40  C   UNL A   1      46.049  28.097  25.769  1.00  0.00     0.031 C 
ATOM     41  C   UNL A   1      40.510  25.882  28.694  1.00  0.00     0.029 A 
ATOM     42  C   UNL A   1      41.007  27.182  29.114  1.00  0.00     0.049 A 
ATOM     43  H   UNL A   1      43.016  27.778  29.184  1.00  0.00     0.167 HD
ATOM     44  C   UNL A   1      46.842  29.502  27.715  1.00  0.00     0.031 A 
ATOM     45  C   UNL A   1      40.324  28.269  29.547  1.00  0.00     0.031 A 
ATOM     46  C   UNL A   1      46.979  29.377  29.142  1.00  0.00     0.049 A 
ATOM     47  C   UNL A   1      41.306  29.243  30.080  1.00  0.00     0.074 A 
ATOM     48  C   UNL A   1      47.661  28.526  29.988  1.00  0.00     0.029 A 
ATOM     49  N   UNL A   1      46.039  30.013  29.916  1.00  0.00    -0.354 N 
ATOM     50  N   UNL A   1      41.984  29.067  31.176  1.00  0.00    -0.248 NA
ATOM     51  C   UNL A   1      41.838  30.253  29.177  1.00  0.00     0.031 C 
ATOM     52  C   UNL A   1      46.817  28.375  31.127  1.00  0.00     0.029 A 
ATOM     53  C   UNL A   1      45.686  29.169  30.934  1.00  0.00     0.049 A 
ATOM     54  H   UNL A   1      45.682  30.919  29.765  1.00  0.00     0.167 HD
ATOM     55  C   UNL A   1      43.233  29.609  30.911  1.00  0.00     0.074 A 
ATOM     56  C   UNL A   1      43.041  30.439  29.727  1.00  0.00     0.031 C 
ATOM     57  C   UNL A   1      44.356  29.099  31.500  1.00  0.00     0.031 A 
BRANCH  44  58
ATOM     58  C   UNL A   1      46.733  30.849  27.034  1.00  0.00    -0.014 A 
ATOM     59  C   UNL A   1      47.864  31.682  27.013  1.00  0.00     0.009 A 
ATOM     60  C   UNL A   1      45.505  31.446  26.680  1.00  0.00     0.009 A 
ATOM     61  C   UNL A   1      47.753  33.050  26.738  1.00  0.00     0.001 A 
ATOM     62  C   UNL A   1      45.398  32.799  26.355  1.00  0.00     0.001 A 
ATOM     63  C   UNL A   1      46.520  33.609  26.416  1.00  0.00     0.000 A 
ENDBRANCH  44  58
BRANCH  45  64
ATOM     64  C   UNL A   1      38.915  28.632  29.293  1.00  0.00    -0.014 A 
ATOM     65  C   UNL A   1      38.004  28.750  30.353  1.00  0.00     0.009 A 
ATOM     66  C   UNL A   1      38.510  29.101  28.028  1.00  0.00     0.009 A 
ATOM     67  C   UNL A   1      36.749  29.344  30.162  1.00  0.00     0.001 A 
ATOM     68  C   UNL A   1      37.256  29.685  27.834  1.00  0.00     0.001 A 
ATOM     69  C   UNL A   1      36.380  29.820  28.905  1.00  0.00     0.000 A 
ENDBRANCH  45  64
BRANCH  57  70
ATOM     70  C   UNL A   1      44.173  28.158  32.665  1.00  0.00    -0.014 A 
ATOM     71  C   UNL A   1      43.952  26.780  32.507  1.00  0.00     0.009 A 
ATOM     72  C   UNL A   1      44.371  28.658  33.961  1.00  0.00     0.009 A 
ATOM     73  C   UNL A   1      43.896  25.932  33.618  1.00  0.00     0.001 A 
ATOM     74  C   UNL A   1      44.338  27.809  35.068  1.00  0.00     0.001 A 
ATOM     75  C   UNL A   1      44.093  26.448  34.897  1.00  0.00     0.000 A 
ENDBRANCH  57  70
ENDBRANCH  31  32
ENDBRANCH  24  26
ENDBRANCH  23  24
ENDBRANCH  22  23
ENDBRANCH   1  22
TORSDOF 14
ENDMDL
MODEL 2
REMARK VINA RESULT:     -10.9      4.691      9.758
REMARK SMILES Cc1noc2c1-c1c(c(C(=O)OCCOCCOC(=O)c3ccc(-c4c5nc(c(-c6ccccc6)c6ccc([nH]6)c(-c6ccccc6)c6nc(c(-c7ccccc7)c7ccc4[nH]7)C=C6)C=C5)cc3)nn1C)CC2
REMARK SMILES IDX 16 1 15 2 14 3 13 4 12 5 10 6 11 7 9 8 1 9 2 10 3 11 6 12
REMARK SMILES IDX 4 13 5 14 7 15 73 16 8 17 70 18 72 19 69 20 71 21 17 22
REMARK SMILES IDX 18 23 19 24 20 25 21 26 22 27 68 28 23 29 67 30 24 31 25 32
REMARK SMILES IDX 26 33 61 34 27 35 66 36 60 37 62 38 28 39 65 40 59 41 58 42
REMARK SMILES IDX 29 44 51 45 36 46 50 47 37 48 40 49 49 50 63 51 38 52 39 53
REMARK SMILES IDX 48 55 64 56 41 57 30 58 31 59 35 60 32 61 34 62 33 63 52 64
REMARK SMILES IDX 53 65 57 66 54 67 56 68 55 69 42 70 43 71 47 72 44 73 46 74
REMARK SMILES IDX 45 75
REMARK H PARENT 62 43 40 54
REMARK Flexibility Score: inf
ROOT
ATOM      1  C   UNL A   1      35.453  33.029  32.890  1.00  0.00     0.202 C 
ENDROOT
BRANCH   1   2
ATOM      2  O   UNL A   1      35.009  34.210  32.232  1.00  0.00    -0.374 OA
BRANCH   2   3
ATOM      3  C   UNL A   1      33.793  34.827  32.654  1.00  0.00     0.202 C 
BRANCH   3   4
ATOM      4  C   UNL A   1      33.007  35.593  31.589  1.00  0.00     0.261 C 
BRANCH   4   5
ATOM      5  O   UNL A   1      33.772  35.758  30.381  1.00  0.00    -0.458 OA
BRANCH   5   6
ATOM      6  C   UNL A   1      33.070  35.550  29.222  1.00  0.00     0.359 C 
ATOM      7  O   UNL A   1      32.325  36.380  28.719  1.00  0.00    -0.244 OA
BRANCH   6   8
ATOM      8  C   UNL A   1      33.384  34.258  28.589  1.00  0.00     0.174 A 
ATOM      9  C   UNL A   1      34.592  28.990  26.767  1.00  0.00     0.071 C 
ATOM     10  C   UNL A   1      35.494  29.936  27.456  1.00  0.00     0.090 A 
ATOM     11  N   UNL A   1      36.718  29.483  27.790  1.00  0.00    -0.084 NA
ATOM     12  C   UNL A   1      35.329  31.273  27.879  1.00  0.00     0.066 A 
ATOM     13  O   UNL A   1      37.349  30.511  28.468  1.00  0.00    -0.360 OA
ATOM     14  C   UNL A   1      36.514  31.568  28.514  1.00  0.00     0.146 A 
ATOM     15  C   UNL A   1      34.300  32.338  27.916  1.00  0.00     0.077 A 
ATOM     16  C   UNL A   1      36.892  32.784  29.277  1.00  0.00     0.084 C 
ATOM     17  C   UNL A   1      34.629  33.582  28.449  1.00  0.00     0.014 A 
ATOM     18  N   UNL A   1      32.986  32.409  27.580  1.00  0.00    -0.267 N 
ATOM     19  C   UNL A   1      36.030  33.986  28.824  1.00  0.00     0.048 C 
ATOM     20  N   UNL A   1      32.400  33.537  28.017  1.00  0.00    -0.165 NA
ATOM     21  C   UNL A   1      32.167  31.468  26.860  1.00  0.00     0.174 C 
ENDBRANCH   6   8
ENDBRANCH   5   6
ENDBRANCH   4   5
ENDBRANCH   3   4
ENDBRANCH   2   3
ENDBRANCH   1   2
BRANCH   1  22
ATOM     22  C   UNL A   1      36.701  33.149  33.750  1.00  0.00     0.261 C 
BRANCH  22  23
ATOM     23  O   UNL A   1      37.712  32.235  33.344  1.00  0.00    -0.460 OA
BRANCH  23  24
ATOM     24  C   UNL A   1      38.689  32.780  32.582  1.00  0.00     0.338 C 
ATOM     25  O   UNL A   1      39.040  33.944  32.542  1.00  0.00    -0.246 OA
BRANCH  24  26
ATOM     26  C   UNL A   1      39.173  31.746  31.659  1.00  0.00     0.060 A 
ATOM     27  C   UNL A   1      38.544  30.499  31.719  1.00  0.00     0.016 A 
ATOM     28  C   UNL A   1      40.386  31.936  30.984  1.00  0.00     0.016 A 
ATOM     29  C   UNL A   1      39.230  29.392  31.267  1.00  0.00     0.010 A 
ATOM     30  C   UNL A   1      41.085  30.831  30.572  1.00  0.00     0.010 A 
ATOM     31  C   UNL A   1      40.526  29.571  30.781  1.00  0.00    -0.014 A 
BRANCH  31  32
ATOM     32  C   UNL A   1      41.321  28.405  30.468  1.00  0.00     0.031 A 
ATOM     33  C   UNL A   1      42.189  27.949  31.574  1.00  0.00     0.074 A 
ATOM     34  C   UNL A   1      41.097  27.702  29.343  1.00  0.00     0.049 A 
ATOM     35  N   UNL A   1      43.476  27.854  31.592  1.00  0.00    -0.248 NA
ATOM     36  C   UNL A   1      41.543  27.687  32.873  1.00  0.00     0.031 C 
ATOM     37  C   UNL A   1      40.012  27.905  28.376  1.00  0.00     0.029 A 
ATOM     38  N   UNL A   1      41.694  26.559  28.910  1.00  0.00    -0.354 N 
ATOM     39  C   UNL A   1      43.783  27.327  32.842  1.00  0.00     0.074 A 
ATOM     40  C   UNL A   1      42.599  27.455  33.648  1.00  0.00     0.031 C 
ATOM     41  C   UNL A   1      39.885  26.793  27.619  1.00  0.00     0.029 A 
ATOM     42  C   UNL A   1      40.941  25.860  27.977  1.00  0.00     0.049 A 
ATOM     43  H   UNL A   1      42.576  26.258  29.228  1.00  0.00     0.167 HD
ATOM     44  C   UNL A   1      44.868  26.530  33.028  1.00  0.00     0.031 A 
ATOM     45  C   UNL A   1      41.119  24.571  27.600  1.00  0.00     0.031 A 
ATOM     46  C   UNL A   1      45.830  26.671  31.968  1.00  0.00     0.049 A 
ATOM     47  C   UNL A   1      42.470  24.149  28.040  1.00  0.00     0.074 A 
ATOM     48  C   UNL A   1      46.549  27.721  31.432  1.00  0.00     0.029 A 
ATOM     49  N   UNL A   1      45.894  25.655  31.044  1.00  0.00    -0.354 N 
ATOM     50  N   UNL A   1      43.577  24.592  27.520  1.00  0.00    -0.248 NA
ATOM     51  C   UNL A   1      42.607  23.519  29.345  1.00  0.00     0.031 C 
ATOM     52  C   UNL A   1      46.642  27.439  30.038  1.00  0.00     0.029 A 
ATOM     53  C   UNL A   1      46.010  26.216  29.803  1.00  0.00     0.049 A 
ATOM     54  H   UNL A   1      45.861  24.691  31.244  1.00  0.00     0.167 HD
ATOM     55  C   UNL A   1      44.455  24.695  28.588  1.00  0.00     0.074 A 
ATOM     56  C   UNL A   1      43.852  23.898  29.651  1.00  0.00     0.031 C 
ATOM     57  C   UNL A   1      45.430  25.652  28.603  1.00  0.00     0.031 A 
BRANCH  44  58
ATOM     58  C   UNL A   1      44.820  25.301  33.910  1.00  0.00    -0.014 A 
ATOM     59  C   UNL A   1      43.940  24.262  33.562  1.00  0.00     0.009 A 
ATOM     60  C   UNL A   1      45.372  25.250  35.207  1.00  0.00     0.009 A 
ATOM     61  C   UNL A   1      43.572  23.280  34.491  1.00  0.00     0.001 A 
ATOM     62  C   UNL A   1      45.048  24.244  36.118  1.00  0.00     0.001 A 
ATOM     63  C   UNL A   1      44.120  23.277  35.770  1.00  0.00     0.000 A 
ENDBRANCH  44  58
BRANCH  45  64
ATOM     64  C   UNL A   1      40.109  23.604  27.123  1.00  0.00    -0.014 A 
ATOM     65  C   UNL A   1      38.824  24.033  26.760  1.00  0.00     0.009 A 
ATOM     66  C   UNL A   1      40.476  22.286  26.793  1.00  0.00     0.009 A 
ATOM     67  C   UNL A   1      37.951  23.185  26.065  1.00  0.00     0.001 A 
ATOM     68  C   UNL A   1      39.603  21.436  26.107  1.00  0.00     0.001 A 
ATOM     69  C   UNL A   1      38.345  21.891  25.730  1.00  0.00     0.000 A 
ENDBRANCH  45  64
BRANCH  57  70
ATOM     70  C   UNL A   1      45.724  26.374  27.312  1.00  0.00    -0.014 A 
ATOM     71  C   UNL A   1      46.696  25.938  26.396  1.00  0.00     0.009 A 
ATOM     72  C   UNL A   1      44.895  27.445  26.945  1.00  0.00     0.009 A 
ATOM     73  C   UNL A   1      46.857  26.579  25.164  1.00  0.00     0.001 A 
ATOM     74  C   UNL A   1      45.041  28.071  25.707  1.00  0.00     0.001 A 
ATOM     75  C   UNL A   1      46.026  27.643  24.819  1.00  0.00     0.000 A 
ENDBRANCH  57  70
ENDBRANCH  31  32
ENDBRANCH  24  26
ENDBRANCH  23  24
ENDBRANCH  22  23
ENDBRANCH   1  22
TORSDOF 14
ENDMDL
MODEL 3
REMARK VINA RESULT:     -10.8      5.134     10.853
REMARK SMILES Cc1noc2c1-c1c(c(C(=O)OCCOCCOC(=O)c3ccc(-c4c5nc(c(-c6ccccc6)c6ccc([nH]6)c(-c6ccccc6)c6nc(c(-c7ccccc7)c7ccc4[nH]7)C=C6)C=C5)cc3)nn1C)CC2
REMARK SMILES IDX 16 1 15 2 14 3 13 4 12 5 10 6 11 7 9 8 1 9 2 10 3 11 6 12
REMARK SMILES IDX 4 13 5 14 7 15 73 16 8 17 70 18 72 19 69 20 71 21 17 22
REMARK SMILES IDX 18 23 19 24 20 25 21 26 22 27 68 28 23 29 67 30 24 31 25 32
REMARK SMILES IDX 26 33 61 34 27 35 66 36 60 37 62 38 28 39 65 40 59 41 58 42
REMARK SMILES IDX 29 44 51 45 36 46 50 47 37 48 40 49 49 50 63 51 38 52 39 53
REMARK SMILES IDX 48 55 64 56 41 57 30 58 31 59 35 60 32 61 34 62 33 63 52 64
REMARK SMILES IDX 53 65 57 66 54 67 56 68 55 69 42 70 43 71 47 72 44 73 46 74
REMARK SMILES IDX 45 75
REMARK H PARENT 62 43 40 54
REMARK Flexibility Score: inf
ROOT
ATOM      1  C   UNL A   1      34.089  34.332  29.463  1.00  0.00     0.202 C 
ENDROOT
BRANCH   1   2
ATOM      2  O   UNL A   1      33.020  34.713  30.321  1.00  0.00    -0.374 OA
BRANCH   2   3
ATOM      3  C   UNL A   1      33.124  35.925  31.067  1.00  0.00     0.202 C 
BRANCH   3   4
ATOM      4  C   UNL A   1      33.545  35.796  32.532  1.00  0.00     0.261 C 
BRANCH   4   5
ATOM      5  O   UNL A   1      34.759  35.036  32.669  1.00  0.00    -0.458 OA
BRANCH   5   6
ATOM      6  C   UNL A   1      34.612  33.822  33.289  1.00  0.00     0.359 C 
ATOM      7  O   UNL A   1      33.645  33.089  33.130  1.00  0.00    -0.244 OA
BRANCH   6   8
ATOM      8  C   UNL A   1      35.789  33.445  34.090  1.00  0.00     0.174 A 
ATOM      9  C   UNL A   1      40.642  32.546  36.949  1.00  0.00     0.071 C 
ATOM     10  C   UNL A   1      40.398  32.360  35.503  1.00  0.00     0.090 A 
ATOM     11  N   UNL A   1      41.459  32.037  34.739  1.00  0.00    -0.084 NA
ATOM     12  C   UNL A   1      39.235  32.478  34.711  1.00  0.00     0.066 A 
ATOM     13  O   UNL A   1      41.003  31.978  33.434  1.00  0.00    -0.360 OA
ATOM     14  C   UNL A   1      39.682  32.241  33.431  1.00  0.00     0.146 A 
ATOM     15  C   UNL A   1      37.804  32.841  34.833  1.00  0.00     0.077 A 
ATOM     16  C   UNL A   1      38.946  32.348  32.146  1.00  0.00     0.084 C 
ATOM     17  C   UNL A   1      36.991  32.787  33.705  1.00  0.00     0.014 A 
ATOM     18  N   UNL A   1      37.018  33.302  35.841  1.00  0.00    -0.267 N 
ATOM     19  C   UNL A   1      37.425  32.197  32.389  1.00  0.00     0.048 C 
ATOM     20  N   UNL A   1      35.814  33.717  35.410  1.00  0.00    -0.165 NA
ATOM     21  C   UNL A   1      37.297  33.413  37.249  1.00  0.00     0.174 C 
ENDBRANCH   6   8
ENDBRANCH   5   6
ENDBRANCH   4   5
ENDBRANCH   3   4
ENDBRANCH   2   3
ENDBRANCH   1   2
BRANCH   1  22
ATOM     22  C   UNL A   1      34.570  32.892  29.562  1.00  0.00     0.261 C 
BRANCH  22  23
ATOM     23  O   UNL A   1      35.260  32.484  28.388  1.00  0.00    -0.460 OA
BRANCH  23  24
ATOM     24  C   UNL A   1      35.392  31.144  28.250  1.00  0.00     0.338 C 
ATOM     25  O   UNL A   1      34.630  30.374  27.698  1.00  0.00    -0.246 OA
BRANCH  24  26
ATOM     26  C   UNL A   1      36.557  30.721  29.037  1.00  0.00     0.060 A 
ATOM     27  C   UNL A   1      37.768  31.370  28.776  1.00  0.00     0.016 A 
ATOM     28  C   UNL A   1      36.494  29.534  29.781  1.00  0.00     0.016 A 
ATOM     29  C   UNL A   1      38.944  30.725  29.095  1.00  0.00     0.010 A 
ATOM     30  C   UNL A   1      37.662  28.875  30.060  1.00  0.00     0.010 A 
ATOM     31  C   UNL A   1      38.866  29.448  29.653  1.00  0.00    -0.014 A 
BRANCH  31  32
ATOM     32  C   UNL A   1      40.084  28.689  29.830  1.00  0.00     0.031 A 
ATOM     33  C   UNL A   1      40.587  28.666  31.220  1.00  0.00     0.074 A 
ATOM     34  C   UNL A   1      40.559  27.911  28.841  1.00  0.00     0.049 A 
ATOM     35  N   UNL A   1      41.718  29.098  31.667  1.00  0.00    -0.248 NA
ATOM     36  C   UNL A   1      39.651  28.218  32.267  1.00  0.00     0.031 C 
ATOM     37  C   UNL A   1      39.910  27.622  27.556  1.00  0.00     0.029 A 
ATOM     38  N   UNL A   1      41.642  27.090  28.837  1.00  0.00    -0.354 N 
ATOM     39  C   UNL A   1      41.713  28.789  33.023  1.00  0.00     0.074 A 
ATOM     40  C   UNL A   1      40.356  28.461  33.368  1.00  0.00     0.031 C 
ATOM     41  C   UNL A   1      40.481  26.524  27.014  1.00  0.00     0.029 A 
ATOM     42  C   UNL A   1      41.593  26.109  27.855  1.00  0.00     0.049 A 
ATOM     43  H   UNL A   1      42.390  27.181  29.471  1.00  0.00     0.167 HD
ATOM     44  C   UNL A   1      42.863  28.504  33.689  1.00  0.00     0.031 A 
ATOM     45  C   UNL A   1      42.349  24.988  27.796  1.00  0.00     0.031 A 
ATOM     46  C   UNL A   1      44.025  28.978  32.987  1.00  0.00     0.049 A 
ATOM     47  C   UNL A   1      43.497  25.162  28.716  1.00  0.00     0.074 A 
ATOM     48  C   UNL A   1      44.459  30.206  32.529  1.00  0.00     0.029 A 
ATOM     49  N   UNL A   1      44.786  28.037  32.335  1.00  0.00    -0.354 N 
ATOM     50  N   UNL A   1      44.477  25.993  28.507  1.00  0.00    -0.248 NA
ATOM     51  C   UNL A   1      43.364  24.693  30.088  1.00  0.00     0.031 C 
ATOM     52  C   UNL A   1      45.152  29.930  31.315  1.00  0.00     0.029 A 
ATOM     53  C   UNL A   1      45.138  28.548  31.116  1.00  0.00     0.049 A 
ATOM     54  H   UNL A   1      45.033  27.151  32.685  1.00  0.00     0.167 HD
ATOM     55  C   UNL A   1      44.801  26.483  29.764  1.00  0.00     0.074 A 
ATOM     56  C   UNL A   1      44.182  25.553  30.703  1.00  0.00     0.031 C 
ATOM     57  C   UNL A   1      45.286  27.751  29.917  1.00  0.00     0.031 A 
BRANCH  44  58
ATOM     58  C   UNL A   1      42.942  27.396  34.717  1.00  0.00    -0.014 A 
ATOM     59  C   UNL A   1      43.112  26.076  34.266  1.00  0.00     0.009 A 
ATOM     60  C   UNL A   1      42.563  27.555  36.066  1.00  0.00     0.009 A 
ATOM     61  C   UNL A   1      42.836  24.983  35.096  1.00  0.00     0.001 A 
ATOM     62  C   UNL A   1      42.336  26.469  36.912  1.00  0.00     0.001 A 
ATOM     63  C   UNL A   1      42.441  25.181  36.416  1.00  0.00     0.000 A 
ENDBRANCH  44  58
BRANCH  45  64
ATOM     64  C   UNL A   1      42.008  23.678  27.205  1.00  0.00    -0.014 A 
ATOM     65  C   UNL A   1      42.830  23.099  26.226  1.00  0.00     0.009 A 
ATOM     66  C   UNL A   1      40.999  22.874  27.769  1.00  0.00     0.009 A 
ATOM     67  C   UNL A   1      42.669  21.758  25.852  1.00  0.00     0.001 A 
ATOM     68  C   UNL A   1      40.832  21.540  27.390  1.00  0.00     0.001 A 
ATOM     69  C   UNL A   1      41.677  20.977  26.441  1.00  0.00     0.000 A 
ENDBRANCH  45  64
BRANCH  57  70
ATOM     70  C   UNL A   1      45.751  28.479  28.681  1.00  0.00    -0.014 A 
ATOM     71  C   UNL A   1      47.064  28.388  28.188  1.00  0.00     0.009 A 
ATOM     72  C   UNL A   1      44.795  29.161  27.911  1.00  0.00     0.009 A 
ATOM     73  C   UNL A   1      47.418  28.995  26.979  1.00  0.00     0.001 A 
ATOM     74  C   UNL A   1      45.144  29.746  26.694  1.00  0.00     0.001 A 
ATOM     75  C   UNL A   1      46.456  29.669  26.231  1.00  0.00     0.000 A 
ENDBRANCH  57  70
ENDBRANCH  31  32
ENDBRANCH  24  26
ENDBRANCH  23  24
ENDBRANCH  22  23
ENDBRANCH   1  22
TORSDOF 14
ENDMDL
