MODEL 1
REMARK VINA RESULT:     -10.8      0.000      0.000
REMARK SMILES Cc1nn(C)c(C)c1C[C@@H](C)C(=O)N[C@@H](C(=O)OCCOCCOC(=O)c1ccc(-c2c3nc(c(-c4ccccc4)c4ccc([nH]4)c(-c4ccccc4)c4nc(c(-c5ccccc5)c5ccc2[nH]5)C=C4)C=C3)cc1)c1ccccc1Cl
REMARK SMILES IDX 20 1 19 2 18 3 16 4 17 5 15 6 14 7 12 8 13 9 10 11 11 12
REMARK SMILES IDX 9 13 8 14 1 15 2 16 3 17 4 18 6 19 5 20 7 21 75 22 76 23
REMARK SMILES IDX 80 24 77 25 79 26 81 27 78 28 21 29 22 30 23 31 24 32 25 33
REMARK SMILES IDX 26 34 27 35 28 36 74 37 29 38 73 39 30 40 31 41 32 42 67 43
REMARK SMILES IDX 33 44 72 45 66 46 68 47 34 48 71 49 65 50 64 51 35 53 57 54
REMARK SMILES IDX 42 55 56 56 43 57 46 58 55 59 69 60 44 61 45 62 54 64 70 65
REMARK SMILES IDX 47 66 36 67 37 68 41 69 38 70 40 71 39 72 58 73 59 74 63 75
REMARK SMILES IDX 60 76 62 77 61 78 48 79 49 80 53 81 50 82 52 83 51 84
REMARK H PARENT 14 10 68 52 46 63
REMARK Flexibility Score: inf
ROOT
ATOM      1  C   UNL A   1      33.650  29.602  26.438  1.00  0.00     0.202 C 
ENDROOT
BRANCH   1   2
ATOM      2  C   UNL A   1      33.562  28.150  25.961  1.00  0.00     0.261 C 
BRANCH   2   3
ATOM      3  O   UNL A   1      32.806  28.047  24.741  1.00  0.00    -0.461 OA
BRANCH   3   4
ATOM      4  C   UNL A   1      31.574  27.473  24.857  1.00  0.00     0.333 C 
ATOM      5  O   UNL A   1      31.045  27.189  25.926  1.00  0.00    -0.249 OA
BRANCH   4   6
ATOM      6  C   UNL A   1      30.951  27.123  23.477  1.00  0.00     0.224 C 
BRANCH   6   7
ATOM      7  N   UNL A   1      31.888  26.793  22.402  1.00  0.00    -0.339 N 
ATOM      8  C   UNL A   1      32.807  25.799  22.274  1.00  0.00     0.224 C 
ATOM      9  O   UNL A   1      33.531  25.818  21.275  1.00  0.00    -0.275 OA
ATOM     10  H   UNL A   1      31.846  27.403  21.630  1.00  0.00     0.164 HD
BRANCH   8  11
ATOM     11  C   UNL A   1      32.944  24.677  23.300  1.00  0.00     0.080 C 
ATOM     12  C   UNL A   1      34.378  24.142  23.314  1.00  0.00     0.018 C 
BRANCH  11  13
ATOM     13  C   UNL A   1      31.786  23.680  23.142  1.00  0.00     0.052 C 
BRANCH  13  14
ATOM     14  C   UNL A   1      31.973  22.324  23.739  1.00  0.00    -0.003 A 
ATOM     15  C   UNL A   1      31.681  22.823  26.306  1.00  0.00     0.069 C 
ATOM     16  C   UNL A   1      31.937  21.969  25.117  1.00  0.00     0.063 A 
ATOM     17  N   UNL A   1      32.111  20.656  25.293  1.00  0.00    -0.178 NA
ATOM     18  N   UNL A   1      32.223  20.161  24.052  1.00  0.00    -0.272 N 
ATOM     19  C   UNL A   1      32.068  21.108  23.073  1.00  0.00     0.038 A 
ATOM     20  C   UNL A   1      32.436  18.742  23.894  1.00  0.00     0.174 C 
ATOM     21  C   UNL A   1      32.008  20.764  21.629  1.00  0.00     0.066 C 
ENDBRANCH  13  14
ENDBRANCH  11  13
ENDBRANCH   8  11
ENDBRANCH   6   7
BRANCH   6  22
ATOM     22  C   UNL A   1      29.876  28.132  23.089  1.00  0.00     0.004 A 
ATOM     23  C   UNL A   1      30.322  29.291  22.411  1.00  0.00     0.008 A 
ATOM     24  C   UNL A   1      28.492  27.975  23.262  1.00  0.00     0.046 A 
ATOM     25  C   UNL A   1      29.429  30.242  21.919  1.00  0.00     0.000 A 
ATOM     26  C   UNL A   1      27.598  28.933  22.762  1.00  0.00     0.021 A 
ATOM     27  Cl  UNL A   1      27.780  26.638  24.087  1.00  0.00    -0.084 Cl
ATOM     28  C   UNL A   1      28.065  30.059  22.090  1.00  0.00     0.002 A 
ENDBRANCH   6  22
ENDBRANCH   4   6
ENDBRANCH   3   4
ENDBRANCH   2   3
ENDBRANCH   1   2
BRANCH   1  29
ATOM     29  O   UNL A   1      32.541  30.089  27.193  1.00  0.00    -0.374 OA
BRANCH  29  30
ATOM     30  C   UNL A   1      31.691  31.050  26.570  1.00  0.00     0.202 C 
BRANCH  30  31
ATOM     31  C   UNL A   1      31.813  32.504  27.040  1.00  0.00     0.261 C 
BRANCH  31  32
ATOM     32  O   UNL A   1      33.172  32.889  27.289  1.00  0.00    -0.460 OA
BRANCH  32  33
ATOM     33  C   UNL A   1      33.310  33.838  28.242  1.00  0.00     0.338 C 
ATOM     34  O   UNL A   1      32.525  34.736  28.518  1.00  0.00    -0.246 OA
BRANCH  33  35
ATOM     35  C   UNL A   1      34.495  33.560  29.070  1.00  0.00     0.060 A 
ATOM     36  C   UNL A   1      35.723  34.043  28.603  1.00  0.00     0.016 A 
ATOM     37  C   UNL A   1      34.425  32.778  30.224  1.00  0.00     0.016 A 
ATOM     38  C   UNL A   1      36.900  33.686  29.252  1.00  0.00     0.010 A 
ATOM     39  C   UNL A   1      35.610  32.414  30.872  1.00  0.00     0.010 A 
ATOM     40  C   UNL A   1      36.852  32.831  30.360  1.00  0.00    -0.014 A 
BRANCH  40  41
ATOM     41  C   UNL A   1      38.114  32.249  30.868  1.00  0.00     0.031 A 
ATOM     42  C   UNL A   1      38.631  30.982  30.244  1.00  0.00     0.074 A 
ATOM     43  C   UNL A   1      38.816  32.873  31.829  1.00  0.00     0.049 A 
ATOM     44  N   UNL A   1      39.723  30.313  30.512  1.00  0.00    -0.248 NA
ATOM     45  C   UNL A   1      37.810  30.394  29.172  1.00  0.00     0.031 C 
ATOM     46  C   UNL A   1      38.438  34.132  32.470  1.00  0.00     0.029 A 
ATOM     47  N   UNL A   1      40.001  32.531  32.425  1.00  0.00    -0.354 N 
ATOM     48  C   UNL A   1      39.719  29.227  29.645  1.00  0.00     0.074 A 
ATOM     49  C   UNL A   1      38.502  29.308  28.866  1.00  0.00     0.031 C 
ATOM     50  C   UNL A   1      39.379  34.459  33.372  1.00  0.00     0.029 A 
ATOM     51  C   UNL A   1      40.405  33.420  33.391  1.00  0.00     0.049 A 
ATOM     52  H   UNL A   1      40.515  31.726  32.184  1.00  0.00     0.167 HD
ATOM     53  C   UNL A   1      40.649  28.252  29.504  1.00  0.00     0.031 A 
ATOM     54  C   UNL A   1      41.478  33.387  34.205  1.00  0.00     0.031 A 
ATOM     55  C   UNL A   1      41.847  28.163  30.294  1.00  0.00     0.049 A 
ATOM     56  C   UNL A   1      42.453  32.247  34.088  1.00  0.00     0.074 A 
ATOM     57  C   UNL A   1      42.857  27.219  30.229  1.00  0.00     0.029 A 
ATOM     58  N   UNL A   1      42.192  29.052  31.301  1.00  0.00    -0.354 N 
ATOM     59  N   UNL A   1      42.450  31.239  33.250  1.00  0.00    -0.248 NA
ATOM     60  C   UNL A   1      43.584  32.248  35.026  1.00  0.00     0.031 C 
ATOM     61  C   UNL A   1      43.787  27.507  31.234  1.00  0.00     0.029 A 
ATOM     62  C   UNL A   1      43.385  28.664  31.885  1.00  0.00     0.049 A 
ATOM     63  H   UNL A   1      41.666  29.843  31.561  1.00  0.00     0.167 HD
ATOM     64  C   UNL A   1      43.590  30.500  33.540  1.00  0.00     0.074 A 
ATOM     65  C   UNL A   1      44.267  31.185  34.623  1.00  0.00     0.031 C 
ATOM     66  C   UNL A   1      44.039  29.358  32.963  1.00  0.00     0.031 A 
BRANCH  53  67
ATOM     67  C   UNL A   1      40.379  27.184  28.482  1.00  0.00    -0.014 A 
ATOM     68  C   UNL A   1      39.579  26.069  28.784  1.00  0.00     0.009 A 
ATOM     69  C   UNL A   1      40.917  27.303  27.191  1.00  0.00     0.009 A 
ATOM     70  C   UNL A   1      39.353  25.080  27.824  1.00  0.00     0.001 A 
ATOM     71  C   UNL A   1      40.667  26.326  26.226  1.00  0.00     0.001 A 
ATOM     72  C   UNL A   1      39.894  25.211  26.545  1.00  0.00     0.000 A 
ENDBRANCH  53  67
BRANCH  54  73
ATOM     73  C   UNL A   1      41.680  34.461  35.211  1.00  0.00    -0.014 A 
ATOM     74  C   UNL A   1      41.123  34.357  36.494  1.00  0.00     0.009 A 
ATOM     75  C   UNL A   1      42.424  35.607  34.885  1.00  0.00     0.009 A 
ATOM     76  C   UNL A   1      41.289  35.387  37.423  1.00  0.00     0.001 A 
ATOM     77  C   UNL A   1      42.611  36.622  35.826  1.00  0.00     0.001 A 
ATOM     78  C   UNL A   1      42.037  36.515  37.091  1.00  0.00     0.000 A 
ENDBRANCH  54  73
BRANCH  66  79
ATOM     79  C   UNL A   1      45.339  28.799  33.470  1.00  0.00    -0.014 A 
ATOM     80  C   UNL A   1      45.371  27.851  34.503  1.00  0.00     0.009 A 
ATOM     81  C   UNL A   1      46.545  29.199  32.872  1.00  0.00     0.009 A 
ATOM     82  C   UNL A   1      46.591  27.340  34.951  1.00  0.00     0.001 A 
ATOM     83  C   UNL A   1      47.759  28.665  33.303  1.00  0.00     0.001 A 
ATOM     84  C   UNL A   1      47.782  27.743  34.348  1.00  0.00     0.000 A 
ENDBRANCH  66  79
ENDBRANCH  40  41
ENDBRANCH  33  35
ENDBRANCH  32  33
ENDBRANCH  31  32
ENDBRANCH  30  31
ENDBRANCH  29  30
ENDBRANCH   1  29
TORSDOF 19
ENDMDL
MODEL 2
REMARK VINA RESULT:     -10.8      1.479      5.943
REMARK SMILES Cc1nn(C)c(C)c1C[C@@H](C)C(=O)N[C@@H](C(=O)OCCOCCOC(=O)c1ccc(-c2c3nc(c(-c4ccccc4)c4ccc([nH]4)c(-c4ccccc4)c4nc(c(-c5ccccc5)c5ccc2[nH]5)C=C4)C=C3)cc1)c1ccccc1Cl
REMARK SMILES IDX 20 1 19 2 18 3 16 4 17 5 15 6 14 7 12 8 13 9 10 11 11 12
REMARK SMILES IDX 9 13 8 14 1 15 2 16 3 17 4 18 6 19 5 20 7 21 75 22 76 23
REMARK SMILES IDX 80 24 77 25 79 26 81 27 78 28 21 29 22 30 23 31 24 32 25 33
REMARK SMILES IDX 26 34 27 35 28 36 74 37 29 38 73 39 30 40 31 41 32 42 67 43
REMARK SMILES IDX 33 44 72 45 66 46 68 47 34 48 71 49 65 50 64 51 35 53 57 54
REMARK SMILES IDX 42 55 56 56 43 57 46 58 55 59 69 60 44 61 45 62 54 64 70 65
REMARK SMILES IDX 47 66 36 67 37 68 41 69 38 70 40 71 39 72 58 73 59 74 63 75
REMARK SMILES IDX 60 76 62 77 61 78 48 79 49 80 53 81 50 82 52 83 51 84
REMARK H PARENT 14 10 68 52 46 63
REMARK Flexibility Score: inf
ROOT
ATOM      1  C   UNL A   1      33.329  29.156  26.938  1.00  0.00     0.202 C 
ENDROOT
BRANCH   1   2
ATOM      2  C   UNL A   1      32.267  28.655  25.956  1.00  0.00     0.261 C 
BRANCH   2   3
ATOM      3  O   UNL A   1      32.210  29.485  24.781  1.00  0.00    -0.461 OA
BRANCH   3   4
ATOM      4  C   UNL A   1      32.693  28.923  23.637  1.00  0.00     0.333 C 
ATOM      5  O   UNL A   1      33.732  29.270  23.085  1.00  0.00    -0.249 OA
BRANCH   4   6
ATOM      6  C   UNL A   1      31.729  27.856  23.047  1.00  0.00     0.224 C 
BRANCH   6   7
ATOM      7  N   UNL A   1      32.227  27.088  21.903  1.00  0.00    -0.339 N 
ATOM      8  C   UNL A   1      32.854  25.884  21.824  1.00  0.00     0.224 C 
ATOM      9  O   UNL A   1      33.242  25.516  20.713  1.00  0.00    -0.275 OA
ATOM     10  H   UNL A   1      32.080  27.523  21.032  1.00  0.00     0.164 HD
BRANCH   8  11
ATOM     11  C   UNL A   1      33.064  24.992  23.045  1.00  0.00     0.080 C 
ATOM     12  C   UNL A   1      33.974  25.685  24.060  1.00  0.00     0.018 C 
BRANCH  11  13
ATOM     13  C   UNL A   1      33.414  23.565  22.595  1.00  0.00     0.052 C 
BRANCH  13  14
ATOM     14  C   UNL A   1      34.074  22.680  23.599  1.00  0.00    -0.003 A 
ATOM     15  C   UNL A   1      32.009  21.450  24.670  1.00  0.00     0.069 C 
ATOM     16  C   UNL A   1      33.449  21.774  24.504  1.00  0.00     0.063 A 
ATOM     17  N   UNL A   1      34.348  21.114  25.240  1.00  0.00    -0.178 NA
ATOM     18  N   UNL A   1      35.534  21.556  24.801  1.00  0.00    -0.272 N 
ATOM     19  C   UNL A   1      35.434  22.440  23.759  1.00  0.00     0.038 A 
ATOM     20  C   UNL A   1      36.732  21.035  25.416  1.00  0.00     0.174 C 
ATOM     21  C   UNL A   1      36.620  22.945  23.020  1.00  0.00     0.066 C 
ENDBRANCH  13  14
ENDBRANCH  11  13
ENDBRANCH   8  11
ENDBRANCH   6   7
BRANCH   6  22
ATOM     22  C   UNL A   1      30.328  28.427  22.862  1.00  0.00     0.004 A 
ATOM     23  C   UNL A   1      30.230  29.606  22.086  1.00  0.00     0.008 A 
ATOM     24  C   UNL A   1      29.132  27.845  23.309  1.00  0.00     0.046 A 
ATOM     25  C   UNL A   1      28.998  30.172  21.764  1.00  0.00     0.000 A 
ATOM     26  C   UNL A   1      27.894  28.416  22.979  1.00  0.00     0.021 A 
ATOM     27  Cl  UNL A   1      29.069  26.424  24.284  1.00  0.00    -0.084 Cl
ATOM     28  C   UNL A   1      27.828  29.573  22.206  1.00  0.00     0.002 A 
ENDBRANCH   6  22
ENDBRANCH   4   6
ENDBRANCH   3   4
ENDBRANCH   2   3
ENDBRANCH   1   2
BRANCH   1  29
ATOM     29  O   UNL A   1      33.739  30.516  26.789  1.00  0.00    -0.374 OA
BRANCH  29  30
ATOM     30  C   UNL A   1      32.835  31.527  27.228  1.00  0.00     0.202 C 
BRANCH  30  31
ATOM     31  C   UNL A   1      33.442  32.776  27.879  1.00  0.00     0.261 C 
BRANCH  31  32
ATOM     32  O   UNL A   1      32.518  33.872  27.930  1.00  0.00    -0.460 OA
BRANCH  32  33
ATOM     33  C   UNL A   1      32.959  34.931  28.646  1.00  0.00     0.338 C 
ATOM     34  O   UNL A   1      32.423  36.026  28.762  1.00  0.00    -0.246 OA
BRANCH  33  35
ATOM     35  C   UNL A   1      34.131  34.550  29.450  1.00  0.00     0.060 A 
ATOM     36  C   UNL A   1      35.384  34.650  28.832  1.00  0.00     0.016 A 
ATOM     37  C   UNL A   1      34.008  34.031  30.739  1.00  0.00     0.016 A 
ATOM     38  C   UNL A   1      36.515  34.163  29.477  1.00  0.00     0.010 A 
ATOM     39  C   UNL A   1      35.146  33.534  31.384  1.00  0.00     0.010 A 
ATOM     40  C   UNL A   1      36.393  33.559  30.735  1.00  0.00    -0.014 A 
BRANCH  40  41
ATOM     41  C   UNL A   1      37.546  32.811  31.283  1.00  0.00     0.031 A 
ATOM     42  C   UNL A   1      38.117  33.230  32.610  1.00  0.00     0.074 A 
ATOM     43  C   UNL A   1      38.036  31.740  30.636  1.00  0.00     0.049 A 
ATOM     44  N   UNL A   1      39.105  32.706  33.289  1.00  0.00    -0.248 NA
ATOM     45  C   UNL A   1      37.488  34.393  33.259  1.00  0.00     0.031 C 
ATOM     46  C   UNL A   1      37.529  31.212  29.370  1.00  0.00     0.029 A 
ATOM     47  N   UNL A   1      39.068  30.900  30.966  1.00  0.00    -0.354 N 
ATOM     48  C   UNL A   1      39.216  33.474  34.442  1.00  0.00     0.074 A 
ATOM     49  C   UNL A   1      38.219  34.518  34.356  1.00  0.00     0.031 C 
ATOM     50  C   UNL A   1      38.252  30.131  29.031  1.00  0.00     0.029 A 
ATOM     51  C   UNL A   1      39.288  29.913  30.037  1.00  0.00     0.049 A 
ATOM     52  H   UNL A   1      39.600  30.995  31.789  1.00  0.00     0.167 HD
ATOM     53  C   UNL A   1      40.069  33.319  35.483  1.00  0.00     0.031 A 
ATOM     54  C   UNL A   1      40.229  28.950  30.003  1.00  0.00     0.031 A 
ATOM     55  C   UNL A   1      41.072  32.292  35.556  1.00  0.00     0.049 A 
ATOM     56  C   UNL A   1      41.220  28.852  31.131  1.00  0.00     0.074 A 
ATOM     57  C   UNL A   1      41.983  32.044  36.568  1.00  0.00     0.029 A 
ATOM     58  N   UNL A   1      41.300  31.345  34.569  1.00  0.00    -0.354 N 
ATOM     59  N   UNL A   1      41.300  29.569  32.226  1.00  0.00    -0.248 NA
ATOM     60  C   UNL A   1      42.244  27.804  31.020  1.00  0.00     0.031 C 
ATOM     61  C   UNL A   1      42.799  30.980  36.168  1.00  0.00     0.029 A 
ATOM     62  C   UNL A   1      42.357  30.528  34.934  1.00  0.00     0.049 A 
ATOM     63  H   UNL A   1      40.787  31.266  33.733  1.00  0.00     0.167 HD
ATOM     64  C   UNL A   1      42.365  29.043  32.947  1.00  0.00     0.074 A 
ATOM     65  C   UNL A   1      42.890  27.937  32.170  1.00  0.00     0.031 C 
ATOM     66  C   UNL A   1      42.864  29.437  34.144  1.00  0.00     0.031 A 
BRANCH  53  67
ATOM     67  C   UNL A   1      39.971  34.313  36.607  1.00  0.00    -0.014 A 
ATOM     68  C   UNL A   1      39.186  34.056  37.743  1.00  0.00     0.009 A 
ATOM     69  C   UNL A   1      40.690  35.516  36.537  1.00  0.00     0.009 A 
ATOM     70  C   UNL A   1      39.097  34.999  38.769  1.00  0.00     0.001 A 
ATOM     71  C   UNL A   1      40.620  36.445  37.576  1.00  0.00     0.001 A 
ATOM     72  C   UNL A   1      39.817  36.191  38.686  1.00  0.00     0.000 A 
ENDBRANCH  53  67
BRANCH  54  73
ATOM     73  C   UNL A   1      40.287  28.010  28.854  1.00  0.00    -0.014 A 
ATOM     74  C   UNL A   1      40.988  28.346  27.686  1.00  0.00     0.009 A 
ATOM     75  C   UNL A   1      39.629  26.771  28.917  1.00  0.00     0.009 A 
ATOM     76  C   UNL A   1      41.010  27.471  26.598  1.00  0.00     0.001 A 
ATOM     77  C   UNL A   1      39.677  25.886  27.838  1.00  0.00     0.001 A 
ATOM     78  C   UNL A   1      40.359  26.240  26.676  1.00  0.00     0.000 A 
ENDBRANCH  54  73
BRANCH  66  79
ATOM     79  C   UNL A   1      44.014  28.645  34.702  1.00  0.00    -0.014 A 
ATOM     80  C   UNL A   1      45.343  29.015  34.448  1.00  0.00     0.009 A 
ATOM     81  C   UNL A   1      43.758  27.539  35.527  1.00  0.00     0.009 A 
ATOM     82  C   UNL A   1      46.395  28.268  34.984  1.00  0.00     0.001 A 
ATOM     83  C   UNL A   1      44.812  26.813  36.083  1.00  0.00     0.001 A 
ATOM     84  C   UNL A   1      46.129  27.173  35.804  1.00  0.00     0.000 A 
ENDBRANCH  66  79
ENDBRANCH  40  41
ENDBRANCH  33  35
ENDBRANCH  32  33
ENDBRANCH  31  32
ENDBRANCH  30  31
ENDBRANCH  29  30
ENDBRANCH   1  29
TORSDOF 19
ENDMDL
MODEL 3
REMARK VINA RESULT:     -10.7      0.449      5.700
REMARK SMILES Cc1nn(C)c(C)c1C[C@@H](C)C(=O)N[C@@H](C(=O)OCCOCCOC(=O)c1ccc(-c2c3nc(c(-c4ccccc4)c4ccc([nH]4)c(-c4ccccc4)c4nc(c(-c5ccccc5)c5ccc2[nH]5)C=C4)C=C3)cc1)c1ccccc1Cl
REMARK SMILES IDX 20 1 19 2 18 3 16 4 17 5 15 6 14 7 12 8 13 9 10 11 11 12
REMARK SMILES IDX 9 13 8 14 1 15 2 16 3 17 4 18 6 19 5 20 7 21 75 22 76 23
REMARK SMILES IDX 80 24 77 25 79 26 81 27 78 28 21 29 22 30 23 31 24 32 25 33
REMARK SMILES IDX 26 34 27 35 28 36 74 37 29 38 73 39 30 40 31 41 32 42 67 43
REMARK SMILES IDX 33 44 72 45 66 46 68 47 34 48 71 49 65 50 64 51 35 53 57 54
REMARK SMILES IDX 42 55 56 56 43 57 46 58 55 59 69 60 44 61 45 62 54 64 70 65
REMARK SMILES IDX 47 66 36 67 37 68 41 69 38 70 40 71 39 72 58 73 59 74 63 75
REMARK SMILES IDX 60 76 62 77 61 78 48 79 49 80 53 81 50 82 52 83 51 84
REMARK H PARENT 14 10 68 52 46 63
REMARK Flexibility Score: inf
ROOT
ATOM      1  C   UNL A   1      33.494  30.030  26.255  1.00  0.00     0.202 C 
ENDROOT
BRANCH   1   2
ATOM      2  C   UNL A   1      33.621  28.524  26.012  1.00  0.00     0.261 C 
BRANCH   2   3
ATOM      3  O   UNL A   1      32.966  28.136  24.790  1.00  0.00    -0.461 OA
BRANCH   3   4
ATOM      4  C   UNL A   1      31.697  27.657  24.927  1.00  0.00     0.333 C 
ATOM      5  O   UNL A   1      31.123  27.524  26.003  1.00  0.00    -0.249 OA
BRANCH   4   6
ATOM      6  C   UNL A   1      31.086  27.199  23.573  1.00  0.00     0.224 C 
BRANCH   6   7
ATOM      7  N   UNL A   1      32.035  26.856  22.512  1.00  0.00    -0.339 N 
ATOM      8  C   UNL A   1      32.928  25.838  22.389  1.00  0.00     0.224 C 
ATOM      9  O   UNL A   1      33.672  25.848  21.405  1.00  0.00    -0.275 OA
ATOM     10  H   UNL A   1      32.025  27.476  21.747  1.00  0.00     0.164 HD
BRANCH   8  11
ATOM     11  C   UNL A   1      33.014  24.701  23.404  1.00  0.00     0.080 C 
ATOM     12  C   UNL A   1      34.438  24.145  23.460  1.00  0.00     0.018 C 
BRANCH  11  13
ATOM     13  C   UNL A   1      31.848  23.723  23.193  1.00  0.00     0.052 C 
BRANCH  13  14
ATOM     14  C   UNL A   1      32.006  22.348  23.753  1.00  0.00    -0.003 A 
ATOM     15  C   UNL A   1      31.712  22.783  26.331  1.00  0.00     0.069 C 
ATOM     16  C   UNL A   1      31.957  21.956  25.121  1.00  0.00     0.063 A 
ATOM     17  N   UNL A   1      32.105  20.636  25.261  1.00  0.00    -0.178 NA
ATOM     18  N   UNL A   1      32.214  20.173  24.008  1.00  0.00    -0.272 N 
ATOM     19  C   UNL A   1      32.081  21.149  23.055  1.00  0.00     0.038 A 
ATOM     20  C   UNL A   1      32.401  18.755  23.813  1.00  0.00     0.174 C 
ATOM     21  C   UNL A   1      32.022  20.845  21.602  1.00  0.00     0.066 C 
ENDBRANCH  13  14
ENDBRANCH  11  13
ENDBRANCH   8  11
ENDBRANCH   6   7
BRANCH   6  22
ATOM     22  C   UNL A   1      29.961  28.131  23.136  1.00  0.00     0.004 A 
ATOM     23  C   UNL A   1      30.354  29.313  22.464  1.00  0.00     0.008 A 
ATOM     24  C   UNL A   1      28.586  27.883  23.259  1.00  0.00     0.046 A 
ATOM     25  C   UNL A   1      29.418  30.198  21.930  1.00  0.00     0.000 A 
ATOM     26  C   UNL A   1      27.649  28.775  22.717  1.00  0.00     0.021 A 
ATOM     27  Cl  UNL A   1      27.934  26.506  24.069  1.00  0.00    -0.084 Cl
ATOM     28  C   UNL A   1      28.064  29.925  22.052  1.00  0.00     0.002 A 
ENDBRANCH   6  22
ENDBRANCH   4   6
ENDBRANCH   3   4
ENDBRANCH   2   3
ENDBRANCH   1   2
BRANCH   1  29
ATOM     29  O   UNL A   1      32.397  30.451  27.065  1.00  0.00    -0.374 OA
BRANCH  29  30
ATOM     30  C   UNL A   1      31.540  31.462  26.540  1.00  0.00     0.202 C 
BRANCH  30  31
ATOM     31  C   UNL A   1      31.705  32.881  27.097  1.00  0.00     0.261 C 
BRANCH  31  32
ATOM     32  O   UNL A   1      33.080  33.238  27.293  1.00  0.00    -0.460 OA
BRANCH  32  33
ATOM     33  C   UNL A   1      33.291  34.060  28.345  1.00  0.00     0.338 C 
ATOM     34  O   UNL A   1      32.521  34.894  28.804  1.00  0.00    -0.246 OA
BRANCH  33  35
ATOM     35  C   UNL A   1      34.552  33.712  29.019  1.00  0.00     0.060 A 
ATOM     36  C   UNL A   1      35.739  34.002  28.335  1.00  0.00     0.016 A 
ATOM     37  C   UNL A   1      34.576  33.044  30.245  1.00  0.00     0.016 A 
ATOM     38  C   UNL A   1      36.956  33.561  28.842  1.00  0.00     0.010 A 
ATOM     39  C   UNL A   1      35.801  32.595  30.750  1.00  0.00     0.010 A 
ATOM     40  C   UNL A   1      36.987  32.814  30.027  1.00  0.00    -0.014 A 
BRANCH  40  41
ATOM     41  C   UNL A   1      38.242  32.128  30.407  1.00  0.00     0.031 A 
ATOM     42  C   UNL A   1      39.111  32.743  31.469  1.00  0.00     0.074 A 
ATOM     43  C   UNL A   1      38.569  30.947  29.855  1.00  0.00     0.049 A 
ATOM     44  N   UNL A   1      40.236  32.305  31.975  1.00  0.00    -0.248 NA
ATOM     45  C   UNL A   1      38.649  34.019  32.040  1.00  0.00     0.031 C 
ATOM     46  C   UNL A   1      37.777  30.232  28.856  1.00  0.00     0.029 A 
ATOM     47  N   UNL A   1      39.654  30.138  30.071  1.00  0.00    -0.354 N 
ATOM     48  C   UNL A   1      40.615  33.251  32.920  1.00  0.00     0.074 A 
ATOM     49  C   UNL A   1      39.619  34.301  32.895  1.00  0.00     0.031 C 
ATOM     50  C   UNL A   1      38.404  29.085  28.545  1.00  0.00     0.029 A 
ATOM     51  C   UNL A   1      39.651  29.002  29.300  1.00  0.00     0.049 A 
ATOM     52  H   UNL A   1      40.367  30.351  30.717  1.00  0.00     0.167 HD
ATOM     53  C   UNL A   1      41.692  33.243  33.741  1.00  0.00     0.031 A 
ATOM     54  C   UNL A   1      40.563  28.014  29.209  1.00  0.00     0.031 A 
ATOM     55  C   UNL A   1      42.689  32.208  33.749  1.00  0.00     0.049 A 
ATOM     56  C   UNL A   1      41.795  28.072  30.071  1.00  0.00     0.074 A 
ATOM     57  C   UNL A   1      43.817  32.101  34.544  1.00  0.00     0.029 A 
ATOM     58  N   UNL A   1      42.680  31.102  32.913  1.00  0.00    -0.354 N 
ATOM     59  N   UNL A   1      42.131  28.959  30.976  1.00  0.00    -0.248 NA
ATOM     60  C   UNL A   1      42.768  26.984  29.902  1.00  0.00     0.031 C 
ATOM     61  C   UNL A   1      44.520  30.957  34.151  1.00  0.00     0.029 A 
ATOM     62  C   UNL A   1      43.798  30.320  33.152  1.00  0.00     0.049 A 
ATOM     63  H   UNL A   1      41.982  30.902  32.248  1.00  0.00     0.167 HD
ATOM     64  C   UNL A   1      43.340  28.523  31.505  1.00  0.00     0.074 A 
ATOM     65  C   UNL A   1      43.670  27.285  30.827  1.00  0.00     0.031 C 
ATOM     66  C   UNL A   1      44.108  29.094  32.464  1.00  0.00     0.031 A 
BRANCH  53  67
ATOM     67  C   UNL A   1      41.860  34.414  34.668  1.00  0.00    -0.014 A 
ATOM     68  C   UNL A   1      41.338  34.394  35.972  1.00  0.00     0.009 A 
ATOM     69  C   UNL A   1      42.568  35.547  34.239  1.00  0.00     0.009 A 
ATOM     70  C   UNL A   1      41.492  35.498  36.813  1.00  0.00     0.001 A 
ATOM     71  C   UNL A   1      42.743  36.638  35.091  1.00  0.00     0.001 A 
ATOM     72  C   UNL A   1      42.197  36.618  36.373  1.00  0.00     0.000 A 
ENDBRANCH  53  67
BRANCH  54  73
ATOM     73  C   UNL A   1      40.350  26.893  28.258  1.00  0.00    -0.014 A 
ATOM     74  C   UNL A   1      40.852  26.958  26.949  1.00  0.00     0.009 A 
ATOM     75  C   UNL A   1      39.631  25.753  28.654  1.00  0.00     0.009 A 
ATOM     76  C   UNL A   1      40.619  25.914  26.051  1.00  0.00     0.001 A 
ATOM     77  C   UNL A   1      39.424  24.700  27.761  1.00  0.00     0.001 A 
ATOM     78  C   UNL A   1      39.910  24.785  26.458  1.00  0.00     0.000 A 
ENDBRANCH  54  73
BRANCH  66  79
ATOM     79  C   UNL A   1      45.363  28.367  32.861  1.00  0.00    -0.014 A 
ATOM     80  C   UNL A   1      45.352  27.391  33.868  1.00  0.00     0.009 A 
ATOM     81  C   UNL A   1      46.563  28.639  32.185  1.00  0.00     0.009 A 
ATOM     82  C   UNL A   1      46.529  26.724  34.213  1.00  0.00     0.001 A 
ATOM     83  C   UNL A   1      47.731  27.950  32.514  1.00  0.00     0.001 A 
ATOM     84  C   UNL A   1      47.715  27.000  33.533  1.00  0.00     0.000 A 
ENDBRANCH  66  79
ENDBRANCH  40  41
ENDBRANCH  33  35
ENDBRANCH  32  33
ENDBRANCH  31  32
ENDBRANCH  30  31
ENDBRANCH  29  30
ENDBRANCH   1  29
TORSDOF 19
ENDMDL
