MODEL 1
REMARK VINA RESULT:     -10.2      0.000      0.000
REMARK SMILES CC(C)CSc1cc2c(cc1Cl)C=C(C(=O)OCCOCCOC(=O)c1ccc(-c3c4nc(c(-c5ccccc5)c5ccc([nH]5)c(-c5ccccc5)c5nc(c(-c6ccccc6)c6ccc3[nH]6)C=C5)C=C4)cc1)[C@@H](C(F)(F)F)O2
REMARK SMILES IDX 19 1 18 2 17 3 15 4 16 5 14 6 6 7 7 8 11 9 8 10 10 11 12 12
REMARK SMILES IDX 9 13 79 14 13 15 74 16 5 17 4 18 2 19 1 20 3 21 75 22 76 23
REMARK SMILES IDX 77 24 78 25 20 26 21 27 22 28 23 29 24 30 25 31 26 32 27 33
REMARK SMILES IDX 73 34 28 35 72 36 29 37 30 38 31 39 66 40 32 41 71 42 65 43
REMARK SMILES IDX 67 44 33 45 70 46 64 47 63 48 34 50 56 51 41 52 55 53 42 54
REMARK SMILES IDX 45 55 54 56 68 57 43 58 44 59 53 61 69 62 46 63 35 64 36 65
REMARK SMILES IDX 40 66 37 67 39 68 38 69 57 70 58 71 62 72 59 73 61 74 60 75
REMARK SMILES IDX 47 76 48 77 52 78 49 79 51 80 50 81
REMARK H PARENT 67 49 45 60
REMARK Flexibility Score: inf
ROOT
ATOM      1  C   UNL A   1      36.540  21.335  25.417  1.00  0.00     0.202 C 
ENDROOT
BRANCH   1   2
ATOM      2  C   UNL A   1      35.597  22.215  24.586  1.00  0.00     0.261 C 
BRANCH   2   3
ATOM      3  O   UNL A   1      34.211  21.888  24.781  1.00  0.00    -0.460 OA
BRANCH   3   4
ATOM      4  C   UNL A   1      33.585  22.645  25.714  1.00  0.00     0.338 C 
ATOM      5  O   UNL A   1      33.475  22.410  26.906  1.00  0.00    -0.246 OA
BRANCH   4   6
ATOM      6  C   UNL A   1      33.181  23.928  25.118  1.00  0.00     0.087 C 
ATOM      7  C   UNL A   1      31.780  28.745  24.674  1.00  0.00     0.030 A 
ATOM      8  C   UNL A   1      31.546  27.556  23.941  1.00  0.00     0.063 A 
ATOM      9  C   UNL A   1      32.784  28.695  25.654  1.00  0.00     0.055 A 
ATOM     10  C   UNL A   1      32.175  26.349  24.258  1.00  0.00     0.129 A 
ATOM     11  C   UNL A   1      33.352  27.466  26.024  1.00  0.00     0.033 A 
ATOM     12  Cl  UNL A   1      33.475  30.045  26.465  1.00  0.00    -0.083 Cl
ATOM     13  C   UNL A   1      33.012  26.290  25.360  1.00  0.00     0.019 A 
ATOM     14  O   UNL A   1      31.880  25.271  23.474  1.00  0.00    -0.475 OA
ATOM     15  C   UNL A   1      33.460  25.007  25.858  1.00  0.00     0.027 C 
ATOM     16  C   UNL A   1      32.481  23.979  23.791  1.00  0.00     0.316 C 
BRANCH   7  17
ATOM     17  S   UNL A   1      30.601  30.031  24.243  1.00  0.00    -0.124 SA
BRANCH  17  18
ATOM     18  C   UNL A   1      29.727  29.587  22.707  1.00  0.00     0.078 C 
BRANCH  18  19
ATOM     19  C   UNL A   1      28.211  29.882  22.668  1.00  0.00    -0.007 C 
ATOM     20  C   UNL A   1      27.285  28.755  23.125  1.00  0.00     0.008 C 
ATOM     21  C   UNL A   1      27.938  31.131  23.518  1.00  0.00     0.008 C 
ENDBRANCH  18  19
ENDBRANCH  17  18
ENDBRANCH   7  17
BRANCH  16  22
ATOM     22  C   UNL A   1      31.378  22.919  23.655  1.00  0.00     0.430 C 
ATOM     23  F   UNL A   1      31.021  22.431  24.867  1.00  0.00    -0.167 F 
ATOM     24  F   UNL A   1      30.255  23.434  23.101  1.00  0.00    -0.167 F 
ATOM     25  F   UNL A   1      31.772  21.875  22.894  1.00  0.00    -0.167 F 
ENDBRANCH  16  22
ENDBRANCH   4   6
ENDBRANCH   3   4
ENDBRANCH   2   3
ENDBRANCH   1   2
BRANCH   1  26
ATOM     26  O   UNL A   1      37.615  21.967  26.105  1.00  0.00    -0.374 OA
BRANCH  26  27
ATOM     27  C   UNL A   1      38.951  21.640  25.728  1.00  0.00     0.202 C 
BRANCH  27  28
ATOM     28  C   UNL A   1      39.345  20.163  25.598  1.00  0.00     0.261 C 
BRANCH  28  29
ATOM     29  O   UNL A   1      40.372  19.778  26.530  1.00  0.00    -0.460 OA
BRANCH  29  30
ATOM     30  C   UNL A   1      41.643  19.944  26.081  1.00  0.00     0.338 C 
ATOM     31  O   UNL A   1      42.236  19.269  25.261  1.00  0.00    -0.246 OA
BRANCH  30  32
ATOM     32  C   UNL A   1      42.167  21.221  26.595  1.00  0.00     0.060 A 
ATOM     33  C   UNL A   1      42.649  22.198  25.725  1.00  0.00     0.016 A 
ATOM     34  C   UNL A   1      42.106  21.456  27.974  1.00  0.00     0.016 A 
ATOM     35  C   UNL A   1      43.056  23.429  26.243  1.00  0.00     0.010 A 
ATOM     36  C   UNL A   1      42.521  22.680  28.490  1.00  0.00     0.010 A 
ATOM     37  C   UNL A   1      42.978  23.684  27.626  1.00  0.00    -0.014 A 
BRANCH  37  38
ATOM     38  C   UNL A   1      43.229  25.045  28.154  1.00  0.00     0.031 A 
ATOM     39  C   UNL A   1      44.605  25.496  28.536  1.00  0.00     0.074 A 
ATOM     40  C   UNL A   1      42.173  25.866  28.318  1.00  0.00     0.049 A 
ATOM     41  N   UNL A   1      44.987  26.669  28.972  1.00  0.00    -0.248 NA
ATOM     42  C   UNL A   1      45.691  24.511  28.419  1.00  0.00     0.031 C 
ATOM     43  C   UNL A   1      40.787  25.517  28.005  1.00  0.00     0.029 A 
ATOM     44  N   UNL A   1      42.098  27.155  28.782  1.00  0.00    -0.354 N 
ATOM     45  C   UNL A   1      46.358  26.574  29.162  1.00  0.00     0.074 A 
ATOM     46  C   UNL A   1      46.736  25.214  28.840  1.00  0.00     0.031 C 
ATOM     47  C   UNL A   1      40.003  26.576  28.253  1.00  0.00     0.029 A 
ATOM     48  C   UNL A   1      40.821  27.664  28.782  1.00  0.00     0.049 A 
ATOM     49  H   UNL A   1      42.882  27.666  29.085  1.00  0.00     0.167 HD
ATOM     50  C   UNL A   1      47.219  27.544  29.552  1.00  0.00     0.031 A 
ATOM     51  C   UNL A   1      40.357  28.870  29.163  1.00  0.00     0.031 A 
ATOM     52  C   UNL A   1      46.825  28.888  29.889  1.00  0.00     0.049 A 
ATOM     53  C   UNL A   1      41.329  29.905  29.657  1.00  0.00     0.074 A 
ATOM     54  C   UNL A   1      47.635  29.951  30.249  1.00  0.00     0.029 A 
ATOM     55  N   UNL A   1      45.518  29.352  29.923  1.00  0.00    -0.354 N 
ATOM     56  N   UNL A   1      42.634  29.829  29.744  1.00  0.00    -0.248 NA
ATOM     57  C   UNL A   1      40.771  31.192  30.095  1.00  0.00     0.031 C 
ATOM     58  C   UNL A   1      46.817  31.031  30.580  1.00  0.00     0.029 A 
ATOM     59  C   UNL A   1      45.500  30.671  30.345  1.00  0.00     0.049 A 
ATOM     60  H   UNL A   1      44.724  28.823  29.685  1.00  0.00     0.167 HD
ATOM     61  C   UNL A   1      43.056  31.061  30.228  1.00  0.00     0.074 A 
ATOM     62  C   UNL A   1      41.869  31.874  30.394  1.00  0.00     0.031 C 
ATOM     63  C   UNL A   1      44.315  31.475  30.511  1.00  0.00     0.031 A 
BRANCH  50  64
ATOM     64  C   UNL A   1      48.685  27.217  29.629  1.00  0.00    -0.014 A 
ATOM     65  C   UNL A   1      49.249  26.802  30.847  1.00  0.00     0.009 A 
ATOM     66  C   UNL A   1      49.534  27.462  28.538  1.00  0.00     0.009 A 
ATOM     67  C   UNL A   1      50.632  26.669  30.980  1.00  0.00     0.001 A 
ATOM     68  C   UNL A   1      50.915  27.299  28.666  1.00  0.00     0.001 A 
ATOM     69  C   UNL A   1      51.464  26.918  29.889  1.00  0.00     0.000 A 
ENDBRANCH  50  64
BRANCH  51  70
ATOM     70  C   UNL A   1      38.901  29.158  29.059  1.00  0.00    -0.014 A 
ATOM     71  C   UNL A   1      38.353  29.661  27.866  1.00  0.00     0.009 A 
ATOM     72  C   UNL A   1      38.060  28.985  30.168  1.00  0.00     0.009 A 
ATOM     73  C   UNL A   1      37.004  30.012  27.795  1.00  0.00     0.001 A 
ATOM     74  C   UNL A   1      36.702  29.304  30.084  1.00  0.00     0.001 A 
ATOM     75  C   UNL A   1      36.179  29.829  28.902  1.00  0.00     0.000 A 
ENDBRANCH  51  70
BRANCH  63  76
ATOM     76  C   UNL A   1      44.502  32.872  31.037  1.00  0.00    -0.014 A 
ATOM     77  C   UNL A   1      44.761  33.926  30.145  1.00  0.00     0.009 A 
ATOM     78  C   UNL A   1      44.562  33.122  32.416  1.00  0.00     0.009 A 
ATOM     79  C   UNL A   1      45.108  35.191  30.621  1.00  0.00     0.001 A 
ATOM     80  C   UNL A   1      44.876  34.397  32.891  1.00  0.00     0.001 A 
ATOM     81  C   UNL A   1      45.163  35.425  31.994  1.00  0.00     0.000 A 
ENDBRANCH  63  76
ENDBRANCH  37  38
ENDBRANCH  30  32
ENDBRANCH  29  30
ENDBRANCH  28  29
ENDBRANCH  27  28
ENDBRANCH  26  27
ENDBRANCH   1  26
TORSDOF 18
ENDMDL
MODEL 2
REMARK VINA RESULT:     -10.2      3.828      9.074
REMARK SMILES CC(C)CSc1cc2c(cc1Cl)C=C(C(=O)OCCOCCOC(=O)c1ccc(-c3c4nc(c(-c5ccccc5)c5ccc([nH]5)c(-c5ccccc5)c5nc(c(-c6ccccc6)c6ccc3[nH]6)C=C5)C=C4)cc1)[C@@H](C(F)(F)F)O2
REMARK SMILES IDX 19 1 18 2 17 3 15 4 16 5 14 6 6 7 7 8 11 9 8 10 10 11 12 12
REMARK SMILES IDX 9 13 79 14 13 15 74 16 5 17 4 18 2 19 1 20 3 21 75 22 76 23
REMARK SMILES IDX 77 24 78 25 20 26 21 27 22 28 23 29 24 30 25 31 26 32 27 33
REMARK SMILES IDX 73 34 28 35 72 36 29 37 30 38 31 39 66 40 32 41 71 42 65 43
REMARK SMILES IDX 67 44 33 45 70 46 64 47 63 48 34 50 56 51 41 52 55 53 42 54
REMARK SMILES IDX 45 55 54 56 68 57 43 58 44 59 53 61 69 62 46 63 35 64 36 65
REMARK SMILES IDX 40 66 37 67 39 68 38 69 57 70 58 71 62 72 59 73 61 74 60 75
REMARK SMILES IDX 47 76 48 77 52 78 49 79 51 80 50 81
REMARK H PARENT 67 49 45 60
REMARK Flexibility Score: inf
ROOT
ATOM      1  C   UNL A   1      32.155  29.350  24.692  1.00  0.00     0.202 C 
ENDROOT
BRANCH   1   2
ATOM      2  C   UNL A   1      33.572  28.763  24.647  1.00  0.00     0.261 C 
BRANCH   2   3
ATOM      3  O   UNL A   1      33.588  27.332  24.787  1.00  0.00    -0.460 OA
BRANCH   3   4
ATOM      4  C   UNL A   1      33.499  26.897  26.067  1.00  0.00     0.338 C 
ATOM      5  O   UNL A   1      33.512  27.573  27.082  1.00  0.00    -0.246 OA
BRANCH   4   6
ATOM      6  C   UNL A   1      33.203  25.456  26.079  1.00  0.00     0.087 C 
ATOM      7  C   UNL A   1      33.367  20.548  24.961  1.00  0.00     0.030 A 
ATOM      8  C   UNL A   1      32.367  21.447  25.407  1.00  0.00     0.063 A 
ATOM      9  C   UNL A   1      34.693  21.007  25.002  1.00  0.00     0.055 A 
ATOM     10  C   UNL A   1      32.654  22.773  25.743  1.00  0.00     0.129 A 
ATOM     11  C   UNL A   1      34.966  22.360  25.260  1.00  0.00     0.033 A 
ATOM     12  Cl  UNL A   1      36.105  20.042  24.814  1.00  0.00    -0.083 Cl
ATOM     13  C   UNL A   1      33.944  23.249  25.581  1.00  0.00     0.019 A 
ATOM     14  O   UNL A   1      31.611  23.544  26.172  1.00  0.00    -0.475 OA
ATOM     15  C   UNL A   1      34.205  24.670  25.669  1.00  0.00     0.027 C 
ATOM     16  C   UNL A   1      31.854  24.947  26.495  1.00  0.00     0.316 C 
BRANCH   7  17
ATOM     17  S   UNL A   1      32.651  19.035  24.304  1.00  0.00    -0.124 SA
BRANCH  17  18
ATOM     18  C   UNL A   1      33.922  17.733  24.211  1.00  0.00     0.078 C 
BRANCH  18  19
ATOM     19  C   UNL A   1      33.911  16.680  25.342  1.00  0.00    -0.007 C 
ATOM     20  C   UNL A   1      32.760  15.674  25.326  1.00  0.00     0.008 C 
ATOM     21  C   UNL A   1      35.242  15.917  25.308  1.00  0.00     0.008 C 
ENDBRANCH  18  19
ENDBRANCH  17  18
ENDBRANCH   7  17
BRANCH  16  22
ATOM     22  C   UNL A   1      30.696  25.757  25.894  1.00  0.00     0.430 C 
ATOM     23  F   UNL A   1      29.511  25.131  26.092  1.00  0.00    -0.167 F 
ATOM     24  F   UNL A   1      30.588  26.978  26.470  1.00  0.00    -0.167 F 
ATOM     25  F   UNL A   1      30.845  25.941  24.564  1.00  0.00    -0.167 F 
ENDBRANCH  16  22
ENDBRANCH   4   6
ENDBRANCH   3   4
ENDBRANCH   2   3
ENDBRANCH   1   2
BRANCH   1  26
ATOM     26  O   UNL A   1      31.850  30.285  25.721  1.00  0.00    -0.374 OA
BRANCH  26  27
ATOM     27  C   UNL A   1      32.915  30.778  26.532  1.00  0.00     0.202 C 
BRANCH  27  28
ATOM     28  C   UNL A   1      32.603  31.817  27.617  1.00  0.00     0.261 C 
BRANCH  28  29
ATOM     29  O   UNL A   1      33.038  33.141  27.259  1.00  0.00    -0.460 OA
BRANCH  29  30
ATOM     30  C   UNL A   1      33.296  33.962  28.310  1.00  0.00     0.338 C 
ATOM     31  O   UNL A   1      32.552  34.784  28.811  1.00  0.00    -0.246 OA
BRANCH  30  32
ATOM     32  C   UNL A   1      34.581  33.573  28.914  1.00  0.00     0.060 A 
ATOM     33  C   UNL A   1      34.626  32.950  30.161  1.00  0.00     0.016 A 
ATOM     34  C   UNL A   1      35.752  33.783  28.176  1.00  0.00     0.016 A 
ATOM     35  C   UNL A   1      35.855  32.517  30.661  1.00  0.00     0.010 A 
ATOM     36  C   UNL A   1      36.979  33.359  28.680  1.00  0.00     0.010 A 
ATOM     37  C   UNL A   1      37.036  32.703  29.917  1.00  0.00    -0.014 A 
BRANCH  37  38
ATOM     38  C   UNL A   1      38.307  32.081  30.356  1.00  0.00     0.031 A 
ATOM     39  C   UNL A   1      38.743  30.744  29.842  1.00  0.00     0.074 A 
ATOM     40  C   UNL A   1      39.052  32.737  31.266  1.00  0.00     0.049 A 
ATOM     41  N   UNL A   1      39.847  30.092  30.101  1.00  0.00    -0.248 NA
ATOM     42  C   UNL A   1      37.829  30.046  28.926  1.00  0.00     0.031 C 
ATOM     43  C   UNL A   1      38.706  34.032  31.854  1.00  0.00     0.029 A 
ATOM     44  N   UNL A   1      40.250  32.413  31.852  1.00  0.00    -0.354 N 
ATOM     45  C   UNL A   1      39.775  28.917  29.366  1.00  0.00     0.074 A 
ATOM     46  C   UNL A   1      38.496  28.923  28.686  1.00  0.00     0.031 C 
ATOM     47  C   UNL A   1      39.684  34.409  32.690  1.00  0.00     0.029 A 
ATOM     48  C   UNL A   1      40.706  33.366  32.732  1.00  0.00     0.049 A 
ATOM     49  H   UNL A   1      40.736  31.580  31.660  1.00  0.00     0.167 HD
ATOM     50  C   UNL A   1      40.703  27.937  29.258  1.00  0.00     0.031 A 
ATOM     51  C   UNL A   1      41.820  33.401  33.488  1.00  0.00     0.031 A 
ATOM     52  C   UNL A   1      41.964  27.936  29.957  1.00  0.00     0.049 A 
ATOM     53  C   UNL A   1      42.800  32.265  33.399  1.00  0.00     0.074 A 
ATOM     54  C   UNL A   1      42.987  27.007  29.871  1.00  0.00     0.029 A 
ATOM     55  N   UNL A   1      42.368  28.893  30.875  1.00  0.00    -0.354 N 
ATOM     56  N   UNL A   1      42.760  31.205  32.630  1.00  0.00    -0.248 NA
ATOM     57  C   UNL A   1      43.982  32.331  34.270  1.00  0.00     0.031 C 
ATOM     58  C   UNL A   1      43.971  27.357  30.796  1.00  0.00     0.029 A 
ATOM     59  C   UNL A   1      43.604  28.550  31.397  1.00  0.00     0.049 A 
ATOM     60  H   UNL A   1      41.853  29.695  31.119  1.00  0.00     0.167 HD
ATOM     61  C   UNL A   1      43.916  30.488  32.908  1.00  0.00     0.074 A 
ATOM     62  C   UNL A   1      44.650  31.245  33.902  1.00  0.00     0.031 C 
ATOM     63  C   UNL A   1      44.328  29.306  32.388  1.00  0.00     0.031 A 
BRANCH  50  64
ATOM     64  C   UNL A   1      40.422  26.777  28.343  1.00  0.00    -0.014 A 
ATOM     65  C   UNL A   1      40.813  26.836  26.995  1.00  0.00     0.009 A 
ATOM     66  C   UNL A   1      39.640  25.694  28.775  1.00  0.00     0.009 A 
ATOM     67  C   UNL A   1      40.403  25.852  26.093  1.00  0.00     0.001 A 
ATOM     68  C   UNL A   1      39.257  24.695  27.877  1.00  0.00     0.001 A 
ATOM     69  C   UNL A   1      39.626  24.782  26.535  1.00  0.00     0.000 A 
ENDBRANCH  50  64
BRANCH  51  70
ATOM     70  C   UNL A   1      42.067  34.573  34.371  1.00  0.00    -0.014 A 
ATOM     71  C   UNL A   1      42.888  35.631  33.944  1.00  0.00     0.009 A 
ATOM     72  C   UNL A   1      41.528  34.616  35.665  1.00  0.00     0.009 A 
ATOM     73  C   UNL A   1      43.189  36.689  34.804  1.00  0.00     0.001 A 
ATOM     74  C   UNL A   1      41.803  35.694  36.511  1.00  0.00     0.001 A 
ATOM     75  C   UNL A   1      42.642  36.722  36.084  1.00  0.00     0.000 A 
ENDBRANCH  51  70
BRANCH  63  76
ATOM     76  C   UNL A   1      45.632  28.732  32.871  1.00  0.00    -0.014 A 
ATOM     77  C   UNL A   1      46.818  29.008  32.171  1.00  0.00     0.009 A 
ATOM     78  C   UNL A   1      45.667  27.810  33.928  1.00  0.00     0.009 A 
ATOM     79  C   UNL A   1      48.005  28.350  32.498  1.00  0.00     0.001 A 
ATOM     80  C   UNL A   1      46.863  27.179  34.275  1.00  0.00     0.001 A 
ATOM     81  C   UNL A   1      48.026  27.437  33.551  1.00  0.00     0.000 A 
ENDBRANCH  63  76
ENDBRANCH  37  38
ENDBRANCH  30  32
ENDBRANCH  29  30
ENDBRANCH  28  29
ENDBRANCH  27  28
ENDBRANCH  26  27
ENDBRANCH   1  26
TORSDOF 18
ENDMDL
MODEL 3
REMARK VINA RESULT:     -10.1      0.553      5.847
REMARK SMILES CC(C)CSc1cc2c(cc1Cl)C=C(C(=O)OCCOCCOC(=O)c1ccc(-c3c4nc(c(-c5ccccc5)c5ccc([nH]5)c(-c5ccccc5)c5nc(c(-c6ccccc6)c6ccc3[nH]6)C=C5)C=C4)cc1)[C@@H](C(F)(F)F)O2
REMARK SMILES IDX 19 1 18 2 17 3 15 4 16 5 14 6 6 7 7 8 11 9 8 10 10 11 12 12
REMARK SMILES IDX 9 13 79 14 13 15 74 16 5 17 4 18 2 19 1 20 3 21 75 22 76 23
REMARK SMILES IDX 77 24 78 25 20 26 21 27 22 28 23 29 24 30 25 31 26 32 27 33
REMARK SMILES IDX 73 34 28 35 72 36 29 37 30 38 31 39 66 40 32 41 71 42 65 43
REMARK SMILES IDX 67 44 33 45 70 46 64 47 63 48 34 50 56 51 41 52 55 53 42 54
REMARK SMILES IDX 45 55 54 56 68 57 43 58 44 59 53 61 69 62 46 63 35 64 36 65
REMARK SMILES IDX 40 66 37 67 39 68 38 69 57 70 58 71 62 72 59 73 61 74 60 75
REMARK SMILES IDX 47 76 48 77 52 78 49 79 51 80 50 81
REMARK H PARENT 67 49 45 60
REMARK Flexibility Score: inf
ROOT
ATOM      1  C   UNL A   1      36.694  21.364  25.451  1.00  0.00     0.202 C 
ENDROOT
BRANCH   1   2
ATOM      2  C   UNL A   1      35.835  22.225  24.515  1.00  0.00     0.261 C 
BRANCH   2   3
ATOM      3  O   UNL A   1      34.448  21.848  24.528  1.00  0.00    -0.460 OA
BRANCH   3   4
ATOM      4  C   UNL A   1      33.710  22.472  25.478  1.00  0.00     0.338 C 
ATOM      5  O   UNL A   1      33.497  22.093  26.617  1.00  0.00    -0.246 OA
BRANCH   4   6
ATOM      6  C   UNL A   1      33.316  23.806  24.999  1.00  0.00     0.087 C 
ATOM      7  C   UNL A   1      32.121  28.699  24.971  1.00  0.00     0.030 A 
ATOM      8  C   UNL A   1      31.759  27.569  24.197  1.00  0.00     0.063 A 
ATOM      9  C   UNL A   1      33.208  28.543  25.845  1.00  0.00     0.055 A 
ATOM     10  C   UNL A   1      32.355  26.318  24.381  1.00  0.00     0.129 A 
ATOM     11  C   UNL A   1      33.747  27.270  26.086  1.00  0.00     0.033 A 
ATOM     12  Cl  UNL A   1      34.039  29.809  26.662  1.00  0.00    -0.083 Cl
ATOM     13  C   UNL A   1      33.288  26.154  25.392  1.00  0.00     0.019 A 
ATOM     14  O   UNL A   1      31.934  25.305  23.569  1.00  0.00    -0.475 OA
ATOM     15  C   UNL A   1      33.716  24.824  25.769  1.00  0.00     0.027 C 
ATOM     16  C   UNL A   1      32.497  23.970  23.752  1.00  0.00     0.316 C 
BRANCH   7  17
ATOM     17  S   UNL A   1      30.972  30.060  24.732  1.00  0.00    -0.124 SA
BRANCH  17  18
ATOM     18  C   UNL A   1      29.856  29.697  23.338  1.00  0.00     0.078 C 
BRANCH  18  19
ATOM     19  C   UNL A   1      28.561  30.534  23.258  1.00  0.00    -0.007 C 
ATOM     20  C   UNL A   1      28.703  32.037  23.496  1.00  0.00     0.008 C 
ATOM     21  C   UNL A   1      27.918  30.304  21.882  1.00  0.00     0.008 C 
ENDBRANCH  18  19
ENDBRANCH  17  18
ENDBRANCH   7  17
BRANCH  16  22
ATOM     22  C   UNL A   1      31.334  22.971  23.662  1.00  0.00     0.430 C 
ATOM     23  F   UNL A   1      30.282  23.508  22.999  1.00  0.00    -0.167 F 
ATOM     24  F   UNL A   1      31.686  21.852  22.986  1.00  0.00    -0.167 F 
ATOM     25  F   UNL A   1      30.898  22.594  24.884  1.00  0.00    -0.167 F 
ENDBRANCH  16  22
ENDBRANCH   4   6
ENDBRANCH   3   4
ENDBRANCH   2   3
ENDBRANCH   1   2
BRANCH   1  26
ATOM     26  O   UNL A   1      37.817  21.973  26.079  1.00  0.00    -0.374 OA
BRANCH  26  27
ATOM     27  C   UNL A   1      39.125  21.539  25.709  1.00  0.00     0.202 C 
BRANCH  27  28
ATOM     28  C   UNL A   1      39.414  20.034  25.637  1.00  0.00     0.261 C 
BRANCH  28  29
ATOM     29  O   UNL A   1      40.461  19.627  26.536  1.00  0.00    -0.460 OA
BRANCH  29  30
ATOM     30  C   UNL A   1      41.720  19.764  26.047  1.00  0.00     0.338 C 
ATOM     31  O   UNL A   1      42.287  19.053  25.239  1.00  0.00    -0.246 OA
BRANCH  30  32
ATOM     32  C   UNL A   1      42.266  21.057  26.496  1.00  0.00     0.060 A 
ATOM     33  C   UNL A   1      42.733  21.995  25.575  1.00  0.00     0.016 A 
ATOM     34  C   UNL A   1      42.243  21.347  27.865  1.00  0.00     0.016 A 
ATOM     35  C   UNL A   1      43.161  23.242  26.033  1.00  0.00     0.010 A 
ATOM     36  C   UNL A   1      42.680  22.588  28.321  1.00  0.00     0.010 A 
ATOM     37  C   UNL A   1      43.121  23.553  27.406  1.00  0.00    -0.014 A 
BRANCH  37  38
ATOM     38  C   UNL A   1      43.395  24.932  27.872  1.00  0.00     0.031 A 
ATOM     39  C   UNL A   1      42.289  25.909  28.120  1.00  0.00     0.074 A 
ATOM     40  C   UNL A   1      44.680  25.302  28.036  1.00  0.00     0.049 A 
ATOM     41  N   UNL A   1      42.370  27.135  28.569  1.00  0.00    -0.248 NA
ATOM     42  C   UNL A   1      40.919  25.462  27.826  1.00  0.00     0.031 C 
ATOM     43  C   UNL A   1      45.836  24.437  27.795  1.00  0.00     0.029 A 
ATOM     44  N   UNL A   1      45.231  26.490  28.445  1.00  0.00    -0.354 N 
ATOM     45  C   UNL A   1      41.064  27.602  28.634  1.00  0.00     0.074 A 
ATOM     46  C   UNL A   1      40.213  26.544  28.132  1.00  0.00     0.031 C 
ATOM     47  C   UNL A   1      46.956  25.111  28.092  1.00  0.00     0.029 A 
ATOM     48  C   UNL A   1      46.604  26.468  28.504  1.00  0.00     0.049 A 
ATOM     49  H   UNL A   1      44.694  27.282  28.674  1.00  0.00     0.167 HD
ATOM     50  C   UNL A   1      40.624  28.799  29.089  1.00  0.00     0.031 A 
ATOM     51  C   UNL A   1      47.483  27.427  28.849  1.00  0.00     0.031 A 
ATOM     52  C   UNL A   1      41.486  29.851  29.566  1.00  0.00     0.049 A 
ATOM     53  C   UNL A   1      46.967  28.769  29.286  1.00  0.00     0.074 A 
ATOM     54  C   UNL A   1      41.124  31.079  30.091  1.00  0.00     0.029 A 
ATOM     55  N   UNL A   1      42.872  29.809  29.565  1.00  0.00    -0.354 N 
ATOM     56  N   UNL A   1      45.726  29.165  29.428  1.00  0.00    -0.248 NA
ATOM     57  C   UNL A   1      47.966  29.795  29.618  1.00  0.00     0.031 C 
ATOM     58  C   UNL A   1      42.287  31.811  30.330  1.00  0.00     0.029 A 
ATOM     59  C   UNL A   1      43.378  31.008  30.036  1.00  0.00     0.049 A 
ATOM     60  H   UNL A   1      43.414  29.041  29.273  1.00  0.00     0.167 HD
ATOM     61  C   UNL A   1      45.792  30.475  29.884  1.00  0.00     0.074 A 
ATOM     62  C   UNL A   1      47.198  30.802  30.016  1.00  0.00     0.031 C 
ATOM     63  C   UNL A   1      44.778  31.329  30.163  1.00  0.00     0.031 A 
BRANCH  50  64
ATOM     64  C   UNL A   1      39.142  29.057  29.118  1.00  0.00    -0.014 A 
ATOM     65  C   UNL A   1      38.517  29.680  28.026  1.00  0.00     0.009 A 
ATOM     66  C   UNL A   1      38.395  28.820  30.283  1.00  0.00     0.009 A 
ATOM     67  C   UNL A   1      37.184  30.088  28.110  1.00  0.00     0.001 A 
ATOM     68  C   UNL A   1      37.053  29.203  30.353  1.00  0.00     0.001 A 
ATOM     69  C   UNL A   1      36.453  29.849  29.273  1.00  0.00     0.000 A 
ENDBRANCH  50  64
BRANCH  51  70
ATOM     70  C   UNL A   1      48.941  27.127  28.819  1.00  0.00    -0.014 A 
ATOM     71  C   UNL A   1      49.596  26.642  29.964  1.00  0.00     0.009 A 
ATOM     72  C   UNL A   1      49.695  27.377  27.663  1.00  0.00     0.009 A 
ATOM     73  C   UNL A   1      50.978  26.443  29.961  1.00  0.00     0.001 A 
ATOM     74  C   UNL A   1      51.072  27.142  27.652  1.00  0.00     0.001 A 
ATOM     75  C   UNL A   1      51.714  26.688  28.804  1.00  0.00     0.000 A 
ENDBRANCH  51  70
BRANCH  63  76
ATOM     76  C   UNL A   1      45.124  32.713  30.640  1.00  0.00    -0.014 A 
ATOM     77  C   UNL A   1      45.171  32.985  32.017  1.00  0.00     0.009 A 
ATOM     78  C   UNL A   1      45.265  33.775  29.734  1.00  0.00     0.009 A 
ATOM     79  C   UNL A   1      45.318  34.295  32.477  1.00  0.00     0.001 A 
ATOM     80  C   UNL A   1      45.447  35.079  30.197  1.00  0.00     0.001 A 
ATOM     81  C   UNL A   1      45.458  35.340  31.566  1.00  0.00     0.000 A 
ENDBRANCH  63  76
ENDBRANCH  37  38
ENDBRANCH  30  32
ENDBRANCH  29  30
ENDBRANCH  28  29
ENDBRANCH  27  28
ENDBRANCH  26  27
ENDBRANCH   1  26
TORSDOF 18
ENDMDL
