MODEL 1
REMARK VINA RESULT:     -11.1      0.000      0.000
REMARK SMILES CC(=O)N1C[C@@H]2C[N@H+](CC(=O)NCc3ccccc3)C[C@]2(C(=O)OCCOCCOC(=O)c2ccc(-c3c4nc(c(-c5ccccc5)c5ccc([nH]5)c(-c5ccccc5)c5nc(c(-c6ccccc6)c6ccc3[nH]6)C=C5)C=C4)cc2)C1
REMARK SMILES IDX 26 1 25 2 24 3 22 4 23 5 21 6 4 7 5 8 81 9 6 10 7 11 20 12
REMARK SMILES IDX 8 13 2 15 1 16 3 17 9 18 10 19 11 20 12 21 13 23 14 24 15 25
REMARK SMILES IDX 19 26 16 27 18 28 17 29 27 30 28 31 29 32 30 33 31 34 32 35
REMARK SMILES IDX 33 36 34 37 80 38 35 39 79 40 36 41 37 42 38 43 73 44 39 45
REMARK SMILES IDX 78 46 72 47 74 48 40 49 77 50 71 51 70 52 41 54 63 55 48 56
REMARK SMILES IDX 62 57 49 58 52 59 61 60 75 61 50 62 51 63 60 65 76 66 53 67
REMARK SMILES IDX 42 68 43 69 47 70 44 71 46 72 45 73 64 74 65 75 69 76 66 77
REMARK SMILES IDX 68 78 67 79 54 80 55 81 59 82 56 83 58 84 57 85
REMARK H PARENT 8 14 12 22 74 53 52 64
REMARK Flexibility Score: inf
ROOT
ATOM      1  C   UNL A   1      35.579  23.350  25.773  1.00  0.00     0.202 C 
ENDROOT
BRANCH   1   2
ATOM      2  C   UNL A   1      34.527  24.414  25.469  1.00  0.00     0.261 C 
BRANCH   2   3
ATOM      3  O   UNL A   1      34.441  25.061  24.168  1.00  0.00    -0.463 OA
BRANCH   3   4
ATOM      4  C   UNL A   1      33.491  25.051  23.180  1.00  0.00     0.320 C 
ATOM      5  O   UNL A   1      33.544  24.495  22.098  1.00  0.00    -0.251 OA
BRANCH   4   6
ATOM      6  C   UNL A   1      32.266  25.818  23.745  1.00  0.00     0.144 C 
ATOM      7  N   UNL A   1      32.353  28.129  24.445  1.00  0.00    -0.341 N 
ATOM      8  C   UNL A   1      30.952  27.845  24.421  1.00  0.00     0.130 C 
ATOM      9  C   UNL A   1      33.047  27.183  23.563  1.00  0.00     0.144 C 
ATOM     10  C   UNL A   1      30.894  26.611  23.550  1.00  0.00     0.089 C 
ATOM     11  C   UNL A   1      29.727  25.709  23.952  1.00  0.00     0.269 C 
ATOM     12  C   UNL A   1      31.482  24.602  23.096  1.00  0.00     0.284 C 
ATOM     13  N   UNL A   1      30.369  24.406  24.048  1.00  0.00    -0.326 N 
ATOM     14  H   UNL A   1      29.735  23.632  23.849  1.00  0.00     0.348 HD
BRANCH   7  15
ATOM     15  C   UNL A   1      32.882  28.827  25.513  1.00  0.00     0.219 C 
ATOM     16  C   UNL A   1      33.849  28.098  26.401  1.00  0.00     0.114 C 
ATOM     17  O   UNL A   1      32.659  30.025  25.696  1.00  0.00    -0.275 OA
ENDBRANCH   7  15
BRANCH  13  18
ATOM     18  C   UNL A   1      30.871  24.033  25.435  1.00  0.00     0.363 C 
BRANCH  18  19
ATOM     19  C   UNL A   1      30.783  22.538  25.843  1.00  0.00     0.275 C 
ATOM     20  O   UNL A   1      29.825  22.148  26.519  1.00  0.00    -0.268 OA
ATOM     21  N   UNL A   1      31.757  21.610  25.572  1.00  0.00    -0.347 N 
ATOM     22  H   UNL A   1      31.954  20.993  26.313  1.00  0.00     0.164 HD
BRANCH  21  23
ATOM     23  C   UNL A   1      32.547  21.387  24.368  1.00  0.00     0.151 C 
BRANCH  23  24
ATOM     24  C   UNL A   1      32.783  19.919  24.021  1.00  0.00    -0.029 A 
ATOM     25  C   UNL A   1      33.510  19.088  24.878  1.00  0.00     0.005 A 
ATOM     26  C   UNL A   1      32.271  19.303  22.867  1.00  0.00     0.005 A 
ATOM     27  C   UNL A   1      33.709  17.727  24.580  1.00  0.00     0.000 A 
ATOM     28  C   UNL A   1      32.484  17.961  22.543  1.00  0.00     0.000 A 
ATOM     29  C   UNL A   1      33.206  17.165  23.408  1.00  0.00     0.000 A 
ENDBRANCH  23  24
ENDBRANCH  21  23
ENDBRANCH  18  19
ENDBRANCH  13  18
ENDBRANCH   4   6
ENDBRANCH   3   4
ENDBRANCH   2   3
ENDBRANCH   1   2
BRANCH   1  30
ATOM     30  O   UNL A   1      36.197  22.798  24.633  1.00  0.00    -0.374 OA
BRANCH  30  31
ATOM     31  C   UNL A   1      36.284  21.374  24.612  1.00  0.00     0.202 C 
BRANCH  31  32
ATOM     32  C   UNL A   1      37.485  20.771  25.364  1.00  0.00     0.261 C 
BRANCH  32  33
ATOM     33  O   UNL A   1      38.727  21.475  25.171  1.00  0.00    -0.460 OA
BRANCH  33  34
ATOM     34  C   UNL A   1      39.682  21.206  26.089  1.00  0.00     0.338 C 
ATOM     35  O   UNL A   1      40.346  20.195  26.173  1.00  0.00    -0.246 OA
BRANCH  34  36
ATOM     36  C   UNL A   1      39.939  22.409  26.911  1.00  0.00     0.060 A 
ATOM     37  C   UNL A   1      39.185  23.552  26.629  1.00  0.00     0.016 A 
ATOM     38  C   UNL A   1      40.961  22.451  27.865  1.00  0.00     0.016 A 
ATOM     39  C   UNL A   1      39.519  24.770  27.217  1.00  0.00     0.010 A 
ATOM     40  C   UNL A   1      41.303  23.678  28.450  1.00  0.00     0.010 A 
ATOM     41  C   UNL A   1      40.625  24.852  28.075  1.00  0.00    -0.014 A 
BRANCH  41  42
ATOM     42  C   UNL A   1      41.204  26.191  28.349  1.00  0.00     0.031 A 
ATOM     43  C   UNL A   1      42.536  26.532  27.730  1.00  0.00     0.074 A 
ATOM     44  C   UNL A   1      40.529  27.124  29.043  1.00  0.00     0.049 A 
ATOM     45  N   UNL A   1      43.199  27.662  27.749  1.00  0.00    -0.248 NA
ATOM     46  C   UNL A   1      43.205  25.457  26.978  1.00  0.00     0.031 C 
ATOM     47  C   UNL A   1      39.212  26.942  29.648  1.00  0.00     0.029 A 
ATOM     48  N   UNL A   1      40.861  28.422  29.339  1.00  0.00    -0.354 N 
ATOM     49  C   UNL A   1      44.356  27.432  27.012  1.00  0.00     0.074 A 
ATOM     50  C   UNL A   1      44.323  26.050  26.590  1.00  0.00     0.031 C 
ATOM     51  C   UNL A   1      38.842  28.092  30.239  1.00  0.00     0.029 A 
ATOM     52  C   UNL A   1      39.906  29.082  30.071  1.00  0.00     0.049 A 
ATOM     53  H   UNL A   1      41.706  28.840  29.054  1.00  0.00     0.167 HD
ATOM     54  C   UNL A   1      45.352  28.294  26.702  1.00  0.00     0.031 A 
ATOM     55  C   UNL A   1      39.892  30.341  30.552  1.00  0.00     0.031 A 
ATOM     56  C   UNL A   1      45.404  29.663  27.135  1.00  0.00     0.049 A 
ATOM     57  C   UNL A   1      41.050  31.259  30.261  1.00  0.00     0.074 A 
ATOM     58  C   UNL A   1      46.374  30.615  26.877  1.00  0.00     0.029 A 
ATOM     59  N   UNL A   1      44.442  30.273  27.924  1.00  0.00    -0.354 N 
ATOM     60  N   UNL A   1      42.126  31.036  29.542  1.00  0.00    -0.248 NA
ATOM     61  C   UNL A   1      40.984  32.611  30.835  1.00  0.00     0.031 C 
ATOM     62  C   UNL A   1      46.025  31.788  27.556  1.00  0.00     0.029 A 
ATOM     63  C   UNL A   1      44.807  31.583  28.183  1.00  0.00     0.049 A 
ATOM     64  H   UNL A   1      43.621  29.840  28.252  1.00  0.00     0.167 HD
ATOM     65  C   UNL A   1      42.845  32.225  29.553  1.00  0.00     0.074 A 
ATOM     66  C   UNL A   1      42.077  33.171  30.337  1.00  0.00     0.031 C 
ATOM     67  C   UNL A   1      44.032  32.511  28.965  1.00  0.00     0.031 A 
BRANCH  54  68
ATOM     68  C   UNL A   1      46.492  27.758  25.878  1.00  0.00    -0.014 A 
ATOM     69  C   UNL A   1      47.551  27.053  26.470  1.00  0.00     0.009 A 
ATOM     70  C   UNL A   1      46.496  27.951  24.488  1.00  0.00     0.009 A 
ATOM     71  C   UNL A   1      48.610  26.581  25.689  1.00  0.00     0.001 A 
ATOM     72  C   UNL A   1      47.540  27.455  23.707  1.00  0.00     0.001 A 
ATOM     73  C   UNL A   1      48.601  26.779  24.310  1.00  0.00     0.000 A 
ENDBRANCH  54  68
BRANCH  55  74
ATOM     74  C   UNL A   1      38.744  30.816  31.370  1.00  0.00    -0.014 A 
ATOM     75  C   UNL A   1      38.786  30.760  32.771  1.00  0.00     0.009 A 
ATOM     76  C   UNL A   1      37.585  31.302  30.745  1.00  0.00     0.009 A 
ATOM     77  C   UNL A   1      37.681  31.158  33.529  1.00  0.00     0.001 A 
ATOM     78  C   UNL A   1      36.493  31.726  31.506  1.00  0.00     0.001 A 
ATOM     79  C   UNL A   1      36.539  31.645  32.896  1.00  0.00     0.000 A 
ENDBRANCH  55  74
BRANCH  67  80
ATOM     80  C   UNL A   1      44.553  33.915  29.110  1.00  0.00    -0.014 A 
ATOM     81  C   UNL A   1      45.428  34.268  30.149  1.00  0.00     0.009 A 
ATOM     82  C   UNL A   1      44.186  34.890  28.169  1.00  0.00     0.009 A 
ATOM     83  C   UNL A   1      45.892  35.580  30.265  1.00  0.00     0.001 A 
ATOM     84  C   UNL A   1      44.675  36.193  28.270  1.00  0.00     0.001 A 
ATOM     85  C   UNL A   1      45.519  36.539  29.324  1.00  0.00     0.000 A 
ENDBRANCH  67  80
ENDBRANCH  41  42
ENDBRANCH  34  36
ENDBRANCH  33  34
ENDBRANCH  32  33
ENDBRANCH  31  32
ENDBRANCH  30  31
ENDBRANCH   1  30
TORSDOF 19
ENDMDL
MODEL 2
REMARK VINA RESULT:     -10.9      1.998      2.691
REMARK SMILES CC(=O)N1C[C@@H]2C[N@H+](CC(=O)NCc3ccccc3)C[C@]2(C(=O)OCCOCCOC(=O)c2ccc(-c3c4nc(c(-c5ccccc5)c5ccc([nH]5)c(-c5ccccc5)c5nc(c(-c6ccccc6)c6ccc3[nH]6)C=C5)C=C4)cc2)C1
REMARK SMILES IDX 26 1 25 2 24 3 22 4 23 5 21 6 4 7 5 8 81 9 6 10 7 11 20 12
REMARK SMILES IDX 8 13 2 15 1 16 3 17 9 18 10 19 11 20 12 21 13 23 14 24 15 25
REMARK SMILES IDX 19 26 16 27 18 28 17 29 27 30 28 31 29 32 30 33 31 34 32 35
REMARK SMILES IDX 33 36 34 37 80 38 35 39 79 40 36 41 37 42 38 43 73 44 39 45
REMARK SMILES IDX 78 46 72 47 74 48 40 49 77 50 71 51 70 52 41 54 63 55 48 56
REMARK SMILES IDX 62 57 49 58 52 59 61 60 75 61 50 62 51 63 60 65 76 66 53 67
REMARK SMILES IDX 42 68 43 69 47 70 44 71 46 72 45 73 64 74 65 75 69 76 66 77
REMARK SMILES IDX 68 78 67 79 54 80 55 81 59 82 56 83 58 84 57 85
REMARK H PARENT 8 14 12 22 74 53 52 64
REMARK Flexibility Score: inf
ROOT
ATOM      1  C   UNL A   1      36.271  23.649  25.279  1.00  0.00     0.202 C 
ENDROOT
BRANCH   1   2
ATOM      2  C   UNL A   1      34.819  24.010  24.972  1.00  0.00     0.261 C 
BRANCH   2   3
ATOM      3  O   UNL A   1      34.471  25.069  24.036  1.00  0.00    -0.463 OA
BRANCH   3   4
ATOM      4  C   UNL A   1      33.507  25.181  23.068  1.00  0.00     0.320 C 
ATOM      5  O   UNL A   1      33.540  24.757  21.927  1.00  0.00    -0.251 OA
BRANCH   4   6
ATOM      6  C   UNL A   1      32.295  25.882  23.739  1.00  0.00     0.144 C 
ATOM      7  N   UNL A   1      32.369  28.145  24.582  1.00  0.00    -0.341 N 
ATOM      8  C   UNL A   1      30.974  27.829  24.605  1.00  0.00     0.130 C 
ATOM      9  C   UNL A   1      33.038  27.273  23.608  1.00  0.00     0.144 C 
ATOM     10  C   UNL A   1      30.899  26.653  23.659  1.00  0.00     0.089 C 
ATOM     11  C   UNL A   1      29.771  25.699  24.057  1.00  0.00     0.269 C 
ATOM     12  C   UNL A   1      31.505  24.691  23.050  1.00  0.00     0.284 C 
ATOM     13  N   UNL A   1      30.444  24.409  24.038  1.00  0.00    -0.326 N 
ATOM     14  H   UNL A   1      29.818  23.634  23.820  1.00  0.00     0.348 HD
BRANCH   7  15
ATOM     15  C   UNL A   1      32.934  28.785  25.667  1.00  0.00     0.219 C 
ATOM     16  C   UNL A   1      33.448  27.924  26.783  1.00  0.00     0.114 C 
ATOM     17  O   UNL A   1      33.107  30.005  25.698  1.00  0.00    -0.275 OA
ENDBRANCH   7  15
BRANCH  13  18
ATOM     18  C   UNL A   1      31.020  23.960  25.373  1.00  0.00     0.363 C 
BRANCH  18  19
ATOM     19  C   UNL A   1      30.839  22.467  25.758  1.00  0.00     0.275 C 
ATOM     20  O   UNL A   1      29.921  22.143  26.520  1.00  0.00    -0.268 OA
ATOM     21  N   UNL A   1      31.694  21.466  25.372  1.00  0.00    -0.347 N 
ATOM     22  H   UNL A   1      31.907  20.813  26.078  1.00  0.00     0.164 HD
BRANCH  21  23
ATOM     23  C   UNL A   1      32.339  21.209  24.091  1.00  0.00     0.151 C 
BRANCH  23  24
ATOM     24  C   UNL A   1      32.882  19.792  23.921  1.00  0.00    -0.029 A 
ATOM     25  C   UNL A   1      32.314  18.913  22.994  1.00  0.00     0.005 A 
ATOM     26  C   UNL A   1      33.982  19.293  24.638  1.00  0.00     0.005 A 
ATOM     27  C   UNL A   1      32.825  17.614  22.812  1.00  0.00     0.000 A 
ATOM     28  C   UNL A   1      34.483  17.997  24.489  1.00  0.00     0.000 A 
ATOM     29  C   UNL A   1      33.902  17.152  23.566  1.00  0.00     0.000 A 
ENDBRANCH  23  24
ENDBRANCH  21  23
ENDBRANCH  18  19
ENDBRANCH  13  18
ENDBRANCH   4   6
ENDBRANCH   3   4
ENDBRANCH   2   3
ENDBRANCH   1   2
BRANCH   1  30
ATOM     30  O   UNL A   1      36.831  22.692  24.408  1.00  0.00    -0.374 OA
BRANCH  30  31
ATOM     31  C   UNL A   1      37.144  21.433  25.001  1.00  0.00     0.202 C 
BRANCH  31  32
ATOM     32  C   UNL A   1      38.478  21.373  25.766  1.00  0.00     0.261 C 
BRANCH  32  33
ATOM     33  O   UNL A   1      39.501  20.588  25.126  1.00  0.00    -0.460 OA
BRANCH  33  34
ATOM     34  C   UNL A   1      40.431  20.073  25.961  1.00  0.00     0.338 C 
ATOM     35  O   UNL A   1      40.684  18.899  26.131  1.00  0.00    -0.246 OA
BRANCH  34  36
ATOM     36  C   UNL A   1      41.241  21.164  26.545  1.00  0.00     0.060 A 
ATOM     37  C   UNL A   1      41.191  21.327  27.934  1.00  0.00     0.016 A 
ATOM     38  C   UNL A   1      41.949  22.070  25.749  1.00  0.00     0.016 A 
ATOM     39  C   UNL A   1      41.757  22.456  28.522  1.00  0.00     0.010 A 
ATOM     40  C   UNL A   1      42.510  23.210  26.341  1.00  0.00     0.010 A 
ATOM     41  C   UNL A   1      42.355  23.438  27.720  1.00  0.00    -0.014 A 
BRANCH  41  42
ATOM     42  C   UNL A   1      42.568  24.787  28.302  1.00  0.00     0.031 A 
ATOM     43  C   UNL A   1      43.970  25.184  28.689  1.00  0.00     0.074 A 
ATOM     44  C   UNL A   1      41.568  25.681  28.397  1.00  0.00     0.049 A 
ATOM     45  N   UNL A   1      44.419  26.333  29.130  1.00  0.00    -0.248 NA
ATOM     46  C   UNL A   1      45.008  24.149  28.547  1.00  0.00     0.031 C 
ATOM     47  C   UNL A   1      40.179  25.444  28.009  1.00  0.00     0.029 A 
ATOM     48  N   UNL A   1      41.579  26.981  28.837  1.00  0.00    -0.354 N 
ATOM     49  C   UNL A   1      45.787  26.157  29.314  1.00  0.00     0.074 A 
ATOM     50  C   UNL A   1      46.088  24.785  28.970  1.00  0.00     0.031 C 
ATOM     51  C   UNL A   1      39.471  26.568  28.222  1.00  0.00     0.029 A 
ATOM     52  C   UNL A   1      40.352  27.593  28.779  1.00  0.00     0.049 A 
ATOM     53  H   UNL A   1      42.392  27.432  29.163  1.00  0.00     0.167 HD
ATOM     54  C   UNL A   1      46.714  27.056  29.718  1.00  0.00     0.031 A 
ATOM     55  C   UNL A   1      39.982  28.839  29.137  1.00  0.00     0.031 A 
ATOM     56  C   UNL A   1      46.419  28.415  30.082  1.00  0.00     0.049 A 
ATOM     57  C   UNL A   1      41.018  29.799  29.661  1.00  0.00     0.074 A 
ATOM     58  C   UNL A   1      47.289  29.403  30.510  1.00  0.00     0.029 A 
ATOM     59  N   UNL A   1      45.152  28.975  30.064  1.00  0.00    -0.354 N 
ATOM     60  N   UNL A   1      42.311  29.626  29.806  1.00  0.00    -0.248 NA
ATOM     61  C   UNL A   1      40.544  31.133  30.056  1.00  0.00     0.031 C 
ATOM     62  C   UNL A   1      46.539  30.547  30.803  1.00  0.00     0.029 A 
ATOM     63  C   UNL A   1      45.212  30.289  30.496  1.00  0.00     0.049 A 
ATOM     64  H   UNL A   1      44.331  28.509  29.785  1.00  0.00     0.167 HD
ATOM     65  C   UNL A   1      42.805  30.836  30.277  1.00  0.00     0.074 A 
ATOM     66  C   UNL A   1      41.677  31.739  30.380  1.00  0.00     0.031 C 
ATOM     67  C   UNL A   1      44.081  31.174  30.593  1.00  0.00     0.031 A 
BRANCH  54  68
ATOM     68  C   UNL A   1      48.135  26.577  29.824  1.00  0.00    -0.014 A 
ATOM     69  C   UNL A   1      49.060  26.802  28.792  1.00  0.00     0.009 A 
ATOM     70  C   UNL A   1      48.558  25.903  30.980  1.00  0.00     0.009 A 
ATOM     71  C   UNL A   1      50.371  26.332  28.902  1.00  0.00     0.001 A 
ATOM     72  C   UNL A   1      49.875  25.457  31.100  1.00  0.00     0.001 A 
ATOM     73  C   UNL A   1      50.778  25.664  30.056  1.00  0.00     0.000 A 
ENDBRANCH  54  68
BRANCH  55  74
ATOM     74  C   UNL A   1      38.560  29.257  29.021  1.00  0.00    -0.014 A 
ATOM     75  C   UNL A   1      38.048  29.739  27.806  1.00  0.00     0.009 A 
ATOM     76  C   UNL A   1      37.713  29.203  30.139  1.00  0.00     0.009 A 
ATOM     77  C   UNL A   1      36.724  30.180  27.721  1.00  0.00     0.001 A 
ATOM     78  C   UNL A   1      36.383  29.618  30.043  1.00  0.00     0.001 A 
ATOM     79  C   UNL A   1      35.893  30.115  28.838  1.00  0.00     0.000 A 
ENDBRANCH  55  74
BRANCH  67  80
ATOM     80  C   UNL A   1      44.329  32.588  31.039  1.00  0.00    -0.014 A 
ATOM     81  C   UNL A   1      44.513  33.627  30.114  1.00  0.00     0.009 A 
ATOM     82  C   UNL A   1      44.345  32.889  32.410  1.00  0.00     0.009 A 
ATOM     83  C   UNL A   1      44.749  34.931  30.555  1.00  0.00     0.001 A 
ATOM     84  C   UNL A   1      44.552  34.197  32.848  1.00  0.00     0.001 A 
ATOM     85  C   UNL A   1      44.764  35.216  31.919  1.00  0.00     0.000 A 
ENDBRANCH  67  80
ENDBRANCH  41  42
ENDBRANCH  34  36
ENDBRANCH  33  34
ENDBRANCH  32  33
ENDBRANCH  31  32
ENDBRANCH  30  31
ENDBRANCH   1  30
TORSDOF 19
ENDMDL
MODEL 3
REMARK VINA RESULT:     -10.9      1.668      4.394
REMARK SMILES CC(=O)N1C[C@@H]2C[N@H+](CC(=O)NCc3ccccc3)C[C@]2(C(=O)OCCOCCOC(=O)c2ccc(-c3c4nc(c(-c5ccccc5)c5ccc([nH]5)c(-c5ccccc5)c5nc(c(-c6ccccc6)c6ccc3[nH]6)C=C5)C=C4)cc2)C1
REMARK SMILES IDX 26 1 25 2 24 3 22 4 23 5 21 6 4 7 5 8 81 9 6 10 7 11 20 12
REMARK SMILES IDX 8 13 2 15 1 16 3 17 9 18 10 19 11 20 12 21 13 23 14 24 15 25
REMARK SMILES IDX 19 26 16 27 18 28 17 29 27 30 28 31 29 32 30 33 31 34 32 35
REMARK SMILES IDX 33 36 34 37 80 38 35 39 79 40 36 41 37 42 38 43 73 44 39 45
REMARK SMILES IDX 78 46 72 47 74 48 40 49 77 50 71 51 70 52 41 54 63 55 48 56
REMARK SMILES IDX 62 57 49 58 52 59 61 60 75 61 50 62 51 63 60 65 76 66 53 67
REMARK SMILES IDX 42 68 43 69 47 70 44 71 46 72 45 73 64 74 65 75 69 76 66 77
REMARK SMILES IDX 68 78 67 79 54 80 55 81 59 82 56 83 58 84 57 85
REMARK H PARENT 8 14 12 22 74 53 52 64
REMARK Flexibility Score: inf
ROOT
ATOM      1  C   UNL A   1      34.824  22.251  27.162  1.00  0.00     0.202 C 
ENDROOT
BRANCH   1   2
ATOM      2  C   UNL A   1      33.299  22.283  27.096  1.00  0.00     0.261 C 
BRANCH   2   3
ATOM      3  O   UNL A   1      32.585  23.226  26.248  1.00  0.00    -0.463 OA
BRANCH   3   4
ATOM      4  C   UNL A   1      31.341  23.797  26.324  1.00  0.00     0.320 C 
ATOM      5  O   UNL A   1      30.549  23.743  27.248  1.00  0.00    -0.251 OA
BRANCH   4   6
ATOM      6  C   UNL A   1      31.161  24.624  25.024  1.00  0.00     0.144 C 
ATOM      7  N   UNL A   1      32.059  23.950  22.885  1.00  0.00    -0.341 N 
ATOM      8  C   UNL A   1      31.173  25.021  22.548  1.00  0.00     0.130 C 
ATOM      9  C   UNL A   1      31.650  23.381  24.175  1.00  0.00     0.144 C 
ATOM     10  C   UNL A   1      30.291  25.100  23.772  1.00  0.00     0.089 C 
ATOM     11  C   UNL A   1      29.805  26.531  24.008  1.00  0.00     0.269 C 
ATOM     12  C   UNL A   1      30.026  25.322  25.886  1.00  0.00     0.284 C 
ATOM     13  N   UNL A   1      30.099  26.722  25.421  1.00  0.00    -0.326 N 
ATOM     14  H   UNL A   1      29.468  27.382  25.875  1.00  0.00     0.348 HD
BRANCH   7  15
ATOM     15  C   UNL A   1      33.310  23.899  22.301  1.00  0.00     0.219 C 
ATOM     16  C   UNL A   1      34.498  23.999  23.212  1.00  0.00     0.114 C 
ATOM     17  O   UNL A   1      33.469  23.687  21.098  1.00  0.00    -0.275 OA
ENDBRANCH   7  15
BRANCH  13  18
ATOM     18  C   UNL A   1      31.453  27.348  25.721  1.00  0.00     0.363 C 
BRANCH  18  19
ATOM     19  C   UNL A   1      31.609  28.084  27.078  1.00  0.00     0.275 C 
ATOM     20  O   UNL A   1      31.403  27.469  28.131  1.00  0.00    -0.268 OA
ATOM     21  N   UNL A   1      31.886  29.423  27.198  1.00  0.00    -0.347 N 
ATOM     22  H   UNL A   1      31.368  29.888  27.895  1.00  0.00     0.164 HD
BRANCH  21  23
ATOM     23  C   UNL A   1      32.818  30.269  26.465  1.00  0.00     0.151 C 
BRANCH  23  24
ATOM     24  C   UNL A   1      34.198  30.404  27.104  1.00  0.00    -0.029 A 
ATOM     25  C   UNL A   1      34.628  31.626  27.629  1.00  0.00     0.005 A 
ATOM     26  C   UNL A   1      35.097  29.333  27.241  1.00  0.00     0.005 A 
ATOM     27  C   UNL A   1      35.888  31.753  28.245  1.00  0.00     0.000 A 
ATOM     28  C   UNL A   1      36.361  29.450  27.824  1.00  0.00     0.000 A 
ATOM     29  C   UNL A   1      36.759  30.669  28.333  1.00  0.00     0.000 A 
ENDBRANCH  23  24
ENDBRANCH  21  23
ENDBRANCH  18  19
ENDBRANCH  13  18
ENDBRANCH   4   6
ENDBRANCH   3   4
ENDBRANCH   2   3
ENDBRANCH   1   2
BRANCH   1  30
ATOM     30  O   UNL A   1      35.463  22.300  25.907  1.00  0.00    -0.374 OA
BRANCH  30  31
ATOM     31  C   UNL A   1      35.845  21.037  25.364  1.00  0.00     0.202 C 
BRANCH  31  32
ATOM     32  C   UNL A   1      37.328  20.901  24.977  1.00  0.00     0.261 C 
BRANCH  32  33
ATOM     33  O   UNL A   1      38.147  22.031  25.336  1.00  0.00    -0.460 OA
BRANCH  33  34
ATOM     34  C   UNL A   1      39.233  21.733  26.085  1.00  0.00     0.338 C 
ATOM     35  O   UNL A   1      39.904  20.725  26.023  1.00  0.00    -0.246 OA
BRANCH  34  36
ATOM     36  C   UNL A   1      39.609  22.903  26.908  1.00  0.00     0.060 A 
ATOM     37  C   UNL A   1      38.906  24.093  26.693  1.00  0.00     0.016 A 
ATOM     38  C   UNL A   1      40.690  22.869  27.795  1.00  0.00     0.016 A 
ATOM     39  C   UNL A   1      39.346  25.278  27.278  1.00  0.00     0.010 A 
ATOM     40  C   UNL A   1      41.138  24.063  28.377  1.00  0.00     0.010 A 
ATOM     41  C   UNL A   1      40.507  25.280  28.065  1.00  0.00    -0.014 A 
BRANCH  41  42
ATOM     42  C   UNL A   1      41.178  26.579  28.323  1.00  0.00     0.031 A 
ATOM     43  C   UNL A   1      42.504  26.842  27.654  1.00  0.00     0.074 A 
ATOM     44  C   UNL A   1      40.589  27.547  29.047  1.00  0.00     0.049 A 
ATOM     45  N   UNL A   1      43.235  27.928  27.653  1.00  0.00    -0.248 NA
ATOM     46  C   UNL A   1      43.075  25.733  26.871  1.00  0.00     0.031 C 
ATOM     47  C   UNL A   1      39.287  27.442  29.702  1.00  0.00     0.029 A 
ATOM     48  N   UNL A   1      41.013  28.820  29.337  1.00  0.00    -0.354 N 
ATOM     49  C   UNL A   1      44.347  27.632  26.871  1.00  0.00     0.074 A 
ATOM     50  C   UNL A   1      44.212  26.258  26.443  1.00  0.00     0.031 C 
ATOM     51  C   UNL A   1      39.013  28.609  30.313  1.00  0.00     0.029 A 
ATOM     52  C   UNL A   1      40.129  29.532  30.109  1.00  0.00     0.049 A 
ATOM     53  H   UNL A   1      41.870  29.187  29.021  1.00  0.00     0.167 HD
ATOM     54  C   UNL A   1      45.382  28.433  26.525  1.00  0.00     0.031 A 
ATOM     55  C   UNL A   1      40.212  30.786  30.596  1.00  0.00     0.031 A 
ATOM     56  C   UNL A   1      45.535  29.793  26.963  1.00  0.00     0.049 A 
ATOM     57  C   UNL A   1      41.413  31.633  30.264  1.00  0.00     0.074 A 
ATOM     58  C   UNL A   1      46.552  30.685  26.673  1.00  0.00     0.029 A 
ATOM     59  N   UNL A   1      44.644  30.456  27.793  1.00  0.00    -0.354 N 
ATOM     60  N   UNL A   1      42.444  31.348  29.503  1.00  0.00    -0.248 NA
ATOM     61  C   UNL A   1      41.453  32.982  30.847  1.00  0.00     0.031 C 
ATOM     62  C   UNL A   1      46.303  31.873  27.370  1.00  0.00     0.029 A 
ATOM     63  C   UNL A   1      45.100  31.739  28.044  1.00  0.00     0.049 A 
ATOM     64  H   UNL A   1      43.811  30.072  28.150  1.00  0.00     0.167 HD
ATOM     65  C   UNL A   1      43.235  32.491  29.492  1.00  0.00     0.074 A 
ATOM     66  C   UNL A   1      42.558  33.477  30.309  1.00  0.00     0.031 C 
ATOM     67  C   UNL A   1      44.415  32.708  28.859  1.00  0.00     0.031 A 
BRANCH  54  68
ATOM     68  C   UNL A   1      46.453  27.834  25.656  1.00  0.00    -0.014 A 
ATOM     69  C   UNL A   1      47.483  27.052  26.201  1.00  0.00     0.009 A 
ATOM     70  C   UNL A   1      46.422  28.045  24.269  1.00  0.00     0.009 A 
ATOM     71  C   UNL A   1      48.480  26.521  25.378  1.00  0.00     0.001 A 
ATOM     72  C   UNL A   1      47.402  27.491  23.445  1.00  0.00     0.001 A 
ATOM     73  C   UNL A   1      48.436  26.738  24.002  1.00  0.00     0.000 A 
ENDBRANCH  54  68
BRANCH  55  74
ATOM     74  C   UNL A   1      39.128  31.325  31.459  1.00  0.00    -0.014 A 
ATOM     75  C   UNL A   1      38.995  30.907  32.793  1.00  0.00     0.009 A 
ATOM     76  C   UNL A   1      38.201  32.242  30.941  1.00  0.00     0.009 A 
ATOM     77  C   UNL A   1      37.941  31.379  33.580  1.00  0.00     0.001 A 
ATOM     78  C   UNL A   1      37.165  32.734  31.739  1.00  0.00     0.001 A 
ATOM     79  C   UNL A   1      37.031  32.294  33.054  1.00  0.00     0.000 A 
ENDBRANCH  55  74
BRANCH  67  80
ATOM     80  C   UNL A   1      45.027  34.075  28.991  1.00  0.00    -0.014 A 
ATOM     81  C   UNL A   1      44.709  35.110  28.098  1.00  0.00     0.009 A 
ATOM     82  C   UNL A   1      45.912  34.338  30.048  1.00  0.00     0.009 A 
ATOM     83  C   UNL A   1      45.297  36.369  28.238  1.00  0.00     0.001 A 
ATOM     84  C   UNL A   1      46.475  35.605  30.204  1.00  0.00     0.001 A 
ATOM     85  C   UNL A   1      46.175  36.616  29.292  1.00  0.00     0.000 A 
ENDBRANCH  67  80
ENDBRANCH  41  42
ENDBRANCH  34  36
ENDBRANCH  33  34
ENDBRANCH  32  33
ENDBRANCH  31  32
ENDBRANCH  30  31
ENDBRANCH   1  30
TORSDOF 19
ENDMDL
