MODEL 1
REMARK VINA RESULT:     -10.5      0.000      0.000
REMARK SMILES N#Cc1ccccc1S(=O)(=O)N1CCC(C(=O)OCCOCCOC(=O)c2ccc(-c3c4nc(c(-c5ccccc5)c5ccc([nH]5)c(-c5ccccc5)c5nc(c(-c6ccccc6)c6ccc3[nH]6)C=C5)C=C4)cc2)CC1
REMARK SMILES IDX 20 1 19 2 18 3 16 4 17 5 15 6 12 7 13 8 76 9 14 10 75 11
REMARK SMILES IDX 9 12 10 13 11 14 8 15 3 16 4 17 5 18 7 19 6 20 2 21 1 22
REMARK SMILES IDX 21 23 22 24 23 25 24 26 25 27 26 28 27 29 28 30 74 31 29 32
REMARK SMILES IDX 73 33 30 34 31 35 32 36 67 37 33 38 72 39 66 40 68 41 34 42
REMARK SMILES IDX 71 43 65 44 64 45 35 47 57 48 42 49 56 50 43 51 46 52 55 53
REMARK SMILES IDX 69 54 44 55 45 56 54 58 70 59 47 60 36 61 37 62 41 63 38 64
REMARK SMILES IDX 40 65 39 66 58 67 59 68 63 69 60 70 62 71 61 72 48 73 49 74
REMARK SMILES IDX 53 75 50 76 52 77 51 78
REMARK H PARENT 68 46 46 57
REMARK Flexibility Score: inf
ROOT
ATOM      1  C   UNL A   1      41.260  20.078  26.200  1.00  0.00     0.202 C 
ENDROOT
BRANCH   1   2
ATOM      2  C   UNL A   1      40.350  21.240  26.602  1.00  0.00     0.261 C 
BRANCH   2   3
ATOM      3  O   UNL A   1      39.111  21.229  25.885  1.00  0.00    -0.463 OA
BRANCH   3   4
ATOM      4  C   UNL A   1      38.428  22.400  25.922  1.00  0.00     0.309 C 
ATOM      5  O   UNL A   1      38.817  23.428  26.465  1.00  0.00    -0.252 OA
BRANCH   4   6
ATOM      6  C   UNL A   1      37.095  22.322  25.222  1.00  0.00     0.102 C 
ATOM      7  N   UNL A   1      34.344  22.572  24.474  1.00  0.00    -0.198 NA
ATOM      8  C   UNL A   1      34.794  21.253  24.963  1.00  0.00     0.103 C 
ATOM      9  C   UNL A   1      35.257  23.720  24.342  1.00  0.00     0.103 C 
ATOM     10  C   UNL A   1      36.126  21.247  25.701  1.00  0.00     0.032 C 
ATOM     11  C   UNL A   1      36.413  23.670  25.317  1.00  0.00     0.032 C 
BRANCH   7  12
ATOM     12  S   UNL A   1      32.888  22.624  23.624  1.00  0.00     0.244 S 
ATOM     13  O   UNL A   1      32.164  21.423  23.990  1.00  0.00    -0.207 OA
ATOM     14  O   UNL A   1      33.186  22.918  22.239  1.00  0.00    -0.207 OA
BRANCH  12  15
ATOM     15  C   UNL A   1      31.864  23.972  24.190  1.00  0.00     0.100 A 
ATOM     16  C   UNL A   1      31.442  24.244  25.493  1.00  0.00     0.072 A 
ATOM     17  C   UNL A   1      30.586  25.342  25.722  1.00  0.00     0.021 A 
ATOM     18  C   UNL A   1      30.189  26.184  24.687  1.00  0.00     0.001 A 
ATOM     19  C   UNL A   1      31.459  24.838  23.151  1.00  0.00     0.023 A 
ATOM     20  C   UNL A   1      30.640  25.939  23.399  1.00  0.00     0.001 A 
BRANCH  16  21
ATOM     21  C   UNL A   1      31.833  23.557  26.678  1.00  0.00     0.101 C 
ATOM     22  N   UNL A   1      32.151  22.889  27.574  1.00  0.00    -0.192 NA
ENDBRANCH  16  21
ENDBRANCH  12  15
ENDBRANCH   7  12
ENDBRANCH   4   6
ENDBRANCH   3   4
ENDBRANCH   2   3
ENDBRANCH   1   2
BRANCH   1  23
ATOM     23  O   UNL A   1      42.664  20.202  26.398  1.00  0.00    -0.374 OA
BRANCH  23  24
ATOM     24  C   UNL A   1      43.511  20.349  25.261  1.00  0.00     0.202 C 
BRANCH  24  25
ATOM     25  C   UNL A   1      44.326  21.643  25.098  1.00  0.00     0.261 C 
BRANCH  25  26
ATOM     26  O   UNL A   1      43.524  22.801  24.796  1.00  0.00    -0.460 OA
BRANCH  26  27
ATOM     27  C   UNL A   1      44.161  23.985  24.978  1.00  0.00     0.338 C 
ATOM     28  O   UNL A   1      45.151  24.390  24.392  1.00  0.00    -0.246 OA
BRANCH  27  29
ATOM     29  C   UNL A   1      43.373  24.861  25.863  1.00  0.00     0.060 A 
ATOM     30  C   UNL A   1      43.737  26.213  25.931  1.00  0.00     0.016 A 
ATOM     31  C   UNL A   1      42.383  24.348  26.700  1.00  0.00     0.016 A 
ATOM     32  C   UNL A   1      43.143  27.051  26.870  1.00  0.00     0.010 A 
ATOM     33  C   UNL A   1      41.793  25.190  27.649  1.00  0.00     0.010 A 
ATOM     34  C   UNL A   1      42.198  26.534  27.764  1.00  0.00    -0.014 A 
BRANCH  34  35
ATOM     35  C   UNL A   1      41.740  27.367  28.902  1.00  0.00     0.031 A 
ATOM     36  C   UNL A   1      42.491  27.311  30.204  1.00  0.00     0.074 A 
ATOM     37  C   UNL A   1      40.689  28.194  28.765  1.00  0.00     0.049 A 
ATOM     38  N   UNL A   1      42.240  27.924  31.334  1.00  0.00    -0.248 NA
ATOM     39  C   UNL A   1      43.680  26.444  30.241  1.00  0.00     0.031 C 
ATOM     40  C   UNL A   1      39.915  28.381  27.539  1.00  0.00     0.029 A 
ATOM     41  N   UNL A   1      40.091  29.031  29.673  1.00  0.00    -0.354 N 
ATOM     42  C   UNL A   1      43.228  27.506  32.218  1.00  0.00     0.074 A 
ATOM     43  C   UNL A   1      44.062  26.564  31.505  1.00  0.00     0.031 C 
ATOM     44  C   UNL A   1      38.941  29.277  27.772  1.00  0.00     0.029 A 
ATOM     45  C   UNL A   1      38.995  29.688  29.173  1.00  0.00     0.049 A 
ATOM     46  H   UNL A   1      40.417  29.149  30.594  1.00  0.00     0.167 HD
ATOM     47  C   UNL A   1      43.424  27.878  33.506  1.00  0.00     0.031 A 
ATOM     48  C   UNL A   1      38.117  30.508  29.783  1.00  0.00     0.031 A 
ATOM     49  C   UNL A   1      42.583  28.805  34.216  1.00  0.00     0.049 A 
ATOM     50  C   UNL A   1      38.303  30.832  31.242  1.00  0.00     0.074 A 
ATOM     51  C   UNL A   1      42.708  29.260  35.518  1.00  0.00     0.029 A 
ATOM     52  N   UNL A   1      41.452  29.411  33.689  1.00  0.00    -0.354 N 
ATOM     53  N   UNL A   1      39.255  30.452  32.060  1.00  0.00    -0.248 NA
ATOM     54  C   UNL A   1      37.295  31.706  31.858  1.00  0.00     0.031 C 
ATOM     55  C   UNL A   1      41.611  30.079  35.802  1.00  0.00     0.029 A 
ATOM     56  C   UNL A   1      40.849  30.204  34.652  1.00  0.00     0.049 A 
ATOM     57  H   UNL A   1      41.126  29.295  32.768  1.00  0.00     0.167 HD
ATOM     58  C   UNL A   1      38.978  31.067  33.276  1.00  0.00     0.074 A 
ATOM     59  C   UNL A   1      37.783  31.859  33.080  1.00  0.00     0.031 C 
ATOM     60  C   UNL A   1      39.657  30.986  34.448  1.00  0.00     0.031 A 
BRANCH  47  61
ATOM     61  C   UNL A   1      44.571  27.243  34.247  1.00  0.00    -0.014 A 
ATOM     62  C   UNL A   1      44.363  26.233  35.201  1.00  0.00     0.009 A 
ATOM     63  C   UNL A   1      45.886  27.636  33.955  1.00  0.00     0.009 A 
ATOM     64  C   UNL A   1      45.446  25.661  35.874  1.00  0.00     0.001 A 
ATOM     65  C   UNL A   1      46.969  27.038  34.602  1.00  0.00     0.001 A 
ATOM     66  C   UNL A   1      46.747  26.059  35.569  1.00  0.00     0.000 A 
ENDBRANCH  47  61
BRANCH  48  67
ATOM     67  C   UNL A   1      36.962  31.060  29.025  1.00  0.00    -0.014 A 
ATOM     68  C   UNL A   1      36.939  32.406  28.630  1.00  0.00     0.009 A 
ATOM     69  C   UNL A   1      35.861  30.246  28.715  1.00  0.00     0.009 A 
ATOM     70  C   UNL A   1      35.827  32.932  27.968  1.00  0.00     0.001 A 
ATOM     71  C   UNL A   1      34.766  30.764  28.020  1.00  0.00     0.001 A 
ATOM     72  C   UNL A   1      34.745  32.110  27.658  1.00  0.00     0.000 A 
ENDBRANCH  48  67
BRANCH  60  73
ATOM     73  C   UNL A   1      39.147  31.810  35.601  1.00  0.00    -0.014 A 
ATOM     74  C   UNL A   1      38.262  31.279  36.552  1.00  0.00     0.009 A 
ATOM     75  C   UNL A   1      39.595  33.131  35.757  1.00  0.00     0.009 A 
ATOM     76  C   UNL A   1      37.804  32.068  37.611  1.00  0.00     0.001 A 
ATOM     77  C   UNL A   1      39.167  33.905  36.837  1.00  0.00     0.001 A 
ATOM     78  C   UNL A   1      38.262  33.377  37.755  1.00  0.00     0.000 A 
ENDBRANCH  60  73
ENDBRANCH  34  35
ENDBRANCH  27  29
ENDBRANCH  26  27
ENDBRANCH  25  26
ENDBRANCH  24  25
ENDBRANCH  23  24
ENDBRANCH   1  23
TORSDOF 17
ENDMDL
MODEL 2
REMARK VINA RESULT:     -10.3      1.963      2.678
REMARK SMILES N#Cc1ccccc1S(=O)(=O)N1CCC(C(=O)OCCOCCOC(=O)c2ccc(-c3c4nc(c(-c5ccccc5)c5ccc([nH]5)c(-c5ccccc5)c5nc(c(-c6ccccc6)c6ccc3[nH]6)C=C5)C=C4)cc2)CC1
REMARK SMILES IDX 20 1 19 2 18 3 16 4 17 5 15 6 12 7 13 8 76 9 14 10 75 11
REMARK SMILES IDX 9 12 10 13 11 14 8 15 3 16 4 17 5 18 7 19 6 20 2 21 1 22
REMARK SMILES IDX 21 23 22 24 23 25 24 26 25 27 26 28 27 29 28 30 74 31 29 32
REMARK SMILES IDX 73 33 30 34 31 35 32 36 67 37 33 38 72 39 66 40 68 41 34 42
REMARK SMILES IDX 71 43 65 44 64 45 35 47 57 48 42 49 56 50 43 51 46 52 55 53
REMARK SMILES IDX 69 54 44 55 45 56 54 58 70 59 47 60 36 61 37 62 41 63 38 64
REMARK SMILES IDX 40 65 39 66 58 67 59 68 63 69 60 70 62 71 61 72 48 73 49 74
REMARK SMILES IDX 53 75 50 76 52 77 51 78
REMARK H PARENT 68 46 46 57
REMARK Flexibility Score: inf
ROOT
ATOM      1  C   UNL A   1      38.891  21.938  26.107  1.00  0.00     0.202 C 
ENDROOT
BRANCH   1   2
ATOM      2  C   UNL A   1      37.666  22.171  25.220  1.00  0.00     0.261 C 
BRANCH   2   3
ATOM      3  O   UNL A   1      36.685  22.992  25.861  1.00  0.00    -0.463 OA
BRANCH   3   4
ATOM      4  C   UNL A   1      35.471  22.405  26.010  1.00  0.00     0.309 C 
ATOM      5  O   UNL A   1      35.283  21.210  26.209  1.00  0.00    -0.252 OA
BRANCH   4   6
ATOM      6  C   UNL A   1      34.330  23.384  25.893  1.00  0.00     0.102 C 
ATOM      7  N   UNL A   1      31.844  24.679  25.317  1.00  0.00    -0.198 NA
ATOM      8  C   UNL A   1      33.023  25.104  24.537  1.00  0.00     0.103 C 
ATOM      9  C   UNL A   1      31.920  23.653  26.371  1.00  0.00     0.103 C 
ATOM     10  C   UNL A   1      34.217  24.159  24.586  1.00  0.00     0.032 C 
ATOM     11  C   UNL A   1      33.029  22.650  26.139  1.00  0.00     0.032 C 
BRANCH   7  12
ATOM     12  S   UNL A   1      30.508  25.709  25.319  1.00  0.00     0.244 S 
ATOM     13  O   UNL A   1      29.741  25.374  26.502  1.00  0.00    -0.207 OA
ATOM     14  O   UNL A   1      29.904  25.665  24.004  1.00  0.00    -0.207 OA
BRANCH  12  15
ATOM     15  C   UNL A   1      31.009  27.406  25.557  1.00  0.00     0.100 A 
ATOM     16  C   UNL A   1      31.040  28.434  24.613  1.00  0.00     0.072 A 
ATOM     17  C   UNL A   1      31.522  29.704  24.997  1.00  0.00     0.021 A 
ATOM     18  C   UNL A   1      31.924  29.965  26.304  1.00  0.00     0.001 A 
ATOM     19  C   UNL A   1      31.414  27.687  26.880  1.00  0.00     0.023 A 
ATOM     20  C   UNL A   1      31.856  28.956  27.252  1.00  0.00     0.001 A 
BRANCH  16  21
ATOM     21  C   UNL A   1      30.571  28.375  23.269  1.00  0.00     0.101 C 
ATOM     22  N   UNL A   1      30.278  28.236  22.153  1.00  0.00    -0.192 NA
ENDBRANCH  16  21
ENDBRANCH  12  15
ENDBRANCH   7  12
ENDBRANCH   4   6
ENDBRANCH   3   4
ENDBRANCH   2   3
ENDBRANCH   1   2
BRANCH   1  23
ATOM     23  O   UNL A   1      39.683  20.775  25.895  1.00  0.00    -0.374 OA
BRANCH  23  24
ATOM     24  C   UNL A   1      40.850  20.580  26.691  1.00  0.00     0.202 C 
BRANCH  24  25
ATOM     25  C   UNL A   1      42.222  20.965  26.114  1.00  0.00     0.261 C 
BRANCH  25  26
ATOM     26  O   UNL A   1      42.800  22.135  26.723  1.00  0.00    -0.460 OA
BRANCH  26  27
ATOM     27  C   UNL A   1      42.789  23.239  25.934  1.00  0.00     0.338 C 
ATOM     28  O   UNL A   1      43.023  23.297  24.739  1.00  0.00    -0.246 OA
BRANCH  27  29
ATOM     29  C   UNL A   1      42.239  24.391  26.671  1.00  0.00     0.060 A 
ATOM     30  C   UNL A   1      42.858  25.635  26.488  1.00  0.00     0.016 A 
ATOM     31  C   UNL A   1      41.222  24.234  27.612  1.00  0.00     0.016 A 
ATOM     32  C   UNL A   1      42.494  26.721  27.279  1.00  0.00     0.010 A 
ATOM     33  C   UNL A   1      40.864  25.324  28.412  1.00  0.00     0.010 A 
ATOM     34  C   UNL A   1      41.524  26.560  28.276  1.00  0.00    -0.014 A 
BRANCH  34  35
ATOM     35  C   UNL A   1      41.305  27.647  29.261  1.00  0.00     0.031 A 
ATOM     36  C   UNL A   1      42.236  27.774  30.436  1.00  0.00     0.074 A 
ATOM     37  C   UNL A   1      40.310  28.534  29.090  1.00  0.00     0.049 A 
ATOM     38  N   UNL A   1      42.203  28.624  31.432  1.00  0.00    -0.248 NA
ATOM     39  C   UNL A   1      43.350  26.814  30.501  1.00  0.00     0.031 C 
ATOM     40  C   UNL A   1      39.377  28.552  27.964  1.00  0.00     0.029 A 
ATOM     41  N   UNL A   1      39.919  29.594  29.869  1.00  0.00    -0.354 N 
ATOM     42  C   UNL A   1      43.278  28.291  32.247  1.00  0.00     0.074 A 
ATOM     43  C   UNL A   1      43.924  27.143  31.648  1.00  0.00     0.031 C 
ATOM     44  C   UNL A   1      38.519  29.572  28.127  1.00  0.00     0.029 A 
ATOM     45  C   UNL A   1      38.812  30.248  29.388  1.00  0.00     0.049 A 
ATOM     46  H   UNL A   1      40.387  29.859  30.693  1.00  0.00     0.167 HD
ATOM     47  C   UNL A   1      43.692  28.891  33.390  1.00  0.00     0.031 A 
ATOM     48  C   UNL A   1      38.099  31.260  29.920  1.00  0.00     0.031 A 
ATOM     49  C   UNL A   1      43.038  30.023  33.990  1.00  0.00     0.049 A 
ATOM     50  C   UNL A   1      38.524  31.848  31.239  1.00  0.00     0.074 A 
ATOM     51  C   UNL A   1      43.390  30.714  35.138  1.00  0.00     0.029 A 
ATOM     52  N   UNL A   1      41.890  30.626  33.498  1.00  0.00    -0.354 N 
ATOM     53  N   UNL A   1      39.557  31.543  31.988  1.00  0.00    -0.248 NA
ATOM     54  C   UNL A   1      37.688  32.927  31.781  1.00  0.00     0.031 C 
ATOM     55  C   UNL A   1      42.412  31.683  35.382  1.00  0.00     0.029 A 
ATOM     56  C   UNL A   1      41.498  31.654  34.342  1.00  0.00     0.049 A 
ATOM     57  H   UNL A   1      41.422  30.362  32.674  1.00  0.00     0.167 HD
ATOM     58  C   UNL A   1      39.512  32.414  33.070  1.00  0.00     0.074 A 
ATOM     59  C   UNL A   1      38.363  33.271  32.868  1.00  0.00     0.031 C 
ATOM     60  C   UNL A   1      40.350  32.498  34.133  1.00  0.00     0.031 A 
BRANCH  47  61
ATOM     61  C   UNL A   1      44.886  28.301  34.092  1.00  0.00    -0.014 A 
ATOM     62  C   UNL A   1      44.743  27.361  35.126  1.00  0.00     0.009 A 
ATOM     63  C   UNL A   1      46.179  28.665  33.685  1.00  0.00     0.009 A 
ATOM     64  C   UNL A   1      45.869  26.830  35.761  1.00  0.00     0.001 A 
ATOM     65  C   UNL A   1      47.303  28.106  34.296  1.00  0.00     0.001 A 
ATOM     66  C   UNL A   1      47.146  27.197  35.341  1.00  0.00     0.000 A 
ENDBRANCH  47  61
BRANCH  48  67
ATOM     67  C   UNL A   1      36.888  31.766  29.219  1.00  0.00    -0.014 A 
ATOM     68  C   UNL A   1      36.887  33.030  28.609  1.00  0.00     0.009 A 
ATOM     69  C   UNL A   1      35.715  30.995  29.180  1.00  0.00     0.009 A 
ATOM     70  C   UNL A   1      35.729  33.522  28.002  1.00  0.00     0.001 A 
ATOM     71  C   UNL A   1      34.570  31.474  28.540  1.00  0.00     0.001 A 
ATOM     72  C   UNL A   1      34.574  32.742  27.962  1.00  0.00     0.000 A 
ENDBRANCH  48  67
BRANCH  60  73
ATOM     73  C   UNL A   1      40.081  33.585  35.141  1.00  0.00    -0.014 A 
ATOM     74  C   UNL A   1      39.322  33.347  36.297  1.00  0.00     0.009 A 
ATOM     75  C   UNL A   1      40.634  34.861  34.946  1.00  0.00     0.009 A 
ATOM     76  C   UNL A   1      39.087  34.376  37.214  1.00  0.00     0.001 A 
ATOM     77  C   UNL A   1      40.431  35.876  35.882  1.00  0.00     0.001 A 
ATOM     78  C   UNL A   1      39.648  35.636  37.009  1.00  0.00     0.000 A 
ENDBRANCH  60  73
ENDBRANCH  34  35
ENDBRANCH  27  29
ENDBRANCH  26  27
ENDBRANCH  25  26
ENDBRANCH  24  25
ENDBRANCH  23  24
ENDBRANCH   1  23
TORSDOF 17
ENDMDL
MODEL 3
REMARK VINA RESULT:     -10.3      3.493      5.060
REMARK SMILES N#Cc1ccccc1S(=O)(=O)N1CCC(C(=O)OCCOCCOC(=O)c2ccc(-c3c4nc(c(-c5ccccc5)c5ccc([nH]5)c(-c5ccccc5)c5nc(c(-c6ccccc6)c6ccc3[nH]6)C=C5)C=C4)cc2)CC1
REMARK SMILES IDX 20 1 19 2 18 3 16 4 17 5 15 6 12 7 13 8 76 9 14 10 75 11
REMARK SMILES IDX 9 12 10 13 11 14 8 15 3 16 4 17 5 18 7 19 6 20 2 21 1 22
REMARK SMILES IDX 21 23 22 24 23 25 24 26 25 27 26 28 27 29 28 30 74 31 29 32
REMARK SMILES IDX 73 33 30 34 31 35 32 36 67 37 33 38 72 39 66 40 68 41 34 42
REMARK SMILES IDX 71 43 65 44 64 45 35 47 57 48 42 49 56 50 43 51 46 52 55 53
REMARK SMILES IDX 69 54 44 55 45 56 54 58 70 59 47 60 36 61 37 62 41 63 38 64
REMARK SMILES IDX 40 65 39 66 58 67 59 68 63 69 60 70 62 71 61 72 48 73 49 74
REMARK SMILES IDX 53 75 50 76 52 77 51 78
REMARK H PARENT 68 46 46 57
REMARK Flexibility Score: inf
ROOT
ATOM      1  C   UNL A   1      36.514  20.662  25.023  1.00  0.00     0.202 C 
ENDROOT
BRANCH   1   2
ATOM      2  C   UNL A   1      35.059  21.017  25.335  1.00  0.00     0.261 C 
BRANCH   2   3
ATOM      3  O   UNL A   1      34.142  20.355  24.458  1.00  0.00    -0.463 OA
BRANCH   3   4
ATOM      4  C   UNL A   1      32.835  20.510  24.789  1.00  0.00     0.309 C 
ATOM      5  O   UNL A   1      32.061  19.598  25.056  1.00  0.00    -0.252 OA
BRANCH   4   6
ATOM      6  C   UNL A   1      32.399  21.953  24.789  1.00  0.00     0.102 C 
ATOM      7  N   UNL A   1      30.908  24.393  24.908  1.00  0.00    -0.198 NA
ATOM      8  C   UNL A   1      31.381  23.955  23.580  1.00  0.00     0.103 C 
ATOM      9  C   UNL A   1      31.200  23.639  26.139  1.00  0.00     0.103 C 
ATOM     10  C   UNL A   1      31.823  22.501  23.488  1.00  0.00     0.032 C 
ATOM     11  C   UNL A   1      31.386  22.158  25.895  1.00  0.00     0.032 C 
BRANCH   7  12
ATOM     12  S   UNL A   1      30.437  26.005  25.066  1.00  0.00     0.244 S 
ATOM     13  O   UNL A   1      30.559  26.325  26.474  1.00  0.00    -0.207 OA
ATOM     14  O   UNL A   1      29.178  26.176  24.372  1.00  0.00    -0.207 OA
BRANCH  12  15
ATOM     15  C   UNL A   1      31.588  27.092  24.242  1.00  0.00     0.100 A 
ATOM     16  C   UNL A   1      32.979  27.125  24.365  1.00  0.00     0.072 A 
ATOM     17  C   UNL A   1      33.707  28.106  23.658  1.00  0.00     0.021 A 
ATOM     18  C   UNL A   1      33.075  29.010  22.809  1.00  0.00     0.001 A 
ATOM     19  C   UNL A   1      30.961  28.011  23.372  1.00  0.00     0.023 A 
ATOM     20  C   UNL A   1      31.699  28.952  22.654  1.00  0.00     0.001 A 
BRANCH  16  21
ATOM     21  C   UNL A   1      33.793  26.217  25.100  1.00  0.00     0.101 C 
ATOM     22  N   UNL A   1      34.349  25.415  25.731  1.00  0.00    -0.192 NA
ENDBRANCH  16  21
ENDBRANCH  12  15
ENDBRANCH   7  12
ENDBRANCH   4   6
ENDBRANCH   3   4
ENDBRANCH   2   3
ENDBRANCH   1   2
BRANCH   1  23
ATOM     23  O   UNL A   1      37.499  21.688  25.071  1.00  0.00    -0.374 OA
BRANCH  23  24
ATOM     24  C   UNL A   1      38.743  21.421  25.714  1.00  0.00     0.202 C 
BRANCH  24  25
ATOM     25  C   UNL A   1      39.414  20.054  25.506  1.00  0.00     0.261 C 
BRANCH  25  26
ATOM     26  O   UNL A   1      40.410  19.739  26.497  1.00  0.00    -0.460 OA
BRANCH  26  27
ATOM     27  C   UNL A   1      41.690  19.882  26.067  1.00  0.00     0.338 C 
ATOM     28  O   UNL A   1      42.272  19.205  25.236  1.00  0.00    -0.246 OA
BRANCH  27  29
ATOM     29  C   UNL A   1      42.270  21.132  26.590  1.00  0.00     0.060 A 
ATOM     30  C   UNL A   1      42.093  21.410  27.953  1.00  0.00     0.016 A 
ATOM     31  C   UNL A   1      42.865  22.068  25.745  1.00  0.00     0.016 A 
ATOM     32  C   UNL A   1      42.469  22.646  28.469  1.00  0.00     0.010 A 
ATOM     33  C   UNL A   1      43.233  23.313  26.264  1.00  0.00     0.010 A 
ATOM     34  C   UNL A   1      43.002  23.622  27.618  1.00  0.00    -0.014 A 
BRANCH  34  35
ATOM     35  C   UNL A   1      43.186  25.005  28.121  1.00  0.00     0.031 A 
ATOM     36  C   UNL A   1      44.564  25.470  28.507  1.00  0.00     0.074 A 
ATOM     37  C   UNL A   1      42.143  25.850  28.199  1.00  0.00     0.049 A 
ATOM     38  N   UNL A   1      44.941  26.621  29.004  1.00  0.00    -0.248 NA
ATOM     39  C   UNL A   1      45.662  24.510  28.310  1.00  0.00     0.031 C 
ATOM     40  C   UNL A   1      40.770  25.536  27.802  1.00  0.00     0.029 A 
ATOM     41  N   UNL A   1      42.079  27.146  28.642  1.00  0.00    -0.354 N 
ATOM     42  C   UNL A   1      46.314  26.517  29.195  1.00  0.00     0.074 A 
ATOM     43  C   UNL A   1      46.698  25.182  28.790  1.00  0.00     0.031 C 
ATOM     44  C   UNL A   1      39.999  26.614  28.022  1.00  0.00     0.029 A 
ATOM     45  C   UNL A   1      40.811  27.671  28.617  1.00  0.00     0.049 A 
ATOM     46  H   UNL A   1      42.867  27.652  28.947  1.00  0.00     0.167 HD
ATOM     47  C   UNL A   1      47.178  27.452  29.661  1.00  0.00     0.031 A 
ATOM     48  C   UNL A   1      40.353  28.861  29.052  1.00  0.00     0.031 A 
ATOM     49  C   UNL A   1      46.790  28.774  30.076  1.00  0.00     0.049 A 
ATOM     50  C   UNL A   1      41.318  29.848  29.653  1.00  0.00     0.074 A 
ATOM     51  C   UNL A   1      47.592  29.800  30.546  1.00  0.00     0.029 A 
ATOM     52  N   UNL A   1      45.487  29.251  30.083  1.00  0.00    -0.354 N 
ATOM     53  N   UNL A   1      42.617  29.750  29.804  1.00  0.00    -0.248 NA
ATOM     54  C   UNL A   1      40.752  31.115  30.137  1.00  0.00     0.031 C 
ATOM     55  C   UNL A   1      46.767  30.868  30.910  1.00  0.00     0.029 A 
ATOM     56  C   UNL A   1      45.460  30.542  30.586  1.00  0.00     0.049 A 
ATOM     57  H   UNL A   1      44.700  28.747  29.776  1.00  0.00     0.167 HD
ATOM     58  C   UNL A   1      43.027  30.953  30.368  1.00  0.00     0.074 A 
ATOM     59  C   UNL A   1      41.841  31.770  30.512  1.00  0.00     0.031 C 
ATOM     60  C   UNL A   1      44.273  31.345  30.730  1.00  0.00     0.031 A 
BRANCH  47  61
ATOM     61  C   UNL A   1      48.626  27.059  29.790  1.00  0.00    -0.014 A 
ATOM     62  C   UNL A   1      49.125  26.459  30.958  1.00  0.00     0.009 A 
ATOM     63  C   UNL A   1      49.496  27.258  28.708  1.00  0.00     0.009 A 
ATOM     64  C   UNL A   1      50.474  26.105  31.051  1.00  0.00     0.001 A 
ATOM     65  C   UNL A   1      50.835  26.870  28.789  1.00  0.00     0.001 A 
ATOM     66  C   UNL A   1      51.325  26.305  29.965  1.00  0.00     0.000 A 
ENDBRANCH  47  61
BRANCH  48  67
ATOM     67  C   UNL A   1      38.902  29.179  28.962  1.00  0.00    -0.014 A 
ATOM     68  C   UNL A   1      38.352  29.699  27.780  1.00  0.00     0.009 A 
ATOM     69  C   UNL A   1      38.062  28.986  30.071  1.00  0.00     0.009 A 
ATOM     70  C   UNL A   1      37.001  30.048  27.721  1.00  0.00     0.001 A 
ATOM     71  C   UNL A   1      36.704  29.300  29.997  1.00  0.00     0.001 A 
ATOM     72  C   UNL A   1      36.176  29.842  28.827  1.00  0.00     0.000 A 
ENDBRANCH  48  67
BRANCH  60  73
ATOM     73  C   UNL A   1      44.428  32.740  31.277  1.00  0.00    -0.014 A 
ATOM     74  C   UNL A   1      44.412  32.996  32.657  1.00  0.00     0.009 A 
ATOM     75  C   UNL A   1      44.632  33.811  30.393  1.00  0.00     0.009 A 
ATOM     76  C   UNL A   1      44.555  34.301  33.137  1.00  0.00     0.001 A 
ATOM     77  C   UNL A   1      44.814  35.108  30.876  1.00  0.00     0.001 A 
ATOM     78  C   UNL A   1      44.763  35.353  32.246  1.00  0.00     0.000 A 
ENDBRANCH  60  73
ENDBRANCH  34  35
ENDBRANCH  27  29
ENDBRANCH  26  27
ENDBRANCH  25  26
ENDBRANCH  24  25
ENDBRANCH  23  24
ENDBRANCH   1  23
TORSDOF 17
ENDMDL
