MODEL 1
REMARK VINA RESULT:     -10.3      0.000      0.000
REMARK SMILES CC[C@H](C)[C@@H](NC(=O)c1csc(NC(C)=O)n1)C(=O)OCCOCCOC(=O)c1ccc(-c2c3nc(c(-c4ccccc4)c4ccc([nH]4)c(-c4ccccc4)c4nc(c(-c5ccccc5)c5ccc2[nH]5)C=C4)C=C3)cc1
REMARK SMILES IDX 22 1 21 2 20 3 18 4 19 5 5 6 3 7 4 8 2 9 1 10 6 11 7 12 8 14
REMARK SMILES IDX 9 15 10 16 17 17 11 18 12 19 13 20 14 21 15 23 16 24 23 25
REMARK SMILES IDX 24 26 25 27 26 28 27 29 28 30 29 31 30 32 76 33 31 34 75 35
REMARK SMILES IDX 32 36 33 37 34 38 69 39 35 40 74 41 68 42 70 43 36 44 73 45
REMARK SMILES IDX 67 46 66 47 37 49 59 50 44 51 58 52 45 53 48 54 57 55 71 56
REMARK SMILES IDX 46 57 47 58 56 60 72 61 49 62 38 63 39 64 43 65 40 66 42 67
REMARK SMILES IDX 41 68 60 69 61 70 65 71 62 72 64 73 63 74 50 75 51 76 55 77
REMARK SMILES IDX 52 78 54 79 53 80
REMARK H PARENT 6 13 13 22 70 48 48 59
REMARK Flexibility Score: inf
ROOT
ATOM      1  C   UNL A   1      33.978  29.169  27.146  1.00  0.00     0.202 C 
ENDROOT
BRANCH   1   2
ATOM      2  C   UNL A   1      32.715  28.549  26.516  1.00  0.00     0.261 C 
BRANCH   2   3
ATOM      3  O   UNL A   1      31.952  29.220  25.510  1.00  0.00    -0.462 OA
BRANCH   3   4
ATOM      4  C   UNL A   1      32.240  28.910  24.215  1.00  0.00     0.329 C 
ATOM      5  O   UNL A   1      33.264  29.245  23.629  1.00  0.00    -0.250 OA
BRANCH   4   6
ATOM      6  C   UNL A   1      31.117  28.081  23.553  1.00  0.00     0.195 C 
BRANCH   6   7
ATOM      7  C   UNL A   1      29.840  28.975  23.309  1.00  0.00     0.019 C 
ATOM      8  C   UNL A   1      29.977  29.883  22.072  1.00  0.00     0.010 C 
BRANCH   7   9
ATOM      9  C   UNL A   1      28.516  28.190  23.153  1.00  0.00     0.002 C 
ATOM     10  C   UNL A   1      27.316  29.130  23.070  1.00  0.00     0.004 C 
ENDBRANCH   7   9
ENDBRANCH   6   7
BRANCH   6  11
ATOM     11  N   UNL A   1      31.471  27.430  22.261  1.00  0.00    -0.337 N 
ATOM     12  C   UNL A   1      31.609  26.151  21.789  1.00  0.00     0.271 C 
ATOM     13  H   UNL A   1      31.653  28.096  21.560  1.00  0.00     0.164 HD
ATOM     14  O   UNL A   1      31.680  26.026  20.565  1.00  0.00    -0.267 OA
BRANCH  12  15
ATOM     15  C   UNL A   1      31.832  25.012  22.672  1.00  0.00     0.141 A 
ATOM     16  C   UNL A   1      33.095  24.486  22.900  1.00  0.00     0.102 A 
ATOM     17  N   UNL A   1      30.826  24.346  23.345  1.00  0.00    -0.215 NA
ATOM     18  S   UNL A   1      33.017  23.248  24.081  1.00  0.00    -0.104 S 
ATOM     19  C   UNL A   1      31.342  23.510  24.218  1.00  0.00     0.190 A 
BRANCH  19  20
ATOM     20  N   UNL A   1      30.569  23.000  25.231  1.00  0.00    -0.302 N 
ATOM     21  C   UNL A   1      30.502  23.460  26.526  1.00  0.00     0.223 C 
ATOM     22  H   UNL A   1      30.005  22.225  25.009  1.00  0.00     0.172 HD
ATOM     23  C   UNL A   1      29.414  22.793  27.335  1.00  0.00     0.114 C 
ATOM     24  O   UNL A   1      31.166  24.363  27.025  1.00  0.00    -0.275 OA
ENDBRANCH  19  20
ENDBRANCH  12  15
ENDBRANCH   6  11
ENDBRANCH   4   6
ENDBRANCH   3   4
ENDBRANCH   2   3
ENDBRANCH   1   2
BRANCH   1  25
ATOM     25  O   UNL A   1      34.255  30.552  27.060  1.00  0.00    -0.374 OA
BRANCH  25  26
ATOM     26  C   UNL A   1      33.308  31.455  27.623  1.00  0.00     0.202 C 
BRANCH  26  27
ATOM     27  C   UNL A   1      33.607  32.954  27.542  1.00  0.00     0.261 C 
BRANCH  27  28
ATOM     28  O   UNL A   1      32.564  33.733  28.160  1.00  0.00    -0.460 OA
BRANCH  28  29
ATOM     29  C   UNL A   1      32.992  34.900  28.701  1.00  0.00     0.338 C 
ATOM     30  O   UNL A   1      32.426  35.978  28.671  1.00  0.00    -0.246 OA
BRANCH  29  31
ATOM     31  C   UNL A   1      34.178  34.667  29.542  1.00  0.00     0.060 A 
ATOM     32  C   UNL A   1      35.431  34.699  28.912  1.00  0.00     0.016 A 
ATOM     33  C   UNL A   1      34.061  34.289  30.880  1.00  0.00     0.016 A 
ATOM     34  C   UNL A   1      36.565  34.272  29.596  1.00  0.00     0.010 A 
ATOM     35  C   UNL A   1      35.200  33.840  31.558  1.00  0.00     0.010 A 
ATOM     36  C   UNL A   1      36.441  33.775  30.898  1.00  0.00    -0.014 A 
BRANCH  36  37
ATOM     37  C   UNL A   1      37.547  32.961  31.456  1.00  0.00     0.031 A 
ATOM     38  C   UNL A   1      38.099  33.339  32.805  1.00  0.00     0.074 A 
ATOM     39  C   UNL A   1      38.010  31.873  30.817  1.00  0.00     0.049 A 
ATOM     40  N   UNL A   1      39.061  32.782  33.496  1.00  0.00    -0.248 NA
ATOM     41  C   UNL A   1      37.476  34.499  33.467  1.00  0.00     0.031 C 
ATOM     42  C   UNL A   1      37.515  31.363  29.541  1.00  0.00     0.029 A 
ATOM     43  N   UNL A   1      39.007  30.999  31.170  1.00  0.00    -0.354 N 
ATOM     44  C   UNL A   1      39.161  33.526  34.666  1.00  0.00     0.074 A 
ATOM     45  C   UNL A   1      38.183  34.588  34.582  1.00  0.00     0.031 C 
ATOM     46  C   UNL A   1      38.218  30.264  29.212  1.00  0.00     0.029 A 
ATOM     47  C   UNL A   1      39.228  30.014  30.239  1.00  0.00     0.049 A 
ATOM     48  H   UNL A   1      39.516  31.071  32.009  1.00  0.00     0.167 HD
ATOM     49  C   UNL A   1      39.989  33.341  35.721  1.00  0.00     0.031 A 
ATOM     50  C   UNL A   1      40.151  29.034  30.215  1.00  0.00     0.031 A 
ATOM     51  C   UNL A   1      40.970  32.295  35.804  1.00  0.00     0.049 A 
ATOM     52  C   UNL A   1      41.121  28.901  31.360  1.00  0.00     0.074 A 
ATOM     53  C   UNL A   1      41.857  32.022  36.831  1.00  0.00     0.029 A 
ATOM     54  N   UNL A   1      41.198  31.351  34.815  1.00  0.00    -0.354 N 
ATOM     55  N   UNL A   1      41.200  29.604  32.463  1.00  0.00    -0.248 NA
ATOM     56  C   UNL A   1      42.125  27.831  31.255  1.00  0.00     0.031 C 
ATOM     57  C   UNL A   1      42.655  30.942  36.441  1.00  0.00     0.029 A 
ATOM     58  C   UNL A   1      42.230  30.510  35.195  1.00  0.00     0.049 A 
ATOM     59  H   UNL A   1      40.700  31.288  33.968  1.00  0.00     0.167 HD
ATOM     60  C   UNL A   1      42.242  29.046  33.195  1.00  0.00     0.074 A 
ATOM     61  C   UNL A   1      42.757  27.940  32.416  1.00  0.00     0.031 C 
ATOM     62  C   UNL A   1      42.728  29.415  34.406  1.00  0.00     0.031 A 
BRANCH  49  63
ATOM     63  C   UNL A   1      39.890  34.321  36.855  1.00  0.00    -0.014 A 
ATOM     64  C   UNL A   1      40.582  35.541  36.826  1.00  0.00     0.009 A 
ATOM     65  C   UNL A   1      39.071  34.028  37.956  1.00  0.00     0.009 A 
ATOM     66  C   UNL A   1      40.481  36.435  37.896  1.00  0.00     0.001 A 
ATOM     67  C   UNL A   1      38.953  34.933  39.012  1.00  0.00     0.001 A 
ATOM     68  C   UNL A   1      39.664  36.132  38.985  1.00  0.00     0.000 A 
ENDBRANCH  49  63
BRANCH  50  69
ATOM     69  C   UNL A   1      40.227  28.112  29.052  1.00  0.00    -0.014 A 
ATOM     70  C   UNL A   1      40.931  28.473  27.894  1.00  0.00     0.009 A 
ATOM     71  C   UNL A   1      39.573  26.871  29.090  1.00  0.00     0.009 A 
ATOM     72  C   UNL A   1      40.958  27.619  26.787  1.00  0.00     0.001 A 
ATOM     73  C   UNL A   1      39.625  26.008  27.993  1.00  0.00     0.001 A 
ATOM     74  C   UNL A   1      40.309  26.387  26.840  1.00  0.00     0.000 A 
ENDBRANCH  50  69
BRANCH  62  75
ATOM     75  C   UNL A   1      43.851  28.597  34.976  1.00  0.00    -0.014 A 
ATOM     76  C   UNL A   1      43.599  27.464  35.766  1.00  0.00     0.009 A 
ATOM     77  C   UNL A   1      45.180  28.938  34.678  1.00  0.00     0.009 A 
ATOM     78  C   UNL A   1      44.659  26.708  36.272  1.00  0.00     0.001 A 
ATOM     79  C   UNL A   1      46.236  28.164  35.162  1.00  0.00     0.001 A 
ATOM     80  C   UNL A   1      45.974  27.056  35.966  1.00  0.00     0.000 A 
ENDBRANCH  62  75
ENDBRANCH  36  37
ENDBRANCH  29  31
ENDBRANCH  28  29
ENDBRANCH  27  28
ENDBRANCH  26  27
ENDBRANCH  25  26
ENDBRANCH   1  25
TORSDOF 19
ENDMDL
MODEL 2
REMARK VINA RESULT:     -10.0      3.577      5.787
REMARK SMILES CC[C@H](C)[C@@H](NC(=O)c1csc(NC(C)=O)n1)C(=O)OCCOCCOC(=O)c1ccc(-c2c3nc(c(-c4ccccc4)c4ccc([nH]4)c(-c4ccccc4)c4nc(c(-c5ccccc5)c5ccc2[nH]5)C=C4)C=C3)cc1
REMARK SMILES IDX 22 1 21 2 20 3 18 4 19 5 5 6 3 7 4 8 2 9 1 10 6 11 7 12 8 14
REMARK SMILES IDX 9 15 10 16 17 17 11 18 12 19 13 20 14 21 15 23 16 24 23 25
REMARK SMILES IDX 24 26 25 27 26 28 27 29 28 30 29 31 30 32 76 33 31 34 75 35
REMARK SMILES IDX 32 36 33 37 34 38 69 39 35 40 74 41 68 42 70 43 36 44 73 45
REMARK SMILES IDX 67 46 66 47 37 49 59 50 44 51 58 52 45 53 48 54 57 55 71 56
REMARK SMILES IDX 46 57 47 58 56 60 72 61 49 62 38 63 39 64 43 65 40 66 42 67
REMARK SMILES IDX 41 68 60 69 61 70 65 71 62 72 64 73 63 74 50 75 51 76 55 77
REMARK SMILES IDX 52 78 54 79 53 80
REMARK H PARENT 6 13 13 22 70 48 48 59
REMARK Flexibility Score: inf
ROOT
ATOM      1  C   UNL A   1      34.079  28.446  26.349  1.00  0.00     0.202 C 
ENDROOT
BRANCH   1   2
ATOM      2  C   UNL A   1      33.358  27.097  26.163  1.00  0.00     0.261 C 
BRANCH   2   3
ATOM      3  O   UNL A   1      34.033  25.926  25.695  1.00  0.00    -0.462 OA
BRANCH   3   4
ATOM      4  C   UNL A   1      33.295  25.046  24.963  1.00  0.00     0.329 C 
ATOM      5  O   UNL A   1      32.091  24.857  25.108  1.00  0.00    -0.250 OA
BRANCH   4   6
ATOM      6  C   UNL A   1      34.151  24.298  23.917  1.00  0.00     0.195 C 
BRANCH   6   7
ATOM      7  C   UNL A   1      34.288  22.774  24.303  1.00  0.00     0.019 C 
ATOM      8  C   UNL A   1      34.365  22.551  25.825  1.00  0.00     0.010 C 
BRANCH   7   9
ATOM      9  C   UNL A   1      33.159  21.863  23.766  1.00  0.00     0.002 C 
ATOM     10  C   UNL A   1      32.314  21.292  24.903  1.00  0.00     0.004 C 
ENDBRANCH   7   9
ENDBRANCH   6   7
BRANCH   6  11
ATOM     11  N   UNL A   1      33.662  24.369  22.512  1.00  0.00    -0.337 N 
ATOM     12  C   UNL A   1      33.169  25.333  21.671  1.00  0.00     0.271 C 
ATOM     13  H   UNL A   1      33.705  23.490  22.070  1.00  0.00     0.164 HD
ATOM     14  O   UNL A   1      33.103  25.032  20.477  1.00  0.00    -0.267 OA
BRANCH  12  15
ATOM     15  C   UNL A   1      32.596  26.579  22.161  1.00  0.00     0.141 A 
ATOM     16  C   UNL A   1      33.376  27.686  22.464  1.00  0.00     0.102 A 
ATOM     17  N   UNL A   1      31.246  26.777  22.383  1.00  0.00    -0.215 NA
ATOM     18  S   UNL A   1      32.379  29.015  22.885  1.00  0.00    -0.104 S 
ATOM     19  C   UNL A   1      31.007  28.047  22.618  1.00  0.00     0.190 A 
BRANCH  19  20
ATOM     20  N   UNL A   1      29.730  28.541  22.524  1.00  0.00    -0.302 N 
ATOM     21  C   UNL A   1      28.602  28.026  23.122  1.00  0.00     0.223 C 
ATOM     22  H   UNL A   1      29.607  29.346  21.972  1.00  0.00     0.172 HD
ATOM     23  C   UNL A   1      27.392  28.917  22.967  1.00  0.00     0.114 C 
ATOM     24  O   UNL A   1      28.522  27.000  23.790  1.00  0.00    -0.275 OA
ENDBRANCH  19  20
ENDBRANCH  12  15
ENDBRANCH   6  11
ENDBRANCH   4   6
ENDBRANCH   3   4
ENDBRANCH   2   3
ENDBRANCH   1   2
BRANCH   1  25
ATOM     25  O   UNL A   1      33.423  29.680  26.142  1.00  0.00    -0.374 OA
BRANCH  25  26
ATOM     26  C   UNL A   1      32.851  30.327  27.275  1.00  0.00     0.202 C 
BRANCH  26  27
ATOM     27  C   UNL A   1      33.213  31.792  27.527  1.00  0.00     0.261 C 
BRANCH  27  28
ATOM     28  O   UNL A   1      34.635  31.966  27.672  1.00  0.00    -0.460 OA
BRANCH  28  29
ATOM     29  C   UNL A   1      35.106  31.672  28.909  1.00  0.00     0.338 C 
ATOM     30  O   UNL A   1      34.635  32.015  29.979  1.00  0.00    -0.246 OA
BRANCH  29  31
ATOM     31  C   UNL A   1      36.188  30.677  28.819  1.00  0.00     0.060 A 
ATOM     32  C   UNL A   1      36.520  29.979  29.990  1.00  0.00     0.016 A 
ATOM     33  C   UNL A   1      36.950  30.530  27.660  1.00  0.00     0.016 A 
ATOM     34  C   UNL A   1      37.668  29.193  30.030  1.00  0.00     0.010 A 
ATOM     35  C   UNL A   1      38.115  29.757  27.709  1.00  0.00     0.010 A 
ATOM     36  C   UNL A   1      38.506  29.137  28.911  1.00  0.00    -0.014 A 
BRANCH  36  37
ATOM     37  C   UNL A   1      39.896  28.651  29.087  1.00  0.00     0.031 A 
ATOM     38  C   UNL A   1      40.891  29.568  29.749  1.00  0.00     0.074 A 
ATOM     39  C   UNL A   1      40.255  27.406  28.733  1.00  0.00     0.049 A 
ATOM     40  N   UNL A   1      42.158  29.369  30.011  1.00  0.00    -0.248 NA
ATOM     41  C   UNL A   1      40.387  30.885  30.176  1.00  0.00     0.031 C 
ATOM     42  C   UNL A   1      39.371  26.401  28.148  1.00  0.00     0.029 A 
ATOM     43  N   UNL A   1      41.472  26.779  28.822  1.00  0.00    -0.354 N 
ATOM     44  C   UNL A   1      42.600  30.534  30.627  1.00  0.00     0.074 A 
ATOM     45  C   UNL A   1      41.478  31.445  30.675  1.00  0.00     0.031 C 
ATOM     46  C   UNL A   1      40.080  25.280  27.923  1.00  0.00     0.029 A 
ATOM     47  C   UNL A   1      41.469  25.501  28.321  1.00  0.00     0.049 A 
ATOM     48  H   UNL A   1      42.272  27.204  29.208  1.00  0.00     0.167 HD
ATOM     49  C   UNL A   1      43.830  30.822  31.115  1.00  0.00     0.031 A 
ATOM     50  C   UNL A   1      42.477  24.619  28.186  1.00  0.00     0.031 A 
ATOM     51  C   UNL A   1      44.951  29.926  31.059  1.00  0.00     0.049 A 
ATOM     52  C   UNL A   1      43.859  24.994  28.656  1.00  0.00     0.074 A 
ATOM     53  C   UNL A   1      46.238  30.124  31.526  1.00  0.00     0.029 A 
ATOM     54  N   UNL A   1      44.919  28.661  30.494  1.00  0.00    -0.354 N 
ATOM     55  N   UNL A   1      44.262  26.094  29.244  1.00  0.00    -0.248 NA
ATOM     56  C   UNL A   1      44.921  23.999  28.447  1.00  0.00     0.031 C 
ATOM     57  C   UNL A   1      46.998  28.996  31.199  1.00  0.00     0.029 A 
ATOM     58  C   UNL A   1      46.170  28.076  30.576  1.00  0.00     0.049 A 
ATOM     59  H   UNL A   1      44.123  28.241  30.093  1.00  0.00     0.167 HD
ATOM     60  C   UNL A   1      45.617  25.913  29.499  1.00  0.00     0.074 A 
ATOM     61  C   UNL A   1      45.962  24.594  29.014  1.00  0.00     0.031 C 
ATOM     62  C   UNL A   1      46.495  26.763  30.086  1.00  0.00     0.031 A 
BRANCH  49  63
ATOM     63  C   UNL A   1      44.030  32.183  31.718  1.00  0.00    -0.014 A 
ATOM     64  C   UNL A   1      44.469  33.267  30.942  1.00  0.00     0.009 A 
ATOM     65  C   UNL A   1      43.752  32.387  33.078  1.00  0.00     0.009 A 
ATOM     66  C   UNL A   1      44.656  34.523  31.526  1.00  0.00     0.001 A 
ATOM     67  C   UNL A   1      43.916  33.648  33.653  1.00  0.00     0.001 A 
ATOM     68  C   UNL A   1      44.376  34.713  32.879  1.00  0.00     0.000 A 
ENDBRANCH  49  63
BRANCH  50  69
ATOM     69  C   UNL A   1      42.231  23.298  27.551  1.00  0.00    -0.014 A 
ATOM     70  C   UNL A   1      41.655  22.247  28.280  1.00  0.00     0.009 A 
ATOM     71  C   UNL A   1      42.594  23.077  26.213  1.00  0.00     0.009 A 
ATOM     72  C   UNL A   1      41.470  20.994  27.689  1.00  0.00     0.001 A 
ATOM     73  C   UNL A   1      42.383  21.832  25.617  1.00  0.00     0.001 A 
ATOM     74  C   UNL A   1      41.830  20.790  26.357  1.00  0.00     0.000 A 
ENDBRANCH  50  69
BRANCH  62  75
ATOM     75  C   UNL A   1      47.906  26.279  30.266  1.00  0.00    -0.014 A 
ATOM     76  C   UNL A   1      48.336  25.723  31.480  1.00  0.00     0.009 A 
ATOM     77  C   UNL A   1      48.803  26.338  29.187  1.00  0.00     0.009 A 
ATOM     78  C   UNL A   1      49.648  25.264  31.619  1.00  0.00     0.001 A 
ATOM     79  C   UNL A   1      50.104  25.853  29.320  1.00  0.00     0.001 A 
ATOM     80  C   UNL A   1      50.528  25.325  30.539  1.00  0.00     0.000 A 
ENDBRANCH  62  75
ENDBRANCH  36  37
ENDBRANCH  29  31
ENDBRANCH  28  29
ENDBRANCH  27  28
ENDBRANCH  26  27
ENDBRANCH  25  26
ENDBRANCH   1  25
TORSDOF 19
ENDMDL
MODEL 3
REMARK VINA RESULT:     -10.0      4.754      9.849
REMARK SMILES CC[C@H](C)[C@@H](NC(=O)c1csc(NC(C)=O)n1)C(=O)OCCOCCOC(=O)c1ccc(-c2c3nc(c(-c4ccccc4)c4ccc([nH]4)c(-c4ccccc4)c4nc(c(-c5ccccc5)c5ccc2[nH]5)C=C4)C=C3)cc1
REMARK SMILES IDX 22 1 21 2 20 3 18 4 19 5 5 6 3 7 4 8 2 9 1 10 6 11 7 12 8 14
REMARK SMILES IDX 9 15 10 16 17 17 11 18 12 19 13 20 14 21 15 23 16 24 23 25
REMARK SMILES IDX 24 26 25 27 26 28 27 29 28 30 29 31 30 32 76 33 31 34 75 35
REMARK SMILES IDX 32 36 33 37 34 38 69 39 35 40 74 41 68 42 70 43 36 44 73 45
REMARK SMILES IDX 67 46 66 47 37 49 59 50 44 51 58 52 45 53 48 54 57 55 71 56
REMARK SMILES IDX 46 57 47 58 56 60 72 61 49 62 38 63 39 64 43 65 40 66 42 67
REMARK SMILES IDX 41 68 60 69 61 70 65 71 62 72 64 73 63 74 50 75 51 76 55 77
REMARK SMILES IDX 52 78 54 79 53 80
REMARK H PARENT 6 13 13 22 70 48 48 59
REMARK Flexibility Score: inf
ROOT
ATOM      1  C   UNL A   1      36.823  22.193  24.166  1.00  0.00     0.202 C 
ENDROOT
BRANCH   1   2
ATOM      2  C   UNL A   1      36.502  23.688  24.359  1.00  0.00     0.261 C 
BRANCH   2   3
ATOM      3  O   UNL A   1      35.184  24.156  24.657  1.00  0.00    -0.462 OA
BRANCH   3   4
ATOM      4  C   UNL A   1      34.214  23.876  23.742  1.00  0.00     0.329 C 
ATOM      5  O   UNL A   1      34.359  23.953  22.526  1.00  0.00    -0.250 OA
BRANCH   4   6
ATOM      6  C   UNL A   1      32.890  23.446  24.412  1.00  0.00     0.195 C 
BRANCH   6   7
ATOM      7  C   UNL A   1      33.050  23.415  25.982  1.00  0.00     0.019 C 
ATOM      8  C   UNL A   1      31.897  24.129  26.712  1.00  0.00     0.010 C 
BRANCH   7   9
ATOM      9  C   UNL A   1      33.171  22.000  26.596  1.00  0.00     0.002 C 
ATOM     10  C   UNL A   1      34.445  21.858  27.425  1.00  0.00     0.004 C 
ENDBRANCH   7   9
ENDBRANCH   6   7
BRANCH   6  11
ATOM     11  N   UNL A   1      31.702  24.285  24.093  1.00  0.00    -0.337 N 
ATOM     12  C   UNL A   1      31.467  25.542  23.600  1.00  0.00     0.271 C 
ATOM     13  H   UNL A   1      30.862  23.809  24.286  1.00  0.00     0.164 HD
ATOM     14  O   UNL A   1      30.311  25.782  23.245  1.00  0.00    -0.267 OA
BRANCH  12  15
ATOM     15  C   UNL A   1      32.471  26.598  23.643  1.00  0.00     0.141 A 
ATOM     16  C   UNL A   1      32.985  27.179  22.493  1.00  0.00     0.102 A 
ATOM     17  N   UNL A   1      33.010  27.107  24.809  1.00  0.00    -0.215 NA
ATOM     18  S   UNL A   1      34.038  28.468  22.901  1.00  0.00    -0.104 S 
ATOM     19  C   UNL A   1      33.722  28.180  24.548  1.00  0.00     0.190 A 
BRANCH  19  20
ATOM     20  N   UNL A   1      34.064  29.048  25.555  1.00  0.00    -0.302 N 
ATOM     21  C   UNL A   1      33.228  29.936  26.193  1.00  0.00     0.223 C 
ATOM     22  H   UNL A   1      35.002  29.034  25.851  1.00  0.00     0.172 HD
ATOM     23  C   UNL A   1      33.877  30.608  27.380  1.00  0.00     0.114 C 
ATOM     24  O   UNL A   1      32.050  30.159  25.936  1.00  0.00    -0.275 OA
ENDBRANCH  19  20
ENDBRANCH  12  15
ENDBRANCH   6  11
ENDBRANCH   4   6
ENDBRANCH   3   4
ENDBRANCH   2   3
ENDBRANCH   1   2
BRANCH   1  25
ATOM     25  O   UNL A   1      37.434  21.422  25.181  1.00  0.00    -0.374 OA
BRANCH  25  26
ATOM     26  C   UNL A   1      37.652  20.038  24.923  1.00  0.00     0.202 C 
BRANCH  26  27
ATOM     27  C   UNL A   1      39.016  19.445  25.284  1.00  0.00     0.261 C 
BRANCH  27  28
ATOM     28  O   UNL A   1      39.527  20.005  26.508  1.00  0.00    -0.460 OA
BRANCH  28  29
ATOM     29  C   UNL A   1      40.757  20.564  26.390  1.00  0.00     0.338 C 
ATOM     30  O   UNL A   1      41.682  20.174  25.701  1.00  0.00    -0.246 OA
BRANCH  29  31
ATOM     31  C   UNL A   1      40.789  21.872  27.068  1.00  0.00     0.060 A 
ATOM     32  C   UNL A   1      40.032  22.908  26.502  1.00  0.00     0.016 A 
ATOM     33  C   UNL A   1      41.643  22.116  28.143  1.00  0.00     0.016 A 
ATOM     34  C   UNL A   1      40.189  24.214  26.958  1.00  0.00     0.010 A 
ATOM     35  C   UNL A   1      41.816  23.432  28.585  1.00  0.00     0.010 A 
ATOM     36  C   UNL A   1      41.134  24.489  27.953  1.00  0.00    -0.014 A 
BRANCH  36  37
ATOM     37  C   UNL A   1      41.584  25.890  28.138  1.00  0.00     0.031 A 
ATOM     38  C   UNL A   1      42.886  26.308  27.508  1.00  0.00     0.074 A 
ATOM     39  C   UNL A   1      40.829  26.790  28.789  1.00  0.00     0.049 A 
ATOM     40  N   UNL A   1      43.486  27.471  27.531  1.00  0.00    -0.248 NA
ATOM     41  C   UNL A   1      43.608  25.274  26.745  1.00  0.00     0.031 C 
ATOM     42  C   UNL A   1      39.520  26.529  29.384  1.00  0.00     0.029 A 
ATOM     43  N   UNL A   1      41.065  28.115  29.054  1.00  0.00    -0.354 N 
ATOM     44  C   UNL A   1      44.652  27.307  26.794  1.00  0.00     0.074 A 
ATOM     45  C   UNL A   1      44.692  25.929  26.359  1.00  0.00     0.031 C 
ATOM     46  C   UNL A   1      39.069  27.661  29.953  1.00  0.00     0.029 A 
ATOM     47  C   UNL A   1      40.070  28.714  29.786  1.00  0.00     0.049 A 
ATOM     48  H   UNL A   1      41.870  28.591  28.750  1.00  0.00     0.167 HD
ATOM     49  C   UNL A   1      45.605  28.222  26.498  1.00  0.00     0.031 A 
ATOM     50  C   UNL A   1      39.987  29.965  30.278  1.00  0.00     0.031 A 
ATOM     51  C   UNL A   1      45.576  29.590  26.937  1.00  0.00     0.049 A 
ATOM     52  C   UNL A   1      41.102  30.942  30.011  1.00  0.00     0.074 A 
ATOM     53  C   UNL A   1      46.493  30.595  26.689  1.00  0.00     0.029 A 
ATOM     54  N   UNL A   1      44.577  30.141  27.722  1.00  0.00    -0.354 N 
ATOM     55  N   UNL A   1      42.195  30.778  29.305  1.00  0.00    -0.248 NA
ATOM     56  C   UNL A   1      40.966  32.281  30.605  1.00  0.00     0.031 C 
ATOM     57  C   UNL A   1      46.073  31.744  27.368  1.00  0.00     0.029 A 
ATOM     58  C   UNL A   1      44.868  31.467  27.992  1.00  0.00     0.049 A 
ATOM     59  H   UNL A   1      43.778  29.661  28.042  1.00  0.00     0.167 HD
ATOM     60  C   UNL A   1      42.861  31.997  29.348  1.00  0.00     0.074 A 
ATOM     61  C   UNL A   1      42.045  32.894  30.138  1.00  0.00     0.031 C 
ATOM     62  C   UNL A   1      44.043  32.344  28.781  1.00  0.00     0.031 A 
BRANCH  49  63
ATOM     63  C   UNL A   1      46.781  27.754  25.688  1.00  0.00    -0.014 A 
ATOM     64  C   UNL A   1      46.795  27.868  24.290  1.00  0.00     0.009 A 
ATOM     65  C   UNL A   1      47.900  27.213  26.339  1.00  0.00     0.009 A 
ATOM     66  C   UNL A   1      47.896  27.418  23.557  1.00  0.00     0.001 A 
ATOM     67  C   UNL A   1      49.009  26.787  25.606  1.00  0.00     0.001 A 
ATOM     68  C   UNL A   1      49.003  26.883  24.215  1.00  0.00     0.000 A 
ENDBRANCH  49  63
BRANCH  50  69
ATOM     69  C   UNL A   1      38.816  30.365  31.102  1.00  0.00    -0.014 A 
ATOM     70  C   UNL A   1      38.857  30.271  32.501  1.00  0.00     0.009 A 
ATOM     71  C   UNL A   1      37.642  30.823  30.485  1.00  0.00     0.009 A 
ATOM     72  C   UNL A   1      37.735  30.605  33.265  1.00  0.00     0.001 A 
ATOM     73  C   UNL A   1      36.532  31.183  31.253  1.00  0.00     0.001 A 
ATOM     74  C   UNL A   1      36.576  31.064  32.640  1.00  0.00     0.000 A 
ENDBRANCH  50  69
BRANCH  62  75
ATOM     75  C   UNL A   1      44.507  33.760  28.967  1.00  0.00    -0.014 A 
ATOM     76  C   UNL A   1      44.118  34.777  28.081  1.00  0.00     0.009 A 
ATOM     77  C   UNL A   1      45.306  34.090  30.073  1.00  0.00     0.009 A 
ATOM     78  C   UNL A   1      44.547  36.090  28.284  1.00  0.00     0.001 A 
ATOM     79  C   UNL A   1      45.711  35.408  30.288  1.00  0.00     0.001 A 
ATOM     80  C   UNL A   1      45.338  36.405  29.388  1.00  0.00     0.000 A 
ENDBRANCH  62  75
ENDBRANCH  36  37
ENDBRANCH  29  31
ENDBRANCH  28  29
ENDBRANCH  27  28
ENDBRANCH  26  27
ENDBRANCH  25  26
ENDBRANCH   1  25
TORSDOF 19
ENDMDL
