MODEL 1
REMARK VINA RESULT:      -9.7      0.000      0.000
REMARK SMILES CC[C@H](C)CN(CC)c1nc(C(=O)OCCOCCOC(=O)c2ccc(-c3c4nc(c(-c5ccccc5)c5ccc([nH]5)c(-c5ccccc5)c5nc(c(-c6ccccc6)c6ccc3[nH]6)C=C5)C=C4)cc2)cc2ccccc12
REMARK SMILES IDX 16 1 15 2 14 3 12 4 13 5 11 6 9 7 10 8 77 9 72 10 76 11
REMARK SMILES IDX 71 12 73 13 75 14 74 15 6 16 5 17 3 18 4 19 2 20 1 21 7 22
REMARK SMILES IDX 8 23 17 24 18 25 19 26 20 27 21 28 22 29 23 30 24 31 70 32
REMARK SMILES IDX 25 33 69 34 26 35 27 36 28 37 63 38 29 39 68 40 62 41 64 42
REMARK SMILES IDX 30 43 67 44 61 45 60 46 31 48 53 49 38 50 52 51 39 52 42 53
REMARK SMILES IDX 51 54 65 55 40 56 41 57 50 59 66 60 43 61 32 62 33 63 37 64
REMARK SMILES IDX 34 65 36 66 35 67 54 68 55 69 59 70 56 71 58 72 57 73 44 74
REMARK SMILES IDX 45 75 49 76 46 77 48 78 47 79
REMARK H PARENT 64 47 42 58
REMARK Flexibility Score: inf
ROOT
ATOM      1  C   UNL A   1      33.676  27.575  25.704  1.00  0.00     0.202 C 
ENDROOT
BRANCH   1   2
ATOM      2  C   UNL A   1      32.995  27.163  24.394  1.00  0.00     0.261 C 
BRANCH   2   3
ATOM      3  O   UNL A   1      33.937  26.938  23.334  1.00  0.00    -0.459 OA
BRANCH   3   4
ATOM      4  C   UNL A   1      33.774  25.742  22.715  1.00  0.00     0.357 C 
ATOM      5  O   UNL A   1      33.539  25.571  21.525  1.00  0.00    -0.244 OA
BRANCH   4   6
ATOM      6  C   UNL A   1      34.089  24.598  23.605  1.00  0.00     0.151 A 
ATOM      7  C   UNL A   1      33.747  22.376  24.184  1.00  0.00     0.137 A 
ATOM      8  N   UNL A   1      33.265  23.522  23.642  1.00  0.00    -0.223 NA
ATOM      9  C   UNL A   1      35.128  22.292  24.541  1.00  0.00     0.024 A 
ATOM     10  C   UNL A   1      35.849  23.487  24.724  1.00  0.00    -0.012 A 
ATOM     11  C   UNL A   1      35.883  21.104  24.654  1.00  0.00     0.012 A 
ATOM     12  C   UNL A   1      35.313  24.665  24.246  1.00  0.00     0.045 A 
ATOM     13  C   UNL A   1      37.135  23.482  25.288  1.00  0.00     0.009 A 
ATOM     14  C   UNL A   1      37.178  21.090  25.182  1.00  0.00     0.001 A 
ATOM     15  C   UNL A   1      37.781  22.281  25.554  1.00  0.00     0.001 A 
BRANCH   7  16
ATOM     16  N   UNL A   1      32.862  21.292  24.355  1.00  0.00    -0.356 N 
BRANCH  16  17
ATOM     17  C   UNL A   1      31.921  21.260  25.521  1.00  0.00     0.121 C 
BRANCH  17  18
ATOM     18  C   UNL A   1      31.563  22.631  26.135  1.00  0.00     0.005 C 
ATOM     19  C   UNL A   1      30.119  22.633  26.656  1.00  0.00     0.009 C 
BRANCH  18  20
ATOM     20  C   UNL A   1      32.527  23.127  27.235  1.00  0.00     0.002 C 
ATOM     21  C   UNL A   1      33.395  21.979  27.761  1.00  0.00     0.004 C 
ENDBRANCH  18  20
ENDBRANCH  17  18
ENDBRANCH  16  17
BRANCH  16  22
ATOM     22  C   UNL A   1      32.305  20.746  23.098  1.00  0.00     0.114 C 
ATOM     23  C   UNL A   1      32.311  19.219  23.014  1.00  0.00     0.027 C 
ENDBRANCH  16  22
ENDBRANCH   7  16
ENDBRANCH   4   6
ENDBRANCH   3   4
ENDBRANCH   2   3
ENDBRANCH   1   2
BRANCH   1  24
ATOM     24  O   UNL A   1      32.853  28.129  26.728  1.00  0.00    -0.374 OA
BRANCH  24  25
ATOM     25  C   UNL A   1      32.210  29.375  26.459  1.00  0.00     0.202 C 
BRANCH  25  26
ATOM     26  C   UNL A   1      32.647  30.590  27.285  1.00  0.00     0.261 C 
BRANCH  26  27
ATOM     27  O   UNL A   1      34.042  30.894  27.103  1.00  0.00    -0.460 OA
BRANCH  27  28
ATOM     28  C   UNL A   1      34.699  31.237  28.236  1.00  0.00     0.338 C 
ATOM     29  O   UNL A   1      34.309  31.969  29.128  1.00  0.00    -0.246 OA
BRANCH  28  30
ATOM     30  C   UNL A   1      35.934  30.439  28.353  1.00  0.00     0.060 A 
ATOM     31  C   UNL A   1      36.215  29.859  29.597  1.00  0.00     0.016 A 
ATOM     32  C   UNL A   1      36.832  30.317  27.292  1.00  0.00     0.016 A 
ATOM     33  C   UNL A   1      37.422  29.196  29.801  1.00  0.00     0.010 A 
ATOM     34  C   UNL A   1      38.048  29.660  27.501  1.00  0.00     0.010 A 
ATOM     35  C   UNL A   1      38.362  29.128  28.765  1.00  0.00    -0.014 A 
BRANCH  35  36
ATOM     36  C   UNL A   1      39.727  28.625  29.045  1.00  0.00     0.031 A 
ATOM     37  C   UNL A   1      40.713  29.533  29.726  1.00  0.00     0.074 A 
ATOM     38  C   UNL A   1      40.078  27.371  28.714  1.00  0.00     0.049 A 
ATOM     39  N   UNL A   1      41.968  29.317  30.027  1.00  0.00    -0.248 NA
ATOM     40  C   UNL A   1      40.217  30.863  30.121  1.00  0.00     0.031 C 
ATOM     41  C   UNL A   1      39.200  26.381  28.092  1.00  0.00     0.029 A 
ATOM     42  N   UNL A   1      41.278  26.720  28.851  1.00  0.00    -0.354 N 
ATOM     43  C   UNL A   1      42.415  30.484  30.634  1.00  0.00     0.074 A 
ATOM     44  C   UNL A   1      41.306  31.414  30.636  1.00  0.00     0.031 C 
ATOM     45  C   UNL A   1      39.894  25.247  27.895  1.00  0.00     0.029 A 
ATOM     46  C   UNL A   1      41.271  25.445  28.342  1.00  0.00     0.049 A 
ATOM     47  H   UNL A   1      42.067  27.128  29.275  1.00  0.00     0.167 HD
ATOM     48  C   UNL A   1      43.638  30.756  31.148  1.00  0.00     0.031 A 
ATOM     49  C   UNL A   1      42.269  24.549  28.227  1.00  0.00     0.031 A 
ATOM     50  C   UNL A   1      44.744  29.836  31.133  1.00  0.00     0.049 A 
ATOM     51  C   UNL A   1      43.642  24.906  28.733  1.00  0.00     0.074 A 
ATOM     52  C   UNL A   1      46.019  30.013  31.641  1.00  0.00     0.029 A 
ATOM     53  N   UNL A   1      44.708  28.569  30.573  1.00  0.00    -0.354 N 
ATOM     54  N   UNL A   1      44.048  26.003  29.325  1.00  0.00    -0.248 NA
ATOM     55  C   UNL A   1      44.694  23.893  28.557  1.00  0.00     0.031 C 
ATOM     56  C   UNL A   1      46.772  28.874  31.338  1.00  0.00     0.029 A 
ATOM     57  C   UNL A   1      45.947  27.963  30.697  1.00  0.00     0.049 A 
ATOM     58  H   UNL A   1      43.919  28.160  30.150  1.00  0.00     0.167 HD
ATOM     59  C   UNL A   1      45.391  25.802  29.620  1.00  0.00     0.074 A 
ATOM     60  C   UNL A   1      45.727  24.473  29.152  1.00  0.00     0.031 C 
ATOM     61  C   UNL A   1      46.266  26.641  30.226  1.00  0.00     0.031 A 
BRANCH  48  62
ATOM     62  C   UNL A   1      43.854  32.123  31.736  1.00  0.00    -0.014 A 
ATOM     63  C   UNL A   1      43.649  32.371  33.103  1.00  0.00     0.009 A 
ATOM     64  C   UNL A   1      44.298  33.170  30.915  1.00  0.00     0.009 A 
ATOM     65  C   UNL A   1      43.854  33.649  33.627  1.00  0.00     0.001 A 
ATOM     66  C   UNL A   1      44.530  34.439  31.447  1.00  0.00     0.001 A 
ATOM     67  C   UNL A   1      44.299  34.680  32.800  1.00  0.00     0.000 A 
ENDBRANCH  48  62
BRANCH  49  68
ATOM     68  C   UNL A   1      42.018  23.232  27.587  1.00  0.00    -0.014 A 
ATOM     69  C   UNL A   1      42.359  23.010  26.245  1.00  0.00     0.009 A 
ATOM     70  C   UNL A   1      41.419  22.191  28.316  1.00  0.00     0.009 A 
ATOM     71  C   UNL A   1      42.083  21.783  25.638  1.00  0.00     0.001 A 
ATOM     72  C   UNL A   1      41.171  20.956  27.715  1.00  0.00     0.001 A 
ATOM     73  C   UNL A   1      41.495  20.755  26.374  1.00  0.00     0.000 A 
ENDBRANCH  49  68
BRANCH  61  74
ATOM     74  C   UNL A   1      47.662  26.131  30.456  1.00  0.00    -0.014 A 
ATOM     75  C   UNL A   1      48.610  26.101  29.422  1.00  0.00     0.009 A 
ATOM     76  C   UNL A   1      48.044  25.716  31.742  1.00  0.00     0.009 A 
ATOM     77  C   UNL A   1      49.904  25.633  29.664  1.00  0.00     0.001 A 
ATOM     78  C   UNL A   1      49.346  25.277  31.987  1.00  0.00     0.001 A 
ATOM     79  C   UNL A   1      50.271  25.227  30.946  1.00  0.00     0.000 A 
ENDBRANCH  61  74
ENDBRANCH  35  36
ENDBRANCH  28  30
ENDBRANCH  27  28
ENDBRANCH  26  27
ENDBRANCH  25  26
ENDBRANCH  24  25
ENDBRANCH   1  24
TORSDOF 19
ENDMDL
MODEL 2
REMARK VINA RESULT:      -9.5      2.764      6.967
REMARK SMILES CC[C@H](C)CN(CC)c1nc(C(=O)OCCOCCOC(=O)c2ccc(-c3c4nc(c(-c5ccccc5)c5ccc([nH]5)c(-c5ccccc5)c5nc(c(-c6ccccc6)c6ccc3[nH]6)C=C5)C=C4)cc2)cc2ccccc12
REMARK SMILES IDX 16 1 15 2 14 3 12 4 13 5 11 6 9 7 10 8 77 9 72 10 76 11
REMARK SMILES IDX 71 12 73 13 75 14 74 15 6 16 5 17 3 18 4 19 2 20 1 21 7 22
REMARK SMILES IDX 8 23 17 24 18 25 19 26 20 27 21 28 22 29 23 30 24 31 70 32
REMARK SMILES IDX 25 33 69 34 26 35 27 36 28 37 63 38 29 39 68 40 62 41 64 42
REMARK SMILES IDX 30 43 67 44 61 45 60 46 31 48 53 49 38 50 52 51 39 52 42 53
REMARK SMILES IDX 51 54 65 55 40 56 41 57 50 59 66 60 43 61 32 62 33 63 37 64
REMARK SMILES IDX 34 65 36 66 35 67 54 68 55 69 59 70 56 71 58 72 57 73 44 74
REMARK SMILES IDX 45 75 49 76 46 77 48 78 47 79
REMARK H PARENT 64 47 42 58
REMARK Flexibility Score: inf
ROOT
ATOM      1  C   UNL A   1      32.739  29.260  26.400  1.00  0.00     0.202 C 
ENDROOT
BRANCH   1   2
ATOM      2  C   UNL A   1      32.798  28.005  25.522  1.00  0.00     0.261 C 
BRANCH   2   3
ATOM      3  O   UNL A   1      33.058  26.816  26.284  1.00  0.00    -0.459 OA
BRANCH   3   4
ATOM      4  C   UNL A   1      32.273  25.768  25.929  1.00  0.00     0.357 C 
ATOM      5  O   UNL A   1      31.078  25.818  25.666  1.00  0.00    -0.244 OA
BRANCH   4   6
ATOM      6  C   UNL A   1      33.055  24.527  25.705  1.00  0.00     0.151 A 
ATOM      7  C   UNL A   1      33.401  22.589  24.476  1.00  0.00     0.137 A 
ATOM      8  N   UNL A   1      32.544  23.534  24.936  1.00  0.00    -0.223 NA
ATOM      9  C   UNL A   1      34.806  22.754  24.674  1.00  0.00     0.024 A 
ATOM     10  C   UNL A   1      35.244  23.637  25.679  1.00  0.00    -0.012 A 
ATOM     11  C   UNL A   1      35.827  22.169  23.893  1.00  0.00     0.012 A 
ATOM     12  C   UNL A   1      34.344  24.540  26.206  1.00  0.00     0.045 A 
ATOM     13  C   UNL A   1      36.591  23.677  26.076  1.00  0.00     0.009 A 
ATOM     14  C   UNL A   1      37.175  22.233  24.258  1.00  0.00     0.001 A 
ATOM     15  C   UNL A   1      37.548  22.942  25.389  1.00  0.00     0.001 A 
BRANCH   7  16
ATOM     16  N   UNL A   1      32.867  21.478  23.791  1.00  0.00    -0.356 N 
BRANCH  16  17
ATOM     17  C   UNL A   1      32.196  20.372  24.549  1.00  0.00     0.121 C 
BRANCH  17  18
ATOM     18  C   UNL A   1      32.811  18.967  24.374  1.00  0.00     0.005 C 
ATOM     19  C   UNL A   1      32.391  18.354  23.031  1.00  0.00     0.009 C 
BRANCH  18  20
ATOM     20  C   UNL A   1      34.345  18.899  24.534  1.00  0.00     0.002 C 
ATOM     21  C   UNL A   1      34.839  17.449  24.471  1.00  0.00     0.004 C 
ENDBRANCH  18  20
ENDBRANCH  17  18
ENDBRANCH  16  17
BRANCH  16  22
ATOM     22  C   UNL A   1      32.243  21.798  22.488  1.00  0.00     0.114 C 
ATOM     23  C   UNL A   1      32.805  23.047  21.806  1.00  0.00     0.027 C 
ENDBRANCH  16  22
ENDBRANCH   7  16
ENDBRANCH   4   6
ENDBRANCH   3   4
ENDBRANCH   2   3
ENDBRANCH   1   2
BRANCH   1  24
ATOM     24  O   UNL A   1      32.138  30.426  25.841  1.00  0.00    -0.374 OA
BRANCH  24  25
ATOM     25  C   UNL A   1      31.704  31.445  26.743  1.00  0.00     0.202 C 
BRANCH  25  26
ATOM     26  C   UNL A   1      32.746  32.469  27.208  1.00  0.00     0.261 C 
BRANCH  26  27
ATOM     27  O   UNL A   1      32.139  33.694  27.655  1.00  0.00    -0.460 OA
BRANCH  27  28
ATOM     28  C   UNL A   1      32.956  34.503  28.372  1.00  0.00     0.338 C 
ATOM     29  O   UNL A   1      32.700  35.606  28.821  1.00  0.00    -0.246 OA
BRANCH  28  30
ATOM     30  C   UNL A   1      34.194  33.778  28.715  1.00  0.00     0.060 A 
ATOM     31  C   UNL A   1      34.144  32.882  29.791  1.00  0.00     0.016 A 
ATOM     32  C   UNL A   1      35.394  34.018  28.044  1.00  0.00     0.016 A 
ATOM     33  C   UNL A   1      35.307  32.260  30.236  1.00  0.00     0.010 A 
ATOM     34  C   UNL A   1      36.563  33.401  28.499  1.00  0.00     0.010 A 
ATOM     35  C   UNL A   1      36.530  32.548  29.617  1.00  0.00    -0.014 A 
BRANCH  35  36
ATOM     36  C   UNL A   1      37.791  32.067  30.226  1.00  0.00     0.031 A 
ATOM     37  C   UNL A   1      38.427  30.814  29.692  1.00  0.00     0.074 A 
ATOM     38  C   UNL A   1      38.374  32.747  31.228  1.00  0.00     0.049 A 
ATOM     39  N   UNL A   1      39.503  30.190  30.100  1.00  0.00    -0.248 NA
ATOM     40  C   UNL A   1      37.760  30.178  28.543  1.00  0.00     0.031 C 
ATOM     41  C   UNL A   1      37.881  33.999  31.802  1.00  0.00     0.029 A 
ATOM     42  N   UNL A   1      39.510  32.470  31.947  1.00  0.00    -0.354 N 
ATOM     43  C   UNL A   1      39.635  29.085  29.269  1.00  0.00     0.074 A 
ATOM     44  C   UNL A   1      38.517  29.108  28.350  1.00  0.00     0.031 C 
ATOM     45  C   UNL A   1      38.708  34.378  32.791  1.00  0.00     0.029 A 
ATOM     46  C   UNL A   1      39.763  33.379  32.942  1.00  0.00     0.049 A 
ATOM     47  H   UNL A   1      40.087  31.693  31.764  1.00  0.00     0.167 HD
ATOM     48  C   UNL A   1      40.603  28.138  29.268  1.00  0.00     0.031 A 
ATOM     49  C   UNL A   1      40.725  33.391  33.884  1.00  0.00     0.031 A 
ATOM     50  C   UNL A   1      41.705  28.108  30.191  1.00  0.00     0.049 A 
ATOM     51  C   UNL A   1      41.743  32.282  33.913  1.00  0.00     0.074 A 
ATOM     52  C   UNL A   1      42.746  27.198  30.262  1.00  0.00     0.029 A 
ATOM     53  N   UNL A   1      41.906  29.025  31.209  1.00  0.00    -0.354 N 
ATOM     54  N   UNL A   1      41.872  31.254  33.109  1.00  0.00    -0.248 NA
ATOM     55  C   UNL A   1      42.754  32.341  34.981  1.00  0.00     0.031 C 
ATOM     56  C   UNL A   1      43.544  27.532  31.359  1.00  0.00     0.029 A 
ATOM     57  C   UNL A   1      43.037  28.687  31.933  1.00  0.00     0.049 A 
ATOM     58  H   UNL A   1      41.330  29.803  31.392  1.00  0.00     0.167 HD
ATOM     59  C   UNL A   1      42.993  30.562  33.553  1.00  0.00     0.074 A 
ATOM     60  C   UNL A   1      43.513  31.294  34.690  1.00  0.00     0.031 C 
ATOM     61  C   UNL A   1      43.542  29.425  33.062  1.00  0.00     0.031 A 
BRANCH  48  62
ATOM     62  C   UNL A   1      40.487  27.031  28.257  1.00  0.00    -0.014 A 
ATOM     63  C   UNL A   1      39.793  25.845  28.548  1.00  0.00     0.009 A 
ATOM     64  C   UNL A   1      41.053  27.191  26.983  1.00  0.00     0.009 A 
ATOM     65  C   UNL A   1      39.698  24.830  27.593  1.00  0.00     0.001 A 
ATOM     66  C   UNL A   1      40.932  26.187  26.022  1.00  0.00     0.001 A 
ATOM     67  C   UNL A   1      40.263  25.004  26.330  1.00  0.00     0.000 A 
ENDBRANCH  48  62
BRANCH  49  68
ATOM     68  C   UNL A   1      40.764  34.479  34.896  1.00  0.00    -0.014 A 
ATOM     69  C   UNL A   1      41.512  35.643  34.669  1.00  0.00     0.009 A 
ATOM     70  C   UNL A   1      40.061  34.348  36.106  1.00  0.00     0.009 A 
ATOM     71  C   UNL A   1      41.576  36.644  35.642  1.00  0.00     0.001 A 
ATOM     72  C   UNL A   1      40.105  35.362  37.064  1.00  0.00     0.001 A 
ATOM     73  C   UNL A   1      40.869  36.506  36.835  1.00  0.00     0.000 A 
ENDBRANCH  49  68
BRANCH  61  74
ATOM     74  C   UNL A   1      44.795  28.923  33.725  1.00  0.00    -0.014 A 
ATOM     75  C   UNL A   1      46.064  29.356  33.314  1.00  0.00     0.009 A 
ATOM     76  C   UNL A   1      44.696  28.034  34.808  1.00  0.00     0.009 A 
ATOM     77  C   UNL A   1      47.212  28.882  33.954  1.00  0.00     0.001 A 
ATOM     78  C   UNL A   1      45.844  27.586  35.464  1.00  0.00     0.001 A 
ATOM     79  C   UNL A   1      47.101  28.003  35.029  1.00  0.00     0.000 A 
ENDBRANCH  61  74
ENDBRANCH  35  36
ENDBRANCH  28  30
ENDBRANCH  27  28
ENDBRANCH  26  27
ENDBRANCH  25  26
ENDBRANCH  24  25
ENDBRANCH   1  24
TORSDOF 19
ENDMDL
MODEL 3
REMARK VINA RESULT:      -9.4      0.982      2.442
REMARK SMILES CC[C@H](C)CN(CC)c1nc(C(=O)OCCOCCOC(=O)c2ccc(-c3c4nc(c(-c5ccccc5)c5ccc([nH]5)c(-c5ccccc5)c5nc(c(-c6ccccc6)c6ccc3[nH]6)C=C5)C=C4)cc2)cc2ccccc12
REMARK SMILES IDX 16 1 15 2 14 3 12 4 13 5 11 6 9 7 10 8 77 9 72 10 76 11
REMARK SMILES IDX 71 12 73 13 75 14 74 15 6 16 5 17 3 18 4 19 2 20 1 21 7 22
REMARK SMILES IDX 8 23 17 24 18 25 19 26 20 27 21 28 22 29 23 30 24 31 70 32
REMARK SMILES IDX 25 33 69 34 26 35 27 36 28 37 63 38 29 39 68 40 62 41 64 42
REMARK SMILES IDX 30 43 67 44 61 45 60 46 31 48 53 49 38 50 52 51 39 52 42 53
REMARK SMILES IDX 51 54 65 55 40 56 41 57 50 59 66 60 43 61 32 62 33 63 37 64
REMARK SMILES IDX 34 65 36 66 35 67 54 68 55 69 59 70 56 71 58 72 57 73 44 74
REMARK SMILES IDX 45 75 49 76 46 77 48 78 47 79
REMARK H PARENT 64 47 42 58
REMARK Flexibility Score: inf
ROOT
ATOM      1  C   UNL A   1      33.249  28.675  23.399  1.00  0.00     0.202 C 
ENDROOT
BRANCH   1   2
ATOM      2  C   UNL A   1      33.663  27.553  22.441  1.00  0.00     0.261 C 
BRANCH   2   3
ATOM      3  O   UNL A   1      32.586  27.138  21.585  1.00  0.00    -0.459 OA
BRANCH   3   4
ATOM      4  C   UNL A   1      32.718  25.866  21.134  1.00  0.00     0.357 C 
ATOM      5  O   UNL A   1      33.075  25.532  20.011  1.00  0.00    -0.244 OA
BRANCH   4   6
ATOM      6  C   UNL A   1      32.552  24.863  22.215  1.00  0.00     0.151 A 
ATOM      7  C   UNL A   1      33.487  23.224  23.566  1.00  0.00     0.137 A 
ATOM      8  N   UNL A   1      33.484  23.893  22.387  1.00  0.00    -0.223 NA
ATOM      9  C   UNL A   1      32.637  23.661  24.627  1.00  0.00     0.024 A 
ATOM     10  C   UNL A   1      31.535  24.478  24.313  1.00  0.00    -0.012 A 
ATOM     11  C   UNL A   1      32.839  23.419  26.004  1.00  0.00     0.012 A 
ATOM     12  C   UNL A   1      31.494  25.089  23.076  1.00  0.00     0.045 A 
ATOM     13  C   UNL A   1      30.540  24.757  25.264  1.00  0.00     0.009 A 
ATOM     14  C   UNL A   1      31.871  23.723  26.965  1.00  0.00     0.001 A 
ATOM     15  C   UNL A   1      30.692  24.342  26.581  1.00  0.00     0.001 A 
BRANCH   7  16
ATOM     16  N   UNL A   1      34.358  22.124  23.709  1.00  0.00    -0.356 N 
BRANCH  16  17
ATOM     17  C   UNL A   1      35.830  22.342  23.890  1.00  0.00     0.121 C 
BRANCH  17  18
ATOM     18  C   UNL A   1      36.421  21.866  25.235  1.00  0.00     0.005 C 
ATOM     19  C   UNL A   1      37.498  20.796  25.006  1.00  0.00     0.009 C 
BRANCH  18  20
ATOM     20  C   UNL A   1      36.970  22.988  26.142  1.00  0.00     0.002 C 
ATOM     21  C   UNL A   1      38.490  23.118  25.995  1.00  0.00     0.004 C 
ENDBRANCH  18  20
ENDBRANCH  17  18
ENDBRANCH  16  17
BRANCH  16  22
ATOM     22  C   UNL A   1      33.803  20.994  24.485  1.00  0.00     0.114 C 
ATOM     23  C   UNL A   1      32.690  20.223  23.774  1.00  0.00     0.027 C 
ENDBRANCH  16  22
ENDBRANCH   7  16
ENDBRANCH   4   6
ENDBRANCH   3   4
ENDBRANCH   2   3
ENDBRANCH   1   2
BRANCH   1  24
ATOM     24  O   UNL A   1      33.435  28.451  24.795  1.00  0.00    -0.374 OA
BRANCH  24  25
ATOM     25  C   UNL A   1      32.306  28.629  25.651  1.00  0.00     0.202 C 
BRANCH  25  26
ATOM     26  C   UNL A   1      32.577  29.007  27.111  1.00  0.00     0.261 C 
BRANCH  26  27
ATOM     27  O   UNL A   1      33.980  28.969  27.429  1.00  0.00    -0.460 OA
BRANCH  27  28
ATOM     28  C   UNL A   1      34.496  30.145  27.860  1.00  0.00     0.338 C 
ATOM     29  O   UNL A   1      33.904  31.194  28.036  1.00  0.00    -0.246 OA
BRANCH  28  30
ATOM     30  C   UNL A   1      35.895  29.946  28.281  1.00  0.00     0.060 A 
ATOM     31  C   UNL A   1      36.893  30.099  27.310  1.00  0.00     0.016 A 
ATOM     32  C   UNL A   1      36.221  29.553  29.580  1.00  0.00     0.016 A 
ATOM     33  C   UNL A   1      38.218  29.808  27.618  1.00  0.00     0.010 A 
ATOM     34  C   UNL A   1      37.551  29.251  29.886  1.00  0.00     0.010 A 
ATOM     35  C   UNL A   1      38.548  29.344  28.898  1.00  0.00    -0.014 A 
BRANCH  35  36
ATOM     36  C   UNL A   1      39.909  28.823  29.161  1.00  0.00     0.031 A 
ATOM     37  C   UNL A   1      40.913  29.714  29.839  1.00  0.00     0.074 A 
ATOM     38  C   UNL A   1      40.244  27.567  28.817  1.00  0.00     0.049 A 
ATOM     39  N   UNL A   1      42.168  29.482  30.127  1.00  0.00    -0.248 NA
ATOM     40  C   UNL A   1      40.436  31.046  30.248  1.00  0.00     0.031 C 
ATOM     41  C   UNL A   1      39.348  26.592  28.197  1.00  0.00     0.029 A 
ATOM     42  N   UNL A   1      41.437  26.901  28.938  1.00  0.00    -0.354 N 
ATOM     43  C   UNL A   1      42.635  30.638  30.738  1.00  0.00     0.074 A 
ATOM     44  C   UNL A   1      41.536  31.581  30.758  1.00  0.00     0.031 C 
ATOM     45  C   UNL A   1      40.027  25.452  27.984  1.00  0.00     0.029 A 
ATOM     46  C   UNL A   1      41.410  25.631  28.419  1.00  0.00     0.049 A 
ATOM     47  H   UNL A   1      42.235  27.297  29.358  1.00  0.00     0.167 HD
ATOM     48  C   UNL A   1      43.866  30.892  31.242  1.00  0.00     0.031 A 
ATOM     49  C   UNL A   1      42.397  24.724  28.289  1.00  0.00     0.031 A 
ATOM     50  C   UNL A   1      44.960  29.961  31.210  1.00  0.00     0.049 A 
ATOM     51  C   UNL A   1      43.779  25.061  28.783  1.00  0.00     0.074 A 
ATOM     52  C   UNL A   1      46.242  30.118  31.707  1.00  0.00     0.029 A 
ATOM     53  N   UNL A   1      44.904  28.698  30.641  1.00  0.00    -0.354 N 
ATOM     54  N   UNL A   1      44.203  26.149  29.380  1.00  0.00    -0.248 NA
ATOM     55  C   UNL A   1      44.817  24.037  28.591  1.00  0.00     0.031 C 
ATOM     56  C   UNL A   1      46.978  28.973  31.388  1.00  0.00     0.029 A 
ATOM     57  C   UNL A   1      46.137  28.077  30.748  1.00  0.00     0.049 A 
ATOM     58  H   UNL A   1      44.106  28.301  30.222  1.00  0.00     0.167 HD
ATOM     59  C   UNL A   1      45.546  25.930  29.661  1.00  0.00     0.074 A 
ATOM     60  C   UNL A   1      45.862  24.601  29.180  1.00  0.00     0.031 C 
ATOM     61  C   UNL A   1      46.437  26.754  30.264  1.00  0.00     0.031 A 
BRANCH  48  62
ATOM     62  C   UNL A   1      44.102  32.252  31.838  1.00  0.00    -0.014 A 
ATOM     63  C   UNL A   1      44.547  33.327  31.051  1.00  0.00     0.009 A 
ATOM     64  C   UNL A   1      43.846  32.469  33.200  1.00  0.00     0.009 A 
ATOM     65  C   UNL A   1      44.761  34.582  31.627  1.00  0.00     0.001 A 
ATOM     66  C   UNL A   1      44.032  33.730  33.766  1.00  0.00     0.001 A 
ATOM     67  C   UNL A   1      44.499  34.784  32.982  1.00  0.00     0.000 A 
ENDBRANCH  48  62
BRANCH  49  68
ATOM     68  C   UNL A   1      42.124  23.414  27.642  1.00  0.00    -0.014 A 
ATOM     69  C   UNL A   1      42.421  23.209  26.286  1.00  0.00     0.009 A 
ATOM     70  C   UNL A   1      41.549  22.365  28.377  1.00  0.00     0.009 A 
ATOM     71  C   UNL A   1      42.125  21.989  25.674  1.00  0.00     0.001 A 
ATOM     72  C   UNL A   1      41.281  21.138  27.770  1.00  0.00     0.001 A 
ATOM     73  C   UNL A   1      41.561  20.953  26.417  1.00  0.00     0.000 A 
ENDBRANCH  49  68
BRANCH  61  74
ATOM     74  C   UNL A   1      47.829  26.227  30.477  1.00  0.00    -0.014 A 
ATOM     75  C   UNL A   1      48.794  26.278  29.460  1.00  0.00     0.009 A 
ATOM     76  C   UNL A   1      48.189  25.712  31.732  1.00  0.00     0.009 A 
ATOM     77  C   UNL A   1      50.084  25.791  29.687  1.00  0.00     0.001 A 
ATOM     78  C   UNL A   1      49.487  25.253  31.965  1.00  0.00     0.001 A 
ATOM     79  C   UNL A   1      50.430  25.285  30.939  1.00  0.00     0.000 A 
ENDBRANCH  61  74
ENDBRANCH  35  36
ENDBRANCH  28  30
ENDBRANCH  27  28
ENDBRANCH  26  27
ENDBRANCH  25  26
ENDBRANCH  24  25
ENDBRANCH   1  24
TORSDOF 19
ENDMDL
