MODEL 1
REMARK VINA RESULT:     -10.1      0.000      0.000
REMARK SMILES O=C(OCCOCCOC(=O)[C@H]1C[C@@H]2N=CN=C2C[NH2+]1)c1ccc(-c2c3nc(c(-c4ccccc4)c4ccc([nH]4)c(-c4ccccc4)c4nc(c(-c5ccccc5)c5ccc2[nH]5)C=C4)C=C3)cc1
REMARK SMILES IDX 5 1 4 2 3 3 2 4 1 5 21 6 22 7 68 8 23 9 67 10 24 11 25 12
REMARK SMILES IDX 26 13 61 14 27 15 66 16 60 17 62 18 28 19 65 20 59 21 58 22
REMARK SMILES IDX 29 24 51 25 36 26 50 27 37 28 40 29 49 30 63 31 38 32 39 33
REMARK SMILES IDX 48 35 64 36 41 37 30 38 31 39 35 40 32 41 34 42 33 43 52 44
REMARK SMILES IDX 53 45 57 46 54 47 56 48 55 49 42 50 43 51 47 52 44 53 46 54
REMARK SMILES IDX 45 55 6 56 7 57 8 58 9 59 10 60 11 61 12 62 13 63 20 64
REMARK SMILES IDX 14 65 19 66 15 69 18 70 16 71 17 72
REMARK H PARENT 62 23 40 34 20 67 20 68
REMARK Flexibility Score: inf
ROOT
ATOM      1  C   UNL A   1      41.961  20.297  26.845  1.00  0.00     0.202 C 
ENDROOT
BRANCH   1   2
ATOM      2  C   UNL A   1      40.601  20.976  26.735  1.00  0.00     0.261 C 
BRANCH   2   3
ATOM      3  O   UNL A   1      40.465  22.226  27.442  1.00  0.00    -0.460 OA
BRANCH   3   4
ATOM      4  C   UNL A   1      40.925  23.420  27.017  1.00  0.00     0.338 C 
ATOM      5  O   UNL A   1      41.409  23.543  25.894  1.00  0.00    -0.246 OA
BRANCH   4   6
ATOM      6  C   UNL A   1      40.586  24.638  27.797  1.00  0.00     0.060 A 
ATOM      7  C   UNL A   1      39.432  25.395  27.601  1.00  0.00     0.016 A 
ATOM      8  C   UNL A   1      41.600  25.132  28.639  1.00  0.00     0.016 A 
ATOM      9  C   UNL A   1      39.382  26.699  28.047  1.00  0.00     0.010 A 
ATOM     10  C   UNL A   1      41.553  26.438  29.095  1.00  0.00     0.010 A 
ATOM     11  C   UNL A   1      40.485  27.235  28.705  1.00  0.00    -0.014 A 
BRANCH  11  12
ATOM     12  C   UNL A   1      40.443  28.651  29.004  1.00  0.00     0.031 A 
ATOM     13  C   UNL A   1      41.606  29.400  28.474  1.00  0.00     0.074 A 
ATOM     14  C   UNL A   1      39.415  29.210  29.667  1.00  0.00     0.049 A 
ATOM     15  N   UNL A   1      42.534  29.999  29.141  1.00  0.00    -0.248 NA
ATOM     16  C   UNL A   1      41.852  29.329  27.025  1.00  0.00     0.031 C 
ATOM     17  C   UNL A   1      38.126  28.606  30.018  1.00  0.00     0.029 A 
ATOM     18  N   UNL A   1      39.263  30.499  30.071  1.00  0.00    -0.354 N 
ATOM     19  C   UNL A   1      43.382  30.556  28.188  1.00  0.00     0.074 A 
ATOM     20  C   UNL A   1      43.016  29.968  26.926  1.00  0.00     0.031 C 
ATOM     21  C   UNL A   1      37.247  29.587  30.329  1.00  0.00     0.029 A 
ATOM     22  C   UNL A   1      37.949  30.860  30.337  1.00  0.00     0.049 A 
ATOM     23  H   UNL A   1      40.020  31.123  30.168  1.00  0.00     0.167 HD
ATOM     24  C   UNL A   1      44.125  31.662  28.470  1.00  0.00     0.031 A 
ATOM     25  C   UNL A   1      37.471  32.123  30.465  1.00  0.00     0.031 A 
ATOM     26  C   UNL A   1      44.270  31.854  29.891  1.00  0.00     0.049 A 
ATOM     27  C   UNL A   1      38.625  33.013  30.732  1.00  0.00     0.074 A 
ATOM     28  C   UNL A   1      44.812  31.118  30.925  1.00  0.00     0.029 A 
ATOM     29  N   UNL A   1      43.459  32.793  30.481  1.00  0.00    -0.354 N 
ATOM     30  N   UNL A   1      39.311  32.982  31.839  1.00  0.00    -0.248 NA
ATOM     31  C   UNL A   1      39.308  33.604  29.591  1.00  0.00     0.031 C 
ATOM     32  C   UNL A   1      43.938  31.338  32.030  1.00  0.00     0.029 A 
ATOM     33  C   UNL A   1      42.958  32.249  31.631  1.00  0.00     0.049 A 
ATOM     34  H   UNL A   1      43.273  33.697  30.137  1.00  0.00     0.167 HD
ATOM     35  C   UNL A   1      40.632  33.117  31.436  1.00  0.00     0.074 A 
ATOM     36  C   UNL A   1      40.562  33.594  30.054  1.00  0.00     0.031 C 
ATOM     37  C   UNL A   1      41.647  32.553  32.156  1.00  0.00     0.031 A 
BRANCH  24  38
ATOM     38  C   UNL A   1      44.270  32.808  27.493  1.00  0.00    -0.014 A 
ATOM     39  C   UNL A   1      43.534  33.982  27.732  1.00  0.00     0.009 A 
ATOM     40  C   UNL A   1      44.827  32.667  26.206  1.00  0.00     0.009 A 
ATOM     41  C   UNL A   1      43.257  34.891  26.705  1.00  0.00     0.001 A 
ATOM     42  C   UNL A   1      44.588  33.593  25.189  1.00  0.00     0.001 A 
ATOM     43  C   UNL A   1      43.770  34.686  25.428  1.00  0.00     0.000 A 
ENDBRANCH  24  38
BRANCH  25  44
ATOM     44  C   UNL A   1      36.151  32.650  30.051  1.00  0.00    -0.014 A 
ATOM     45  C   UNL A   1      35.338  33.352  30.957  1.00  0.00     0.009 A 
ATOM     46  C   UNL A   1      35.806  32.703  28.688  1.00  0.00     0.009 A 
ATOM     47  C   UNL A   1      34.244  34.106  30.508  1.00  0.00     0.001 A 
ATOM     48  C   UNL A   1      34.713  33.453  28.241  1.00  0.00     0.001 A 
ATOM     49  C   UNL A   1      33.940  34.167  29.149  1.00  0.00     0.000 A 
ENDBRANCH  25  44
BRANCH  37  50
ATOM     50  C   UNL A   1      41.320  31.978  33.510  1.00  0.00    -0.014 A 
ATOM     51  C   UNL A   1      41.411  32.715  34.704  1.00  0.00     0.009 A 
ATOM     52  C   UNL A   1      40.749  30.698  33.561  1.00  0.00     0.009 A 
ATOM     53  C   UNL A   1      40.967  32.174  35.916  1.00  0.00     0.001 A 
ATOM     54  C   UNL A   1      40.286  30.167  34.764  1.00  0.00     0.001 A 
ATOM     55  C   UNL A   1      40.400  30.901  35.943  1.00  0.00     0.000 A 
ENDBRANCH  37  50
ENDBRANCH  11  12
ENDBRANCH   4   6
ENDBRANCH   3   4
ENDBRANCH   2   3
ENDBRANCH   1   2
BRANCH   1  56
ATOM     56  O   UNL A   1      42.713  20.229  25.636  1.00  0.00    -0.374 OA
BRANCH  56  57
ATOM     57  C   UNL A   1      43.359  18.987  25.345  1.00  0.00     0.202 C 
BRANCH  57  58
ATOM     58  C   UNL A   1      44.425  18.970  24.246  1.00  0.00     0.261 C 
BRANCH  58  59
ATOM     59  O   UNL A   1      44.910  20.290  23.960  1.00  0.00    -0.459 OA
BRANCH  59  60
ATOM     60  C   UNL A   1      46.092  20.623  24.552  1.00  0.00     0.365 C 
ATOM     61  O   UNL A   1      47.122  19.974  24.507  1.00  0.00    -0.245 OA
BRANCH  60  62
ATOM     62  C   UNL A   1      45.995  22.008  25.210  1.00  0.00     0.296 C 
ATOM     63  C   UNL A   1      45.325  22.980  24.230  1.00  0.00     0.111 C 
ATOM     64  N   UNL A   1      45.297  21.841  26.528  1.00  0.00    -0.330 N 
ATOM     65  C   UNL A   1      45.055  24.339  24.858  1.00  0.00     0.164 C 
ATOM     66  C   UNL A   1      44.528  23.014  26.971  1.00  0.00     0.316 C 
ATOM     67  H   UNL A   1      46.002  21.639  27.238  1.00  0.00     0.347 HD
ATOM     68  H   UNL A   1      44.625  21.086  26.404  1.00  0.00     0.347 HD
ATOM     69  N   UNL A   1      46.109  25.339  24.605  1.00  0.00    -0.264 NA
ATOM     70  C   UNL A   1      45.142  24.212  26.336  1.00  0.00     0.098 C 
ATOM     71  C   UNL A   1      46.477  25.725  25.792  1.00  0.00     0.216 C 
ATOM     72  N   UNL A   1      45.934  25.076  26.874  1.00  0.00    -0.238 NA
ENDBRANCH  60  62
ENDBRANCH  59  60
ENDBRANCH  58  59
ENDBRANCH  57  58
ENDBRANCH  56  57
ENDBRANCH   1  56
TORSDOF 14
ENDMDL
MODEL 2
REMARK VINA RESULT:     -10.0      1.817      3.099
REMARK SMILES O=C(OCCOCCOC(=O)[C@H]1C[C@@H]2N=CN=C2C[NH2+]1)c1ccc(-c2c3nc(c(-c4ccccc4)c4ccc([nH]4)c(-c4ccccc4)c4nc(c(-c5ccccc5)c5ccc2[nH]5)C=C4)C=C3)cc1
REMARK SMILES IDX 5 1 4 2 3 3 2 4 1 5 21 6 22 7 68 8 23 9 67 10 24 11 25 12
REMARK SMILES IDX 26 13 61 14 27 15 66 16 60 17 62 18 28 19 65 20 59 21 58 22
REMARK SMILES IDX 29 24 51 25 36 26 50 27 37 28 40 29 49 30 63 31 38 32 39 33
REMARK SMILES IDX 48 35 64 36 41 37 30 38 31 39 35 40 32 41 34 42 33 43 52 44
REMARK SMILES IDX 53 45 57 46 54 47 56 48 55 49 42 50 43 51 47 52 44 53 46 54
REMARK SMILES IDX 45 55 6 56 7 57 8 58 9 59 10 60 11 61 12 62 13 63 20 64
REMARK SMILES IDX 14 65 19 66 15 69 18 70 16 71 17 72
REMARK H PARENT 62 23 40 34 20 67 20 68
REMARK Flexibility Score: inf
ROOT
ATOM      1  C   UNL A   1      46.156  22.382  25.160  1.00  0.00     0.202 C 
ENDROOT
BRANCH   1   2
ATOM      2  C   UNL A   1      45.098  22.764  24.131  1.00  0.00     0.261 C 
BRANCH   2   3
ATOM      3  O   UNL A   1      44.263  23.888  24.477  1.00  0.00    -0.460 OA
BRANCH   3   4
ATOM      4  C   UNL A   1      44.691  25.036  25.040  1.00  0.00     0.338 C 
ATOM      5  O   UNL A   1      45.752  25.548  24.694  1.00  0.00    -0.246 OA
BRANCH   4   6
ATOM      6  C   UNL A   1      43.743  25.824  25.869  1.00  0.00     0.060 A 
ATOM      7  C   UNL A   1      42.733  26.631  25.347  1.00  0.00     0.016 A 
ATOM      8  C   UNL A   1      44.031  25.885  27.246  1.00  0.00     0.016 A 
ATOM      9  C   UNL A   1      42.180  27.627  26.123  1.00  0.00     0.010 A 
ATOM     10  C   UNL A   1      43.476  26.879  28.031  1.00  0.00     0.010 A 
ATOM     11  C   UNL A   1      42.630  27.801  27.429  1.00  0.00    -0.014 A 
BRANCH  11  12
ATOM     12  C   UNL A   1      42.137  28.961  28.142  1.00  0.00     0.031 A 
ATOM     13  C   UNL A   1      43.055  30.121  28.086  1.00  0.00     0.074 A 
ATOM     14  C   UNL A   1      40.938  28.966  28.754  1.00  0.00     0.049 A 
ATOM     15  N   UNL A   1      43.703  30.668  29.060  1.00  0.00    -0.248 NA
ATOM     16  C   UNL A   1      43.425  30.627  26.755  1.00  0.00     0.031 C 
ATOM     17  C   UNL A   1      39.871  27.966  28.665  1.00  0.00     0.029 A 
ATOM     18  N   UNL A   1      40.372  29.946  29.505  1.00  0.00    -0.354 N 
ATOM     19  C   UNL A   1      44.413  31.722  28.494  1.00  0.00     0.074 A 
ATOM     20  C   UNL A   1      44.344  31.539  27.067  1.00  0.00     0.031 C 
ATOM     21  C   UNL A   1      38.714  28.513  29.105  1.00  0.00     0.029 A 
ATOM     22  C   UNL A   1      38.994  29.838  29.633  1.00  0.00     0.049 A 
ATOM     23  H   UNL A   1      40.894  30.670  29.924  1.00  0.00     0.167 HD
ATOM     24  C   UNL A   1      44.762  32.811  29.233  1.00  0.00     0.031 A 
ATOM     25  C   UNL A   1      38.146  30.806  30.063  1.00  0.00     0.031 A 
ATOM     26  C   UNL A   1      44.729  32.526  30.645  1.00  0.00     0.049 A 
ATOM     27  C   UNL A   1      38.951  31.814  30.793  1.00  0.00     0.074 A 
ATOM     28  C   UNL A   1      45.386  31.641  31.477  1.00  0.00     0.029 A 
ATOM     29  N   UNL A   1      43.627  32.955  31.345  1.00  0.00    -0.354 N 
ATOM     30  N   UNL A   1      39.525  31.576  31.938  1.00  0.00    -0.248 NA
ATOM     31  C   UNL A   1      39.509  32.922  30.033  1.00  0.00     0.031 C 
ATOM     32  C   UNL A   1      44.402  31.227  32.423  1.00  0.00     0.029 A 
ATOM     33  C   UNL A   1      43.226  31.933  32.160  1.00  0.00     0.049 A 
ATOM     34  H   UNL A   1      43.203  33.841  31.273  1.00  0.00     0.167 HD
ATOM     35  C   UNL A   1      40.770  32.181  31.838  1.00  0.00     0.074 A 
ATOM     36  C   UNL A   1      40.667  33.075  30.684  1.00  0.00     0.031 C 
ATOM     37  C   UNL A   1      41.848  31.684  32.514  1.00  0.00     0.031 A 
BRANCH  24  38
ATOM     38  C   UNL A   1      44.628  34.223  28.703  1.00  0.00    -0.014 A 
ATOM     39  C   UNL A   1      43.344  34.687  28.365  1.00  0.00     0.009 A 
ATOM     40  C   UNL A   1      45.715  34.979  28.224  1.00  0.00     0.009 A 
ATOM     41  C   UNL A   1      43.165  35.761  27.487  1.00  0.00     0.001 A 
ATOM     42  C   UNL A   1      45.540  36.079  27.380  1.00  0.00     0.001 A 
ATOM     43  C   UNL A   1      44.265  36.445  26.980  1.00  0.00     0.000 A 
ENDBRANCH  24  38
BRANCH  25  44
ATOM     44  C   UNL A   1      36.766  31.084  29.607  1.00  0.00    -0.014 A 
ATOM     45  C   UNL A   1      35.899  31.880  30.374  1.00  0.00     0.009 A 
ATOM     46  C   UNL A   1      36.384  30.794  28.284  1.00  0.00     0.009 A 
ATOM     47  C   UNL A   1      34.715  32.394  29.824  1.00  0.00     0.001 A 
ATOM     48  C   UNL A   1      35.203  31.305  27.736  1.00  0.00     0.001 A 
ATOM     49  C   UNL A   1      34.375  32.118  28.501  1.00  0.00     0.000 A 
ENDBRANCH  25  44
BRANCH  37  50
ATOM     50  C   UNL A   1      41.606  30.608  33.541  1.00  0.00    -0.014 A 
ATOM     51  C   UNL A   1      41.537  29.240  33.223  1.00  0.00     0.009 A 
ATOM     52  C   UNL A   1      41.608  30.978  34.894  1.00  0.00     0.009 A 
ATOM     53  C   UNL A   1      41.446  28.275  34.232  1.00  0.00     0.001 A 
ATOM     54  C   UNL A   1      41.539  30.014  35.900  1.00  0.00     0.001 A 
ATOM     55  C   UNL A   1      41.452  28.663  35.570  1.00  0.00     0.000 A 
ENDBRANCH  37  50
ENDBRANCH  11  12
ENDBRANCH   4   6
ENDBRANCH   3   4
ENDBRANCH   2   3
ENDBRANCH   1   2
BRANCH   1  56
ATOM     56  O   UNL A   1      46.088  21.042  25.642  1.00  0.00    -0.374 OA
BRANCH  56  57
ATOM     57  C   UNL A   1      46.218  19.999  24.672  1.00  0.00     0.202 C 
BRANCH  57  58
ATOM     58  C   UNL A   1      45.099  18.957  24.581  1.00  0.00     0.261 C 
BRANCH  58  59
ATOM     59  O   UNL A   1      43.810  19.576  24.456  1.00  0.00    -0.459 OA
BRANCH  59  60
ATOM     60  C   UNL A   1      42.927  19.301  25.457  1.00  0.00     0.365 C 
ATOM     61  O   UNL A   1      42.696  18.200  25.924  1.00  0.00    -0.245 OA
BRANCH  60  62
ATOM     62  C   UNL A   1      42.325  20.598  26.017  1.00  0.00     0.296 C 
ATOM     63  C   UNL A   1      40.955  20.286  26.636  1.00  0.00     0.111 C 
ATOM     64  N   UNL A   1      43.330  21.204  26.953  1.00  0.00    -0.330 N 
ATOM     65  C   UNL A   1      40.354  21.489  27.346  1.00  0.00     0.164 C 
ATOM     66  C   UNL A   1      42.752  21.996  28.049  1.00  0.00     0.316 C 
ATOM     67  H   UNL A   1      43.942  21.814  26.410  1.00  0.00     0.347 HD
ATOM     68  H   UNL A   1      43.822  20.426  27.388  1.00  0.00     0.347 HD
ATOM     69  N   UNL A   1      39.424  22.277  26.515  1.00  0.00    -0.264 NA
ATOM     70  C   UNL A   1      41.426  22.490  27.587  1.00  0.00     0.098 C 
ATOM     71  C   UNL A   1      39.915  23.481  26.537  1.00  0.00     0.216 C 
ATOM     72  N   UNL A   1      41.124  23.670  27.162  1.00  0.00    -0.238 NA
ENDBRANCH  60  62
ENDBRANCH  59  60
ENDBRANCH  58  59
ENDBRANCH  57  58
ENDBRANCH  56  57
ENDBRANCH   1  56
TORSDOF 14
ENDMDL
MODEL 3
REMARK VINA RESULT:      -9.9      5.290     10.573
REMARK SMILES O=C(OCCOCCOC(=O)[C@H]1C[C@@H]2N=CN=C2C[NH2+]1)c1ccc(-c2c3nc(c(-c4ccccc4)c4ccc([nH]4)c(-c4ccccc4)c4nc(c(-c5ccccc5)c5ccc2[nH]5)C=C4)C=C3)cc1
REMARK SMILES IDX 5 1 4 2 3 3 2 4 1 5 21 6 22 7 68 8 23 9 67 10 24 11 25 12
REMARK SMILES IDX 26 13 61 14 27 15 66 16 60 17 62 18 28 19 65 20 59 21 58 22
REMARK SMILES IDX 29 24 51 25 36 26 50 27 37 28 40 29 49 30 63 31 38 32 39 33
REMARK SMILES IDX 48 35 64 36 41 37 30 38 31 39 35 40 32 41 34 42 33 43 52 44
REMARK SMILES IDX 53 45 57 46 54 47 56 48 55 49 42 50 43 51 47 52 44 53 46 54
REMARK SMILES IDX 45 55 6 56 7 57 8 58 9 59 10 60 11 61 12 62 13 63 20 64
REMARK SMILES IDX 14 65 19 66 15 69 18 70 16 71 17 72
REMARK H PARENT 62 23 40 34 20 67 20 68
REMARK Flexibility Score: inf
ROOT
ATOM      1  C   UNL A   1      33.331  34.225  28.540  1.00  0.00     0.202 C 
ENDROOT
BRANCH   1   2
ATOM      2  C   UNL A   1      33.397  35.351  29.565  1.00  0.00     0.261 C 
BRANCH   2   3
ATOM      3  O   UNL A   1      32.428  35.284  30.632  1.00  0.00    -0.460 OA
BRANCH   3   4
ATOM      4  C   UNL A   1      32.717  35.212  31.947  1.00  0.00     0.338 C 
ATOM      5  O   UNL A   1      31.853  35.430  32.793  1.00  0.00    -0.246 OA
BRANCH   4   6
ATOM      6  C   UNL A   1      34.000  34.591  32.366  1.00  0.00     0.060 A 
ATOM      7  C   UNL A   1      35.182  35.301  32.566  1.00  0.00     0.016 A 
ATOM      8  C   UNL A   1      34.033  33.184  32.366  1.00  0.00     0.016 A 
ATOM      9  C   UNL A   1      36.393  34.641  32.543  1.00  0.00     0.010 A 
ATOM     10  C   UNL A   1      35.243  32.515  32.348  1.00  0.00     0.010 A 
ATOM     11  C   UNL A   1      36.412  33.264  32.337  1.00  0.00    -0.014 A 
BRANCH  11  12
ATOM     12  C   UNL A   1      37.710  32.648  32.156  1.00  0.00     0.031 A 
ATOM     13  C   UNL A   1      38.531  32.631  33.388  1.00  0.00     0.074 A 
ATOM     14  C   UNL A   1      38.089  32.114  30.980  1.00  0.00     0.049 A 
ATOM     15  N   UNL A   1      39.638  33.257  33.612  1.00  0.00    -0.248 NA
ATOM     16  C   UNL A   1      37.962  31.969  34.572  1.00  0.00     0.031 C 
ATOM     17  C   UNL A   1      37.270  31.871  29.789  1.00  0.00     0.029 A 
ATOM     18  N   UNL A   1      39.283  31.562  30.643  1.00  0.00    -0.354 N 
ATOM     19  C   UNL A   1      40.013  32.907  34.906  1.00  0.00     0.074 A 
ATOM     20  C   UNL A   1      38.869  32.265  35.500  1.00  0.00     0.031 C 
ATOM     21  C   UNL A   1      37.911  30.992  28.984  1.00  0.00     0.029 A 
ATOM     22  C   UNL A   1      39.231  30.730  29.532  1.00  0.00     0.049 A 
ATOM     23  H   UNL A   1      40.115  31.736  31.143  1.00  0.00     0.167 HD
ATOM     24  C   UNL A   1      41.320  32.922  35.286  1.00  0.00     0.031 A 
ATOM     25  C   UNL A   1      40.175  29.834  29.152  1.00  0.00     0.031 A 
ATOM     26  C   UNL A   1      42.118  33.738  34.407  1.00  0.00     0.049 A 
ATOM     27  C   UNL A   1      41.441  30.203  29.828  1.00  0.00     0.074 A 
ATOM     28  C   UNL A   1      42.118  35.070  34.043  1.00  0.00     0.029 A 
ATOM     29  N   UNL A   1      42.863  33.086  33.453  1.00  0.00    -0.354 N 
ATOM     30  N   UNL A   1      42.113  31.282  29.546  1.00  0.00    -0.248 NA
ATOM     31  C   UNL A   1      41.708  29.625  31.136  1.00  0.00     0.031 C 
ATOM     32  C   UNL A   1      42.449  35.071  32.656  1.00  0.00     0.029 A 
ATOM     33  C   UNL A   1      42.703  33.754  32.270  1.00  0.00     0.049 A 
ATOM     34  H   UNL A   1      43.415  32.283  33.596  1.00  0.00     0.167 HD
ATOM     35  C   UNL A   1      42.528  31.768  30.778  1.00  0.00     0.074 A 
ATOM     36  C   UNL A   1      42.335  30.658  31.710  1.00  0.00     0.031 C 
ATOM     37  C   UNL A   1      42.711  33.107  30.979  1.00  0.00     0.031 A 
BRANCH  24  38
ATOM     38  C   UNL A   1      41.931  31.815  36.118  1.00  0.00    -0.014 A 
ATOM     39  C   UNL A   1      42.826  32.172  37.143  1.00  0.00     0.009 A 
ATOM     40  C   UNL A   1      41.921  30.459  35.737  1.00  0.00     0.009 A 
ATOM     41  C   UNL A   1      43.751  31.254  37.655  1.00  0.00     0.001 A 
ATOM     42  C   UNL A   1      42.813  29.530  36.276  1.00  0.00     0.001 A 
ATOM     43  C   UNL A   1      43.755  29.938  37.207  1.00  0.00     0.000 A 
ENDBRANCH  24  38
BRANCH  25  44
ATOM     44  C   UNL A   1      39.980  28.511  28.518  1.00  0.00    -0.014 A 
ATOM     45  C   UNL A   1      40.564  28.213  27.275  1.00  0.00     0.009 A 
ATOM     46  C   UNL A   1      39.446  27.441  29.260  1.00  0.00     0.009 A 
ATOM     47  C   UNL A   1      40.641  26.890  26.813  1.00  0.00     0.001 A 
ATOM     48  C   UNL A   1      39.521  26.123  28.799  1.00  0.00     0.001 A 
ATOM     49  C   UNL A   1      40.132  25.845  27.581  1.00  0.00     0.000 A 
ENDBRANCH  25  44
BRANCH  37  50
ATOM     50  C   UNL A   1      42.670  34.016  29.777  1.00  0.00    -0.014 A 
ATOM     51  C   UNL A   1      41.517  34.714  29.377  1.00  0.00     0.009 A 
ATOM     52  C   UNL A   1      43.880  34.299  29.125  1.00  0.00     0.009 A 
ATOM     53  C   UNL A   1      41.571  35.648  28.335  1.00  0.00     0.001 A 
ATOM     54  C   UNL A   1      43.938  35.245  28.102  1.00  0.00     0.001 A 
ATOM     55  C   UNL A   1      42.783  35.915  27.703  1.00  0.00     0.000 A 
ENDBRANCH  37  50
ENDBRANCH  11  12
ENDBRANCH   4   6
ENDBRANCH   3   4
ENDBRANCH   2   3
ENDBRANCH   1   2
BRANCH   1  56
ATOM     56  O   UNL A   1      34.125  33.078  28.835  1.00  0.00    -0.374 OA
BRANCH  56  57
ATOM     57  C   UNL A   1      34.406  32.190  27.751  1.00  0.00     0.202 C 
BRANCH  57  58
ATOM     58  C   UNL A   1      33.746  30.808  27.762  1.00  0.00     0.261 C 
BRANCH  58  59
ATOM     59  O   UNL A   1      33.157  30.494  26.491  1.00  0.00    -0.459 OA
BRANCH  59  60
ATOM     60  C   UNL A   1      32.375  29.378  26.466  1.00  0.00     0.365 C 
ATOM     61  O   UNL A   1      31.618  29.016  27.350  1.00  0.00    -0.245 OA
BRANCH  60  62
ATOM     62  C   UNL A   1      32.482  28.673  25.106  1.00  0.00     0.296 C 
ATOM     63  C   UNL A   1      31.319  29.129  24.214  1.00  0.00     0.111 C 
ATOM     64  N   UNL A   1      33.854  28.939  24.558  1.00  0.00    -0.330 N 
ATOM     65  C   UNL A   1      31.433  28.592  22.795  1.00  0.00     0.164 C 
ATOM     66  C   UNL A   1      33.938  28.963  23.090  1.00  0.00     0.316 C 
ATOM     67  H   UNL A   1      34.479  28.208  24.900  1.00  0.00     0.347 HD
ATOM     68  H   UNL A   1      34.115  29.871  24.877  1.00  0.00     0.347 HD
ATOM     69  N   UNL A   1      30.682  27.344  22.561  1.00  0.00    -0.264 NA
ATOM     70  C   UNL A   1      32.825  28.123  22.570  1.00  0.00     0.098 C 
ATOM     71  C   UNL A   1      31.577  26.507  22.126  1.00  0.00     0.216 C 
ATOM     72  N   UNL A   1      32.887  26.918  22.116  1.00  0.00    -0.238 NA
ENDBRANCH  60  62
ENDBRANCH  59  60
ENDBRANCH  58  59
ENDBRANCH  57  58
ENDBRANCH  56  57
ENDBRANCH   1  56
TORSDOF 14
ENDMDL
