MODEL 1
REMARK VINA RESULT:      -9.0      0.000      0.000
REMARK SMILES COc1cccc(/C=C2/C(=O)N(c3cccc(C(=O)OCCOCCOC(=O)c4ccc(-c5c6nc(c(-c7ccccc7)c7ccc([nH]7)c(-c7ccccc7)c7nc(c(-c8ccccc8)c8ccc5[nH]8)C=C7)C=C6)cc4)c3)N=C2C)c1
REMARK SMILES IDX 22 1 21 2 20 3 18 4 19 5 17 6 13 7 14 8 77 9 15 10 16 11
REMARK SMILES IDX 12 12 8 13 9 14 10 15 79 16 11 17 78 18 80 19 7 20 3 21 4 22
REMARK SMILES IDX 81 23 5 24 6 25 2 26 1 27 23 28 24 29 25 30 26 31 27 32
REMARK SMILES IDX 28 33 29 34 30 35 76 36 31 37 75 38 32 39 33 40 34 41 69 42
REMARK SMILES IDX 35 43 74 44 68 45 70 46 36 47 73 48 67 49 66 50 37 52 59 53
REMARK SMILES IDX 44 54 58 55 45 56 48 57 57 58 71 59 46 60 47 61 56 63 72 64
REMARK SMILES IDX 49 65 38 66 39 67 43 68 40 69 42 70 41 71 60 72 61 73 65 74
REMARK SMILES IDX 62 75 64 76 63 77 50 78 51 79 55 80 52 81 54 82 53 83
REMARK H PARENT 70 51 48 62
REMARK Flexibility Score: inf
ROOT
ATOM      1  C   UNL A   1      45.212  21.292  24.624  1.00  0.00     0.202 C 
ENDROOT
BRANCH   1   2
ATOM      2  C   UNL A   1      44.919  22.573  23.835  1.00  0.00     0.261 C 
BRANCH   2   3
ATOM      3  O   UNL A   1      46.022  23.492  23.866  1.00  0.00    -0.460 OA
BRANCH   3   4
ATOM      4  C   UNL A   1      46.250  24.079  25.071  1.00  0.00     0.338 C 
ATOM      5  O   UNL A   1      47.117  23.790  25.876  1.00  0.00    -0.246 OA
BRANCH   4   6
ATOM      6  C   UNL A   1      45.417  25.299  25.181  1.00  0.00     0.062 A 
ATOM      7  C   UNL A   1      45.086  27.607  25.835  1.00  0.00     0.070 A 
ATOM      8  C   UNL A   1      43.714  27.460  25.579  1.00  0.00     0.028 A 
ATOM      9  C   UNL A   1      45.938  26.512  25.642  1.00  0.00     0.044 A 
ATOM     10  C   UNL A   1      43.205  26.262  25.077  1.00  0.00     0.003 A 
ATOM     11  C   UNL A   1      44.057  25.181  24.872  1.00  0.00     0.016 A 
BRANCH   7  12
ATOM     12  N   UNL A   1      45.587  28.850  26.272  1.00  0.00    -0.196 N 
ATOM     13  C   UNL A   1      47.943  31.259  27.320  1.00  0.00     0.024 C 
ATOM     14  C   UNL A   1      46.841  30.576  26.987  1.00  0.00     0.065 C 
ATOM     15  C   UNL A   1      46.911  29.145  26.611  1.00  0.00     0.280 C 
ATOM     16  C   UNL A   1      45.411  30.917  26.863  1.00  0.00     0.071 C 
ATOM     17  O   UNL A   1      47.920  28.458  26.601  1.00  0.00    -0.267 OA
ATOM     18  N   UNL A   1      44.704  29.914  26.413  1.00  0.00    -0.169 NA
ATOM     19  C   UNL A   1      44.798  32.229  27.228  1.00  0.00     0.069 C 
BRANCH  13  20
ATOM     20  C   UNL A   1      47.970  32.648  27.762  1.00  0.00    -0.021 A 
ATOM     21  C   UNL A   1      48.257  34.993  27.216  1.00  0.00     0.119 A 
ATOM     22  C   UNL A   1      48.158  35.306  28.573  1.00  0.00     0.046 A 
ATOM     23  C   UNL A   1      48.149  33.664  26.813  1.00  0.00     0.054 A 
ATOM     24  C   UNL A   1      47.927  34.304  29.518  1.00  0.00     0.004 A 
ATOM     25  C   UNL A   1      47.834  32.973  29.113  1.00  0.00     0.008 A 
BRANCH  21  26
ATOM     26  O   UNL A   1      48.513  36.048  26.386  1.00  0.00    -0.497 OA
ATOM     27  C   UNL A   1      49.057  35.724  25.111  1.00  0.00     0.278 C 
ENDBRANCH  21  26
ENDBRANCH  13  20
ENDBRANCH   7  12
ENDBRANCH   4   6
ENDBRANCH   3   4
ENDBRANCH   2   3
ENDBRANCH   1   2
BRANCH   1  28
ATOM     28  O   UNL A   1      44.278  20.220  24.517  1.00  0.00    -0.374 OA
BRANCH  28  29
ATOM     29  C   UNL A   1      44.480  19.085  25.358  1.00  0.00     0.202 C 
BRANCH  29  30
ATOM     30  C   UNL A   1      43.269  18.189  25.651  1.00  0.00     0.261 C 
BRANCH  30  31
ATOM     31  O   UNL A   1      42.437  18.698  26.708  1.00  0.00    -0.460 OA
BRANCH  31  32
ATOM     32  C   UNL A   1      41.380  19.438  26.293  1.00  0.00     0.338 C 
ATOM     33  O   UNL A   1      40.384  19.050  25.708  1.00  0.00    -0.246 OA
BRANCH  32  34
ATOM     34  C   UNL A   1      41.506  20.812  26.813  1.00  0.00     0.060 A 
ATOM     35  C   UNL A   1      41.639  21.851  25.884  1.00  0.00     0.016 A 
ATOM     36  C   UNL A   1      41.554  21.071  28.183  1.00  0.00     0.016 A 
ATOM     37  C   UNL A   1      41.841  23.158  26.324  1.00  0.00     0.010 A 
ATOM     38  C   UNL A   1      41.767  22.382  28.622  1.00  0.00     0.010 A 
ATOM     39  C   UNL A   1      41.931  23.429  27.696  1.00  0.00    -0.014 A 
BRANCH  39  40
ATOM     40  C   UNL A   1      42.271  24.796  28.161  1.00  0.00     0.031 A 
ATOM     41  C   UNL A   1      43.685  25.118  28.559  1.00  0.00     0.074 A 
ATOM     42  C   UNL A   1      41.321  25.747  28.221  1.00  0.00     0.049 A 
ATOM     43  N   UNL A   1      44.175  26.230  29.041  1.00  0.00    -0.248 NA
ATOM     44  C   UNL A   1      44.677  24.042  28.393  1.00  0.00     0.031 C 
ATOM     45  C   UNL A   1      39.924  25.571  27.826  1.00  0.00     0.029 A 
ATOM     46  N   UNL A   1      41.390  27.049  28.647  1.00  0.00    -0.354 N 
ATOM     47  C   UNL A   1      45.528  25.989  29.247  1.00  0.00     0.074 A 
ATOM     48  C   UNL A   1      45.775  24.615  28.863  1.00  0.00     0.031 C 
ATOM     49  C   UNL A   1      39.265  26.724  28.035  1.00  0.00     0.029 A 
ATOM     50  C   UNL A   1      40.181  27.701  28.617  1.00  0.00     0.049 A 
ATOM     51  H   UNL A   1      42.225  27.475  28.947  1.00  0.00     0.167 HD
ATOM     52  C   UNL A   1      46.477  26.836  29.711  1.00  0.00     0.031 A 
ATOM     53  C   UNL A   1      39.844  28.935  29.037  1.00  0.00     0.031 A 
ATOM     54  C   UNL A   1      46.227  28.198  30.105  1.00  0.00     0.049 A 
ATOM     55  C   UNL A   1      40.903  29.827  29.632  1.00  0.00     0.074 A 
ATOM     56  C   UNL A   1      47.131  29.142  30.565  1.00  0.00     0.029 A 
ATOM     57  N   UNL A   1      44.983  28.808  30.098  1.00  0.00    -0.354 N 
ATOM     58  N   UNL A   1      42.185  29.598  29.788  1.00  0.00    -0.248 NA
ATOM     59  C   UNL A   1      40.466  31.149  30.102  1.00  0.00     0.031 C 
ATOM     60  C   UNL A   1      46.421  30.297  30.903  1.00  0.00     0.029 A 
ATOM     61  C   UNL A   1      45.088  30.101  30.584  1.00  0.00     0.049 A 
ATOM     62  H   UNL A   1      44.148  28.385  29.793  1.00  0.00     0.167 HD
ATOM     63  C   UNL A   1      42.711  30.755  30.349  1.00  0.00     0.074 A 
ATOM     64  C   UNL A   1      41.614  31.692  30.484  1.00  0.00     0.031 C 
ATOM     65  C   UNL A   1      43.988  31.020  30.720  1.00  0.00     0.031 A 
BRANCH  52  66
ATOM     66  C   UNL A   1      47.877  26.304  29.857  1.00  0.00    -0.014 A 
ATOM     67  C   UNL A   1      48.375  25.881  31.100  1.00  0.00     0.009 A 
ATOM     68  C   UNL A   1      48.691  26.171  28.720  1.00  0.00     0.009 A 
ATOM     69  C   UNL A   1      49.669  25.364  31.204  1.00  0.00     0.001 A 
ATOM     70  C   UNL A   1      49.972  25.626  28.823  1.00  0.00     0.001 A 
ATOM     71  C   UNL A   1      50.463  25.231  30.066  1.00  0.00     0.000 A 
ENDBRANCH  52  66
BRANCH  53  72
ATOM     72  C   UNL A   1      38.433  29.397  28.949  1.00  0.00    -0.014 A 
ATOM     73  C   UNL A   1      37.932  29.957  27.764  1.00  0.00     0.009 A 
ATOM     74  C   UNL A   1      37.586  29.305  30.066  1.00  0.00     0.009 A 
ATOM     75  C   UNL A   1      36.623  30.444  27.710  1.00  0.00     0.001 A 
ATOM     76  C   UNL A   1      36.267  29.759  29.997  1.00  0.00     0.001 A 
ATOM     77  C   UNL A   1      35.792  30.340  28.824  1.00  0.00     0.000 A 
ENDBRANCH  53  72
BRANCH  65  78
ATOM     78  C   UNL A   1      44.274  32.388  31.280  1.00  0.00    -0.014 A 
ATOM     79  C   UNL A   1      44.398  33.510  30.445  1.00  0.00     0.009 A 
ATOM     80  C   UNL A   1      44.385  32.562  32.669  1.00  0.00     0.009 A 
ATOM     81  C   UNL A   1      44.663  34.769  30.987  1.00  0.00     0.001 A 
ATOM     82  C   UNL A   1      44.616  33.828  33.210  1.00  0.00     0.001 A 
ATOM     83  C   UNL A   1      44.766  34.927  32.369  1.00  0.00     0.000 A 
ENDBRANCH  65  78
ENDBRANCH  39  40
ENDBRANCH  32  34
ENDBRANCH  31  32
ENDBRANCH  30  31
ENDBRANCH  29  30
ENDBRANCH  28  29
ENDBRANCH   1  28
TORSDOF 17
ENDMDL
MODEL 2
REMARK VINA RESULT:      -8.7      6.692     13.164
REMARK SMILES COc1cccc(/C=C2/C(=O)N(c3cccc(C(=O)OCCOCCOC(=O)c4ccc(-c5c6nc(c(-c7ccccc7)c7ccc([nH]7)c(-c7ccccc7)c7nc(c(-c8ccccc8)c8ccc5[nH]8)C=C7)C=C6)cc4)c3)N=C2C)c1
REMARK SMILES IDX 22 1 21 2 20 3 18 4 19 5 17 6 13 7 14 8 77 9 15 10 16 11
REMARK SMILES IDX 12 12 8 13 9 14 10 15 79 16 11 17 78 18 80 19 7 20 3 21 4 22
REMARK SMILES IDX 81 23 5 24 6 25 2 26 1 27 23 28 24 29 25 30 26 31 27 32
REMARK SMILES IDX 28 33 29 34 30 35 76 36 31 37 75 38 32 39 33 40 34 41 69 42
REMARK SMILES IDX 35 43 74 44 68 45 70 46 36 47 73 48 67 49 66 50 37 52 59 53
REMARK SMILES IDX 44 54 58 55 45 56 48 57 57 58 71 59 46 60 47 61 56 63 72 64
REMARK SMILES IDX 49 65 38 66 39 67 43 68 40 69 42 70 41 71 60 72 61 73 65 74
REMARK SMILES IDX 62 75 64 76 63 77 50 78 51 79 55 80 52 81 54 82 53 83
REMARK H PARENT 70 51 48 62
REMARK Flexibility Score: inf
ROOT
ATOM      1  C   UNL A   1      34.163  32.562  29.181  1.00  0.00     0.202 C 
ENDROOT
BRANCH   1   2
ATOM      2  C   UNL A   1      34.406  31.900  27.820  1.00  0.00     0.261 C 
BRANCH   2   3
ATOM      3  O   UNL A   1      33.489  30.823  27.571  1.00  0.00    -0.460 OA
BRANCH   3   4
ATOM      4  C   UNL A   1      32.349  31.174  26.920  1.00  0.00     0.338 C 
ATOM      5  O   UNL A   1      31.800  32.261  26.936  1.00  0.00    -0.246 OA
BRANCH   4   6
ATOM      6  C   UNL A   1      31.972  30.091  25.984  1.00  0.00     0.062 A 
ATOM      7  C   UNL A   1      32.334  27.919  24.972  1.00  0.00     0.070 A 
ATOM      8  C   UNL A   1      31.343  28.220  24.025  1.00  0.00     0.028 A 
ATOM      9  C   UNL A   1      32.654  28.870  25.950  1.00  0.00     0.044 A 
ATOM     10  C   UNL A   1      30.634  29.421  24.088  1.00  0.00     0.003 A 
ATOM     11  C   UNL A   1      30.945  30.355  25.071  1.00  0.00     0.016 A 
BRANCH   7  12
ATOM     12  N   UNL A   1      32.984  26.670  24.932  1.00  0.00    -0.196 N 
ATOM     13  C   UNL A   1      34.753  23.927  23.590  1.00  0.00     0.024 C 
ATOM     14  C   UNL A   1      34.074  24.786  24.360  1.00  0.00     0.065 C 
ATOM     15  C   UNL A   1      33.540  26.052  23.808  1.00  0.00     0.280 C 
ATOM     16  C   UNL A   1      33.688  24.817  25.784  1.00  0.00     0.071 C 
ATOM     17  O   UNL A   1      33.622  26.415  22.645  1.00  0.00    -0.267 OA
ATOM     18  N   UNL A   1      33.088  25.933  26.105  1.00  0.00    -0.169 NA
ATOM     19  C   UNL A   1      33.908  23.714  26.765  1.00  0.00     0.069 C 
BRANCH  13  20
ATOM     20  C   UNL A   1      35.264  22.632  24.024  1.00  0.00    -0.021 A 
ATOM     21  C   UNL A   1      34.820  20.342  24.686  1.00  0.00     0.119 A 
ATOM     22  C   UNL A   1      36.175  20.178  24.975  1.00  0.00     0.046 A 
ATOM     23  C   UNL A   1      34.369  21.567  24.197  1.00  0.00     0.054 A 
ATOM     24  C   UNL A   1      37.080  21.218  24.754  1.00  0.00     0.004 A 
ATOM     25  C   UNL A   1      36.625  22.448  24.279  1.00  0.00     0.008 A 
BRANCH  21  26
ATOM     26  O   UNL A   1      34.022  19.269  24.969  1.00  0.00    -0.497 OA
ATOM     27  C   UNL A   1      34.411  18.028  24.389  1.00  0.00     0.278 C 
ENDBRANCH  21  26
ENDBRANCH  13  20
ENDBRANCH   7  12
ENDBRANCH   4   6
ENDBRANCH   3   4
ENDBRANCH   2   3
ENDBRANCH   1   2
BRANCH   1  28
ATOM     28  O   UNL A   1      34.502  33.941  29.317  1.00  0.00    -0.374 OA
BRANCH  28  29
ATOM     29  C   UNL A   1      33.590  34.898  28.779  1.00  0.00     0.202 C 
BRANCH  29  30
ATOM     30  C   UNL A   1      32.936  35.887  29.754  1.00  0.00     0.261 C 
BRANCH  30  31
ATOM     31  O   UNL A   1      32.392  35.246  30.921  1.00  0.00    -0.460 OA
BRANCH  31  32
ATOM     32  C   UNL A   1      32.811  35.764  32.101  1.00  0.00     0.338 C 
ATOM     33  O   UNL A   1      32.267  36.624  32.772  1.00  0.00    -0.246 OA
BRANCH  32  34
ATOM     34  C   UNL A   1      33.976  35.002  32.587  1.00  0.00     0.060 A 
ATOM     35  C   UNL A   1      35.237  35.602  32.486  1.00  0.00     0.016 A 
ATOM     36  C   UNL A   1      33.843  33.702  33.076  1.00  0.00     0.016 A 
ATOM     37  C   UNL A   1      36.378  34.894  32.857  1.00  0.00     0.010 A 
ATOM     38  C   UNL A   1      34.992  32.989  33.438  1.00  0.00     0.010 A 
ATOM     39  C   UNL A   1      36.265  33.573  33.313  1.00  0.00    -0.014 A 
BRANCH  39  40
ATOM     40  C   UNL A   1      37.487  32.777  33.588  1.00  0.00     0.031 A 
ATOM     41  C   UNL A   1      38.253  33.006  34.862  1.00  0.00     0.074 A 
ATOM     42  C   UNL A   1      37.906  31.852  32.706  1.00  0.00     0.049 A 
ATOM     43  N   UNL A   1      39.370  32.457  35.264  1.00  0.00    -0.248 NA
ATOM     44  C   UNL A   1      37.686  33.983  35.805  1.00  0.00     0.031 C 
ATOM     45  C   UNL A   1      37.229  31.510  31.455  1.00  0.00     0.029 A 
ATOM     46  N   UNL A   1      39.009  31.036  32.727  1.00  0.00    -0.354 N 
ATOM     47  C   UNL A   1      39.648  33.027  36.501  1.00  0.00     0.074 A 
ATOM     48  C   UNL A   1      38.596  33.985  36.769  1.00  0.00     0.031 C 
ATOM     49  C   UNL A   1      37.937  30.557  30.825  1.00  0.00     0.029 A 
ATOM     50  C   UNL A   1      39.135  30.255  31.604  1.00  0.00     0.049 A 
ATOM     51  H   UNL A   1      39.648  31.014  33.475  1.00  0.00     0.167 HD
ATOM     52  C   UNL A   1      40.682  32.773  37.336  1.00  0.00     0.031 A 
ATOM     53  C   UNL A   1      40.118  29.414  31.233  1.00  0.00     0.031 A 
ATOM     54  C   UNL A   1      41.735  31.829  37.062  1.00  0.00     0.049 A 
ATOM     55  C   UNL A   1      41.303  29.215  32.142  1.00  0.00     0.074 A 
ATOM     56  C   UNL A   1      42.813  31.485  37.859  1.00  0.00     0.029 A 
ATOM     57  N   UNL A   1      41.848  31.088  35.896  1.00  0.00    -0.354 N 
ATOM     58  N   UNL A   1      41.535  29.734  33.323  1.00  0.00    -0.248 NA
ATOM     59  C   UNL A   1      42.357  28.310  31.665  1.00  0.00     0.031 C 
ATOM     60  C   UNL A   1      43.616  30.591  37.146  1.00  0.00     0.029 A 
ATOM     61  C   UNL A   1      43.000  30.320  35.935  1.00  0.00     0.049 A 
ATOM     62  H   UNL A   1      41.205  31.105  35.150  1.00  0.00     0.167 HD
ATOM     63  C   UNL A   1      42.746  29.199  33.742  1.00  0.00     0.074 A 
ATOM     64  C   UNL A   1      43.189  28.297  32.698  1.00  0.00     0.031 C 
ATOM     65  C   UNL A   1      43.433  29.432  34.888  1.00  0.00     0.031 A 
BRANCH  52  66
ATOM     66  C   UNL A   1      40.753  33.557  38.619  1.00  0.00    -0.014 A 
ATOM     67  C   UNL A   1      41.411  34.796  38.685  1.00  0.00     0.009 A 
ATOM     68  C   UNL A   1      40.101  33.073  39.765  1.00  0.00     0.009 A 
ATOM     69  C   UNL A   1      41.438  35.517  39.882  1.00  0.00     0.001 A 
ATOM     70  C   UNL A   1      40.105  33.811  40.949  1.00  0.00     0.001 A 
ATOM     71  C   UNL A   1      40.780  35.029  41.010  1.00  0.00     0.000 A 
ENDBRANCH  52  66
BRANCH  53  72
ATOM     72  C   UNL A   1      40.050  28.716  29.920  1.00  0.00    -0.014 A 
ATOM     73  C   UNL A   1      40.484  29.351  28.746  1.00  0.00     0.009 A 
ATOM     74  C   UNL A   1      39.523  27.418  29.833  1.00  0.00     0.009 A 
ATOM     75  C   UNL A   1      40.361  28.711  27.509  1.00  0.00     0.001 A 
ATOM     76  C   UNL A   1      39.434  26.768  28.600  1.00  0.00     0.001 A 
ATOM     77  C   UNL A   1      39.841  27.420  27.439  1.00  0.00     0.000 A 
ENDBRANCH  53  72
BRANCH  65  78
ATOM     78  C   UNL A   1      44.721  28.677  35.087  1.00  0.00    -0.014 A 
ATOM     79  C   UNL A   1      44.757  27.465  35.793  1.00  0.00     0.009 A 
ATOM     80  C   UNL A   1      45.909  29.171  34.524  1.00  0.00     0.009 A 
ATOM     81  C   UNL A   1      45.964  26.782  35.964  1.00  0.00     0.001 A 
ATOM     82  C   UNL A   1      47.107  28.469  34.668  1.00  0.00     0.001 A 
ATOM     83  C   UNL A   1      47.135  27.282  35.397  1.00  0.00     0.000 A 
ENDBRANCH  65  78
ENDBRANCH  39  40
ENDBRANCH  32  34
ENDBRANCH  31  32
ENDBRANCH  30  31
ENDBRANCH  29  30
ENDBRANCH  28  29
ENDBRANCH   1  28
TORSDOF 17
ENDMDL
MODEL 3
REMARK VINA RESULT:      -8.7      5.833     11.387
REMARK SMILES COc1cccc(/C=C2/C(=O)N(c3cccc(C(=O)OCCOCCOC(=O)c4ccc(-c5c6nc(c(-c7ccccc7)c7ccc([nH]7)c(-c7ccccc7)c7nc(c(-c8ccccc8)c8ccc5[nH]8)C=C7)C=C6)cc4)c3)N=C2C)c1
REMARK SMILES IDX 22 1 21 2 20 3 18 4 19 5 17 6 13 7 14 8 77 9 15 10 16 11
REMARK SMILES IDX 12 12 8 13 9 14 10 15 79 16 11 17 78 18 80 19 7 20 3 21 4 22
REMARK SMILES IDX 81 23 5 24 6 25 2 26 1 27 23 28 24 29 25 30 26 31 27 32
REMARK SMILES IDX 28 33 29 34 30 35 76 36 31 37 75 38 32 39 33 40 34 41 69 42
REMARK SMILES IDX 35 43 74 44 68 45 70 46 36 47 73 48 67 49 66 50 37 52 59 53
REMARK SMILES IDX 44 54 58 55 45 56 48 57 57 58 71 59 46 60 47 61 56 63 72 64
REMARK SMILES IDX 49 65 38 66 39 67 43 68 40 69 42 70 41 71 60 72 61 73 65 74
REMARK SMILES IDX 62 75 64 76 63 77 50 78 51 79 55 80 52 81 54 82 53 83
REMARK H PARENT 70 51 48 62
REMARK Flexibility Score: inf
ROOT
ATOM      1  C   UNL A   1      36.434  22.312  24.237  1.00  0.00     0.202 C 
ENDROOT
BRANCH   1   2
ATOM      2  C   UNL A   1      35.031  22.850  23.933  1.00  0.00     0.261 C 
BRANCH   2   3
ATOM      3  O   UNL A   1      34.003  21.924  24.314  1.00  0.00    -0.460 OA
BRANCH   3   4
ATOM      4  C   UNL A   1      32.822  22.071  23.658  1.00  0.00     0.338 C 
ATOM      5  O   UNL A   1      32.406  21.396  22.734  1.00  0.00    -0.246 OA
BRANCH   4   6
ATOM      6  C   UNL A   1      31.984  23.052  24.385  1.00  0.00     0.062 A 
ATOM      7  C   UNL A   1      30.871  25.197  24.559  1.00  0.00     0.070 A 
ATOM      8  C   UNL A   1      30.620  24.932  25.914  1.00  0.00     0.028 A 
ATOM      9  C   UNL A   1      31.567  24.251  23.796  1.00  0.00     0.044 A 
ATOM     10  C   UNL A   1      30.998  23.717  26.487  1.00  0.00     0.003 A 
ATOM     11  C   UNL A   1      31.676  22.773  25.721  1.00  0.00     0.016 A 
BRANCH   7  12
ATOM     12  N   UNL A   1      30.415  26.401  23.985  1.00  0.00    -0.196 N 
ATOM     13  C   UNL A   1      28.148  28.917  22.995  1.00  0.00     0.024 C 
ATOM     14  C   UNL A   1      29.218  28.141  23.211  1.00  0.00     0.065 C 
ATOM     15  C   UNL A   1      29.089  26.835  23.898  1.00  0.00     0.280 C 
ATOM     16  C   UNL A   1      30.661  28.267  22.931  1.00  0.00     0.071 C 
ATOM     17  O   UNL A   1      28.047  26.332  24.286  1.00  0.00    -0.267 OA
ATOM     18  N   UNL A   1      31.344  27.265  23.419  1.00  0.00    -0.169 NA
ATOM     19  C   UNL A   1      31.300  29.372  22.158  1.00  0.00     0.069 C 
BRANCH  13  20
ATOM     20  C   UNL A   1      28.162  30.186  22.277  1.00  0.00    -0.021 A 
ATOM     21  C   UNL A   1      28.380  32.601  22.335  1.00  0.00     0.119 A 
ATOM     22  C   UNL A   1      28.072  32.647  20.975  1.00  0.00     0.046 A 
ATOM     23  C   UNL A   1      28.437  31.367  22.981  1.00  0.00     0.054 A 
ATOM     24  C   UNL A   1      27.850  31.470  20.256  1.00  0.00     0.004 A 
ATOM     25  C   UNL A   1      27.893  30.238  20.907  1.00  0.00     0.008 A 
BRANCH  21  26
ATOM     26  O   UNL A   1      28.549  33.813  22.943  1.00  0.00    -0.497 OA
ATOM     27  C   UNL A   1      29.754  33.982  23.682  1.00  0.00     0.278 C 
ENDBRANCH  21  26
ENDBRANCH  13  20
ENDBRANCH   7  12
ENDBRANCH   4   6
ENDBRANCH   3   4
ENDBRANCH   2   3
ENDBRANCH   1   2
BRANCH   1  28
ATOM     28  O   UNL A   1      36.539  21.204  25.128  1.00  0.00    -0.374 OA
BRANCH  28  29
ATOM     29  C   UNL A   1      37.541  20.226  24.847  1.00  0.00     0.202 C 
BRANCH  29  30
ATOM     30  C   UNL A   1      38.959  20.487  25.373  1.00  0.00     0.261 C 
BRANCH  30  31
ATOM     31  O   UNL A   1      39.667  19.278  25.700  1.00  0.00    -0.460 OA
BRANCH  31  32
ATOM     32  C   UNL A   1      40.990  19.444  25.946  1.00  0.00     0.338 C 
ATOM     33  O   UNL A   1      41.904  18.706  25.625  1.00  0.00    -0.246 OA
BRANCH  32  34
ATOM     34  C   UNL A   1      41.219  20.779  26.527  1.00  0.00     0.060 A 
ATOM     35  C   UNL A   1      41.697  21.786  25.680  1.00  0.00     0.016 A 
ATOM     36  C   UNL A   1      41.027  21.025  27.887  1.00  0.00     0.016 A 
ATOM     37  C   UNL A   1      42.005  23.043  26.196  1.00  0.00     0.010 A 
ATOM     38  C   UNL A   1      41.347  22.285  28.404  1.00  0.00     0.010 A 
ATOM     39  C   UNL A   1      41.855  23.294  27.566  1.00  0.00    -0.014 A 
BRANCH  39  40
ATOM     40  C   UNL A   1      42.301  24.590  28.136  1.00  0.00     0.031 A 
ATOM     41  C   UNL A   1      41.305  25.699  28.332  1.00  0.00     0.074 A 
ATOM     42  C   UNL A   1      43.588  24.771  28.480  1.00  0.00     0.049 A 
ATOM     43  N   UNL A   1      41.500  26.919  28.761  1.00  0.00    -0.248 NA
ATOM     44  C   UNL A   1      39.904  25.393  27.998  1.00  0.00     0.031 C 
ATOM     45  C   UNL A   1      44.641  23.761  28.376  1.00  0.00     0.029 A 
ATOM     46  N   UNL A   1      44.229  25.876  28.981  1.00  0.00    -0.354 N 
ATOM     47  C   UNL A   1      40.253  27.532  28.740  1.00  0.00     0.074 A 
ATOM     48  C   UNL A   1      39.313  26.556  28.229  1.00  0.00     0.031 C 
ATOM     49  C   UNL A   1      45.800  24.297  28.795  1.00  0.00     0.029 A 
ATOM     50  C   UNL A   1      45.580  25.695  29.154  1.00  0.00     0.049 A 
ATOM     51  H   UNL A   1      43.765  26.718  29.195  1.00  0.00     0.167 HD
ATOM     52  C   UNL A   1      39.922  28.790  29.115  1.00  0.00     0.031 A 
ATOM     53  C   UNL A   1      46.535  26.566  29.532  1.00  0.00     0.031 A 
ATOM     54  C   UNL A   1      40.861  29.763  29.611  1.00  0.00     0.049 A 
ATOM     55  C   UNL A   1      46.152  27.986  29.860  1.00  0.00     0.074 A 
ATOM     56  C   UNL A   1      40.615  31.056  30.039  1.00  0.00     0.029 A 
ATOM     57  N   UNL A   1      42.225  29.554  29.733  1.00  0.00    -0.354 N 
ATOM     58  N   UNL A   1      44.965  28.541  29.869  1.00  0.00    -0.248 NA
ATOM     59  C   UNL A   1      47.245  28.895  30.233  1.00  0.00     0.031 C 
ATOM     60  C   UNL A   1      41.840  31.653  30.352  1.00  0.00     0.029 A 
ATOM     61  C   UNL A   1      42.840  30.708  30.190  1.00  0.00     0.049 A 
ATOM     62  H   UNL A   1      42.689  28.711  29.525  1.00  0.00     0.167 HD
ATOM     63  C   UNL A   1      45.164  29.855  30.274  1.00  0.00     0.074 A 
ATOM     64  C   UNL A   1      46.583  30.007  30.523  1.00  0.00     0.031 C 
ATOM     65  C   UNL A   1      44.253  30.849  30.427  1.00  0.00     0.031 A 
BRANCH  52  66
ATOM     66  C   UNL A   1      38.483  29.207  28.968  1.00  0.00    -0.014 A 
ATOM     67  C   UNL A   1      37.585  29.135  30.045  1.00  0.00     0.009 A 
ATOM     68  C   UNL A   1      38.036  29.734  27.746  1.00  0.00     0.009 A 
ATOM     69  C   UNL A   1      36.262  29.554  29.889  1.00  0.00     0.001 A 
ATOM     70  C   UNL A   1      36.721  30.180  27.603  1.00  0.00     0.001 A 
ATOM     71  C   UNL A   1      35.832  30.083  28.673  1.00  0.00     0.000 A 
ENDBRANCH  52  66
BRANCH  53  72
ATOM     72  C   UNL A   1      47.958  26.137  29.589  1.00  0.00    -0.014 A 
ATOM     73  C   UNL A   1      48.562  25.805  30.812  1.00  0.00     0.009 A 
ATOM     74  C   UNL A   1      48.731  26.086  28.417  1.00  0.00     0.009 A 
ATOM     75  C   UNL A   1      49.916  25.462  30.863  1.00  0.00     0.001 A 
ATOM     76  C   UNL A   1      50.074  25.708  28.467  1.00  0.00     0.001 A 
ATOM     77  C   UNL A   1      50.668  25.410  29.691  1.00  0.00     0.000 A 
ENDBRANCH  53  72
BRANCH  65  78
ATOM     78  C   UNL A   1      44.760  32.180  30.914  1.00  0.00    -0.014 A 
ATOM     79  C   UNL A   1      44.898  32.455  32.283  1.00  0.00     0.009 A 
ATOM     80  C   UNL A   1      45.142  33.161  29.983  1.00  0.00     0.009 A 
ATOM     81  C   UNL A   1      45.371  33.697  32.711  1.00  0.00     0.001 A 
ATOM     82  C   UNL A   1      45.646  34.390  30.414  1.00  0.00     0.001 A 
ATOM     83  C   UNL A   1      45.750  34.660  31.776  1.00  0.00     0.000 A 
ENDBRANCH  65  78
ENDBRANCH  39  40
ENDBRANCH  32  34
ENDBRANCH  31  32
ENDBRANCH  30  31
ENDBRANCH  29  30
ENDBRANCH  28  29
ENDBRANCH   1  28
TORSDOF 17
ENDMDL
