MODEL 1
REMARK VINA RESULT:      -9.5      0.000      0.000
REMARK SMILES CC1(C)Cc2c(-c3ccccc3)c(-c3ccc(Cl)cc3)c(CC(=O)OCCOCCOC(=O)c3ccc(-c4c5nc(c(-c6ccccc6)c6ccc([nH]6)c(-c6ccccc6)c6nc(c(-c7ccccc7)c7ccc4[nH]7)C=C6)C=C5)cc3)n2C1
REMARK SMILES IDX 28 1 27 2 26 3 25 4 23 5 24 6 22 7 21 8 1 9 2 10 3 11 4 12
REMARK SMILES IDX 83 13 5 14 82 15 6 16 13 17 7 18 8 19 12 20 9 21 11 22 10 23
REMARK SMILES IDX 14 24 15 25 20 26 16 27 19 28 17 29 18 30 29 31 30 32 31 33
REMARK SMILES IDX 32 34 33 35 34 36 35 37 81 38 36 39 80 40 37 41 38 42 39 43
REMARK SMILES IDX 74 44 40 45 79 46 73 47 75 48 41 49 78 50 72 51 71 52 42 54
REMARK SMILES IDX 64 55 49 56 63 57 50 58 53 59 62 60 76 61 51 62 52 63 61 65
REMARK SMILES IDX 77 66 54 67 43 68 44 69 48 70 45 71 47 72 46 73 65 74 66 75
REMARK SMILES IDX 70 76 67 77 69 78 68 79 55 80 56 81 60 82 57 83 59 84 58 85
REMARK H PARENT 75 53 53 64
REMARK Flexibility Score: inf
ROOT
ATOM      1  O   UNL A   1      46.443  21.212  24.780  1.00  0.00    -0.374 OA
ENDROOT
BRANCH   1   2
ATOM      2  C   UNL A   1      45.302  20.426  25.075  1.00  0.00     0.202 C 
BRANCH   2   3
ATOM      3  C   UNL A   1      44.161  21.166  25.788  1.00  0.00     0.261 C 
BRANCH   3   4
ATOM      4  O   UNL A   1      42.868  20.945  25.174  1.00  0.00    -0.463 OA
BRANCH   4   5
ATOM      5  C   UNL A   1      42.033  20.073  25.787  1.00  0.00     0.311 C 
ATOM      6  O   UNL A   1      42.088  18.857  25.613  1.00  0.00    -0.252 OA
BRANCH   5   7
ATOM      7  C   UNL A   1      41.054  20.670  26.792  1.00  0.00     0.177 C 
BRANCH   7   8
ATOM      8  C   UNL A   1      40.552  22.088  26.637  1.00  0.00     0.037 A 
ATOM      9  C   UNL A   1      35.652  22.324  26.044  1.00  0.00     0.013 C 
ATOM     10  C   UNL A   1      37.035  22.677  25.486  1.00  0.00    -0.012 C 
ATOM     11  C   UNL A   1      36.935  22.854  23.962  1.00  0.00     0.013 C 
ATOM     12  C   UNL A   1      37.555  23.997  26.125  1.00  0.00     0.063 C 
ATOM     13  C   UNL A   1      38.104  21.595  25.851  1.00  0.00     0.129 C 
ATOM     14  C   UNL A   1      38.977  23.697  26.400  1.00  0.00     0.027 A 
ATOM     15  N   UNL A   1      39.279  22.379  26.223  1.00  0.00    -0.346 N 
ATOM     16  C   UNL A   1      40.090  24.345  26.855  1.00  0.00     0.011 A 
ATOM     17  C   UNL A   1      41.091  23.321  27.064  1.00  0.00     0.011 A 
BRANCH  16  18
ATOM     18  C   UNL A   1      40.137  25.767  27.162  1.00  0.00    -0.016 A 
ATOM     19  C   UNL A   1      40.804  26.676  26.330  1.00  0.00     0.009 A 
ATOM     20  C   UNL A   1      39.475  26.245  28.296  1.00  0.00     0.009 A 
ATOM     21  C   UNL A   1      40.828  28.036  26.644  1.00  0.00     0.001 A 
ATOM     22  C   UNL A   1      39.461  27.608  28.582  1.00  0.00     0.001 A 
ATOM     23  C   UNL A   1      40.154  28.500  27.768  1.00  0.00     0.000 A 
ENDBRANCH  16  18
BRANCH  17  24
ATOM     24  C   UNL A   1      42.352  23.562  27.779  1.00  0.00    -0.016 A 
ATOM     25  C   UNL A   1      42.460  23.196  29.129  1.00  0.00     0.010 A 
ATOM     26  C   UNL A   1      43.339  24.400  27.258  1.00  0.00     0.010 A 
ATOM     27  C   UNL A   1      43.501  23.693  29.929  1.00  0.00     0.021 A 
ATOM     28  C   UNL A   1      44.381  24.900  28.045  1.00  0.00     0.021 A 
ATOM     29  C   UNL A   1      44.450  24.555  29.385  1.00  0.00     0.041 A 
ATOM     30  Cl  UNL A   1      45.679  25.235  30.377  1.00  0.00    -0.084 Cl
ENDBRANCH  17  24
ENDBRANCH   7   8
ENDBRANCH   5   7
ENDBRANCH   4   5
ENDBRANCH   3   4
ENDBRANCH   2   3
ENDBRANCH   1   2
BRANCH   1  31
ATOM     31  C   UNL A   1      46.240  22.509  24.233  1.00  0.00     0.202 C 
BRANCH  31  32
ATOM     32  C   UNL A   1      46.690  23.749  25.010  1.00  0.00     0.261 C 
BRANCH  32  33
ATOM     33  O   UNL A   1      46.188  24.970  24.483  1.00  0.00    -0.460 OA
BRANCH  33  34
ATOM     34  C   UNL A   1      47.042  25.982  24.706  1.00  0.00     0.338 C 
ATOM     35  O   UNL A   1      48.146  26.082  24.209  1.00  0.00    -0.246 OA
BRANCH  34  36
ATOM     36  C   UNL A   1      46.429  26.969  25.617  1.00  0.00     0.060 A 
ATOM     37  C   UNL A   1      45.105  27.313  25.356  1.00  0.00     0.016 A 
ATOM     38  C   UNL A   1      47.149  27.588  26.658  1.00  0.00     0.016 A 
ATOM     39  C   UNL A   1      44.503  28.283  26.132  1.00  0.00     0.010 A 
ATOM     40  C   UNL A   1      46.562  28.590  27.403  1.00  0.00     0.010 A 
ATOM     41  C   UNL A   1      45.238  28.920  27.139  1.00  0.00    -0.014 A 
BRANCH  41  42
ATOM     42  C   UNL A   1      44.517  29.787  28.043  1.00  0.00     0.031 A 
ATOM     43  C   UNL A   1      44.566  31.220  27.701  1.00  0.00     0.074 A 
ATOM     44  C   UNL A   1      43.794  29.374  29.093  1.00  0.00     0.049 A 
ATOM     45  N   UNL A   1      45.182  32.135  28.368  1.00  0.00    -0.248 NA
ATOM     46  C   UNL A   1      43.941  31.680  26.455  1.00  0.00     0.031 C 
ATOM     47  C   UNL A   1      43.434  28.013  29.453  1.00  0.00     0.029 A 
ATOM     48  N   UNL A   1      43.152  30.133  30.019  1.00  0.00    -0.354 N 
ATOM     49  C   UNL A   1      44.897  33.327  27.725  1.00  0.00     0.074 A 
ATOM     50  C   UNL A   1      44.233  32.981  26.490  1.00  0.00     0.031 C 
ATOM     51  C   UNL A   1      42.450  28.047  30.380  1.00  0.00     0.029 A 
ATOM     52  C   UNL A   1      42.241  29.426  30.781  1.00  0.00     0.049 A 
ATOM     53  H   UNL A   1      43.319  31.096  30.135  1.00  0.00     0.167 HD
ATOM     54  C   UNL A   1      45.043  34.520  28.358  1.00  0.00     0.031 A 
ATOM     55  C   UNL A   1      41.355  29.948  31.657  1.00  0.00     0.031 A 
ATOM     56  C   UNL A   1      45.848  34.417  29.548  1.00  0.00     0.049 A 
ATOM     57  C   UNL A   1      41.892  31.248  32.117  1.00  0.00     0.074 A 
ATOM     58  C   UNL A   1      47.134  33.987  29.814  1.00  0.00     0.029 A 
ATOM     59  N   UNL A   1      45.204  34.440  30.762  1.00  0.00    -0.354 N 
ATOM     60  N   UNL A   1      42.958  31.354  32.858  1.00  0.00    -0.248 NA
ATOM     61  C   UNL A   1      41.485  32.469  31.440  1.00  0.00     0.031 C 
ATOM     62  C   UNL A   1      47.055  33.332  31.079  1.00  0.00     0.029 A 
ATOM     63  C   UNL A   1      45.735  33.427  31.523  1.00  0.00     0.049 A 
ATOM     64  H   UNL A   1      44.496  35.065  31.035  1.00  0.00     0.167 HD
ATOM     65  C   UNL A   1      43.600  32.492  32.391  1.00  0.00     0.074 A 
ATOM     66  C   UNL A   1      42.581  33.210  31.631  1.00  0.00     0.031 C 
ATOM     67  C   UNL A   1      44.963  32.596  32.422  1.00  0.00     0.031 A 
BRANCH  54  68
ATOM     68  C   UNL A   1      44.153  35.697  28.081  1.00  0.00    -0.014 A 
ATOM     69  C   UNL A   1      42.784  35.604  28.375  1.00  0.00     0.009 A 
ATOM     70  C   UNL A   1      44.569  36.797  27.306  1.00  0.00     0.009 A 
ATOM     71  C   UNL A   1      41.875  36.550  27.889  1.00  0.00     0.001 A 
ATOM     72  C   UNL A   1      43.672  37.767  26.857  1.00  0.00     0.001 A 
ATOM     73  C   UNL A   1      42.319  37.630  27.132  1.00  0.00     0.000 A 
ENDBRANCH  54  68
BRANCH  55  74
ATOM     74  C   UNL A   1      39.986  29.480  31.935  1.00  0.00    -0.014 A 
ATOM     75  C   UNL A   1      38.873  30.176  31.445  1.00  0.00     0.009 A 
ATOM     76  C   UNL A   1      39.778  28.195  32.473  1.00  0.00     0.009 A 
ATOM     77  C   UNL A   1      37.601  29.592  31.464  1.00  0.00     0.001 A 
ATOM     78  C   UNL A   1      38.508  27.614  32.496  1.00  0.00     0.001 A 
ATOM     79  C   UNL A   1      37.421  28.308  31.977  1.00  0.00     0.000 A 
ENDBRANCH  55  74
BRANCH  67  80
ATOM     80  C   UNL A   1      45.730  31.559  33.212  1.00  0.00    -0.014 A 
ATOM     81  C   UNL A   1      46.342  30.446  32.610  1.00  0.00     0.009 A 
ATOM     82  C   UNL A   1      45.967  31.782  34.577  1.00  0.00     0.009 A 
ATOM     83  C   UNL A   1      47.129  29.561  33.355  1.00  0.00     0.001 A 
ATOM     84  C   UNL A   1      46.772  30.912  35.318  1.00  0.00     0.001 A 
ATOM     85  C   UNL A   1      47.346  29.797  34.709  1.00  0.00     0.000 A 
ENDBRANCH  67  80
ENDBRANCH  41  42
ENDBRANCH  34  36
ENDBRANCH  33  34
ENDBRANCH  32  33
ENDBRANCH  31  32
ENDBRANCH   1  31
TORSDOF 17
ENDMDL
MODEL 2
REMARK VINA RESULT:      -8.9      7.631     15.053
REMARK SMILES CC1(C)Cc2c(-c3ccccc3)c(-c3ccc(Cl)cc3)c(CC(=O)OCCOCCOC(=O)c3ccc(-c4c5nc(c(-c6ccccc6)c6ccc([nH]6)c(-c6ccccc6)c6nc(c(-c7ccccc7)c7ccc4[nH]7)C=C6)C=C5)cc3)n2C1
REMARK SMILES IDX 28 1 27 2 26 3 25 4 23 5 24 6 22 7 21 8 1 9 2 10 3 11 4 12
REMARK SMILES IDX 83 13 5 14 82 15 6 16 13 17 7 18 8 19 12 20 9 21 11 22 10 23
REMARK SMILES IDX 14 24 15 25 20 26 16 27 19 28 17 29 18 30 29 31 30 32 31 33
REMARK SMILES IDX 32 34 33 35 34 36 35 37 81 38 36 39 80 40 37 41 38 42 39 43
REMARK SMILES IDX 74 44 40 45 79 46 73 47 75 48 41 49 78 50 72 51 71 52 42 54
REMARK SMILES IDX 64 55 49 56 63 57 50 58 53 59 62 60 76 61 51 62 52 63 61 65
REMARK SMILES IDX 77 66 54 67 43 68 44 69 48 70 45 71 47 72 46 73 65 74 66 75
REMARK SMILES IDX 70 76 67 77 69 78 68 79 55 80 56 81 60 82 57 83 59 84 58 85
REMARK H PARENT 75 53 53 64
REMARK Flexibility Score: inf
ROOT
ATOM      1  O   UNL A   1      42.852  40.356  26.696  1.00  0.00    -0.374 OA
ENDROOT
BRANCH   1   2
ATOM      2  C   UNL A   1      41.908  40.765  25.721  1.00  0.00     0.202 C 
BRANCH   2   3
ATOM      3  C   UNL A   1      42.446  41.724  24.649  1.00  0.00     0.261 C 
BRANCH   3   4
ATOM      4  O   UNL A   1      41.907  41.463  23.331  1.00  0.00    -0.463 OA
BRANCH   4   5
ATOM      5  C   UNL A   1      41.745  42.526  22.507  1.00  0.00     0.311 C 
ATOM      6  O   UNL A   1      41.257  43.592  22.876  1.00  0.00    -0.252 OA
BRANCH   5   7
ATOM      7  C   UNL A   1      42.286  42.369  21.090  1.00  0.00     0.177 C 
BRANCH   7   8
ATOM      8  C   UNL A   1      43.338  43.312  20.553  1.00  0.00     0.037 A 
ATOM      9  C   UNL A   1      41.682  46.096  16.821  1.00  0.00     0.013 C 
ATOM     10  C   UNL A   1      42.731  45.091  17.311  1.00  0.00    -0.012 C 
ATOM     11  C   UNL A   1      43.307  44.333  16.105  1.00  0.00     0.013 C 
ATOM     12  C   UNL A   1      43.882  45.831  18.053  1.00  0.00     0.063 C 
ATOM     13  C   UNL A   1      42.138  44.097  18.363  1.00  0.00     0.129 C 
ATOM     14  C   UNL A   1      44.133  44.966  19.225  1.00  0.00     0.027 A 
ATOM     15  N   UNL A   1      43.185  43.999  19.377  1.00  0.00    -0.346 N 
ATOM     16  C   UNL A   1      45.013  44.886  20.268  1.00  0.00     0.011 A 
ATOM     17  C   UNL A   1      44.488  43.868  21.155  1.00  0.00     0.011 A 
BRANCH  16  18
ATOM     18  C   UNL A   1      46.155  45.770  20.441  1.00  0.00    -0.016 A 
ATOM     19  C   UNL A   1      45.997  47.105  20.833  1.00  0.00     0.009 A 
ATOM     20  C   UNL A   1      47.445  45.268  20.242  1.00  0.00     0.009 A 
ATOM     21  C   UNL A   1      47.111  47.930  21.000  1.00  0.00     0.001 A 
ATOM     22  C   UNL A   1      48.557  46.080  20.454  1.00  0.00     0.001 A 
ATOM     23  C   UNL A   1      48.390  47.415  20.812  1.00  0.00     0.000 A 
ENDBRANCH  16  18
BRANCH  17  24
ATOM     24  C   UNL A   1      45.001  43.643  22.514  1.00  0.00    -0.016 A 
ATOM     25  C   UNL A   1      44.683  44.556  23.530  1.00  0.00     0.010 A 
ATOM     26  C   UNL A   1      46.024  42.729  22.766  1.00  0.00     0.010 A 
ATOM     27  C   UNL A   1      45.399  44.568  24.738  1.00  0.00     0.021 A 
ATOM     28  C   UNL A   1      46.744  42.731  23.965  1.00  0.00     0.021 A 
ATOM     29  C   UNL A   1      46.437  43.663  24.943  1.00  0.00     0.041 A 
ATOM     30  Cl  UNL A   1      47.375  43.726  26.383  1.00  0.00    -0.084 Cl
ENDBRANCH  17  24
ENDBRANCH   7   8
ENDBRANCH   5   7
ENDBRANCH   4   5
ENDBRANCH   3   4
ENDBRANCH   2   3
ENDBRANCH   1   2
BRANCH   1  31
ATOM     31  C   UNL A   1      43.058  38.963  26.887  1.00  0.00     0.202 C 
BRANCH  31  32
ATOM     32  C   UNL A   1      44.480  38.401  26.973  1.00  0.00     0.261 C 
BRANCH  32  33
ATOM     33  O   UNL A   1      44.540  36.982  26.929  1.00  0.00    -0.460 OA
BRANCH  33  34
ATOM     34  C   UNL A   1      45.007  36.480  28.084  1.00  0.00     0.338 C 
ATOM     35  O   UNL A   1      46.149  36.599  28.481  1.00  0.00    -0.246 OA
BRANCH  34  36
ATOM     36  C   UNL A   1      43.922  35.792  28.811  1.00  0.00     0.060 A 
ATOM     37  C   UNL A   1      43.322  36.504  29.846  1.00  0.00     0.016 A 
ATOM     38  C   UNL A   1      43.548  34.463  28.531  1.00  0.00     0.016 A 
ATOM     39  C   UNL A   1      42.350  35.884  30.606  1.00  0.00     0.010 A 
ATOM     40  C   UNL A   1      42.610  33.827  29.320  1.00  0.00     0.010 A 
ATOM     41  C   UNL A   1      42.012  34.551  30.345  1.00  0.00    -0.014 A 
BRANCH  41  42
ATOM     42  C   UNL A   1      40.865  34.007  31.036  1.00  0.00     0.031 A 
ATOM     43  C   UNL A   1      41.060  33.782  32.481  1.00  0.00     0.074 A 
ATOM     44  C   UNL A   1      39.674  33.761  30.476  1.00  0.00     0.049 A 
ATOM     45  N   UNL A   1      41.127  32.635  33.064  1.00  0.00    -0.248 NA
ATOM     46  C   UNL A   1      41.285  34.935  33.360  1.00  0.00     0.031 C 
ATOM     47  C   UNL A   1      39.216  34.128  29.147  1.00  0.00     0.029 A 
ATOM     48  N   UNL A   1      38.581  33.189  31.047  1.00  0.00    -0.354 N 
ATOM     49  C   UNL A   1      41.240  32.905  34.417  1.00  0.00     0.074 A 
ATOM     50  C   UNL A   1      41.455  34.328  34.536  1.00  0.00     0.031 C 
ATOM     51  C   UNL A   1      37.873  33.982  29.085  1.00  0.00     0.029 A 
ATOM     52  C   UNL A   1      37.420  33.362  30.317  1.00  0.00     0.049 A 
ATOM     53  H   UNL A   1      38.613  32.700  31.900  1.00  0.00     0.167 HD
ATOM     54  C   UNL A   1      40.940  31.964  35.350  1.00  0.00     0.031 A 
ATOM     55  C   UNL A   1      36.169  33.043  30.716  1.00  0.00     0.031 A 
ATOM     56  C   UNL A   1      40.881  30.637  34.794  1.00  0.00     0.049 A 
ATOM     57  C   UNL A   1      36.282  31.974  31.734  1.00  0.00     0.074 A 
ATOM     58  C   UNL A   1      41.768  29.835  34.103  1.00  0.00     0.029 A 
ATOM     59  N   UNL A   1      39.640  30.083  34.588  1.00  0.00    -0.354 N 
ATOM     60  N   UNL A   1      36.692  30.770  31.458  1.00  0.00    -0.248 NA
ATOM     61  C   UNL A   1      36.318  32.331  33.144  1.00  0.00     0.031 C 
ATOM     62  C   UNL A   1      40.973  29.133  33.149  1.00  0.00     0.029 A 
ATOM     63  C   UNL A   1      39.646  29.526  33.333  1.00  0.00     0.049 A 
ATOM     64  H   UNL A   1      38.888  30.085  35.222  1.00  0.00     0.167 HD
ATOM     65  C   UNL A   1      37.447  30.393  32.558  1.00  0.00     0.074 A 
ATOM     66  C   UNL A   1      37.059  31.323  33.614  1.00  0.00     0.031 C 
ATOM     67  C   UNL A   1      38.519  29.554  32.426  1.00  0.00     0.031 A 
BRANCH  54  68
ATOM     68  C   UNL A   1      40.352  32.311  36.686  1.00  0.00    -0.014 A 
ATOM     69  C   UNL A   1      39.003  32.691  36.763  1.00  0.00     0.009 A 
ATOM     70  C   UNL A   1      41.143  32.522  37.832  1.00  0.00     0.009 A 
ATOM     71  C   UNL A   1      38.483  33.283  37.920  1.00  0.00     0.001 A 
ATOM     72  C   UNL A   1      40.618  33.071  39.003  1.00  0.00     0.001 A 
ATOM     73  C   UNL A   1      39.290  33.471  39.038  1.00  0.00     0.000 A 
ENDBRANCH  54  68
BRANCH  55  74
ATOM     74  C   UNL A   1      34.921  33.767  30.421  1.00  0.00    -0.014 A 
ATOM     75  C   UNL A   1      34.422  34.733  31.305  1.00  0.00     0.009 A 
ATOM     76  C   UNL A   1      34.350  33.690  29.136  1.00  0.00     0.009 A 
ATOM     77  C   UNL A   1      33.408  35.612  30.904  1.00  0.00     0.001 A 
ATOM     78  C   UNL A   1      33.336  34.563  28.737  1.00  0.00     0.001 A 
ATOM     79  C   UNL A   1      32.875  35.535  29.618  1.00  0.00     0.000 A 
ENDBRANCH  55  74
BRANCH  67  80
ATOM     80  C   UNL A   1      38.698  28.846  31.101  1.00  0.00    -0.014 A 
ATOM     81  C   UNL A   1      39.097  29.517  29.931  1.00  0.00     0.009 A 
ATOM     82  C   UNL A   1      38.605  27.447  31.059  1.00  0.00     0.009 A 
ATOM     83  C   UNL A   1      39.351  28.816  28.746  1.00  0.00     0.001 A 
ATOM     84  C   UNL A   1      38.881  26.744  29.882  1.00  0.00     0.001 A 
ATOM     85  C   UNL A   1      39.247  27.429  28.724  1.00  0.00     0.000 A 
ENDBRANCH  67  80
ENDBRANCH  41  42
ENDBRANCH  34  36
ENDBRANCH  33  34
ENDBRANCH  32  33
ENDBRANCH  31  32
ENDBRANCH   1  31
TORSDOF 17
ENDMDL
MODEL 3
REMARK VINA RESULT:      -8.7      5.361     11.238
REMARK SMILES CC1(C)Cc2c(-c3ccccc3)c(-c3ccc(Cl)cc3)c(CC(=O)OCCOCCOC(=O)c3ccc(-c4c5nc(c(-c6ccccc6)c6ccc([nH]6)c(-c6ccccc6)c6nc(c(-c7ccccc7)c7ccc4[nH]7)C=C6)C=C5)cc3)n2C1
REMARK SMILES IDX 28 1 27 2 26 3 25 4 23 5 24 6 22 7 21 8 1 9 2 10 3 11 4 12
REMARK SMILES IDX 83 13 5 14 82 15 6 16 13 17 7 18 8 19 12 20 9 21 11 22 10 23
REMARK SMILES IDX 14 24 15 25 20 26 16 27 19 28 17 29 18 30 29 31 30 32 31 33
REMARK SMILES IDX 32 34 33 35 34 36 35 37 81 38 36 39 80 40 37 41 38 42 39 43
REMARK SMILES IDX 74 44 40 45 79 46 73 47 75 48 41 49 78 50 72 51 71 52 42 54
REMARK SMILES IDX 64 55 49 56 63 57 50 58 53 59 62 60 76 61 51 62 52 63 61 65
REMARK SMILES IDX 77 66 54 67 43 68 44 69 48 70 45 71 47 72 46 73 65 74 66 75
REMARK SMILES IDX 70 76 67 77 69 78 68 79 55 80 56 81 60 82 57 83 59 84 58 85
REMARK H PARENT 75 53 53 64
REMARK Flexibility Score: inf
ROOT
ATOM      1  O   UNL A   1      35.583  34.145  31.003  1.00  0.00    -0.374 OA
ENDROOT
BRANCH   1   2
ATOM      2  C   UNL A   1      35.811  34.638  32.312  1.00  0.00     0.202 C 
BRANCH   2   3
ATOM      3  C   UNL A   1      35.051  33.909  33.429  1.00  0.00     0.261 C 
BRANCH   3   4
ATOM      4  O   UNL A   1      35.727  32.714  33.889  1.00  0.00    -0.463 OA
BRANCH   4   5
ATOM      5  C   UNL A   1      36.681  32.868  34.838  1.00  0.00     0.311 C 
ATOM      6  O   UNL A   1      36.500  33.508  35.872  1.00  0.00    -0.252 OA
BRANCH   5   7
ATOM      7  C   UNL A   1      37.991  32.125  34.604  1.00  0.00     0.177 C 
BRANCH   7   8
ATOM      8  C   UNL A   1      39.274  32.879  34.341  1.00  0.00     0.037 A 
ATOM      9  C   UNL A   1      39.496  34.729  29.764  1.00  0.00     0.013 C 
ATOM     10  C   UNL A   1      40.153  33.842  30.828  1.00  0.00    -0.012 C 
ATOM     11  C   UNL A   1      41.044  32.799  30.135  1.00  0.00     0.013 C 
ATOM     12  C   UNL A   1      41.021  34.704  31.789  1.00  0.00     0.063 C 
ATOM     13  C   UNL A   1      39.091  33.148  31.743  1.00  0.00     0.129 C 
ATOM     14  C   UNL A   1      40.705  34.140  33.119  1.00  0.00     0.027 A 
ATOM     15  N   UNL A   1      39.659  33.266  33.084  1.00  0.00    -0.346 N 
ATOM     16  C   UNL A   1      41.111  34.287  34.415  1.00  0.00     0.011 A 
ATOM     17  C   UNL A   1      40.171  33.530  35.216  1.00  0.00     0.011 A 
BRANCH  16  18
ATOM     18  C   UNL A   1      42.202  35.153  34.835  1.00  0.00    -0.016 A 
ATOM     19  C   UNL A   1      42.066  36.547  34.859  1.00  0.00     0.009 A 
ATOM     20  C   UNL A   1      43.406  34.581  35.256  1.00  0.00     0.009 A 
ATOM     21  C   UNL A   1      43.127  37.354  35.274  1.00  0.00     0.001 A 
ATOM     22  C   UNL A   1      44.447  35.386  35.713  1.00  0.00     0.001 A 
ATOM     23  C   UNL A   1      44.315  36.772  35.703  1.00  0.00     0.000 A 
ENDBRANCH  16  18
BRANCH  17  24
ATOM     24  C   UNL A   1      40.103  33.624  36.681  1.00  0.00    -0.016 A 
ATOM     25  C   UNL A   1      39.460  34.721  37.272  1.00  0.00     0.010 A 
ATOM     26  C   UNL A   1      40.902  32.826  37.502  1.00  0.00     0.010 A 
ATOM     27  C   UNL A   1      39.650  35.021  38.631  1.00  0.00     0.021 A 
ATOM     28  C   UNL A   1      41.098  33.116  38.856  1.00  0.00     0.021 A 
ATOM     29  C   UNL A   1      40.480  34.224  39.413  1.00  0.00     0.041 A 
ATOM     30  Cl  UNL A   1      40.787  34.633  41.055  1.00  0.00    -0.084 Cl
ENDBRANCH  17  24
ENDBRANCH   7   8
ENDBRANCH   5   7
ENDBRANCH   4   5
ENDBRANCH   3   4
ENDBRANCH   2   3
ENDBRANCH   1   2
BRANCH   1  31
ATOM     31  C   UNL A   1      34.328  34.417  30.393  1.00  0.00     0.202 C 
BRANCH  31  32
ATOM     32  C   UNL A   1      34.006  33.845  29.010  1.00  0.00     0.261 C 
BRANCH  32  33
ATOM     33  O   UNL A   1      35.098  33.169  28.401  1.00  0.00    -0.460 OA
BRANCH  33  34
ATOM     34  C   UNL A   1      34.821  31.868  28.216  1.00  0.00     0.338 C 
ATOM     35  O   UNL A   1      33.741  31.428  27.879  1.00  0.00    -0.246 OA
BRANCH  34  36
ATOM     36  C   UNL A   1      36.032  31.056  28.453  1.00  0.00     0.060 A 
ATOM     37  C   UNL A   1      37.178  31.750  28.832  1.00  0.00     0.016 A 
ATOM     38  C   UNL A   1      36.061  29.663  28.246  1.00  0.00     0.016 A 
ATOM     39  C   UNL A   1      38.357  31.052  28.998  1.00  0.00     0.010 A 
ATOM     40  C   UNL A   1      37.250  28.971  28.367  1.00  0.00     0.010 A 
ATOM     41  C   UNL A   1      38.385  29.673  28.753  1.00  0.00    -0.014 A 
BRANCH  41  42
ATOM     42  C   UNL A   1      39.585  28.957  29.120  1.00  0.00     0.031 A 
ATOM     43  C   UNL A   1      39.742  28.705  30.564  1.00  0.00     0.074 A 
ATOM     44  C   UNL A   1      40.493  28.482  28.256  1.00  0.00     0.049 A 
ATOM     45  N   UNL A   1      40.622  29.247  31.334  1.00  0.00    -0.248 NA
ATOM     46  C   UNL A   1      38.781  27.830  31.246  1.00  0.00     0.031 C 
ATOM     47  C   UNL A   1      40.405  28.420  26.807  1.00  0.00     0.029 A 
ATOM     48  N   UNL A   1      41.671  27.864  28.533  1.00  0.00    -0.354 N 
ATOM     49  C   UNL A   1      40.444  28.667  32.578  1.00  0.00     0.074 A 
ATOM     50  C   UNL A   1      39.226  27.896  32.502  1.00  0.00     0.031 C 
ATOM     51  C   UNL A   1      41.369  27.596  26.340  1.00  0.00     0.029 A 
ATOM     52  C   UNL A   1      42.226  27.214  27.448  1.00  0.00     0.049 A 
ATOM     53  H   UNL A   1      42.089  27.878  29.424  1.00  0.00     0.167 HD
ATOM     54  C   UNL A   1      41.426  28.698  33.516  1.00  0.00     0.031 A 
ATOM     55  C   UNL A   1      43.299  26.393  27.469  1.00  0.00     0.031 A 
ATOM     56  C   UNL A   1      42.439  29.678  33.221  1.00  0.00     0.049 A 
ATOM     57  C   UNL A   1      44.121  26.760  28.643  1.00  0.00     0.074 A 
ATOM     58  C   UNL A   1      42.435  31.044  33.012  1.00  0.00     0.029 A 
ATOM     59  N   UNL A   1      43.640  29.229  32.725  1.00  0.00    -0.354 N 
ATOM     60  N   UNL A   1      44.762  27.890  28.737  1.00  0.00    -0.248 NA
ATOM     61  C   UNL A   1      43.930  26.051  29.898  1.00  0.00     0.031 C 
ATOM     62  C   UNL A   1      43.409  31.270  31.994  1.00  0.00     0.029 A 
ATOM     63  C   UNL A   1      43.969  30.035  31.663  1.00  0.00     0.049 A 
ATOM     64  H   UNL A   1      44.167  28.472  33.069  1.00  0.00     0.167 HD
ATOM     65  C   UNL A   1      44.651  28.248  30.072  1.00  0.00     0.074 A 
ATOM     66  C   UNL A   1      44.265  27.019  30.757  1.00  0.00     0.031 C 
ATOM     67  C   UNL A   1      44.599  29.562  30.449  1.00  0.00     0.031 A 
BRANCH  54  68
ATOM     68  C   UNL A   1      41.637  27.587  34.503  1.00  0.00    -0.014 A 
ATOM     69  C   UNL A   1      41.477  27.849  35.873  1.00  0.00     0.009 A 
ATOM     70  C   UNL A   1      42.234  26.361  34.150  1.00  0.00     0.009 A 
ATOM     71  C   UNL A   1      41.924  26.940  36.839  1.00  0.00     0.001 A 
ATOM     72  C   UNL A   1      42.640  25.433  35.110  1.00  0.00     0.001 A 
ATOM     73  C   UNL A   1      42.503  25.734  36.458  1.00  0.00     0.000 A 
ENDBRANCH  54  68
BRANCH  55  74
ATOM     74  C   UNL A   1      43.518  25.183  26.658  1.00  0.00    -0.014 A 
ATOM     75  C   UNL A   1      42.588  24.135  26.661  1.00  0.00     0.009 A 
ATOM     76  C   UNL A   1      44.528  25.167  25.676  1.00  0.00     0.009 A 
ATOM     77  C   UNL A   1      42.649  23.124  25.693  1.00  0.00     0.001 A 
ATOM     78  C   UNL A   1      44.591  24.157  24.714  1.00  0.00     0.001 A 
ATOM     79  C   UNL A   1      43.641  23.143  24.714  1.00  0.00     0.000 A 
ENDBRANCH  55  74
BRANCH  67  80
ATOM     80  C   UNL A   1      44.927  30.606  29.405  1.00  0.00    -0.014 A 
ATOM     81  C   UNL A   1      43.975  31.090  28.490  1.00  0.00     0.009 A 
ATOM     82  C   UNL A   1      46.186  31.225  29.434  1.00  0.00     0.009 A 
ATOM     83  C   UNL A   1      44.284  32.128  27.604  1.00  0.00     0.001 A 
ATOM     84  C   UNL A   1      46.488  32.278  28.566  1.00  0.00     0.001 A 
ATOM     85  C   UNL A   1      45.541  32.724  27.645  1.00  0.00     0.000 A 
ENDBRANCH  67  80
ENDBRANCH  41  42
ENDBRANCH  34  36
ENDBRANCH  33  34
ENDBRANCH  32  33
ENDBRANCH  31  32
ENDBRANCH   1  31
TORSDOF 17
ENDMDL
