MODEL 1
REMARK VINA RESULT:     -10.4      0.000      0.000
REMARK SMILES CCc1nc(N2CC[N@H+](CC=C(C)C)[C@H](C(=O)OCCOCCOC(=O)c3ccc(-c4c5nc(c(-c6ccccc6)c6ccc([nH]6)c(-c6ccccc6)c6nc(c(-c7ccccc7)c7ccc4[nH]7)C=C6)C=C5)cc3)C2)no1
REMARK SMILES IDX 21 1 20 2 19 3 18 4 16 5 17 6 15 7 6 8 7 9 75 10 8 11 9 12
REMARK SMILES IDX 5 14 3 15 4 16 77 17 76 18 2 19 1 20 10 21 11 22 12 23 13 24
REMARK SMILES IDX 14 25 22 26 23 27 24 28 25 29 26 30 27 31 28 32 74 33 29 34
REMARK SMILES IDX 73 35 30 36 31 37 32 38 67 39 33 40 72 41 66 42 68 43 34 44
REMARK SMILES IDX 71 45 65 46 64 47 35 49 57 50 42 51 56 52 43 53 46 54 55 55
REMARK SMILES IDX 69 56 44 57 45 58 54 60 70 61 47 62 36 63 37 64 41 65 38 66
REMARK SMILES IDX 40 67 39 68 58 69 59 70 63 71 60 72 62 73 61 74 48 75 49 76
REMARK SMILES IDX 53 77 50 78 52 79 51 80
REMARK H PARENT 9 13 68 48 46 59
REMARK Flexibility Score: inf
ROOT
ATOM      1  O   UNL A   1      34.583  21.226  25.235  1.00  0.00    -0.374 OA
ENDROOT
BRANCH   1   2
ATOM      2  C   UNL A   1      34.091  22.246  26.108  1.00  0.00     0.202 C 
BRANCH   2   3
ATOM      3  C   UNL A   1      34.802  23.599  26.005  1.00  0.00     0.261 C 
BRANCH   3   4
ATOM      4  O   UNL A   1      33.867  24.683  26.173  1.00  0.00    -0.459 OA
BRANCH   4   5
ATOM      5  C   UNL A   1      33.754  25.545  25.122  1.00  0.00     0.366 C 
ATOM      6  O   UNL A   1      34.462  25.490  24.121  1.00  0.00    -0.245 OA
BRANCH   5   7
ATOM      7  C   UNL A   1      32.659  26.606  25.340  1.00  0.00     0.315 C 
ATOM      8  N   UNL A   1      31.225  28.423  24.379  1.00  0.00    -0.326 N 
ATOM      9  C   UNL A   1      31.309  29.175  25.637  1.00  0.00     0.181 C 
ATOM     10  C   UNL A   1      32.257  27.414  24.085  1.00  0.00     0.197 C 
ATOM     11  C   UNL A   1      31.783  28.306  26.819  1.00  0.00     0.285 C 
ATOM     12  N   UNL A   1      32.934  27.432  26.552  1.00  0.00    -0.317 N 
ATOM     13  H   UNL A   1      33.042  26.758  27.311  1.00  0.00     0.349 HD
BRANCH   8  14
ATOM     14  C   UNL A   1      30.468  28.937  23.379  1.00  0.00     0.266 A 
ATOM     15  C   UNL A   1      29.261  30.345  22.410  1.00  0.00     0.227 A 
ATOM     16  N   UNL A   1      29.729  30.067  23.605  1.00  0.00    -0.176 NA
ATOM     17  O   UNL A   1      29.588  29.409  21.475  1.00  0.00    -0.337 OA
ATOM     18  N   UNL A   1      30.400  28.488  22.118  1.00  0.00    -0.038 NA
BRANCH  15  19
ATOM     19  C   UNL A   1      28.500  31.537  21.960  1.00  0.00     0.097 C 
ATOM     20  C   UNL A   1      28.870  32.812  22.703  1.00  0.00     0.014 C 
ENDBRANCH  15  19
ENDBRANCH   8  14
BRANCH  12  21
ATOM     21  C   UNL A   1      34.235  28.096  26.660  1.00  0.00     0.291 C 
BRANCH  21  22
ATOM     22  C   UNL A   1      34.238  29.518  27.156  1.00  0.00     0.032 C 
ATOM     23  C   UNL A   1      35.302  30.235  27.568  1.00  0.00    -0.075 C 
ATOM     24  C   UNL A   1      35.135  31.631  28.106  1.00  0.00     0.039 C 
ATOM     25  C   UNL A   1      36.709  29.705  27.574  1.00  0.00     0.039 C 
ENDBRANCH  21  22
ENDBRANCH  12  21
ENDBRANCH   5   7
ENDBRANCH   4   5
ENDBRANCH   3   4
ENDBRANCH   2   3
ENDBRANCH   1   2
BRANCH   1  26
ATOM     26  C   UNL A   1      35.835  21.480  24.601  1.00  0.00     0.202 C 
BRANCH  26  27
ATOM     27  C   UNL A   1      37.044  20.757  25.200  1.00  0.00     0.261 C 
BRANCH  27  28
ATOM     28  O   UNL A   1      38.243  21.537  25.061  1.00  0.00    -0.460 OA
BRANCH  28  29
ATOM     29  C   UNL A   1      39.205  21.244  25.964  1.00  0.00     0.338 C 
ATOM     30  O   UNL A   1      39.768  20.169  26.126  1.00  0.00    -0.246 OA
BRANCH  29  31
ATOM     31  C   UNL A   1      39.642  22.467  26.659  1.00  0.00     0.060 A 
ATOM     32  C   UNL A   1      38.969  23.653  26.340  1.00  0.00     0.016 A 
ATOM     33  C   UNL A   1      40.721  22.479  27.547  1.00  0.00     0.016 A 
ATOM     34  C   UNL A   1      39.417  24.867  26.849  1.00  0.00     0.010 A 
ATOM     35  C   UNL A   1      41.174  23.702  28.055  1.00  0.00     0.010 A 
ATOM     36  C   UNL A   1      40.551  24.903  27.670  1.00  0.00    -0.014 A 
BRANCH  36  37
ATOM     37  C   UNL A   1      41.173  26.214  27.969  1.00  0.00     0.031 A 
ATOM     38  C   UNL A   1      42.507  26.539  27.355  1.00  0.00     0.074 A 
ATOM     39  C   UNL A   1      40.529  27.126  28.718  1.00  0.00     0.049 A 
ATOM     40  N   UNL A   1      43.211  27.639  27.440  1.00  0.00    -0.248 NA
ATOM     41  C   UNL A   1      43.130  25.487  26.536  1.00  0.00     0.031 C 
ATOM     42  C   UNL A   1      39.215  26.941  29.332  1.00  0.00     0.029 A 
ATOM     43  N   UNL A   1      40.898  28.396  29.080  1.00  0.00    -0.354 N 
ATOM     44  C   UNL A   1      44.359  27.409  26.689  1.00  0.00     0.074 A 
ATOM     45  C   UNL A   1      44.272  26.057  26.183  1.00  0.00     0.031 C 
ATOM     46  C   UNL A   1      38.886  28.062  29.998  1.00  0.00     0.029 A 
ATOM     47  C   UNL A   1      39.974  29.030  29.874  1.00  0.00     0.049 A 
ATOM     48  H   UNL A   1      41.743  28.814  28.798  1.00  0.00     0.167 HD
ATOM     49  C   UNL A   1      45.389  28.250  26.438  1.00  0.00     0.031 A 
ATOM     50  C   UNL A   1      40.009  30.249  30.444  1.00  0.00     0.031 A 
ATOM     51  C   UNL A   1      45.479  29.592  26.946  1.00  0.00     0.049 A 
ATOM     52  C   UNL A   1      41.194  31.144  30.199  1.00  0.00     0.074 A 
ATOM     53  C   UNL A   1      46.471  30.531  26.730  1.00  0.00     0.029 A 
ATOM     54  N   UNL A   1      44.542  30.181  27.779  1.00  0.00    -0.354 N 
ATOM     55  N   UNL A   1      42.254  30.927  29.456  1.00  0.00    -0.248 NA
ATOM     56  C   UNL A   1      41.181  32.456  30.861  1.00  0.00     0.031 C 
ATOM     57  C   UNL A   1      46.161  31.673  27.477  1.00  0.00     0.029 A 
ATOM     58  C   UNL A   1      44.948  31.462  28.113  1.00  0.00     0.049 A 
ATOM     59  H   UNL A   1      43.712  29.753  28.089  1.00  0.00     0.167 HD
ATOM     60  C   UNL A   1      43.019  32.083  29.543  1.00  0.00     0.074 A 
ATOM     61  C   UNL A   1      42.296  33.004  30.396  1.00  0.00     0.031 C 
ATOM     62  C   UNL A   1      44.214  32.361  28.966  1.00  0.00     0.031 A 
BRANCH  49  63
ATOM     63  C   UNL A   1      46.522  27.726  25.601  1.00  0.00    -0.014 A 
ATOM     64  C   UNL A   1      47.513  26.897  26.150  1.00  0.00     0.009 A 
ATOM     65  C   UNL A   1      46.581  28.042  24.235  1.00  0.00     0.009 A 
ATOM     66  C   UNL A   1      48.557  26.421  25.354  1.00  0.00     0.001 A 
ATOM     67  C   UNL A   1      47.610  27.546  23.436  1.00  0.00     0.001 A 
ATOM     68  C   UNL A   1      48.602  26.742  23.997  1.00  0.00     0.000 A 
ENDBRANCH  49  63
BRANCH  50  69
ATOM     69  C   UNL A   1      38.893  30.693  31.319  1.00  0.00    -0.014 A 
ATOM     70  C   UNL A   1      38.904  30.420  32.696  1.00  0.00     0.009 A 
ATOM     71  C   UNL A   1      37.798  31.382  30.774  1.00  0.00     0.009 A 
ATOM     72  C   UNL A   1      37.831  30.808  33.503  1.00  0.00     0.001 A 
ATOM     73  C   UNL A   1      36.740  31.791  31.587  1.00  0.00     0.001 A 
ATOM     74  C   UNL A   1      36.753  31.496  32.949  1.00  0.00     0.000 A 
ENDBRANCH  50  69
BRANCH  62  75
ATOM     75  C   UNL A   1      44.799  33.721  29.214  1.00  0.00    -0.014 A 
ATOM     76  C   UNL A   1      44.500  34.806  28.376  1.00  0.00     0.009 A 
ATOM     77  C   UNL A   1      45.625  33.930  30.330  1.00  0.00     0.009 A 
ATOM     78  C   UNL A   1      45.044  36.067  28.633  1.00  0.00     0.001 A 
ATOM     79  C   UNL A   1      46.145  35.197  30.600  1.00  0.00     0.001 A 
ATOM     80  C   UNL A   1      45.861  36.261  29.747  1.00  0.00     0.000 A 
ENDBRANCH  62  75
ENDBRANCH  36  37
ENDBRANCH  29  31
ENDBRANCH  28  29
ENDBRANCH  27  28
ENDBRANCH  26  27
ENDBRANCH   1  26
TORSDOF 18
ENDMDL
MODEL 2
REMARK VINA RESULT:     -10.0      4.101      7.392
REMARK SMILES CCc1nc(N2CC[N@H+](CC=C(C)C)[C@H](C(=O)OCCOCCOC(=O)c3ccc(-c4c5nc(c(-c6ccccc6)c6ccc([nH]6)c(-c6ccccc6)c6nc(c(-c7ccccc7)c7ccc4[nH]7)C=C6)C=C5)cc3)C2)no1
REMARK SMILES IDX 21 1 20 2 19 3 18 4 16 5 17 6 15 7 6 8 7 9 75 10 8 11 9 12
REMARK SMILES IDX 5 14 3 15 4 16 77 17 76 18 2 19 1 20 10 21 11 22 12 23 13 24
REMARK SMILES IDX 14 25 22 26 23 27 24 28 25 29 26 30 27 31 28 32 74 33 29 34
REMARK SMILES IDX 73 35 30 36 31 37 32 38 67 39 33 40 72 41 66 42 68 43 34 44
REMARK SMILES IDX 71 45 65 46 64 47 35 49 57 50 42 51 56 52 43 53 46 54 55 55
REMARK SMILES IDX 69 56 44 57 45 58 54 60 70 61 47 62 36 63 37 64 41 65 38 66
REMARK SMILES IDX 40 67 39 68 58 69 59 70 63 71 60 72 62 73 61 74 48 75 49 76
REMARK SMILES IDX 53 77 50 78 52 79 51 80
REMARK H PARENT 9 13 68 48 46 59
REMARK Flexibility Score: inf
ROOT
ATOM      1  O   UNL A   1      41.230  20.921  26.144  1.00  0.00    -0.374 OA
ENDROOT
BRANCH   1   2
ATOM      2  C   UNL A   1      40.199  21.828  26.544  1.00  0.00     0.202 C 
BRANCH   2   3
ATOM      3  C   UNL A   1      38.878  21.699  25.778  1.00  0.00     0.261 C 
BRANCH   3   4
ATOM      4  O   UNL A   1      38.164  22.951  25.775  1.00  0.00    -0.459 OA
BRANCH   4   5
ATOM      5  C   UNL A   1      37.070  23.014  24.964  1.00  0.00     0.366 C 
ATOM      6  O   UNL A   1      37.082  23.514  23.844  1.00  0.00    -0.245 OA
BRANCH   5   7
ATOM      7  C   UNL A   1      35.812  22.409  25.618  1.00  0.00     0.315 C 
ATOM      8  N   UNL A   1      33.862  20.843  25.453  1.00  0.00    -0.326 N 
ATOM      9  C   UNL A   1      33.025  21.782  26.210  1.00  0.00     0.181 C 
ATOM     10  C   UNL A   1      35.064  21.355  24.771  1.00  0.00     0.197 C 
ATOM     11  C   UNL A   1      33.853  22.839  26.968  1.00  0.00     0.285 C 
ATOM     12  N   UNL A   1      34.941  23.468  26.207  1.00  0.00    -0.317 N 
ATOM     13  H   UNL A   1      35.550  23.989  26.839  1.00  0.00     0.349 HD
BRANCH   8  14
ATOM     14  C   UNL A   1      33.315  19.662  25.076  1.00  0.00     0.266 A 
ATOM     15  C   UNL A   1      33.290  17.649  24.503  1.00  0.00     0.227 A 
ATOM     16  N   UNL A   1      34.127  18.654  24.629  1.00  0.00    -0.176 NA
ATOM     17  O   UNL A   1      31.996  17.994  24.756  1.00  0.00    -0.337 OA
ATOM     18  N   UNL A   1      32.020  19.323  25.150  1.00  0.00    -0.038 NA
BRANCH  15  19
ATOM     19  C   UNL A   1      33.579  16.228  24.189  1.00  0.00     0.097 C 
ATOM     20  C   UNL A   1      33.060  15.254  25.236  1.00  0.00     0.014 C 
ENDBRANCH  15  19
ENDBRANCH   8  14
BRANCH  12  21
ATOM     21  C   UNL A   1      34.516  24.576  25.348  1.00  0.00     0.291 C 
BRANCH  21  22
ATOM     22  C   UNL A   1      33.686  25.658  25.987  1.00  0.00     0.032 C 
ATOM     23  C   UNL A   1      32.382  25.922  25.767  1.00  0.00    -0.075 C 
ATOM     24  C   UNL A   1      31.706  27.090  26.433  1.00  0.00     0.039 C 
ATOM     25  C   UNL A   1      31.521  25.126  24.826  1.00  0.00     0.039 C 
ENDBRANCH  21  22
ENDBRANCH  12  21
ENDBRANCH   5   7
ENDBRANCH   4   5
ENDBRANCH   3   4
ENDBRANCH   2   3
ENDBRANCH   1   2
BRANCH   1  26
ATOM     26  C   UNL A   1      42.560  21.262  26.528  1.00  0.00     0.202 C 
BRANCH  26  27
ATOM     27  C   UNL A   1      43.425  21.906  25.441  1.00  0.00     0.261 C 
BRANCH  27  28
ATOM     28  O   UNL A   1      42.964  23.229  25.121  1.00  0.00    -0.460 OA
BRANCH  28  29
ATOM     29  C   UNL A   1      43.767  24.220  25.568  1.00  0.00     0.338 C 
ATOM     30  O   UNL A   1      44.925  24.444  25.238  1.00  0.00    -0.246 OA
BRANCH  29  31
ATOM     31  C   UNL A   1      43.004  25.150  26.418  1.00  0.00     0.060 A 
ATOM     32  C   UNL A   1      43.457  26.475  26.474  1.00  0.00     0.016 A 
ATOM     33  C   UNL A   1      41.919  24.737  27.196  1.00  0.00     0.016 A 
ATOM     34  C   UNL A   1      42.874  27.374  27.361  1.00  0.00     0.010 A 
ATOM     35  C   UNL A   1      41.337  25.641  28.092  1.00  0.00     0.010 A 
ATOM     36  C   UNL A   1      41.844  26.947  28.209  1.00  0.00    -0.014 A 
BRANCH  36  37
ATOM     37  C   UNL A   1      41.433  27.827  29.328  1.00  0.00     0.031 A 
ATOM     38  C   UNL A   1      42.229  27.795  30.604  1.00  0.00     0.074 A 
ATOM     39  C   UNL A   1      40.412  28.689  29.187  1.00  0.00     0.049 A 
ATOM     40  N   UNL A   1      42.081  28.509  31.691  1.00  0.00    -0.248 NA
ATOM     41  C   UNL A   1      43.341  26.831  30.663  1.00  0.00     0.031 C 
ATOM     42  C   UNL A   1      39.592  28.840  27.985  1.00  0.00     0.029 A 
ATOM     43  N   UNL A   1      39.896  29.606  30.066  1.00  0.00    -0.354 N 
ATOM     44  C   UNL A   1      43.077  28.079  32.561  1.00  0.00     0.074 A 
ATOM     45  C   UNL A   1      43.802  27.023  31.890  1.00  0.00     0.031 C 
ATOM     46  C   UNL A   1      38.674  29.797  28.203  1.00  0.00     0.029 A 
ATOM     47  C   UNL A   1      38.828  30.308  29.564  1.00  0.00     0.049 A 
ATOM     48  H   UNL A   1      40.258  29.750  30.970  1.00  0.00     0.167 HD
ATOM     49  C   UNL A   1      43.366  28.529  33.805  1.00  0.00     0.031 A 
ATOM     50  C   UNL A   1      38.056  31.247  30.143  1.00  0.00     0.031 A 
ATOM     51  C   UNL A   1      42.641  29.574  34.474  1.00  0.00     0.049 A 
ATOM     52  C   UNL A   1      38.361  31.688  31.549  1.00  0.00     0.074 A 
ATOM     53  C   UNL A   1      42.870  30.116  35.727  1.00  0.00     0.029 A 
ATOM     54  N   UNL A   1      41.541  30.230  33.948  1.00  0.00    -0.354 N 
ATOM     55  N   UNL A   1      39.328  31.300  32.346  1.00  0.00    -0.248 NA
ATOM     56  C   UNL A   1      37.473  32.705  32.131  1.00  0.00     0.031 C 
ATOM     57  C   UNL A   1      41.874  31.065  35.979  1.00  0.00     0.029 A 
ATOM     58  C   UNL A   1      41.059  31.151  34.862  1.00  0.00     0.049 A 
ATOM     59  H   UNL A   1      41.158  30.065  33.056  1.00  0.00     0.167 HD
ATOM     60  C   UNL A   1      39.180  32.041  33.511  1.00  0.00     0.074 A 
ATOM     61  C   UNL A   1      38.040  32.913  33.312  1.00  0.00     0.031 C 
ATOM     62  C   UNL A   1      39.921  32.007  34.645  1.00  0.00     0.031 A 
BRANCH  49  63
ATOM     63  C   UNL A   1      44.497  27.861  34.535  1.00  0.00    -0.014 A 
ATOM     64  C   UNL A   1      45.786  28.419  34.551  1.00  0.00     0.009 A 
ATOM     65  C   UNL A   1      44.262  26.672  35.242  1.00  0.00     0.009 A 
ATOM     66  C   UNL A   1      46.823  27.781  35.236  1.00  0.00     0.001 A 
ATOM     67  C   UNL A   1      45.293  26.050  35.946  1.00  0.00     0.001 A 
ATOM     68  C   UNL A   1      46.575  26.601  35.936  1.00  0.00     0.000 A 
ENDBRANCH  49  63
BRANCH  50  69
ATOM     69  C   UNL A   1      36.907  31.826  29.400  1.00  0.00    -0.014 A 
ATOM     70  C   UNL A   1      35.655  31.191  29.399  1.00  0.00     0.009 A 
ATOM     71  C   UNL A   1      37.064  33.016  28.671  1.00  0.00     0.009 A 
ATOM     72  C   UNL A   1      34.592  31.723  28.665  1.00  0.00     0.001 A 
ATOM     73  C   UNL A   1      35.992  33.560  27.960  1.00  0.00     0.001 A 
ATOM     74  C   UNL A   1      34.760  32.909  27.950  1.00  0.00     0.000 A 
ENDBRANCH  50  69
BRANCH  62  75
ATOM     75  C   UNL A   1      39.543  32.957  35.745  1.00  0.00    -0.014 A 
ATOM     76  C   UNL A   1      38.444  32.704  36.579  1.00  0.00     0.009 A 
ATOM     77  C   UNL A   1      40.326  34.099  35.977  1.00  0.00     0.009 A 
ATOM     78  C   UNL A   1      38.118  33.593  37.606  1.00  0.00     0.001 A 
ATOM     79  C   UNL A   1      40.014  34.972  37.020  1.00  0.00     0.001 A 
ATOM     80  C   UNL A   1      38.906  34.723  37.828  1.00  0.00     0.000 A 
ENDBRANCH  62  75
ENDBRANCH  36  37
ENDBRANCH  29  31
ENDBRANCH  28  29
ENDBRANCH  27  28
ENDBRANCH  26  27
ENDBRANCH   1  26
TORSDOF 18
ENDMDL
MODEL 3
REMARK VINA RESULT:      -9.9      2.558      6.971
REMARK SMILES CCc1nc(N2CC[N@H+](CC=C(C)C)[C@H](C(=O)OCCOCCOC(=O)c3ccc(-c4c5nc(c(-c6ccccc6)c6ccc([nH]6)c(-c6ccccc6)c6nc(c(-c7ccccc7)c7ccc4[nH]7)C=C6)C=C5)cc3)C2)no1
REMARK SMILES IDX 21 1 20 2 19 3 18 4 16 5 17 6 15 7 6 8 7 9 75 10 8 11 9 12
REMARK SMILES IDX 5 14 3 15 4 16 77 17 76 18 2 19 1 20 10 21 11 22 12 23 13 24
REMARK SMILES IDX 14 25 22 26 23 27 24 28 25 29 26 30 27 31 28 32 74 33 29 34
REMARK SMILES IDX 73 35 30 36 31 37 32 38 67 39 33 40 72 41 66 42 68 43 34 44
REMARK SMILES IDX 71 45 65 46 64 47 35 49 57 50 42 51 56 52 43 53 46 54 55 55
REMARK SMILES IDX 69 56 44 57 45 58 54 60 70 61 47 62 36 63 37 64 41 65 38 66
REMARK SMILES IDX 40 67 39 68 58 69 59 70 63 71 60 72 62 73 61 74 48 75 49 76
REMARK SMILES IDX 53 77 50 78 52 79 51 80
REMARK H PARENT 9 13 68 48 46 59
REMARK Flexibility Score: inf
ROOT
ATOM      1  O   UNL A   1      37.726  20.545  25.135  1.00  0.00    -0.374 OA
ENDROOT
BRANCH   1   2
ATOM      2  C   UNL A   1      38.220  21.851  25.443  1.00  0.00     0.202 C 
BRANCH   2   3
ATOM      3  C   UNL A   1      37.174  22.970  25.427  1.00  0.00     0.261 C 
BRANCH   3   4
ATOM      4  O   UNL A   1      35.905  22.477  24.951  1.00  0.00    -0.459 OA
BRANCH   4   5
ATOM      5  C   UNL A   1      35.487  22.964  23.748  1.00  0.00     0.366 C 
ATOM      6  O   UNL A   1      36.179  22.953  22.734  1.00  0.00    -0.245 OA
BRANCH   5   7
ATOM      7  C   UNL A   1      34.063  23.549  23.807  1.00  0.00     0.315 C 
ATOM      8  N   UNL A   1      32.368  24.922  25.041  1.00  0.00    -0.326 N 
ATOM      9  C   UNL A   1      31.294  24.028  24.589  1.00  0.00     0.181 C 
ATOM     10  C   UNL A   1      33.753  24.420  25.045  1.00  0.00     0.197 C 
ATOM     11  C   UNL A   1      31.714  23.149  23.394  1.00  0.00     0.285 C 
ATOM     12  N   UNL A   1      33.035  22.512  23.500  1.00  0.00    -0.317 N 
ATOM     13  H   UNL A   1      33.309  22.129  22.595  1.00  0.00     0.349 HD
BRANCH   8  14
ATOM     14  C   UNL A   1      32.028  25.995  25.794  1.00  0.00     0.266 A 
ATOM     15  C   UNL A   1      31.836  28.023  26.277  1.00  0.00     0.227 A 
ATOM     16  N   UNL A   1      32.464  27.241  25.428  1.00  0.00    -0.176 NA
ATOM     17  O   UNL A   1      31.112  27.335  27.204  1.00  0.00    -0.337 OA
ATOM     18  N   UNL A   1      31.230  25.995  26.871  1.00  0.00    -0.038 NA
BRANCH  15  19
ATOM     19  C   UNL A   1      31.776  29.505  26.311  1.00  0.00     0.097 C 
ATOM     20  C   UNL A   1      32.821  30.136  27.220  1.00  0.00     0.014 C 
ENDBRANCH  15  19
ENDBRANCH   8  14
BRANCH  12  21
ATOM     21  C   UNL A   1      33.046  21.271  24.277  1.00  0.00     0.291 C 
BRANCH  21  22
ATOM     22  C   UNL A   1      32.945  19.980  23.507  1.00  0.00     0.032 C 
ATOM     23  C   UNL A   1      32.836  18.735  24.013  1.00  0.00    -0.075 C 
ATOM     24  C   UNL A   1      32.816  17.532  23.110  1.00  0.00     0.039 C 
ATOM     25  C   UNL A   1      32.775  18.440  25.486  1.00  0.00     0.039 C 
ENDBRANCH  21  22
ENDBRANCH  12  21
ENDBRANCH   5   7
ENDBRANCH   4   5
ENDBRANCH   3   4
ENDBRANCH   2   3
ENDBRANCH   1   2
BRANCH   1  26
ATOM     26  C   UNL A   1      38.631  19.460  25.326  1.00  0.00     0.202 C 
BRANCH  26  27
ATOM     27  C   UNL A   1      39.901  19.783  26.118  1.00  0.00     0.261 C 
BRANCH  27  28
ATOM     28  O   UNL A   1      41.064  19.209  25.500  1.00  0.00    -0.460 OA
BRANCH  28  29
ATOM     29  C   UNL A   1      42.228  19.504  26.122  1.00  0.00     0.338 C 
ATOM     30  O   UNL A   1      43.236  18.811  26.180  1.00  0.00    -0.246 OA
BRANCH  29  31
ATOM     31  C   UNL A   1      42.207  20.894  26.610  1.00  0.00     0.060 A 
ATOM     32  C   UNL A   1      42.446  21.900  25.665  1.00  0.00     0.016 A 
ATOM     33  C   UNL A   1      42.030  21.212  27.959  1.00  0.00     0.016 A 
ATOM     34  C   UNL A   1      42.581  23.223  26.075  1.00  0.00     0.010 A 
ATOM     35  C   UNL A   1      42.171  22.542  28.371  1.00  0.00     0.010 A 
ATOM     36  C   UNL A   1      42.493  23.543  27.436  1.00  0.00    -0.014 A 
BRANCH  36  37
ATOM     37  C   UNL A   1      42.915  24.892  27.878  1.00  0.00     0.031 A 
ATOM     38  C   UNL A   1      41.859  25.932  28.139  1.00  0.00     0.074 A 
ATOM     39  C   UNL A   1      44.210  25.167  28.110  1.00  0.00     0.049 A 
ATOM     40  N   UNL A   1      41.994  27.158  28.576  1.00  0.00    -0.248 NA
ATOM     41  C   UNL A   1      40.466  25.537  27.873  1.00  0.00     0.031 C 
ATOM     42  C   UNL A   1      45.319  24.230  27.934  1.00  0.00     0.029 A 
ATOM     43  N   UNL A   1      44.807  26.319  28.555  1.00  0.00    -0.354 N 
ATOM     44  C   UNL A   1      40.706  27.680  28.634  1.00  0.00     0.074 A 
ATOM     45  C   UNL A   1      39.808  26.650  28.159  1.00  0.00     0.031 C 
ATOM     46  C   UNL A   1      46.466  24.847  28.267  1.00  0.00     0.029 A 
ATOM     47  C   UNL A   1      46.174  26.225  28.658  1.00  0.00     0.049 A 
ATOM     48  H   UNL A   1      44.305  27.135  28.779  1.00  0.00     0.167 HD
ATOM     49  C   UNL A   1      40.307  28.903  29.053  1.00  0.00     0.031 A 
ATOM     50  C   UNL A   1      47.083  27.149  29.018  1.00  0.00     0.031 A 
ATOM     51  C   UNL A   1      41.200  29.929  29.519  1.00  0.00     0.049 A 
ATOM     52  C   UNL A   1      46.619  28.522  29.422  1.00  0.00     0.074 A 
ATOM     53  C   UNL A   1      40.892  31.194  29.985  1.00  0.00     0.029 A 
ATOM     54  N   UNL A   1      42.579  29.807  29.570  1.00  0.00    -0.354 N 
ATOM     55  N   UNL A   1      45.396  28.990  29.508  1.00  0.00    -0.248 NA
ATOM     56  C   UNL A   1      47.661  29.492  29.789  1.00  0.00     0.031 C 
ATOM     57  C   UNL A   1      42.090  31.858  30.269  1.00  0.00     0.029 A 
ATOM     58  C   UNL A   1      43.139  30.986  30.031  1.00  0.00     0.049 A 
ATOM     59  H   UNL A   1      43.085  29.002  29.316  1.00  0.00     0.167 HD
ATOM     60  C   UNL A   1      45.521  30.296  29.962  1.00  0.00     0.074 A 
ATOM     61  C   UNL A   1      46.936  30.544  30.148  1.00  0.00     0.031 C 
ATOM     62  C   UNL A   1      44.551  31.212  30.206  1.00  0.00     0.031 A 
BRANCH  49  63
ATOM     63  C   UNL A   1      38.837  29.210  28.989  1.00  0.00    -0.014 A 
ATOM     64  C   UNL A   1      38.006  29.037  30.108  1.00  0.00     0.009 A 
ATOM     65  C   UNL A   1      38.282  29.706  27.800  1.00  0.00     0.009 A 
ATOM     66  C   UNL A   1      36.643  29.328  30.026  1.00  0.00     0.001 A 
ATOM     67  C   UNL A   1      36.925  30.020  27.728  1.00  0.00     0.001 A 
ATOM     68  C   UNL A   1      36.104  29.823  28.839  1.00  0.00     0.000 A 
ENDBRANCH  49  63
BRANCH  50  69
ATOM     69  C   UNL A   1      48.531  26.814  28.998  1.00  0.00    -0.014 A 
ATOM     70  C   UNL A   1      49.303  27.022  27.844  1.00  0.00     0.009 A 
ATOM     71  C   UNL A   1      49.146  26.268  30.136  1.00  0.00     0.009 A 
ATOM     72  C   UNL A   1      50.654  26.667  27.824  1.00  0.00     0.001 A 
ATOM     73  C   UNL A   1      50.503  25.939  30.121  1.00  0.00     0.001 A 
ATOM     74  C   UNL A   1      51.253  26.130  28.963  1.00  0.00     0.000 A 
ENDBRANCH  50  69
BRANCH  62  75
ATOM     75  C   UNL A   1      44.984  32.552  30.727  1.00  0.00    -0.014 A 
ATOM     76  C   UNL A   1      45.139  32.783  32.102  1.00  0.00     0.009 A 
ATOM     77  C   UNL A   1      45.286  33.584  29.824  1.00  0.00     0.009 A 
ATOM     78  C   UNL A   1      45.557  34.033  32.565  1.00  0.00     0.001 A 
ATOM     79  C   UNL A   1      45.729  34.824  30.288  1.00  0.00     0.001 A 
ATOM     80  C   UNL A   1      45.856  35.049  31.658  1.00  0.00     0.000 A 
ENDBRANCH  62  75
ENDBRANCH  36  37
ENDBRANCH  29  31
ENDBRANCH  28  29
ENDBRANCH  27  28
ENDBRANCH  26  27
ENDBRANCH   1  26
TORSDOF 18
ENDMDL
