MODEL 1
REMARK VINA RESULT:     -11.4      0.000      0.000
REMARK SMILES Cc1cc(C)n(C)c(=O)c1C(=O)[NH+]1CCC2(CC1)C[NH2+][C@@H](C(=O)OCCOCCOC(=O)c1ccc(-c3c4nc(c(-c5ccccc5)c5ccc([nH]5)c(-c5ccccc5)c5nc(c(-c6ccccc6)c6ccc3[nH]6)C=C5)C=C4)cc1)C2
REMARK SMILES IDX 27 1 26 2 25 3 24 4 22 5 23 6 21 7 13 8 14 9 18 10 15 12
REMARK SMILES IDX 17 13 16 14 19 15 81 16 20 17 11 20 12 21 10 22 1 23 2 24
REMARK SMILES IDX 3 25 4 26 8 27 5 28 6 29 9 30 7 31 28 32 29 33 30 34 31 35
REMARK SMILES IDX 32 36 33 37 34 38 80 39 35 40 79 41 36 42 37 43 38 44 73 45
REMARK SMILES IDX 39 46 78 47 72 48 74 49 40 50 77 51 71 52 70 53 41 55 63 56
REMARK SMILES IDX 48 57 62 58 49 59 52 60 61 61 75 62 50 63 51 64 60 66 76 67
REMARK SMILES IDX 53 68 42 69 43 70 47 71 44 72 46 73 45 74 64 75 65 76 69 77
REMARK SMILES IDX 66 78 68 79 67 80 54 81 55 82 59 83 56 84 58 85 57 86
REMARK H PARENT 13 11 20 18 20 19 74 54 52 65
REMARK Flexibility Score: inf
ROOT
ATOM      1  O   UNL A   1      43.983  19.965  24.595  1.00  0.00    -0.374 OA
ENDROOT
BRANCH   1   2
ATOM      2  C   UNL A   1      42.959  19.577  25.511  1.00  0.00     0.202 C 
BRANCH   2   3
ATOM      3  C   UNL A   1      42.460  20.655  26.476  1.00  0.00     0.261 C 
BRANCH   3   4
ATOM      4  O   UNL A   1      41.319  21.329  25.928  1.00  0.00    -0.459 OA
BRANCH   4   5
ATOM      5  C   UNL A   1      40.395  21.754  26.828  1.00  0.00     0.364 C 
ATOM      6  O   UNL A   1      40.420  21.511  28.031  1.00  0.00    -0.245 OA
BRANCH   5   7
ATOM      7  C   UNL A   1      39.276  22.574  26.189  1.00  0.00     0.294 C 
ATOM      8  N   UNL A   1      34.404  22.822  24.227  1.00  0.00    -0.267 N 
ATOM      9  C   UNL A   1      35.642  22.611  23.492  1.00  0.00     0.271 C 
ATOM     10  C   UNL A   1      34.391  22.185  25.534  1.00  0.00     0.271 C 
ATOM     11  H   UNL A   1      34.366  21.879  24.509  1.00  0.00     0.357 HD
ATOM     12  C   UNL A   1      36.725  23.411  24.193  1.00  0.00     0.075 C 
ATOM     13  C   UNL A   1      35.619  22.536  26.398  1.00  0.00     0.075 C 
ATOM     14  C   UNL A   1      36.931  22.979  25.669  1.00  0.00     0.036 C 
ATOM     15  C   UNL A   1      37.616  24.152  26.432  1.00  0.00     0.268 C 
ATOM     16  C   UNL A   1      38.006  21.857  25.736  1.00  0.00     0.090 C 
ATOM     17  N   UNL A   1      38.740  23.557  27.144  1.00  0.00    -0.334 N 
ATOM     18  H   UNL A   1      38.427  23.099  28.000  1.00  0.00     0.347 HD
ATOM     19  H   UNL A   1      39.434  24.246  27.433  1.00  0.00     0.347 HD
BRANCH   8  20
ATOM     20  C   UNL A   1      33.402  23.562  23.609  1.00  0.00     0.350 C 
ATOM     21  O   UNL A   1      33.144  23.380  22.414  1.00  0.00    -0.225 OA
BRANCH  20  22
ATOM     22  C   UNL A   1      32.697  24.696  24.299  1.00  0.00     0.147 A 
ATOM     23  C   UNL A   1      30.976  23.241  25.517  1.00  0.00     0.045 C 
ATOM     24  C   UNL A   1      31.677  24.517  25.171  1.00  0.00    -0.027 A 
ATOM     25  C   UNL A   1      31.246  25.601  26.032  1.00  0.00     0.026 A 
ATOM     26  C   UNL A   1      31.983  26.706  26.198  1.00  0.00     0.018 A 
ATOM     27  C   UNL A   1      33.394  26.041  24.315  1.00  0.00     0.267 A 
ATOM     28  C   UNL A   1      31.580  27.689  27.263  1.00  0.00     0.064 C 
ATOM     29  N   UNL A   1      33.089  26.909  25.381  1.00  0.00    -0.315 N 
ATOM     30  O   UNL A   1      34.195  26.338  23.429  1.00  0.00    -0.268 OA
ATOM     31  C   UNL A   1      33.952  28.066  25.578  1.00  0.00     0.153 C 
ENDBRANCH  20  22
ENDBRANCH   8  20
ENDBRANCH   5   7
ENDBRANCH   4   5
ENDBRANCH   3   4
ENDBRANCH   2   3
ENDBRANCH   1   2
BRANCH   1  32
ATOM     32  C   UNL A   1      44.757  21.118  24.920  1.00  0.00     0.202 C 
BRANCH  32  33
ATOM     33  C   UNL A   1      44.644  22.324  23.978  1.00  0.00     0.261 C 
BRANCH  33  34
ATOM     34  O   UNL A   1      43.808  23.367  24.515  1.00  0.00    -0.460 OA
BRANCH  34  35
ATOM     35  C   UNL A   1      44.481  24.447  24.974  1.00  0.00     0.338 C 
ATOM     36  O   UNL A   1      45.584  24.844  24.618  1.00  0.00    -0.246 OA
BRANCH  35  37
ATOM     37  C   UNL A   1      43.621  25.238  25.870  1.00  0.00     0.060 A 
ATOM     38  C   UNL A   1      43.921  26.598  26.016  1.00  0.00     0.016 A 
ATOM     39  C   UNL A   1      42.605  24.648  26.623  1.00  0.00     0.016 A 
ATOM     40  C   UNL A   1      43.236  27.366  26.952  1.00  0.00     0.010 A 
ATOM     41  C   UNL A   1      41.926  25.418  27.573  1.00  0.00     0.010 A 
ATOM     42  C   UNL A   1      42.264  26.769  27.766  1.00  0.00    -0.014 A 
BRANCH  42  43
ATOM     43  C   UNL A   1      41.734  27.525  28.924  1.00  0.00     0.031 A 
ATOM     44  C   UNL A   1      42.493  27.495  30.221  1.00  0.00     0.074 A 
ATOM     45  C   UNL A   1      40.633  28.287  28.806  1.00  0.00     0.049 A 
ATOM     46  N   UNL A   1      42.233  28.107  31.348  1.00  0.00    -0.248 NA
ATOM     47  C   UNL A   1      43.714  26.672  30.247  1.00  0.00     0.031 C 
ATOM     48  C   UNL A   1      39.853  28.459  27.583  1.00  0.00     0.029 A 
ATOM     49  N   UNL A   1      39.996  29.075  29.730  1.00  0.00    -0.354 N 
ATOM     50  C   UNL A   1      43.261  27.754  32.212  1.00  0.00     0.074 A 
ATOM     51  C   UNL A   1      44.125  26.841  31.495  1.00  0.00     0.031 C 
ATOM     52  C   UNL A   1      38.848  29.317  27.827  1.00  0.00     0.029 A 
ATOM     53  C   UNL A   1      38.897  29.727  29.230  1.00  0.00     0.049 A 
ATOM     54  H   UNL A   1      40.298  29.164  30.663  1.00  0.00     0.167 HD
ATOM     55  C   UNL A   1      43.479  28.163  33.485  1.00  0.00     0.031 A 
ATOM     56  C   UNL A   1      38.025  30.556  29.836  1.00  0.00     0.031 A 
ATOM     57  C   UNL A   1      42.605  29.044  34.212  1.00  0.00     0.049 A 
ATOM     58  C   UNL A   1      38.211  30.894  31.290  1.00  0.00     0.074 A 
ATOM     59  C   UNL A   1      42.728  29.499  35.514  1.00  0.00     0.029 A 
ATOM     60  N   UNL A   1      41.441  29.596  33.702  1.00  0.00    -0.354 N 
ATOM     61  N   UNL A   1      39.180  30.544  32.101  1.00  0.00    -0.248 NA
ATOM     62  C   UNL A   1      37.181  31.739  31.910  1.00  0.00     0.031 C 
ATOM     63  C   UNL A   1      41.607  30.282  35.807  1.00  0.00     0.029 A 
ATOM     64  C   UNL A   1      40.818  30.364  34.671  1.00  0.00     0.049 A 
ATOM     65  H   UNL A   1      41.106  29.462  32.785  1.00  0.00     0.167 HD
ATOM     66  C   UNL A   1      38.888  31.142  33.321  1.00  0.00     0.074 A 
ATOM     67  C   UNL A   1      37.657  31.884  33.140  1.00  0.00     0.031 C 
ATOM     68  C   UNL A   1      39.583  31.084  34.484  1.00  0.00     0.031 A 
BRANCH  55  69
ATOM     69  C   UNL A   1      44.701  27.626  34.175  1.00  0.00    -0.014 A 
ATOM     70  C   UNL A   1      45.924  28.316  34.126  1.00  0.00     0.009 A 
ATOM     71  C   UNL A   1      44.629  26.423  34.893  1.00  0.00     0.009 A 
ATOM     72  C   UNL A   1      47.057  27.790  34.747  1.00  0.00     0.001 A 
ATOM     73  C   UNL A   1      45.757  25.914  35.537  1.00  0.00     0.001 A 
ATOM     74  C   UNL A   1      46.973  26.593  35.455  1.00  0.00     0.000 A 
ENDBRANCH  55  69
BRANCH  56  75
ATOM     75  C   UNL A   1      36.904  31.134  29.055  1.00  0.00    -0.014 A 
ATOM     76  C   UNL A   1      35.788  30.349  28.728  1.00  0.00     0.009 A 
ATOM     77  C   UNL A   1      36.924  32.482  28.664  1.00  0.00     0.009 A 
ATOM     78  C   UNL A   1      34.715  30.902  28.025  1.00  0.00     0.001 A 
ATOM     79  C   UNL A   1      35.840  33.039  27.982  1.00  0.00     0.001 A 
ATOM     80  C   UNL A   1      34.738  32.247  27.661  1.00  0.00     0.000 A 
ENDBRANCH  56  75
BRANCH  68  81
ATOM     81  C   UNL A   1      39.040  31.848  35.659  1.00  0.00    -0.014 A 
ATOM     82  C   UNL A   1      39.281  33.223  35.804  1.00  0.00     0.009 A 
ATOM     83  C   UNL A   1      38.216  31.199  36.592  1.00  0.00     0.009 A 
ATOM     84  C   UNL A   1      38.721  33.929  36.871  1.00  0.00     0.001 A 
ATOM     85  C   UNL A   1      37.636  31.913  37.643  1.00  0.00     0.001 A 
ATOM     86  C   UNL A   1      37.893  33.275  37.784  1.00  0.00     0.000 A 
ENDBRANCH  68  81
ENDBRANCH  42  43
ENDBRANCH  35  37
ENDBRANCH  34  35
ENDBRANCH  33  34
ENDBRANCH  32  33
ENDBRANCH   1  32
TORSDOF 16
ENDMDL
MODEL 2
REMARK VINA RESULT:     -11.2      1.221      5.932
REMARK SMILES Cc1cc(C)n(C)c(=O)c1C(=O)[NH+]1CCC2(CC1)C[NH2+][C@@H](C(=O)OCCOCCOC(=O)c1ccc(-c3c4nc(c(-c5ccccc5)c5ccc([nH]5)c(-c5ccccc5)c5nc(c(-c6ccccc6)c6ccc3[nH]6)C=C5)C=C4)cc1)C2
REMARK SMILES IDX 27 1 26 2 25 3 24 4 22 5 23 6 21 7 13 8 14 9 18 10 15 12
REMARK SMILES IDX 17 13 16 14 19 15 81 16 20 17 11 20 12 21 10 22 1 23 2 24
REMARK SMILES IDX 3 25 4 26 8 27 5 28 6 29 9 30 7 31 28 32 29 33 30 34 31 35
REMARK SMILES IDX 32 36 33 37 34 38 80 39 35 40 79 41 36 42 37 43 38 44 73 45
REMARK SMILES IDX 39 46 78 47 72 48 74 49 40 50 77 51 71 52 70 53 41 55 63 56
REMARK SMILES IDX 48 57 62 58 49 59 52 60 61 61 75 62 50 63 51 64 60 66 76 67
REMARK SMILES IDX 53 68 42 69 43 70 47 71 44 72 46 73 45 74 64 75 65 76 69 77
REMARK SMILES IDX 66 78 68 79 67 80 54 81 55 82 59 83 56 84 58 85 57 86
REMARK H PARENT 13 11 20 18 20 19 74 54 52 65
REMARK Flexibility Score: inf
ROOT
ATOM      1  O   UNL A   1      42.442  20.951  27.239  1.00  0.00    -0.374 OA
ENDROOT
BRANCH   1   2
ATOM      2  C   UNL A   1      41.071  21.329  27.368  1.00  0.00     0.202 C 
BRANCH   2   3
ATOM      3  C   UNL A   1      40.153  20.985  26.193  1.00  0.00     0.261 C 
BRANCH   3   4
ATOM      4  O   UNL A   1      38.942  21.751  26.262  1.00  0.00    -0.459 OA
BRANCH   4   5
ATOM      5  C   UNL A   1      37.908  21.290  25.512  1.00  0.00     0.364 C 
ATOM      6  O   UNL A   1      37.898  20.222  24.907  1.00  0.00    -0.245 OA
BRANCH   5   7
ATOM      7  C   UNL A   1      36.726  22.256  25.472  1.00  0.00     0.294 C 
ATOM      8  N   UNL A   1      32.888  24.599  22.747  1.00  0.00    -0.267 N 
ATOM      9  C   UNL A   1      34.221  25.116  23.015  1.00  0.00     0.271 C 
ATOM     10  C   UNL A   1      32.855  23.162  22.532  1.00  0.00     0.271 C 
ATOM     11  H   UNL A   1      33.214  24.027  22.015  1.00  0.00     0.357 HD
ATOM     12  C   UNL A   1      34.625  24.627  24.395  1.00  0.00     0.075 C 
ATOM     13  C   UNL A   1      33.549  22.359  23.652  1.00  0.00     0.075 C 
ATOM     14  C   UNL A   1      34.649  23.079  24.501  1.00  0.00     0.036 C 
ATOM     15  C   UNL A   1      34.527  22.689  26.004  1.00  0.00     0.268 C 
ATOM     16  C   UNL A   1      36.065  22.555  24.128  1.00  0.00     0.090 C 
ATOM     17  N   UNL A   1      35.595  21.727  26.251  1.00  0.00    -0.334 N 
ATOM     18  H   UNL A   1      35.330  20.798  25.923  1.00  0.00     0.347 HD
ATOM     19  H   UNL A   1      35.812  21.623  27.242  1.00  0.00     0.347 HD
BRANCH   8  20
ATOM     20  C   UNL A   1      31.837  25.510  22.706  1.00  0.00     0.350 C 
ATOM     21  O   UNL A   1      31.274  25.758  21.635  1.00  0.00    -0.225 OA
BRANCH  20  22
ATOM     22  C   UNL A   1      31.436  26.331  23.900  1.00  0.00     0.147 A 
ATOM     23  C   UNL A   1      30.765  24.348  25.376  1.00  0.00     0.045 C 
ATOM     24  C   UNL A   1      31.026  25.790  25.070  1.00  0.00    -0.027 A 
ATOM     25  C   UNL A   1      30.951  26.601  26.270  1.00  0.00     0.026 A 
ATOM     26  C   UNL A   1      31.522  27.810  26.341  1.00  0.00     0.018 A 
ATOM     27  C   UNL A   1      31.866  27.783  23.920  1.00  0.00     0.267 A 
ATOM     28  C   UNL A   1      31.587  28.500  27.676  1.00  0.00     0.064 C 
ATOM     29  N   UNL A   1      32.031  28.386  25.183  1.00  0.00    -0.315 N 
ATOM     30  O   UNL A   1      32.067  28.389  22.868  1.00  0.00    -0.268 OA
ATOM     31  C   UNL A   1      32.718  29.669  25.235  1.00  0.00     0.153 C 
ENDBRANCH  20  22
ENDBRANCH   8  20
ENDBRANCH   5   7
ENDBRANCH   4   5
ENDBRANCH   3   4
ENDBRANCH   2   3
ENDBRANCH   1   2
BRANCH   1  32
ATOM     32  C   UNL A   1      42.986  20.880  25.922  1.00  0.00     0.202 C 
BRANCH  32  33
ATOM     33  C   UNL A   1      43.901  22.030  25.482  1.00  0.00     0.261 C 
BRANCH  33  34
ATOM     34  O   UNL A   1      43.166  23.222  25.144  1.00  0.00    -0.460 OA
BRANCH  34  35
ATOM     35  C   UNL A   1      43.857  24.374  25.303  1.00  0.00     0.338 C 
ATOM     36  O   UNL A   1      44.845  24.743  24.679  1.00  0.00    -0.246 OA
BRANCH  35  37
ATOM     37  C   UNL A   1      43.150  25.265  26.238  1.00  0.00     0.060 A 
ATOM     38  C   UNL A   1      43.632  26.573  26.371  1.00  0.00     0.016 A 
ATOM     39  C   UNL A   1      42.100  24.808  27.036  1.00  0.00     0.016 A 
ATOM     40  C   UNL A   1      43.097  27.418  27.338  1.00  0.00     0.010 A 
ATOM     41  C   UNL A   1      41.572  25.654  28.016  1.00  0.00     0.010 A 
ATOM     42  C   UNL A   1      42.093  26.949  28.195  1.00  0.00    -0.014 A 
BRANCH  42  43
ATOM     43  C   UNL A   1      41.720  27.760  29.377  1.00  0.00     0.031 A 
ATOM     44  C   UNL A   1      40.509  28.647  29.296  1.00  0.00     0.074 A 
ATOM     45  C   UNL A   1      42.402  27.657  30.529  1.00  0.00     0.049 A 
ATOM     46  N   UNL A   1      39.980  29.414  30.215  1.00  0.00    -0.248 NA
ATOM     47  C   UNL A   1      39.793  28.663  28.009  1.00  0.00     0.031 C 
ATOM     48  C   UNL A   1      43.546  26.776  30.757  1.00  0.00     0.029 A 
ATOM     49  N   UNL A   1      42.213  28.287  31.733  1.00  0.00    -0.354 N 
ATOM     50  C   UNL A   1      38.865  29.993  29.623  1.00  0.00     0.074 A 
ATOM     51  C   UNL A   1      38.818  29.525  28.255  1.00  0.00     0.031 C 
ATOM     52  C   UNL A   1      43.948  26.909  32.032  1.00  0.00     0.029 A 
ATOM     53  C   UNL A   1      43.111  27.906  32.698  1.00  0.00     0.049 A 
ATOM     54  H   UNL A   1      41.502  28.949  31.889  1.00  0.00     0.167 HD
ATOM     55  C   UNL A   1      37.952  30.830  30.172  1.00  0.00     0.031 A 
ATOM     56  C   UNL A   1      43.246  28.319  33.973  1.00  0.00     0.031 A 
ATOM     57  C   UNL A   1      38.014  31.323  31.521  1.00  0.00     0.049 A 
ATOM     58  C   UNL A   1      42.298  29.350  34.523  1.00  0.00     0.074 A 
ATOM     59  C   UNL A   1      37.148  32.193  32.162  1.00  0.00     0.029 A 
ATOM     60  N   UNL A   1      39.004  30.997  32.434  1.00  0.00    -0.354 N 
ATOM     61  N   UNL A   1      41.256  29.901  33.951  1.00  0.00    -0.248 NA
ATOM     62  C   UNL A   1      42.550  29.815  35.895  1.00  0.00     0.031 C 
ATOM     63  C   UNL A   1      37.647  32.434  33.446  1.00  0.00     0.029 A 
ATOM     64  C   UNL A   1      38.790  31.670  33.625  1.00  0.00     0.049 A 
ATOM     65  H   UNL A   1      39.751  30.378  32.261  1.00  0.00     0.167 HD
ATOM     66  C   UNL A   1      40.714  30.763  34.898  1.00  0.00     0.074 A 
ATOM     67  C   UNL A   1      41.539  30.653  36.084  1.00  0.00     0.031 C 
ATOM     68  C   UNL A   1      39.628  31.567  34.793  1.00  0.00     0.031 A 
BRANCH  55  69
ATOM     69  C   UNL A   1      36.825  31.285  29.288  1.00  0.00    -0.014 A 
ATOM     70  C   UNL A   1      35.758  30.426  28.973  1.00  0.00     0.009 A 
ATOM     71  C   UNL A   1      36.822  32.589  28.771  1.00  0.00     0.009 A 
ATOM     72  C   UNL A   1      34.734  30.853  28.127  1.00  0.00     0.001 A 
ATOM     73  C   UNL A   1      35.781  33.022  27.948  1.00  0.00     0.001 A 
ATOM     74  C   UNL A   1      34.744  32.150  27.618  1.00  0.00     0.000 A 
ENDBRANCH  55  69
BRANCH  56  75
ATOM     75  C   UNL A   1      44.319  27.739  34.818  1.00  0.00    -0.014 A 
ATOM     76  C   UNL A   1      45.578  28.355  34.888  1.00  0.00     0.009 A 
ATOM     77  C   UNL A   1      44.081  26.590  35.588  1.00  0.00     0.009 A 
ATOM     78  C   UNL A   1      46.576  27.831  35.713  1.00  0.00     0.001 A 
ATOM     79  C   UNL A   1      45.074  26.081  36.429  1.00  0.00     0.001 A 
ATOM     80  C   UNL A   1      46.321  26.702  36.488  1.00  0.00     0.000 A 
ENDBRANCH  56  75
BRANCH  68  81
ATOM     81  C   UNL A   1      39.253  32.392  35.992  1.00  0.00    -0.014 A 
ATOM     82  C   UNL A   1      39.769  33.684  36.173  1.00  0.00     0.009 A 
ATOM     83  C   UNL A   1      38.314  31.899  36.912  1.00  0.00     0.009 A 
ATOM     84  C   UNL A   1      39.366  34.459  37.263  1.00  0.00     0.001 A 
ATOM     85  C   UNL A   1      37.892  32.687  37.985  1.00  0.00     0.001 A 
ATOM     86  C   UNL A   1      38.423  33.962  38.162  1.00  0.00     0.000 A 
ENDBRANCH  68  81
ENDBRANCH  42  43
ENDBRANCH  35  37
ENDBRANCH  34  35
ENDBRANCH  33  34
ENDBRANCH  32  33
ENDBRANCH   1  32
TORSDOF 16
ENDMDL
MODEL 3
REMARK VINA RESULT:     -11.1      4.179      9.744
REMARK SMILES Cc1cc(C)n(C)c(=O)c1C(=O)[NH+]1CCC2(CC1)C[NH2+][C@@H](C(=O)OCCOCCOC(=O)c1ccc(-c3c4nc(c(-c5ccccc5)c5ccc([nH]5)c(-c5ccccc5)c5nc(c(-c6ccccc6)c6ccc3[nH]6)C=C5)C=C4)cc1)C2
REMARK SMILES IDX 27 1 26 2 25 3 24 4 22 5 23 6 21 7 13 8 14 9 18 10 15 12
REMARK SMILES IDX 17 13 16 14 19 15 81 16 20 17 11 20 12 21 10 22 1 23 2 24
REMARK SMILES IDX 3 25 4 26 8 27 5 28 6 29 9 30 7 31 28 32 29 33 30 34 31 35
REMARK SMILES IDX 32 36 33 37 34 38 80 39 35 40 79 41 36 42 37 43 38 44 73 45
REMARK SMILES IDX 39 46 78 47 72 48 74 49 40 50 77 51 71 52 70 53 41 55 63 56
REMARK SMILES IDX 48 57 62 58 49 59 52 60 61 61 75 62 50 63 51 64 60 66 76 67
REMARK SMILES IDX 53 68 42 69 43 70 47 71 44 72 46 73 45 74 64 75 65 76 69 77
REMARK SMILES IDX 66 78 68 79 67 80 54 81 55 82 59 83 56 84 58 85 57 86
REMARK H PARENT 13 11 20 18 20 19 74 54 52 65
REMARK Flexibility Score: inf
ROOT
ATOM      1  O   UNL A   1      34.342  33.593  29.148  1.00  0.00    -0.374 OA
ENDROOT
BRANCH   1   2
ATOM      2  C   UNL A   1      35.221  33.033  28.172  1.00  0.00     0.202 C 
BRANCH   2   3
ATOM      3  C   UNL A   1      34.841  31.659  27.618  1.00  0.00     0.261 C 
BRANCH   3   4
ATOM      4  O   UNL A   1      33.495  31.324  27.987  1.00  0.00    -0.459 OA
BRANCH   4   5
ATOM      5  C   UNL A   1      32.655  31.035  26.959  1.00  0.00     0.364 C 
ATOM      6  O   UNL A   1      31.794  31.791  26.520  1.00  0.00    -0.245 OA
BRANCH   5   7
ATOM      7  C   UNL A   1      32.873  29.635  26.391  1.00  0.00     0.294 C 
ATOM      8  N   UNL A   1      31.084  24.761  25.559  1.00  0.00    -0.267 N 
ATOM      9  C   UNL A   1      31.916  25.219  26.661  1.00  0.00     0.271 C 
ATOM     10  C   UNL A   1      30.100  25.741  25.129  1.00  0.00     0.271 C 
ATOM     11  H   UNL A   1      30.266  25.113  25.979  1.00  0.00     0.357 HD
ATOM     12  C   UNL A   1      32.832  26.301  26.116  1.00  0.00     0.075 C 
ATOM     13  C   UNL A   1      30.706  27.127  24.830  1.00  0.00     0.075 C 
ATOM     14  C   UNL A   1      32.054  27.509  25.530  1.00  0.00     0.036 C 
ATOM     15  C   UNL A   1      32.992  28.264  24.543  1.00  0.00     0.268 C 
ATOM     16  C   UNL A   1      31.816  28.564  26.648  1.00  0.00     0.090 C 
ATOM     17  N   UNL A   1      32.912  29.670  24.920  1.00  0.00    -0.334 N 
ATOM     18  H   UNL A   1      32.067  30.100  24.544  1.00  0.00     0.347 HD
ATOM     19  H   UNL A   1      33.690  30.221  24.558  1.00  0.00     0.347 HD
BRANCH   8  20
ATOM     20  C   UNL A   1      31.302  23.476  25.075  1.00  0.00     0.350 C 
ATOM     21  O   UNL A   1      30.474  22.584  25.288  1.00  0.00    -0.225 OA
BRANCH  20  22
ATOM     22  C   UNL A   1      32.589  23.072  24.411  1.00  0.00     0.147 A 
ATOM     23  C   UNL A   1      32.399  24.701  22.443  1.00  0.00     0.045 C 
ATOM     24  C   UNL A   1      33.069  23.667  23.294  1.00  0.00    -0.027 A 
ATOM     25  C   UNL A   1      34.442  23.458  22.879  1.00  0.00     0.026 A 
ATOM     26  C   UNL A   1      35.349  22.908  23.696  1.00  0.00     0.018 A 
ATOM     27  C   UNL A   1      33.561  22.244  25.226  1.00  0.00     0.267 A 
ATOM     28  C   UNL A   1      36.795  22.915  23.278  1.00  0.00     0.064 C 
ATOM     29  N   UNL A   1      34.927  22.347  24.896  1.00  0.00    -0.315 N 
ATOM     30  O   UNL A   1      33.155  21.526  26.141  1.00  0.00    -0.268 OA
ATOM     31  C   UNL A   1      35.893  21.800  25.838  1.00  0.00     0.153 C 
ENDBRANCH  20  22
ENDBRANCH   8  20
ENDBRANCH   5   7
ENDBRANCH   4   5
ENDBRANCH   3   4
ENDBRANCH   2   3
ENDBRANCH   1   2
BRANCH   1  32
ATOM     32  C   UNL A   1      34.931  34.173  30.311  1.00  0.00     0.202 C 
BRANCH  32  33
ATOM     33  C   UNL A   1      34.454  33.647  31.671  1.00  0.00     0.261 C 
BRANCH  33  34
ATOM     34  O   UNL A   1      34.791  32.262  31.877  1.00  0.00    -0.460 OA
BRANCH  34  35
ATOM     35  C   UNL A   1      35.876  32.057  32.659  1.00  0.00     0.338 C 
ATOM     36  O   UNL A   1      36.002  32.336  33.845  1.00  0.00    -0.246 OA
BRANCH  35  37
ATOM     37  C   UNL A   1      36.879  31.257  31.937  1.00  0.00     0.060 A 
ATOM     38  C   UNL A   1      38.064  30.944  32.615  1.00  0.00     0.016 A 
ATOM     39  C   UNL A   1      36.709  30.900  30.598  1.00  0.00     0.016 A 
ATOM     40  C   UNL A   1      39.105  30.312  31.943  1.00  0.00     0.010 A 
ATOM     41  C   UNL A   1      37.761  30.277  29.920  1.00  0.00     0.010 A 
ATOM     42  C   UNL A   1      38.976  30.015  30.580  1.00  0.00    -0.014 A 
BRANCH  42  43
ATOM     43  C   UNL A   1      40.174  29.587  29.821  1.00  0.00     0.031 A 
ATOM     44  C   UNL A   1      41.312  30.555  29.654  1.00  0.00     0.074 A 
ATOM     45  C   UNL A   1      40.281  28.335  29.348  1.00  0.00     0.049 A 
ATOM     46  N   UNL A   1      42.465  30.383  29.060  1.00  0.00    -0.248 NA
ATOM     47  C   UNL A   1      41.129  31.891  30.245  1.00  0.00     0.031 C 
ATOM     48  C   UNL A   1      39.280  27.282  29.510  1.00  0.00     0.029 A 
ATOM     49  N   UNL A   1      41.297  27.732  28.651  1.00  0.00    -0.354 N 
ATOM     50  C   UNL A   1      43.149  31.582  29.216  1.00  0.00     0.074 A 
ATOM     51  C   UNL A   1      42.267  32.486  29.920  1.00  0.00     0.031 C 
ATOM     52  C   UNL A   1      39.740  26.155  28.943  1.00  0.00     0.029 A 
ATOM     53  C   UNL A   1      41.052  26.416  28.351  1.00  0.00     0.049 A 
ATOM     54  H   UNL A   1      42.123  28.200  28.391  1.00  0.00     0.167 HD
ATOM     55  C   UNL A   1      44.405  31.900  28.822  1.00  0.00     0.031 A 
ATOM     56  C   UNL A   1      41.798  25.524  27.672  1.00  0.00     0.031 A 
ATOM     57  C   UNL A   1      45.273  31.016  28.093  1.00  0.00     0.049 A 
ATOM     58  C   UNL A   1      43.138  25.938  27.128  1.00  0.00     0.074 A 
ATOM     59  C   UNL A   1      46.555  31.253  27.629  1.00  0.00     0.029 A 
ATOM     60  N   UNL A   1      44.942  29.724  27.714  1.00  0.00    -0.354 N 
ATOM     61  N   UNL A   1      43.769  27.079  27.269  1.00  0.00    -0.248 NA
ATOM     62  C   UNL A   1      43.864  24.942  26.328  1.00  0.00     0.031 C 
ATOM     63  C   UNL A   1      46.978  30.124  26.921  1.00  0.00     0.029 A 
ATOM     64  C   UNL A   1      45.984  29.161  26.994  1.00  0.00     0.049 A 
ATOM     65  H   UNL A   1      44.092  29.273  27.924  1.00  0.00     0.167 HD
ATOM     66  C   UNL A   1      44.975  26.932  26.595  1.00  0.00     0.074 A 
ATOM     67  C   UNL A   1      44.990  25.588  26.053  1.00  0.00     0.031 C 
ATOM     68  C   UNL A   1      45.980  27.829  26.445  1.00  0.00     0.031 A 
BRANCH  55  69
ATOM     69  C   UNL A   1      44.894  33.283  29.150  1.00  0.00    -0.014 A 
ATOM     70  C   UNL A   1      44.672  34.358  28.273  1.00  0.00     0.009 A 
ATOM     71  C   UNL A   1      45.575  33.517  30.354  1.00  0.00     0.009 A 
ATOM     72  C   UNL A   1      45.158  35.630  28.579  1.00  0.00     0.001 A 
ATOM     73  C   UNL A   1      46.035  34.797  30.670  1.00  0.00     0.001 A 
ATOM     74  C   UNL A   1      45.835  35.849  29.777  1.00  0.00     0.000 A 
ENDBRANCH  55  69
BRANCH  56  75
ATOM     75  C   UNL A   1      41.291  24.141  27.484  1.00  0.00    -0.014 A 
ATOM     76  C   UNL A   1      41.826  23.082  28.233  1.00  0.00     0.009 A 
ATOM     77  C   UNL A   1      40.246  23.879  26.585  1.00  0.00     0.009 A 
ATOM     78  C   UNL A   1      41.323  21.788  28.085  1.00  0.00     0.001 A 
ATOM     79  C   UNL A   1      39.730  22.587  26.455  1.00  0.00     0.001 A 
ATOM     80  C   UNL A   1      40.271  21.543  27.204  1.00  0.00     0.000 A 
ENDBRANCH  56  75
BRANCH  68  81
ATOM     81  C   UNL A   1      47.192  27.394  25.670  1.00  0.00    -0.014 A 
ATOM     82  C   UNL A   1      48.243  26.705  26.295  1.00  0.00     0.009 A 
ATOM     83  C   UNL A   1      47.249  27.611  24.284  1.00  0.00     0.009 A 
ATOM     84  C   UNL A   1      49.337  26.258  25.548  1.00  0.00     0.001 A 
ATOM     85  C   UNL A   1      48.330  27.139  23.536  1.00  0.00     0.001 A 
ATOM     86  C   UNL A   1      49.374  26.469  24.170  1.00  0.00     0.000 A 
ENDBRANCH  68  81
ENDBRANCH  42  43
ENDBRANCH  35  37
ENDBRANCH  34  35
ENDBRANCH  33  34
ENDBRANCH  32  33
ENDBRANCH   1  32
TORSDOF 16
ENDMDL
