MODEL 1
REMARK VINA RESULT:      -9.2      0.000      0.000
REMARK SMILES CS(=O)(=O)c1ccc(/C=C(/C(=O)OCCOCCOC(=O)c2ccc(-c3c4nc(c(-c5ccccc5)c5ccc([nH]5)c(-c5ccccc5)c5nc(c(-c6ccccc6)c6ccc3[nH]6)C=C5)C=C4)cc2)c2cccc(Br)c2)cc1
REMARK SMILES IDX 16 1 15 2 14 3 13 4 11 5 12 6 10 7 9 8 8 9 5 10 6 11 78 12
REMARK SMILES IDX 7 13 77 14 2 15 1 16 3 17 4 18 70 19 71 20 76 21 72 22 74 23
REMARK SMILES IDX 73 24 75 25 17 26 18 27 19 28 20 29 21 30 22 31 23 32 69 33
REMARK SMILES IDX 24 34 68 35 25 36 26 37 27 38 62 39 28 40 67 41 61 42 63 43
REMARK SMILES IDX 29 44 66 45 60 46 59 47 30 49 52 50 37 51 51 52 38 53 41 54
REMARK SMILES IDX 50 55 64 56 39 57 40 58 49 60 65 61 42 62 31 63 32 64 36 65
REMARK SMILES IDX 33 66 35 67 34 68 53 69 54 70 58 71 55 72 57 73 56 74 43 75
REMARK SMILES IDX 44 76 48 77 45 78 47 79 46 80
REMARK H PARENT 63 48 41 59
REMARK Flexibility Score: inf
ROOT
ATOM      1  O   UNL A   1      44.735  20.693  23.860  1.00  0.00    -0.374 OA
ENDROOT
BRANCH   1   2
ATOM      2  C   UNL A   1      44.920  22.093  24.071  1.00  0.00     0.202 C 
BRANCH   2   3
ATOM      3  C   UNL A   1      46.362  22.587  24.217  1.00  0.00     0.261 C 
BRANCH   3   4
ATOM      4  O   UNL A   1      46.410  24.016  24.376  1.00  0.00    -0.460 OA
BRANCH   4   5
ATOM      5  C   UNL A   1      46.886  24.432  25.579  1.00  0.00     0.338 C 
ATOM      6  O   UNL A   1      47.184  23.702  26.514  1.00  0.00    -0.246 OA
BRANCH   5   7
ATOM      7  C   UNL A   1      47.123  25.911  25.614  1.00  0.00     0.067 C 
ATOM      8  C   UNL A   1      46.305  26.721  26.328  1.00  0.00     0.024 C 
BRANCH   8   9
ATOM      9  C   UNL A   1      46.553  28.134  26.710  1.00  0.00    -0.025 A 
ATOM     10  C   UNL A   1      47.444  30.785  26.978  1.00  0.00     0.067 A 
ATOM     11  C   UNL A   1      46.179  30.523  26.451  1.00  0.00     0.021 A 
ATOM     12  C   UNL A   1      48.210  29.748  27.503  1.00  0.00     0.021 A 
ATOM     13  C   UNL A   1      45.724  29.206  26.356  1.00  0.00     0.009 A 
ATOM     14  C   UNL A   1      47.761  28.427  27.366  1.00  0.00     0.009 A 
BRANCH  10  15
ATOM     15  S   UNL A   1      48.050  32.450  26.853  1.00  0.00     0.175 S 
ATOM     16  C   UNL A   1      48.121  33.116  28.488  1.00  0.00     0.163 C 
ATOM     17  O   UNL A   1      47.046  33.204  26.125  1.00  0.00    -0.224 OA
ATOM     18  O   UNL A   1      49.411  32.346  26.365  1.00  0.00    -0.224 OA
ENDBRANCH  10  15
ENDBRANCH   8   9
BRANCH   7  19
ATOM     19  C   UNL A   1      48.334  26.379  24.910  1.00  0.00    -0.010 A 
ATOM     20  C   UNL A   1      49.590  26.199  25.514  1.00  0.00     0.009 A 
ATOM     21  C   UNL A   1      48.258  26.961  23.641  1.00  0.00     0.024 A 
ATOM     22  C   UNL A   1      50.758  26.577  24.851  1.00  0.00     0.002 A 
ATOM     23  C   UNL A   1      49.431  27.327  22.982  1.00  0.00     0.018 A 
ATOM     24  C   UNL A   1      50.678  27.137  23.578  1.00  0.00     0.016 A 
ATOM     25  Br  UNL A   1      49.331  28.064  21.244  1.00  0.00    -0.051 Br
ENDBRANCH   7  19
ENDBRANCH   5   7
ENDBRANCH   4   5
ENDBRANCH   3   4
ENDBRANCH   2   3
ENDBRANCH   1   2
BRANCH   1  26
ATOM     26  C   UNL A   1      44.946  19.826  24.970  1.00  0.00     0.202 C 
BRANCH  26  27
ATOM     27  C   UNL A   1      43.715  19.146  25.580  1.00  0.00     0.261 C 
BRANCH  27  28
ATOM     28  O   UNL A   1      42.494  19.535  24.932  1.00  0.00    -0.460 OA
BRANCH  28  29
ATOM     29  C   UNL A   1      41.438  19.672  25.764  1.00  0.00     0.338 C 
ATOM     30  O   UNL A   1      40.611  18.820  26.069  1.00  0.00    -0.246 OA
BRANCH  29  31
ATOM     31  C   UNL A   1      41.500  20.983  26.429  1.00  0.00     0.060 A 
ATOM     32  C   UNL A   1      41.862  22.092  25.652  1.00  0.00     0.016 A 
ATOM     33  C   UNL A   1      41.262  21.118  27.799  1.00  0.00     0.016 A 
ATOM     34  C   UNL A   1      42.032  23.336  26.251  1.00  0.00     0.010 A 
ATOM     35  C   UNL A   1      41.447  22.364  28.400  1.00  0.00     0.010 A 
ATOM     36  C   UNL A   1      41.866  23.469  27.634  1.00  0.00    -0.014 A 
BRANCH  36  37
ATOM     37  C   UNL A   1      42.294  24.711  28.313  1.00  0.00     0.031 A 
ATOM     38  C   UNL A   1      41.297  25.826  28.469  1.00  0.00     0.074 A 
ATOM     39  C   UNL A   1      43.545  24.846  28.786  1.00  0.00     0.049 A 
ATOM     40  N   UNL A   1      41.467  27.030  28.949  1.00  0.00    -0.248 NA
ATOM     41  C   UNL A   1      39.924  25.542  28.018  1.00  0.00     0.031 C 
ATOM     42  C   UNL A   1      44.580  23.815  28.751  1.00  0.00     0.029 A 
ATOM     43  N   UNL A   1      44.154  25.918  29.385  1.00  0.00    -0.354 N 
ATOM     44  C   UNL A   1      40.229  27.651  28.849  1.00  0.00     0.074 A 
ATOM     45  C   UNL A   1      39.324  26.701  28.238  1.00  0.00     0.031 C 
ATOM     46  C   UNL A   1      45.704  24.311  29.295  1.00  0.00     0.029 A 
ATOM     47  C   UNL A   1      45.477  25.703  29.678  1.00  0.00     0.049 A 
ATOM     48  H   UNL A   1      43.687  26.763  29.583  1.00  0.00     0.167 HD
ATOM     49  C   UNL A   1      39.877  28.900  29.231  1.00  0.00     0.031 A 
ATOM     50  C   UNL A   1      46.403  26.544  30.176  1.00  0.00     0.031 A 
ATOM     51  C   UNL A   1      40.783  29.848  29.821  1.00  0.00     0.049 A 
ATOM     52  C   UNL A   1      46.013  27.960  30.503  1.00  0.00     0.074 A 
ATOM     53  C   UNL A   1      40.526  31.139  30.244  1.00  0.00     0.029 A 
ATOM     54  N   UNL A   1      42.126  29.606  30.061  1.00  0.00    -0.354 N 
ATOM     55  N   UNL A   1      44.839  28.538  30.409  1.00  0.00    -0.248 NA
ATOM     56  C   UNL A   1      47.077  28.842  31.007  1.00  0.00     0.031 C 
ATOM     57  C   UNL A   1      41.727  31.697  30.694  1.00  0.00     0.029 A 
ATOM     58  C   UNL A   1      42.718  30.731  30.605  1.00  0.00     0.049 A 
ATOM     59  H   UNL A   1      42.590  28.757  29.874  1.00  0.00     0.167 HD
ATOM     60  C   UNL A   1      45.015  29.836  30.874  1.00  0.00     0.074 A 
ATOM     61  C   UNL A   1      46.408  29.960  31.252  1.00  0.00     0.031 C 
ATOM     62  C   UNL A   1      44.104  30.834  30.983  1.00  0.00     0.031 A 
BRANCH  49  63
ATOM     63  C   UNL A   1      38.457  29.322  28.982  1.00  0.00    -0.014 A 
ATOM     64  C   UNL A   1      38.033  29.751  27.714  1.00  0.00     0.009 A 
ATOM     65  C   UNL A   1      37.524  29.276  30.030  1.00  0.00     0.009 A 
ATOM     66  C   UNL A   1      36.712  30.158  27.510  1.00  0.00     0.001 A 
ATOM     67  C   UNL A   1      36.198  29.656  29.817  1.00  0.00     0.001 A 
ATOM     68  C   UNL A   1      35.796  30.107  28.561  1.00  0.00     0.000 A 
ENDBRANCH  49  63
BRANCH  50  69
ATOM     69  C   UNL A   1      47.800  26.079  30.377  1.00  0.00    -0.014 A 
ATOM     70  C   UNL A   1      48.677  25.961  29.289  1.00  0.00     0.009 A 
ATOM     71  C   UNL A   1      48.261  25.741  31.659  1.00  0.00     0.009 A 
ATOM     72  C   UNL A   1      49.979  25.492  29.477  1.00  0.00     0.001 A 
ATOM     73  C   UNL A   1      49.572  25.298  31.848  1.00  0.00     0.001 A 
ATOM     74  C   UNL A   1      50.427  25.165  30.756  1.00  0.00     0.000 A 
ENDBRANCH  50  69
BRANCH  62  75
ATOM     75  C   UNL A   1      44.566  32.132  31.580  1.00  0.00    -0.014 A 
ATOM     76  C   UNL A   1      44.436  32.393  32.953  1.00  0.00     0.009 A 
ATOM     77  C   UNL A   1      45.202  33.081  30.762  1.00  0.00     0.009 A 
ATOM     78  C   UNL A   1      44.913  33.592  33.489  1.00  0.00     0.001 A 
ATOM     79  C   UNL A   1      45.700  34.265  31.306  1.00  0.00     0.001 A 
ATOM     80  C   UNL A   1      45.550  34.523  32.667  1.00  0.00     0.000 A 
ENDBRANCH  62  75
ENDBRANCH  36  37
ENDBRANCH  29  31
ENDBRANCH  28  29
ENDBRANCH  27  28
ENDBRANCH  26  27
ENDBRANCH   1  26
TORSDOF 17
ENDMDL
MODEL 2
REMARK VINA RESULT:      -9.0      5.869     10.019
REMARK SMILES CS(=O)(=O)c1ccc(/C=C(/C(=O)OCCOCCOC(=O)c2ccc(-c3c4nc(c(-c5ccccc5)c5ccc([nH]5)c(-c5ccccc5)c5nc(c(-c6ccccc6)c6ccc3[nH]6)C=C5)C=C4)cc2)c2cccc(Br)c2)cc1
REMARK SMILES IDX 16 1 15 2 14 3 13 4 11 5 12 6 10 7 9 8 8 9 5 10 6 11 78 12
REMARK SMILES IDX 7 13 77 14 2 15 1 16 3 17 4 18 70 19 71 20 76 21 72 22 74 23
REMARK SMILES IDX 73 24 75 25 17 26 18 27 19 28 20 29 21 30 22 31 23 32 69 33
REMARK SMILES IDX 24 34 68 35 25 36 26 37 27 38 62 39 28 40 67 41 61 42 63 43
REMARK SMILES IDX 29 44 66 45 60 46 59 47 30 49 52 50 37 51 51 52 38 53 41 54
REMARK SMILES IDX 50 55 64 56 39 57 40 58 49 60 65 61 42 62 31 63 32 64 36 65
REMARK SMILES IDX 33 66 35 67 34 68 53 69 54 70 58 71 55 72 57 73 56 74 43 75
REMARK SMILES IDX 44 76 48 77 45 78 47 79 46 80
REMARK H PARENT 63 48 41 59
REMARK Flexibility Score: inf
ROOT
ATOM      1  O   UNL A   1      35.099  21.320  26.464  1.00  0.00    -0.374 OA
ENDROOT
BRANCH   1   2
ATOM      2  C   UNL A   1      33.952  22.152  26.292  1.00  0.00     0.202 C 
BRANCH   2   3
ATOM      3  C   UNL A   1      34.202  23.656  26.147  1.00  0.00     0.261 C 
BRANCH   3   4
ATOM      4  O   UNL A   1      33.026  24.337  25.675  1.00  0.00    -0.460 OA
BRANCH   4   5
ATOM      5  C   UNL A   1      33.098  24.752  24.383  1.00  0.00     0.338 C 
ATOM      6  O   UNL A   1      33.535  24.092  23.450  1.00  0.00    -0.246 OA
BRANCH   5   7
ATOM      7  C   UNL A   1      32.469  26.097  24.185  1.00  0.00     0.067 C 
ATOM      8  C   UNL A   1      31.855  26.403  23.016  1.00  0.00     0.024 C 
BRANCH   8   9
ATOM      9  C   UNL A   1      30.944  27.545  22.753  1.00  0.00    -0.025 A 
ATOM     10  C   UNL A   1      29.222  29.762  22.875  1.00  0.00     0.067 A 
ATOM     11  C   UNL A   1      30.521  29.912  22.389  1.00  0.00     0.021 A 
ATOM     12  C   UNL A   1      28.728  28.493  23.167  1.00  0.00     0.021 A 
ATOM     13  C   UNL A   1      31.361  28.800  22.293  1.00  0.00     0.009 A 
ATOM     14  C   UNL A   1      29.592  27.391  23.106  1.00  0.00     0.009 A 
BRANCH  10  15
ATOM     15  S   UNL A   1      28.294  31.243  23.190  1.00  0.00     0.175 S 
ATOM     16  C   UNL A   1      28.044  32.056  21.641  1.00  0.00     0.163 C 
ATOM     17  O   UNL A   1      29.143  32.102  23.995  1.00  0.00    -0.224 OA
ATOM     18  O   UNL A   1      26.996  30.809  23.670  1.00  0.00    -0.224 OA
ENDBRANCH  10  15
ENDBRANCH   8   9
BRANCH   7  19
ATOM     19  C   UNL A   1      32.489  26.990  25.360  1.00  0.00    -0.010 A 
ATOM     20  C   UNL A   1      31.345  27.084  26.170  1.00  0.00     0.009 A 
ATOM     21  C   UNL A   1      33.636  27.713  25.704  1.00  0.00     0.024 A 
ATOM     22  C   UNL A   1      31.351  27.873  27.320  1.00  0.00     0.002 A 
ATOM     23  C   UNL A   1      33.637  28.491  26.861  1.00  0.00     0.018 A 
ATOM     24  C   UNL A   1      32.502  28.574  27.670  1.00  0.00     0.016 A 
ATOM     25  Br  UNL A   1      35.204  29.424  27.355  1.00  0.00    -0.051 Br
ENDBRANCH   7  19
ENDBRANCH   5   7
ENDBRANCH   4   5
ENDBRANCH   3   4
ENDBRANCH   2   3
ENDBRANCH   1   2
BRANCH   1  26
ATOM     26  C   UNL A   1      35.545  20.571  25.336  1.00  0.00     0.202 C 
BRANCH  26  27
ATOM     27  C   UNL A   1      36.774  21.092  24.584  1.00  0.00     0.261 C 
BRANCH  27  28
ATOM     28  O   UNL A   1      37.464  22.124  25.306  1.00  0.00    -0.460 OA
BRANCH  28  29
ATOM     29  C   UNL A   1      38.604  21.719  25.910  1.00  0.00     0.338 C 
ATOM     30  O   UNL A   1      39.128  20.613  25.850  1.00  0.00    -0.246 OA
BRANCH  29  31
ATOM     31  C   UNL A   1      39.265  22.872  26.541  1.00  0.00     0.060 A 
ATOM     32  C   UNL A   1      38.665  24.130  26.392  1.00  0.00     0.016 A 
ATOM     33  C   UNL A   1      40.478  22.735  27.219  1.00  0.00     0.016 A 
ATOM     34  C   UNL A   1      39.300  25.266  26.882  1.00  0.00     0.010 A 
ATOM     35  C   UNL A   1      41.120  23.878  27.698  1.00  0.00     0.010 A 
ATOM     36  C   UNL A   1      40.549  25.150  27.501  1.00  0.00    -0.014 A 
BRANCH  36  37
ATOM     37  C   UNL A   1      41.345  26.363  27.790  1.00  0.00     0.031 A 
ATOM     38  C   UNL A   1      40.756  27.412  28.692  1.00  0.00     0.074 A 
ATOM     39  C   UNL A   1      42.571  26.528  27.264  1.00  0.00     0.049 A 
ATOM     40  N   UNL A   1      41.229  28.588  29.016  1.00  0.00    -0.248 NA
ATOM     41  C   UNL A   1      39.458  27.091  29.306  1.00  0.00     0.031 C 
ATOM     42  C   UNL A   1      43.273  25.556  26.428  1.00  0.00     0.029 A 
ATOM     43  N   UNL A   1      43.438  27.587  27.354  1.00  0.00    -0.354 N 
ATOM     44  C   UNL A   1      40.282  29.151  29.862  1.00  0.00     0.074 A 
ATOM     45  C   UNL A   1      39.197  28.200  29.980  1.00  0.00     0.031 C 
ATOM     46  C   UNL A   1      44.463  26.070  26.071  1.00  0.00     0.029 A 
ATOM     47  C   UNL A   1      44.585  27.419  26.620  1.00  0.00     0.049 A 
ATOM     48  H   UNL A   1      43.254  28.390  27.893  1.00  0.00     0.167 HD
ATOM     49  C   UNL A   1      40.314  30.351  30.486  1.00  0.00     0.031 A 
ATOM     50  C   UNL A   1      45.605  28.270  26.398  1.00  0.00     0.031 A 
ATOM     51  C   UNL A   1      41.384  31.301  30.352  1.00  0.00     0.049 A 
ATOM     52  C   UNL A   1      45.573  29.638  27.023  1.00  0.00     0.074 A 
ATOM     53  C   UNL A   1      41.513  32.545  30.942  1.00  0.00     0.029 A 
ATOM     54  N   UNL A   1      42.509  31.111  29.564  1.00  0.00    -0.354 N 
ATOM     55  N   UNL A   1      44.676  30.161  27.826  1.00  0.00    -0.248 NA
ATOM     56  C   UNL A   1      46.695  30.536  26.713  1.00  0.00     0.031 C 
ATOM     57  C   UNL A   1      42.692  33.131  30.469  1.00  0.00     0.029 A 
ATOM     58  C   UNL A   1      43.326  32.225  29.632  1.00  0.00     0.049 A 
ATOM     59  H   UNL A   1      42.699  30.302  29.035  1.00  0.00     0.167 HD
ATOM     60  C   UNL A   1      45.143  31.431  28.143  1.00  0.00     0.074 A 
ATOM     61  C   UNL A   1      46.403  31.599  27.449  1.00  0.00     0.031 C 
ATOM     62  C   UNL A   1      44.581  32.371  28.941  1.00  0.00     0.031 A 
BRANCH  49  63
ATOM     63  C   UNL A   1      39.130  30.716  31.336  1.00  0.00    -0.014 A 
ATOM     64  C   UNL A   1      38.013  31.368  30.793  1.00  0.00     0.009 A 
ATOM     65  C   UNL A   1      39.129  30.389  32.701  1.00  0.00     0.009 A 
ATOM     66  C   UNL A   1      36.932  31.717  31.608  1.00  0.00     0.001 A 
ATOM     67  C   UNL A   1      38.036  30.712  33.507  1.00  0.00     0.001 A 
ATOM     68  C   UNL A   1      36.944  31.386  32.962  1.00  0.00     0.000 A 
ENDBRANCH  49  63
BRANCH  50  69
ATOM     69  C   UNL A   1      46.737  27.864  25.525  1.00  0.00    -0.014 A 
ATOM     70  C   UNL A   1      47.916  27.345  26.081  1.00  0.00     0.009 A 
ATOM     71  C   UNL A   1      46.647  28.003  24.131  1.00  0.00     0.009 A 
ATOM     72  C   UNL A   1      48.991  26.997  25.260  1.00  0.00     0.001 A 
ATOM     73  C   UNL A   1      47.714  27.627  23.311  1.00  0.00     0.001 A 
ATOM     74  C   UNL A   1      48.888  27.133  23.876  1.00  0.00     0.000 A 
ENDBRANCH  50  69
BRANCH  62  75
ATOM     75  C   UNL A   1      45.345  33.647  29.152  1.00  0.00    -0.014 A 
ATOM     76  C   UNL A   1      45.142  34.766  28.331  1.00  0.00     0.009 A 
ATOM     77  C   UNL A   1      46.235  33.748  30.234  1.00  0.00     0.009 A 
ATOM     78  C   UNL A   1      45.835  35.953  28.575  1.00  0.00     0.001 A 
ATOM     79  C   UNL A   1      46.906  34.944  30.491  1.00  0.00     0.001 A 
ATOM     80  C   UNL A   1      46.711  36.044  29.658  1.00  0.00     0.000 A 
ENDBRANCH  62  75
ENDBRANCH  36  37
ENDBRANCH  29  31
ENDBRANCH  28  29
ENDBRANCH  27  28
ENDBRANCH  26  27
ENDBRANCH   1  26
TORSDOF 17
ENDMDL
MODEL 3
REMARK VINA RESULT:      -8.9      1.854      2.879
REMARK SMILES CS(=O)(=O)c1ccc(/C=C(/C(=O)OCCOCCOC(=O)c2ccc(-c3c4nc(c(-c5ccccc5)c5ccc([nH]5)c(-c5ccccc5)c5nc(c(-c6ccccc6)c6ccc3[nH]6)C=C5)C=C4)cc2)c2cccc(Br)c2)cc1
REMARK SMILES IDX 16 1 15 2 14 3 13 4 11 5 12 6 10 7 9 8 8 9 5 10 6 11 78 12
REMARK SMILES IDX 7 13 77 14 2 15 1 16 3 17 4 18 70 19 71 20 76 21 72 22 74 23
REMARK SMILES IDX 73 24 75 25 17 26 18 27 19 28 20 29 21 30 22 31 23 32 69 33
REMARK SMILES IDX 24 34 68 35 25 36 26 37 27 38 62 39 28 40 67 41 61 42 63 43
REMARK SMILES IDX 29 44 66 45 60 46 59 47 30 49 52 50 37 51 51 52 38 53 41 54
REMARK SMILES IDX 50 55 64 56 39 57 40 58 49 60 65 61 42 62 31 63 32 64 36 65
REMARK SMILES IDX 33 66 35 67 34 68 53 69 54 70 58 71 55 72 57 73 56 74 43 75
REMARK SMILES IDX 44 76 48 77 45 78 47 79 46 80
REMARK H PARENT 63 48 41 59
REMARK Flexibility Score: inf
ROOT
ATOM      1  O   UNL A   1      44.656  20.570  24.093  1.00  0.00    -0.374 OA
ENDROOT
BRANCH   1   2
ATOM      2  C   UNL A   1      44.817  21.965  24.348  1.00  0.00     0.202 C 
BRANCH   2   3
ATOM      3  C   UNL A   1      46.218  22.550  24.148  1.00  0.00     0.261 C 
BRANCH   3   4
ATOM      4  O   UNL A   1      46.205  23.984  24.259  1.00  0.00    -0.460 OA
BRANCH   4   5
ATOM      5  C   UNL A   1      47.022  24.480  25.224  1.00  0.00     0.338 C 
ATOM      6  O   UNL A   1      47.304  23.916  26.273  1.00  0.00    -0.246 OA
BRANCH   5   7
ATOM      7  C   UNL A   1      47.651  25.779  24.822  1.00  0.00     0.067 C 
ATOM      8  C   UNL A   1      48.650  25.804  23.907  1.00  0.00     0.024 C 
BRANCH   8   9
ATOM      9  C   UNL A   1      49.176  26.990  23.185  1.00  0.00    -0.025 A 
ATOM     10  C   UNL A   1      50.567  28.824  21.573  1.00  0.00     0.067 A 
ATOM     11  C   UNL A   1      49.258  28.463  21.252  1.00  0.00     0.021 A 
ATOM     12  C   UNL A   1      51.138  28.389  22.767  1.00  0.00     0.021 A 
ATOM     13  C   UNL A   1      48.556  27.582  22.078  1.00  0.00     0.009 A 
ATOM     14  C   UNL A   1      50.440  27.473  23.567  1.00  0.00     0.009 A 
BRANCH  10  15
ATOM     15  S   UNL A   1      51.475  29.755  20.365  1.00  0.00     0.175 S 
ATOM     16  C   UNL A   1      53.095  30.036  21.014  1.00  0.00     0.163 C 
ATOM     17  O   UNL A   1      50.823  31.047  20.260  1.00  0.00    -0.224 OA
ATOM     18  O   UNL A   1      51.613  28.889  19.210  1.00  0.00    -0.224 OA
ENDBRANCH  10  15
ENDBRANCH   8   9
BRANCH   7  19
ATOM     19  C   UNL A   1      47.046  26.990  25.412  1.00  0.00    -0.010 A 
ATOM     20  C   UNL A   1      45.647  27.082  25.505  1.00  0.00     0.009 A 
ATOM     21  C   UNL A   1      47.838  28.028  25.913  1.00  0.00     0.024 A 
ATOM     22  C   UNL A   1      45.046  28.186  26.109  1.00  0.00     0.002 A 
ATOM     23  C   UNL A   1      47.229  29.123  26.524  1.00  0.00     0.018 A 
ATOM     24  C   UNL A   1      45.839  29.207  26.626  1.00  0.00     0.016 A 
ATOM     25  Br  UNL A   1      48.301  30.500  27.250  1.00  0.00    -0.051 Br
ENDBRANCH   7  19
ENDBRANCH   5   7
ENDBRANCH   4   5
ENDBRANCH   3   4
ENDBRANCH   2   3
ENDBRANCH   1   2
BRANCH   1  26
ATOM     26  C   UNL A   1      44.770  19.680  25.200  1.00  0.00     0.202 C 
BRANCH  26  27
ATOM     27  C   UNL A   1      43.497  18.962  25.662  1.00  0.00     0.261 C 
BRANCH  27  28
ATOM     28  O   UNL A   1      42.319  19.449  25.001  1.00  0.00    -0.460 OA
BRANCH  28  29
ATOM     29  C   UNL A   1      41.259  19.642  25.817  1.00  0.00     0.338 C 
ATOM     30  O   UNL A   1      40.399  18.827  26.130  1.00  0.00    -0.246 OA
BRANCH  29  31
ATOM     31  C   UNL A   1      41.359  20.965  26.454  1.00  0.00     0.060 A 
ATOM     32  C   UNL A   1      41.593  22.071  25.626  1.00  0.00     0.016 A 
ATOM     33  C   UNL A   1      41.282  21.114  27.840  1.00  0.00     0.016 A 
ATOM     34  C   UNL A   1      41.795  23.329  26.185  1.00  0.00     0.010 A 
ATOM     35  C   UNL A   1      41.500  22.374  28.400  1.00  0.00     0.010 A 
ATOM     36  C   UNL A   1      41.790  23.478  27.576  1.00  0.00    -0.014 A 
BRANCH  36  37
ATOM     37  C   UNL A   1      42.258  24.743  28.184  1.00  0.00     0.031 A 
ATOM     38  C   UNL A   1      41.268  25.857  28.379  1.00  0.00     0.074 A 
ATOM     39  C   UNL A   1      43.539  24.898  28.561  1.00  0.00     0.049 A 
ATOM     40  N   UNL A   1      41.464  27.076  28.809  1.00  0.00    -0.248 NA
ATOM     41  C   UNL A   1      39.868  25.553  28.038  1.00  0.00     0.031 C 
ATOM     42  C   UNL A   1      44.576  23.871  28.481  1.00  0.00     0.029 A 
ATOM     43  N   UNL A   1      44.183  25.991  29.080  1.00  0.00    -0.354 N 
ATOM     44  C   UNL A   1      40.218  27.688  28.780  1.00  0.00     0.074 A 
ATOM     45  C   UNL A   1      39.277  26.716  28.266  1.00  0.00     0.031 C 
ATOM     46  C   UNL A   1      45.734  24.388  28.926  1.00  0.00     0.029 A 
ATOM     47  C   UNL A   1      45.526  25.791  29.283  1.00  0.00     0.049 A 
ATOM     48  H   UNL A   1      43.726  26.838  29.287  1.00  0.00     0.167 HD
ATOM     49  C   UNL A   1      39.886  28.947  29.149  1.00  0.00     0.031 A 
ATOM     50  C   UNL A   1      46.480  26.651  29.686  1.00  0.00     0.031 A 
ATOM     51  C   UNL A   1      40.825  29.916  29.642  1.00  0.00     0.049 A 
ATOM     52  C   UNL A   1      46.104  28.075  29.998  1.00  0.00     0.074 A 
ATOM     53  C   UNL A   1      40.591  31.219  30.044  1.00  0.00     0.029 A 
ATOM     54  N   UNL A   1      42.185  29.688  29.792  1.00  0.00    -0.354 N 
ATOM     55  N   UNL A   1      44.923  28.644  29.973  1.00  0.00    -0.248 NA
ATOM     56  C   UNL A   1      47.196  28.976  30.396  1.00  0.00     0.031 C 
ATOM     57  C   UNL A   1      41.818  31.795  30.388  1.00  0.00     0.029 A 
ATOM     58  C   UNL A   1      42.807  30.832  30.256  1.00  0.00     0.049 A 
ATOM     59  H   UNL A   1      42.639  28.836  29.597  1.00  0.00     0.167 HD
ATOM     60  C   UNL A   1      45.123  29.956  30.384  1.00  0.00     0.074 A 
ATOM     61  C   UNL A   1      46.539  30.098  30.655  1.00  0.00     0.031 C 
ATOM     62  C   UNL A   1      44.216  30.952  30.529  1.00  0.00     0.031 A 
BRANCH  49  63
ATOM     63  C   UNL A   1      38.448  29.354  28.992  1.00  0.00    -0.014 A 
ATOM     64  C   UNL A   1      37.929  29.736  27.745  1.00  0.00     0.009 A 
ATOM     65  C   UNL A   1      37.596  29.341  30.108  1.00  0.00     0.009 A 
ATOM     66  C   UNL A   1      36.594  30.131  27.626  1.00  0.00     0.001 A 
ATOM     67  C   UNL A   1      36.256  29.708  29.981  1.00  0.00     0.001 A 
ATOM     68  C   UNL A   1      35.759  30.113  28.743  1.00  0.00     0.000 A 
ENDBRANCH  49  63
BRANCH  50  69
ATOM     69  C   UNL A   1      47.891  26.199  29.798  1.00  0.00    -0.014 A 
ATOM     70  C   UNL A   1      48.709  26.124  28.662  1.00  0.00     0.009 A 
ATOM     71  C   UNL A   1      48.423  25.830  31.044  1.00  0.00     0.009 A 
ATOM     72  C   UNL A   1      50.024  25.667  28.766  1.00  0.00     0.001 A 
ATOM     73  C   UNL A   1      49.748  25.399  31.149  1.00  0.00     0.001 A 
ATOM     74  C   UNL A   1      50.545  25.310  30.010  1.00  0.00     0.000 A 
ENDBRANCH  50  69
BRANCH  62  75
ATOM     75  C   UNL A   1      44.711  32.271  31.051  1.00  0.00    -0.014 A 
ATOM     76  C   UNL A   1      44.723  32.556  32.425  1.00  0.00     0.009 A 
ATOM     77  C   UNL A   1      45.236  33.216  30.154  1.00  0.00     0.009 A 
ATOM     78  C   UNL A   1      45.228  33.773  32.887  1.00  0.00     0.001 A 
ATOM     79  C   UNL A   1      45.764  34.420  30.621  1.00  0.00     0.001 A 
ATOM     80  C   UNL A   1      45.754  34.701  31.986  1.00  0.00     0.000 A 
ENDBRANCH  62  75
ENDBRANCH  36  37
ENDBRANCH  29  31
ENDBRANCH  28  29
ENDBRANCH  27  28
ENDBRANCH  26  27
ENDBRANCH   1  26
TORSDOF 17
ENDMDL
