MODEL 1
REMARK VINA RESULT:     -10.8      0.000      0.000
REMARK SMILES C[C@@H](Cc1cnn(-c2ccccc2)n1)C(=O)OCCOCCOC(=O)c1ccc(-c2c3nc(c(-c4ccccc4)c4ccc([nH]4)c(-c4ccccc4)c4nc(c(-c5ccccc5)c5ccc2[nH]5)C=C4)C=C3)cc1
REMARK SMILES IDX 19 1 18 2 17 3 15 4 16 5 2 6 1 7 3 8 4 9 5 10 14 11 6 12
REMARK SMILES IDX 7 13 8 14 9 15 13 16 10 17 12 18 11 19 20 20 21 21 22 22
REMARK SMILES IDX 23 23 24 24 25 25 26 26 27 27 73 28 28 29 72 30 29 31 30 32
REMARK SMILES IDX 31 33 66 34 32 35 71 36 65 37 67 38 33 39 70 40 64 41 63 42
REMARK SMILES IDX 34 44 56 45 41 46 55 47 42 48 45 49 54 50 68 51 43 52 44 53
REMARK SMILES IDX 53 55 69 56 46 57 35 58 36 59 40 60 37 61 39 62 38 63 57 64
REMARK SMILES IDX 58 65 62 66 59 67 61 68 60 69 47 70 48 71 52 72 49 73 51 74
REMARK SMILES IDX 50 75
REMARK H PARENT 67 43 45 54
REMARK Flexibility Score: inf
ROOT
ATOM      1  C   UNL A   1      39.893  20.096  25.861  1.00  0.00     0.202 C 
ENDROOT
BRANCH   1   2
ATOM      2  C   UNL A   1      39.428  21.527  26.105  1.00  0.00     0.261 C 
BRANCH   2   3
ATOM      3  O   UNL A   1      38.214  21.822  25.399  1.00  0.00    -0.463 OA
BRANCH   3   4
ATOM      4  C   UNL A   1      37.698  23.057  25.622  1.00  0.00     0.309 C 
ATOM      5  O   UNL A   1      38.086  23.839  26.484  1.00  0.00    -0.252 OA
BRANCH   4   6
ATOM      6  C   UNL A   1      36.551  23.411  24.697  1.00  0.00     0.102 C 
ATOM      7  C   UNL A   1      36.534  22.688  23.348  1.00  0.00     0.020 C 
BRANCH   6   8
ATOM      8  C   UNL A   1      35.241  23.310  25.491  1.00  0.00     0.075 C 
BRANCH   8   9
ATOM      9  C   UNL A   1      34.358  22.173  25.105  1.00  0.00     0.084 A 
ATOM     10  C   UNL A   1      33.314  22.156  24.170  1.00  0.00     0.161 A 
ATOM     11  N   UNL A   1      34.498  20.948  25.624  1.00  0.00    -0.153 NA
ATOM     12  N   UNL A   1      32.914  20.903  23.955  1.00  0.00    -0.157 NA
ATOM     13  N   UNL A   1      33.673  20.202  24.840  1.00  0.00    -0.151 N 
BRANCH  13  14
ATOM     14  C   UNL A   1      33.672  18.787  24.888  1.00  0.00     0.086 A 
ATOM     15  C   UNL A   1      34.751  18.071  24.349  1.00  0.00     0.030 A 
ATOM     16  C   UNL A   1      32.604  18.104  25.485  1.00  0.00     0.030 A 
ATOM     17  C   UNL A   1      34.760  16.678  24.417  1.00  0.00     0.002 A 
ATOM     18  C   UNL A   1      32.604  16.707  25.513  1.00  0.00     0.002 A 
ATOM     19  C   UNL A   1      33.683  15.997  24.986  1.00  0.00     0.000 A 
ENDBRANCH  13  14
ENDBRANCH   8   9
ENDBRANCH   6   8
ENDBRANCH   4   6
ENDBRANCH   3   4
ENDBRANCH   2   3
ENDBRANCH   1   2
BRANCH   1  20
ATOM     20  O   UNL A   1      40.862  19.556  26.759  1.00  0.00    -0.374 OA
BRANCH  20  21
ATOM     21  C   UNL A   1      42.065  19.000  26.241  1.00  0.00     0.202 C 
BRANCH  21  22
ATOM     22  C   UNL A   1      43.132  19.968  25.751  1.00  0.00     0.261 C 
BRANCH  22  23
ATOM     23  O   UNL A   1      44.221  19.306  25.123  1.00  0.00    -0.460 OA
BRANCH  23  24
ATOM     24  C   UNL A   1      44.616  19.888  23.966  1.00  0.00     0.338 C 
ATOM     25  O   UNL A   1      44.793  19.345  22.890  1.00  0.00    -0.246 OA
BRANCH  24  26
ATOM     26  C   UNL A   1      45.043  21.262  24.250  1.00  0.00     0.060 A 
ATOM     27  C   UNL A   1      45.858  21.397  25.375  1.00  0.00     0.016 A 
ATOM     28  C   UNL A   1      44.304  22.330  23.726  1.00  0.00     0.016 A 
ATOM     29  C   UNL A   1      45.697  22.518  26.148  1.00  0.00     0.010 A 
ATOM     30  C   UNL A   1      44.125  23.439  24.513  1.00  0.00     0.010 A 
ATOM     31  C   UNL A   1      44.751  23.472  25.756  1.00  0.00    -0.014 A 
BRANCH  31  32
ATOM     32  C   UNL A   1      44.578  24.622  26.611  1.00  0.00     0.031 A 
ATOM     33  C   UNL A   1      45.728  25.535  26.483  1.00  0.00     0.074 A 
ATOM     34  C   UNL A   1      43.476  24.848  27.348  1.00  0.00     0.049 A 
ATOM     35  N   UNL A   1      46.699  25.680  27.320  1.00  0.00    -0.248 NA
ATOM     36  C   UNL A   1      45.963  26.155  25.166  1.00  0.00     0.031 C 
ATOM     37  C   UNL A   1      42.204  24.124  27.322  1.00  0.00     0.029 A 
ATOM     38  N   UNL A   1      43.226  25.868  28.212  1.00  0.00    -0.354 N 
ATOM     39  C   UNL A   1      47.534  26.619  26.733  1.00  0.00     0.074 A 
ATOM     40  C   UNL A   1      47.189  26.647  25.336  1.00  0.00     0.031 C 
ATOM     41  C   UNL A   1      41.256  24.873  27.933  1.00  0.00     0.029 A 
ATOM     42  C   UNL A   1      41.880  26.063  28.491  1.00  0.00     0.049 A 
ATOM     43  H   UNL A   1      43.940  26.421  28.607  1.00  0.00     0.167 HD
ATOM     44  C   UNL A   1      48.122  27.575  27.502  1.00  0.00     0.031 A 
ATOM     45  C   UNL A   1      41.328  27.164  29.064  1.00  0.00     0.031 A 
ATOM     46  C   UNL A   1      48.141  27.188  28.896  1.00  0.00     0.049 A 
ATOM     47  C   UNL A   1      42.417  27.914  29.734  1.00  0.00     0.074 A 
ATOM     48  C   UNL A   1      48.617  26.106  29.612  1.00  0.00     0.029 A 
ATOM     49  N   UNL A   1      47.232  27.812  29.716  1.00  0.00    -0.354 N 
ATOM     50  N   UNL A   1      43.027  27.490  30.802  1.00  0.00    -0.248 NA
ATOM     51  C   UNL A   1      43.139  28.912  28.960  1.00  0.00     0.031 C 
ATOM     52  C   UNL A   1      47.659  25.890  30.648  1.00  0.00     0.029 A 
ATOM     53  C   UNL A   1      46.686  26.885  30.559  1.00  0.00     0.049 A 
ATOM     54  H   UNL A   1      47.010  28.770  29.698  1.00  0.00     0.167 HD
ATOM     55  C   UNL A   1      44.364  27.788  30.579  1.00  0.00     0.074 A 
ATOM     56  C   UNL A   1      44.357  28.763  29.488  1.00  0.00     0.031 C 
ATOM     57  C   UNL A   1      45.349  26.992  31.095  1.00  0.00     0.031 A 
BRANCH  44  58
ATOM     58  C   UNL A   1      48.124  29.035  27.084  1.00  0.00    -0.014 A 
ATOM     59  C   UNL A   1      49.329  29.747  27.199  1.00  0.00     0.009 A 
ATOM     60  C   UNL A   1      46.956  29.806  26.912  1.00  0.00     0.009 A 
ATOM     61  C   UNL A   1      49.342  31.144  27.281  1.00  0.00     0.001 A 
ATOM     62  C   UNL A   1      46.969  31.201  26.947  1.00  0.00     0.001 A 
ATOM     63  C   UNL A   1      48.160  31.869  27.172  1.00  0.00     0.000 A 
ENDBRANCH  44  58
BRANCH  45  64
ATOM     64  C   UNL A   1      40.001  27.780  28.828  1.00  0.00    -0.014 A 
ATOM     65  C   UNL A   1      39.042  27.828  29.855  1.00  0.00     0.009 A 
ATOM     66  C   UNL A   1      39.775  28.576  27.690  1.00  0.00     0.009 A 
ATOM     67  C   UNL A   1      37.926  28.673  29.764  1.00  0.00     0.001 A 
ATOM     68  C   UNL A   1      38.658  29.413  27.596  1.00  0.00     0.001 A 
ATOM     69  C   UNL A   1      37.743  29.475  28.640  1.00  0.00     0.000 A 
ENDBRANCH  45  64
BRANCH  57  70
ATOM     70  C   UNL A   1      44.962  25.991  32.154  1.00  0.00    -0.014 A 
ATOM     71  C   UNL A   1      44.579  24.667  31.876  1.00  0.00     0.009 A 
ATOM     72  C   UNL A   1      45.099  26.377  33.495  1.00  0.00     0.009 A 
ATOM     73  C   UNL A   1      44.303  23.771  32.915  1.00  0.00     0.001 A 
ATOM     74  C   UNL A   1      44.847  25.477  34.531  1.00  0.00     0.001 A 
ATOM     75  C   UNL A   1      44.441  24.177  34.241  1.00  0.00     0.000 A 
ENDBRANCH  57  70
ENDBRANCH  31  32
ENDBRANCH  24  26
ENDBRANCH  23  24
ENDBRANCH  22  23
ENDBRANCH  21  22
ENDBRANCH  20  21
ENDBRANCH   1  20
TORSDOF 17
ENDMDL
MODEL 2
REMARK VINA RESULT:     -10.7      4.049      9.744
REMARK SMILES C[C@@H](Cc1cnn(-c2ccccc2)n1)C(=O)OCCOCCOC(=O)c1ccc(-c2c3nc(c(-c4ccccc4)c4ccc([nH]4)c(-c4ccccc4)c4nc(c(-c5ccccc5)c5ccc2[nH]5)C=C4)C=C3)cc1
REMARK SMILES IDX 19 1 18 2 17 3 15 4 16 5 2 6 1 7 3 8 4 9 5 10 14 11 6 12
REMARK SMILES IDX 7 13 8 14 9 15 13 16 10 17 12 18 11 19 20 20 21 21 22 22
REMARK SMILES IDX 23 23 24 24 25 25 26 26 27 27 73 28 28 29 72 30 29 31 30 32
REMARK SMILES IDX 31 33 66 34 32 35 71 36 65 37 67 38 33 39 70 40 64 41 63 42
REMARK SMILES IDX 34 44 56 45 41 46 55 47 42 48 45 49 54 50 68 51 43 52 44 53
REMARK SMILES IDX 53 55 69 56 46 57 35 58 36 59 40 60 37 61 39 62 38 63 57 64
REMARK SMILES IDX 58 65 62 66 59 67 61 68 60 69 47 70 48 71 52 72 49 73 51 74
REMARK SMILES IDX 50 75
REMARK H PARENT 67 43 45 54
REMARK Flexibility Score: inf
ROOT
ATOM      1  C   UNL A   1      45.818  22.196  24.713  1.00  0.00     0.202 C 
ENDROOT
BRANCH   1   2
ATOM      2  C   UNL A   1      46.305  23.503  25.326  1.00  0.00     0.261 C 
BRANCH   2   3
ATOM      3  O   UNL A   1      46.802  24.408  24.329  1.00  0.00    -0.463 OA
BRANCH   3   4
ATOM      4  C   UNL A   1      47.561  25.430  24.798  1.00  0.00     0.309 C 
ATOM      5  O   UNL A   1      48.339  25.354  25.745  1.00  0.00    -0.252 OA
BRANCH   4   6
ATOM      6  C   UNL A   1      47.362  26.729  24.044  1.00  0.00     0.102 C 
ATOM      7  C   UNL A   1      46.291  27.668  24.603  1.00  0.00     0.020 C 
BRANCH   6   8
ATOM      8  C   UNL A   1      48.736  27.381  23.835  1.00  0.00     0.075 C 
BRANCH   8   9
ATOM      9  C   UNL A   1      49.264  27.299  22.444  1.00  0.00     0.084 A 
ATOM     10  C   UNL A   1      49.983  28.263  21.724  1.00  0.00     0.161 A 
ATOM     11  N   UNL A   1      49.127  26.204  21.688  1.00  0.00    -0.153 NA
ATOM     12  N   UNL A   1      50.460  27.732  20.598  1.00  0.00    -0.157 NA
ATOM     13  N   UNL A   1      49.936  26.476  20.629  1.00  0.00    -0.151 N 
BRANCH  13  14
ATOM     14  C   UNL A   1      50.274  25.489  19.672  1.00  0.00     0.086 A 
ATOM     15  C   UNL A   1      51.336  25.715  18.783  1.00  0.00     0.030 A 
ATOM     16  C   UNL A   1      49.562  24.283  19.622  1.00  0.00     0.030 A 
ATOM     17  C   UNL A   1      51.683  24.733  17.855  1.00  0.00     0.002 A 
ATOM     18  C   UNL A   1      49.892  23.322  18.664  1.00  0.00     0.002 A 
ATOM     19  C   UNL A   1      50.955  23.545  17.787  1.00  0.00     0.000 A 
ENDBRANCH  13  14
ENDBRANCH   8   9
ENDBRANCH   6   8
ENDBRANCH   4   6
ENDBRANCH   3   4
ENDBRANCH   2   3
ENDBRANCH   1   2
BRANCH   1  20
ATOM     20  O   UNL A   1      46.368  20.983  25.225  1.00  0.00    -0.374 OA
BRANCH  20  21
ATOM     21  C   UNL A   1      45.948  19.737  24.680  1.00  0.00     0.202 C 
BRANCH  21  22
ATOM     22  C   UNL A   1      44.662  19.131  25.222  1.00  0.00     0.261 C 
BRANCH  22  23
ATOM     23  O   UNL A   1      43.518  19.912  24.911  1.00  0.00    -0.460 OA
BRANCH  23  24
ATOM     24  C   UNL A   1      42.445  19.640  25.691  1.00  0.00     0.338 C 
ATOM     25  O   UNL A   1      41.909  18.559  25.856  1.00  0.00    -0.246 OA
BRANCH  24  26
ATOM     26  C   UNL A   1      41.854  20.904  26.139  1.00  0.00     0.060 A 
ATOM     27  C   UNL A   1      42.387  22.043  25.535  1.00  0.00     0.016 A 
ATOM     28  C   UNL A   1      41.191  20.950  27.373  1.00  0.00     0.016 A 
ATOM     29  C   UNL A   1      42.521  23.171  26.304  1.00  0.00     0.010 A 
ATOM     30  C   UNL A   1      41.349  22.070  28.150  1.00  0.00     0.010 A 
ATOM     31  C   UNL A   1      42.095  23.127  27.636  1.00  0.00    -0.014 A 
BRANCH  31  32
ATOM     32  C   UNL A   1      42.284  24.317  28.431  1.00  0.00     0.031 A 
ATOM     33  C   UNL A   1      41.261  25.326  28.098  1.00  0.00     0.074 A 
ATOM     34  C   UNL A   1      43.218  24.435  29.392  1.00  0.00     0.049 A 
ATOM     35  N   UNL A   1      41.421  26.382  27.376  1.00  0.00    -0.248 NA
ATOM     36  C   UNL A   1      39.854  24.984  28.374  1.00  0.00     0.031 C 
ATOM     37  C   UNL A   1      44.085  23.393  29.945  1.00  0.00     0.029 A 
ATOM     38  N   UNL A   1      43.509  25.515  30.165  1.00  0.00    -0.354 N 
ATOM     39  C   UNL A   1      40.168  26.975  27.334  1.00  0.00     0.074 A 
ATOM     40  C   UNL A   1      39.226  25.951  27.705  1.00  0.00     0.031 C 
ATOM     41  C   UNL A   1      44.609  23.830  31.115  1.00  0.00     0.029 A 
ATOM     42  C   UNL A   1      44.210  25.213  31.325  1.00  0.00     0.049 A 
ATOM     43  H   UNL A   1      43.246  26.433  29.922  1.00  0.00     0.167 HD
ATOM     44  C   UNL A   1      40.057  28.328  27.416  1.00  0.00     0.031 A 
ATOM     45  C   UNL A   1      44.367  26.024  32.404  1.00  0.00     0.031 A 
ATOM     46  C   UNL A   1      41.305  28.977  27.080  1.00  0.00     0.049 A 
ATOM     47  C   UNL A   1      44.063  27.409  31.972  1.00  0.00     0.074 A 
ATOM     48  C   UNL A   1      42.163  28.963  25.997  1.00  0.00     0.029 A 
ATOM     49  N   UNL A   1      42.031  29.485  28.130  1.00  0.00    -0.354 N 
ATOM     50  N   UNL A   1      44.824  28.092  31.168  1.00  0.00    -0.248 NA
ATOM     51  C   UNL A   1      42.685  27.868  32.067  1.00  0.00     0.031 C 
ATOM     52  C   UNL A   1      43.473  29.057  26.554  1.00  0.00     0.029 A 
ATOM     53  C   UNL A   1      43.352  29.193  27.937  1.00  0.00     0.049 A 
ATOM     54  H   UNL A   1      41.661  29.978  28.897  1.00  0.00     0.167 HD
ATOM     55  C   UNL A   1      43.938  28.737  30.316  1.00  0.00     0.074 A 
ATOM     56  C   UNL A   1      42.640  28.655  30.987  1.00  0.00     0.031 C 
ATOM     57  C   UNL A   1      44.288  29.002  29.021  1.00  0.00     0.031 A 
BRANCH  44  58
ATOM     58  C   UNL A   1      39.045  28.983  28.340  1.00  0.00    -0.014 A 
ATOM     59  C   UNL A   1      39.072  28.628  29.698  1.00  0.00     0.009 A 
ATOM     60  C   UNL A   1      37.885  29.650  27.891  1.00  0.00     0.009 A 
ATOM     61  C   UNL A   1      37.951  28.802  30.517  1.00  0.00     0.001 A 
ATOM     62  C   UNL A   1      36.782  29.867  28.717  1.00  0.00     0.001 A 
ATOM     63  C   UNL A   1      36.801  29.407  30.021  1.00  0.00     0.000 A 
ENDBRANCH  44  58
BRANCH  45  64
ATOM     64  C   UNL A   1      44.464  25.669  33.839  1.00  0.00    -0.014 A 
ATOM     65  C   UNL A   1      43.317  25.661  34.653  1.00  0.00     0.009 A 
ATOM     66  C   UNL A   1      45.626  25.062  34.349  1.00  0.00     0.009 A 
ATOM     67  C   UNL A   1      43.323  25.030  35.905  1.00  0.00     0.001 A 
ATOM     68  C   UNL A   1      45.633  24.438  35.601  1.00  0.00     0.001 A 
ATOM     69  C   UNL A   1      44.477  24.406  36.372  1.00  0.00     0.000 A 
ENDBRANCH  45  64
BRANCH  57  70
ATOM     70  C   UNL A   1      45.743  28.872  28.645  1.00  0.00    -0.014 A 
ATOM     71  C   UNL A   1      46.385  27.640  28.425  1.00  0.00     0.009 A 
ATOM     72  C   UNL A   1      46.458  30.051  28.396  1.00  0.00     0.009 A 
ATOM     73  C   UNL A   1      47.720  27.597  28.007  1.00  0.00     0.001 A 
ATOM     74  C   UNL A   1      47.783  30.008  27.956  1.00  0.00     0.001 A 
ATOM     75  C   UNL A   1      48.416  28.782  27.771  1.00  0.00     0.000 A 
ENDBRANCH  57  70
ENDBRANCH  31  32
ENDBRANCH  24  26
ENDBRANCH  23  24
ENDBRANCH  22  23
ENDBRANCH  21  22
ENDBRANCH  20  21
ENDBRANCH   1  20
TORSDOF 17
ENDMDL
MODEL 3
REMARK VINA RESULT:     -10.3      4.044      8.428
REMARK SMILES C[C@@H](Cc1cnn(-c2ccccc2)n1)C(=O)OCCOCCOC(=O)c1ccc(-c2c3nc(c(-c4ccccc4)c4ccc([nH]4)c(-c4ccccc4)c4nc(c(-c5ccccc5)c5ccc2[nH]5)C=C4)C=C3)cc1
REMARK SMILES IDX 19 1 18 2 17 3 15 4 16 5 2 6 1 7 3 8 4 9 5 10 14 11 6 12
REMARK SMILES IDX 7 13 8 14 9 15 13 16 10 17 12 18 11 19 20 20 21 21 22 22
REMARK SMILES IDX 23 23 24 24 25 25 26 26 27 27 73 28 28 29 72 30 29 31 30 32
REMARK SMILES IDX 31 33 66 34 32 35 71 36 65 37 67 38 33 39 70 40 64 41 63 42
REMARK SMILES IDX 34 44 56 45 41 46 55 47 42 48 45 49 54 50 68 51 43 52 44 53
REMARK SMILES IDX 53 55 69 56 46 57 35 58 36 59 40 60 37 61 39 62 38 63 57 64
REMARK SMILES IDX 58 65 62 66 59 67 61 68 60 69 47 70 48 71 52 72 49 73 51 74
REMARK SMILES IDX 50 75
REMARK H PARENT 67 43 45 54
REMARK Flexibility Score: inf
ROOT
ATOM      1  C   UNL A   1      32.982  28.845  24.747  1.00  0.00     0.202 C 
ENDROOT
BRANCH   1   2
ATOM      2  C   UNL A   1      31.515  28.714  25.135  1.00  0.00     0.261 C 
BRANCH   2   3
ATOM      3  O   UNL A   1      30.650  29.328  24.168  1.00  0.00    -0.463 OA
BRANCH   3   4
ATOM      4  C   UNL A   1      30.201  28.506  23.185  1.00  0.00     0.309 C 
ATOM      5  O   UNL A   1      29.984  28.846  22.026  1.00  0.00    -0.252 OA
BRANCH   4   6
ATOM      6  C   UNL A   1      29.967  27.081  23.646  1.00  0.00     0.102 C 
ATOM      7  C   UNL A   1      28.508  26.685  23.876  1.00  0.00     0.020 C 
BRANCH   6   8
ATOM      8  C   UNL A   1      30.746  26.140  22.716  1.00  0.00     0.075 C 
BRANCH   8   9
ATOM      9  C   UNL A   1      31.542  25.089  23.411  1.00  0.00     0.084 A 
ATOM     10  C   UNL A   1      31.142  23.803  23.800  1.00  0.00     0.161 A 
ATOM     11  N   UNL A   1      32.829  25.260  23.735  1.00  0.00    -0.153 NA
ATOM     12  N   UNL A   1      32.200  23.095  24.196  1.00  0.00    -0.157 NA
ATOM     13  N   UNL A   1      33.203  24.011  24.118  1.00  0.00    -0.151 N 
BRANCH  13  14
ATOM     14  C   UNL A   1      34.560  23.670  24.339  1.00  0.00     0.086 A 
ATOM     15  C   UNL A   1      35.266  22.954  23.361  1.00  0.00     0.030 A 
ATOM     16  C   UNL A   1      35.201  24.059  25.522  1.00  0.00     0.030 A 
ATOM     17  C   UNL A   1      36.609  22.638  23.568  1.00  0.00     0.002 A 
ATOM     18  C   UNL A   1      36.534  23.705  25.738  1.00  0.00     0.002 A 
ATOM     19  C   UNL A   1      37.238  23.002  24.760  1.00  0.00     0.000 A 
ENDBRANCH  13  14
ENDBRANCH   8   9
ENDBRANCH   6   8
ENDBRANCH   4   6
ENDBRANCH   3   4
ENDBRANCH   2   3
ENDBRANCH   1   2
BRANCH   1  20
ATOM     20  O   UNL A   1      33.933  28.981  25.802  1.00  0.00    -0.374 OA
BRANCH  20  21
ATOM     21  C   UNL A   1      33.537  29.582  27.031  1.00  0.00     0.202 C 
BRANCH  21  22
ATOM     22  C   UNL A   1      34.291  30.825  27.479  1.00  0.00     0.261 C 
BRANCH  22  23
ATOM     23  O   UNL A   1      35.683  30.592  27.638  1.00  0.00    -0.460 OA
BRANCH  23  24
ATOM     24  C   UNL A   1      36.303  31.511  28.416  1.00  0.00     0.338 C 
ATOM     25  O   UNL A   1      36.302  32.720  28.271  1.00  0.00    -0.246 OA
BRANCH  24  26
ATOM     26  C   UNL A   1      37.198  30.815  29.346  1.00  0.00     0.060 A 
ATOM     27  C   UNL A   1      38.507  31.297  29.364  1.00  0.00     0.016 A 
ATOM     28  C   UNL A   1      36.867  29.523  29.775  1.00  0.00     0.016 A 
ATOM     29  C   UNL A   1      39.520  30.386  29.527  1.00  0.00     0.010 A 
ATOM     30  C   UNL A   1      37.881  28.610  29.912  1.00  0.00     0.010 A 
ATOM     31  C   UNL A   1      39.187  29.037  29.691  1.00  0.00    -0.014 A 
BRANCH  31  32
ATOM     32  C   UNL A   1      40.276  28.098  29.822  1.00  0.00     0.031 A 
ATOM     33  C   UNL A   1      40.867  28.181  31.170  1.00  0.00     0.074 A 
ATOM     34  C   UNL A   1      40.628  27.223  28.864  1.00  0.00     0.049 A 
ATOM     35  N   UNL A   1      41.977  28.753  31.495  1.00  0.00    -0.248 NA
ATOM     36  C   UNL A   1      40.007  27.827  32.314  1.00  0.00     0.031 C 
ATOM     37  C   UNL A   1      39.927  26.913  27.617  1.00  0.00     0.029 A 
ATOM     38  N   UNL A   1      41.655  26.331  28.864  1.00  0.00    -0.354 N 
ATOM     39  C   UNL A   1      42.069  28.589  32.869  1.00  0.00     0.074 A 
ATOM     40  C   UNL A   1      40.739  28.284  33.328  1.00  0.00     0.031 C 
ATOM     41  C   UNL A   1      40.403  25.746  27.120  1.00  0.00     0.029 A 
ATOM     42  C   UNL A   1      41.514  25.299  27.946  1.00  0.00     0.049 A 
ATOM     43  H   UNL A   1      42.432  26.411  29.464  1.00  0.00     0.167 HD
ATOM     44  C   UNL A   1      43.272  28.299  33.436  1.00  0.00     0.031 A 
ATOM     45  C   UNL A   1      42.211  24.133  27.933  1.00  0.00     0.031 A 
ATOM     46  C   UNL A   1      44.364  28.653  32.556  1.00  0.00     0.049 A 
ATOM     47  C   UNL A   1      43.424  24.327  28.762  1.00  0.00     0.074 A 
ATOM     48  C   UNL A   1      44.776  29.803  31.910  1.00  0.00     0.029 A 
ATOM     49  N   UNL A   1      44.992  27.614  31.914  1.00  0.00    -0.354 N 
ATOM     50  N   UNL A   1      44.418  25.090  28.411  1.00  0.00    -0.248 NA
ATOM     51  C   UNL A   1      43.335  24.036  30.185  1.00  0.00     0.031 C 
ATOM     52  C   UNL A   1      45.286  29.364  30.652  1.00  0.00     0.029 A 
ATOM     53  C   UNL A   1      45.226  27.971  30.616  1.00  0.00     0.049 A 
ATOM     54  H   UNL A   1      45.234  26.751  32.322  1.00  0.00     0.167 HD
ATOM     55  C   UNL A   1      44.776  25.751  29.578  1.00  0.00     0.074 A 
ATOM     56  C   UNL A   1      44.156  24.980  30.655  1.00  0.00     0.031 C 
ATOM     57  C   UNL A   1      45.282  27.020  29.530  1.00  0.00     0.031 A 
BRANCH  44  58
ATOM     58  C   UNL A   1      43.412  27.198  34.472  1.00  0.00    -0.014 A 
ATOM     59  C   UNL A   1      43.057  25.893  34.093  1.00  0.00     0.009 A 
ATOM     60  C   UNL A   1      43.546  27.432  35.857  1.00  0.00     0.009 A 
ATOM     61  C   UNL A   1      42.719  24.927  35.047  1.00  0.00     0.001 A 
ATOM     62  C   UNL A   1      43.253  26.458  36.811  1.00  0.00     0.001 A 
ATOM     63  C   UNL A   1      42.801  25.215  36.405  1.00  0.00     0.000 A 
ENDBRANCH  44  58
BRANCH  45  64
ATOM     64  C   UNL A   1      41.772  22.781  27.516  1.00  0.00    -0.014 A 
ATOM     65  C   UNL A   1      40.411  22.510  27.286  1.00  0.00     0.009 A 
ATOM     66  C   UNL A   1      42.708  21.832  27.066  1.00  0.00     0.009 A 
ATOM     67  C   UNL A   1      40.009  21.359  26.594  1.00  0.00     0.001 A 
ATOM     68  C   UNL A   1      42.306  20.680  26.381  1.00  0.00     0.001 A 
ATOM     69  C   UNL A   1      40.958  20.452  26.129  1.00  0.00     0.000 A 
ENDBRANCH  45  64
BRANCH  57  70
ATOM     70  C   UNL A   1      45.733  27.547  28.191  1.00  0.00    -0.014 A 
ATOM     71  C   UNL A   1      44.910  28.289  27.325  1.00  0.00     0.009 A 
ATOM     72  C   UNL A   1      47.081  27.378  27.846  1.00  0.00     0.009 A 
ATOM     73  C   UNL A   1      45.418  28.809  26.130  1.00  0.00     0.001 A 
ATOM     74  C   UNL A   1      47.594  27.918  26.665  1.00  0.00     0.001 A 
ATOM     75  C   UNL A   1      46.760  28.625  25.803  1.00  0.00     0.000 A 
ENDBRANCH  57  70
ENDBRANCH  31  32
ENDBRANCH  24  26
ENDBRANCH  23  24
ENDBRANCH  22  23
ENDBRANCH  21  22
ENDBRANCH  20  21
ENDBRANCH   1  20
TORSDOF 17
ENDMDL
