MODEL 1
REMARK VINA RESULT:     -10.9      0.000      0.000
REMARK SMILES N#C/C(=C/c1ccc(-c2cccc(C(=O)OCCOCCOC(=O)c3ccc(-c4c5nc(c(-c6ccccc6)c6ccc([nH]6)c(-c6ccccc6)c6nc(c(-c7ccccc7)c7ccc4[nH]7)C=C6)C=C5)cc3)c2)o1)c1ccc(F)cc1
REMARK SMILES IDX 18 1 17 2 16 3 14 4 15 5 13 6 9 7 10 8 73 9 11 10 12 11 8 12
REMARK SMILES IDX 5 13 6 14 74 15 7 16 4 17 3 18 2 19 1 20 75 21 76 22 81 23
REMARK SMILES IDX 77 24 80 25 78 26 79 27 19 28 20 29 21 30 22 31 23 32 24 33
REMARK SMILES IDX 25 34 26 35 72 36 27 37 71 38 28 39 29 40 30 41 65 42 31 43
REMARK SMILES IDX 70 44 64 45 66 46 32 47 69 48 63 49 62 50 33 52 55 53 40 54
REMARK SMILES IDX 54 55 41 56 44 57 53 58 67 59 42 60 43 61 52 63 68 64 45 65
REMARK SMILES IDX 34 66 35 67 39 68 36 69 38 70 37 71 56 72 57 73 61 74 58 75
REMARK SMILES IDX 60 76 59 77 46 78 47 79 51 80 48 81 50 82 49 83
REMARK H PARENT 66 51 44 62
REMARK Flexibility Score: inf
ROOT
ATOM      1  C   UNL A   1      33.726  35.603  30.825  1.00  0.00     0.202 C 
ENDROOT
BRANCH   1   2
ATOM      2  C   UNL A   1      33.053  35.246  29.496  1.00  0.00     0.261 C 
BRANCH   2   3
ATOM      3  O   UNL A   1      33.275  33.870  29.145  1.00  0.00    -0.460 OA
BRANCH   3   4
ATOM      4  C   UNL A   1      34.129  33.661  28.112  1.00  0.00     0.338 C 
ATOM      5  O   UNL A   1      34.565  34.502  27.341  1.00  0.00    -0.246 OA
BRANCH   4   6
ATOM      6  C   UNL A   1      34.618  32.263  28.149  1.00  0.00     0.060 A 
ATOM      7  C   UNL A   1      34.405  29.899  27.596  1.00  0.00     0.018 A 
ATOM      8  C   UNL A   1      35.569  29.642  28.332  1.00  0.00     0.012 A 
ATOM      9  C   UNL A   1      33.925  31.219  27.527  1.00  0.00     0.027 A 
ATOM     10  C   UNL A   1      36.259  30.685  28.961  1.00  0.00     0.002 A 
ATOM     11  C   UNL A   1      35.791  31.995  28.860  1.00  0.00     0.016 A 
BRANCH   7  12
ATOM     12  C   UNL A   1      33.725  28.855  26.838  1.00  0.00     0.134 A 
ATOM     13  C   UNL A   1      33.435  27.500  25.090  1.00  0.00     0.128 A 
ATOM     14  C   UNL A   1      32.405  27.269  25.997  1.00  0.00     0.051 A 
ATOM     15  O   UNL A   1      34.261  28.464  25.641  1.00  0.00    -0.457 OA
ATOM     16  C   UNL A   1      32.573  28.145  27.086  1.00  0.00     0.051 A 
BRANCH  13  17
ATOM     17  C   UNL A   1      33.634  26.904  23.805  1.00  0.00     0.067 C 
ATOM     18  C   UNL A   1      32.665  26.879  22.862  1.00  0.00     0.063 C 
BRANCH  18  19
ATOM     19  C   UNL A   1      32.852  26.079  21.583  1.00  0.00     0.100 C 
ATOM     20  N   UNL A   1      33.006  25.416  20.522  1.00  0.00    -0.192 NA
ENDBRANCH  18  19
BRANCH  18  21
ATOM     21  C   UNL A   1      31.361  27.584  23.011  1.00  0.00    -0.007 A 
ATOM     22  C   UNL A   1      30.200  26.877  23.385  1.00  0.00     0.012 A 
ATOM     23  C   UNL A   1      31.254  28.958  22.743  1.00  0.00     0.012 A 
ATOM     24  C   UNL A   1      28.957  27.511  23.417  1.00  0.00     0.040 A 
ATOM     25  C   UNL A   1      30.010  29.595  22.794  1.00  0.00     0.040 A 
ATOM     26  C   UNL A   1      28.872  28.863  23.114  1.00  0.00     0.123 A 
ATOM     27  F   UNL A   1      27.678  29.468  23.123  1.00  0.00    -0.207 F 
ENDBRANCH  18  21
ENDBRANCH  13  17
ENDBRANCH   7  12
ENDBRANCH   4   6
ENDBRANCH   3   4
ENDBRANCH   2   3
ENDBRANCH   1   2
BRANCH   1  28
ATOM     28  O   UNL A   1      33.311  34.874  31.980  1.00  0.00    -0.374 OA
BRANCH  28  29
ATOM     29  C   UNL A   1      34.234  34.774  33.064  1.00  0.00     0.202 C 
BRANCH  29  30
ATOM     30  C   UNL A   1      35.022  33.466  33.200  1.00  0.00     0.261 C 
BRANCH  30  31
ATOM     31  O   UNL A   1      36.434  33.680  33.362  1.00  0.00    -0.460 OA
BRANCH  31  32
ATOM     32  C   UNL A   1      37.088  32.691  34.017  1.00  0.00     0.338 C 
ATOM     33  O   UNL A   1      36.889  32.290  35.153  1.00  0.00    -0.246 OA
BRANCH  32  34
ATOM     34  C   UNL A   1      38.001  32.005  33.086  1.00  0.00     0.060 A 
ATOM     35  C   UNL A   1      38.862  31.033  33.612  1.00  0.00     0.016 A 
ATOM     36  C   UNL A   1      38.053  32.345  31.734  1.00  0.00     0.016 A 
ATOM     37  C   UNL A   1      39.795  30.408  32.788  1.00  0.00     0.010 A 
ATOM     38  C   UNL A   1      38.997  31.726  30.911  1.00  0.00     0.010 A 
ATOM     39  C   UNL A   1      39.885  30.769  31.438  1.00  0.00    -0.014 A 
BRANCH  39  40
ATOM     40  C   UNL A   1      40.961  30.210  30.587  1.00  0.00     0.031 A 
ATOM     41  C   UNL A   1      42.231  30.986  30.391  1.00  0.00     0.074 A 
ATOM     42  C   UNL A   1      40.802  29.017  29.989  1.00  0.00     0.049 A 
ATOM     43  N   UNL A   1      43.263  30.711  29.636  1.00  0.00    -0.248 NA
ATOM     44  C   UNL A   1      42.352  32.242  31.148  1.00  0.00     0.031 C 
ATOM     45  C   UNL A   1      39.639  28.144  30.140  1.00  0.00     0.029 A 
ATOM     46  N   UNL A   1      41.623  28.340  29.123  1.00  0.00    -0.354 N 
ATOM     47  C   UNL A   1      44.152  31.763  29.816  1.00  0.00     0.074 A 
ATOM     48  C   UNL A   1      43.525  32.696  30.729  1.00  0.00     0.031 C 
ATOM     49  C   UNL A   1      39.819  27.046  29.387  1.00  0.00     0.029 A 
ATOM     50  C   UNL A   1      41.086  27.161  28.669  1.00  0.00     0.049 A 
ATOM     51  H   UNL A   1      42.512  28.667  28.854  1.00  0.00     0.167 HD
ATOM     52  C   UNL A   1      45.381  31.937  29.270  1.00  0.00     0.031 A 
ATOM     53  C   UNL A   1      41.550  26.288  27.754  1.00  0.00     0.031 A 
ATOM     54  C   UNL A   1      45.991  31.021  28.341  1.00  0.00     0.049 A 
ATOM     55  C   UNL A   1      42.865  26.558  27.075  1.00  0.00     0.074 A 
ATOM     56  C   UNL A   1      47.239  31.095  27.751  1.00  0.00     0.029 A 
ATOM     57  N   UNL A   1      45.385  29.872  27.854  1.00  0.00    -0.354 N 
ATOM     58  N   UNL A   1      43.712  27.539  27.274  1.00  0.00    -0.248 NA
ATOM     59  C   UNL A   1      43.284  25.601  26.041  1.00  0.00     0.031 C 
ATOM     60  C   UNL A   1      47.360  30.030  26.851  1.00  0.00     0.029 A 
ATOM     61  C   UNL A   1      46.215  29.254  26.932  1.00  0.00     0.049 A 
ATOM     62  H   UNL A   1      44.497  29.544  28.124  1.00  0.00     0.167 HD
ATOM     63  C   UNL A   1      44.770  27.310  26.405  1.00  0.00     0.074 A 
ATOM     64  C   UNL A   1      44.468  26.086  25.691  1.00  0.00     0.031 C 
ATOM     65  C   UNL A   1      45.893  28.047  26.214  1.00  0.00     0.031 A 
BRANCH  52  66
ATOM     66  C   UNL A   1      46.121  33.196  29.630  1.00  0.00    -0.014 A 
ATOM     67  C   UNL A   1      46.131  34.312  28.777  1.00  0.00     0.009 A 
ATOM     68  C   UNL A   1      46.811  33.270  30.850  1.00  0.00     0.009 A 
ATOM     69  C   UNL A   1      46.855  35.457  29.118  1.00  0.00     0.001 A 
ATOM     70  C   UNL A   1      47.507  34.428  31.203  1.00  0.00     0.001 A 
ATOM     71  C   UNL A   1      47.539  35.515  30.332  1.00  0.00     0.000 A 
ENDBRANCH  52  66
BRANCH  53  72
ATOM     72  C   UNL A   1      40.748  25.086  27.408  1.00  0.00    -0.014 A 
ATOM     73  C   UNL A   1      39.623  25.195  26.580  1.00  0.00     0.009 A 
ATOM     74  C   UNL A   1      41.110  23.821  27.900  1.00  0.00     0.009 A 
ATOM     75  C   UNL A   1      38.867  24.063  26.261  1.00  0.00     0.001 A 
ATOM     76  C   UNL A   1      40.370  22.687  27.557  1.00  0.00     0.001 A 
ATOM     77  C   UNL A   1      39.245  22.811  26.743  1.00  0.00     0.000 A 
ENDBRANCH  53  72
BRANCH  65  78
ATOM     78  C   UNL A   1      46.882  27.546  25.197  1.00  0.00    -0.014 A 
ATOM     79  C   UNL A   1      46.908  28.063  23.893  1.00  0.00     0.009 A 
ATOM     80  C   UNL A   1      47.829  26.576  25.563  1.00  0.00     0.009 A 
ATOM     81  C   UNL A   1      47.844  27.599  22.967  1.00  0.00     0.001 A 
ATOM     82  C   UNL A   1      48.783  26.136  24.643  1.00  0.00     0.001 A 
ATOM     83  C   UNL A   1      48.785  26.640  23.345  1.00  0.00     0.000 A 
ENDBRANCH  65  78
ENDBRANCH  39  40
ENDBRANCH  32  34
ENDBRANCH  31  32
ENDBRANCH  30  31
ENDBRANCH  29  30
ENDBRANCH  28  29
ENDBRANCH   1  28
TORSDOF 18
ENDMDL
MODEL 2
REMARK VINA RESULT:     -10.7      5.048     11.163
REMARK SMILES N#C/C(=C/c1ccc(-c2cccc(C(=O)OCCOCCOC(=O)c3ccc(-c4c5nc(c(-c6ccccc6)c6ccc([nH]6)c(-c6ccccc6)c6nc(c(-c7ccccc7)c7ccc4[nH]7)C=C6)C=C5)cc3)c2)o1)c1ccc(F)cc1
REMARK SMILES IDX 18 1 17 2 16 3 14 4 15 5 13 6 9 7 10 8 73 9 11 10 12 11 8 12
REMARK SMILES IDX 5 13 6 14 74 15 7 16 4 17 3 18 2 19 1 20 75 21 76 22 81 23
REMARK SMILES IDX 77 24 80 25 78 26 79 27 19 28 20 29 21 30 22 31 23 32 24 33
REMARK SMILES IDX 25 34 26 35 72 36 27 37 71 38 28 39 29 40 30 41 65 42 31 43
REMARK SMILES IDX 70 44 64 45 66 46 32 47 69 48 63 49 62 50 33 52 55 53 40 54
REMARK SMILES IDX 54 55 41 56 44 57 53 58 67 59 42 60 43 61 52 63 68 64 45 65
REMARK SMILES IDX 34 66 35 67 39 68 36 69 38 70 37 71 56 72 57 73 61 74 58 75
REMARK SMILES IDX 60 76 59 77 46 78 47 79 51 80 48 81 50 82 49 83
REMARK H PARENT 66 51 44 62
REMARK Flexibility Score: inf
ROOT
ATOM      1  C   UNL A   1      42.577  19.444  26.220  1.00  0.00     0.202 C 
ENDROOT
BRANCH   1   2
ATOM      2  C   UNL A   1      41.374  20.393  26.201  1.00  0.00     0.261 C 
BRANCH   2   3
ATOM      3  O   UNL A   1      41.035  20.840  27.524  1.00  0.00    -0.460 OA
BRANCH   3   4
ATOM      4  C   UNL A   1      41.624  21.997  27.919  1.00  0.00     0.338 C 
ATOM      5  O   UNL A   1      42.745  22.125  28.387  1.00  0.00    -0.246 OA
BRANCH   4   6
ATOM      6  C   UNL A   1      40.771  23.144  27.532  1.00  0.00     0.060 A 
ATOM      7  C   UNL A   1      40.358  25.537  27.321  1.00  0.00     0.018 A 
ATOM      8  C   UNL A   1      39.069  25.252  26.849  1.00  0.00     0.012 A 
ATOM      9  C   UNL A   1      41.198  24.468  27.679  1.00  0.00     0.027 A 
ATOM     10  C   UNL A   1      38.638  23.928  26.708  1.00  0.00     0.002 A 
ATOM     11  C   UNL A   1      39.491  22.876  27.038  1.00  0.00     0.016 A 
BRANCH   7  12
ATOM     12  C   UNL A   1      40.877  26.899  27.374  1.00  0.00     0.134 A 
ATOM     13  C   UNL A   1      41.466  28.791  28.396  1.00  0.00     0.128 A 
ATOM     14  C   UNL A   1      41.690  28.945  27.031  1.00  0.00     0.051 A 
ATOM     15  O   UNL A   1      40.991  27.507  28.594  1.00  0.00    -0.457 OA
ATOM     16  C   UNL A   1      41.291  27.761  26.384  1.00  0.00     0.051 A 
BRANCH  13  17
ATOM     17  C   UNL A   1      41.646  29.756  29.438  1.00  0.00     0.067 C 
ATOM     18  C   UNL A   1      40.613  30.450  29.966  1.00  0.00     0.063 C 
BRANCH  18  19
ATOM     19  C   UNL A   1      40.865  31.592  30.937  1.00  0.00     0.100 C 
ATOM     20  N   UNL A   1      41.075  32.539  31.742  1.00  0.00    -0.192 NA
ENDBRANCH  18  19
BRANCH  18  21
ATOM     21  C   UNL A   1      39.187  30.184  29.623  1.00  0.00    -0.007 A 
ATOM     22  C   UNL A   1      38.302  29.658  30.585  1.00  0.00     0.012 A 
ATOM     23  C   UNL A   1      38.708  30.415  28.323  1.00  0.00     0.012 A 
ATOM     24  C   UNL A   1      36.997  29.303  30.237  1.00  0.00     0.040 A 
ATOM     25  C   UNL A   1      37.394  30.076  27.983  1.00  0.00     0.040 A 
ATOM     26  C   UNL A   1      36.558  29.509  28.937  1.00  0.00     0.123 A 
ATOM     27  F   UNL A   1      35.314  29.150  28.597  1.00  0.00    -0.207 F 
ENDBRANCH  18  21
ENDBRANCH  13  17
ENDBRANCH   7  12
ENDBRANCH   4   6
ENDBRANCH   3   4
ENDBRANCH   2   3
ENDBRANCH   1   2
BRANCH   1  28
ATOM     28  O   UNL A   1      43.082  19.010  24.958  1.00  0.00    -0.374 OA
BRANCH  28  29
ATOM     29  C   UNL A   1      44.493  18.839  24.835  1.00  0.00     0.202 C 
BRANCH  29  30
ATOM     30  C   UNL A   1      45.251  19.837  23.951  1.00  0.00     0.261 C 
BRANCH  30  31
ATOM     31  O   UNL A   1      45.481  21.097  24.605  1.00  0.00    -0.460 OA
BRANCH  31  32
ATOM     32  C   UNL A   1      44.884  22.160  24.015  1.00  0.00     0.338 C 
ATOM     33  O   UNL A   1      44.268  22.179  22.960  1.00  0.00    -0.246 OA
BRANCH  32  34
ATOM     34  C   UNL A   1      44.921  23.314  24.929  1.00  0.00     0.060 A 
ATOM     35  C   UNL A   1      46.112  23.557  25.626  1.00  0.00     0.016 A 
ATOM     36  C   UNL A   1      43.797  24.112  25.142  1.00  0.00     0.016 A 
ATOM     37  C   UNL A   1      46.177  24.592  26.557  1.00  0.00     0.010 A 
ATOM     38  C   UNL A   1      43.859  25.142  26.084  1.00  0.00     0.010 A 
ATOM     39  C   UNL A   1      45.043  25.374  26.810  1.00  0.00    -0.014 A 
BRANCH  39  40
ATOM     40  C   UNL A   1      45.061  26.386  27.892  1.00  0.00     0.031 A 
ATOM     41  C   UNL A   1      44.960  25.943  29.323  1.00  0.00     0.074 A 
ATOM     42  C   UNL A   1      45.163  27.693  27.597  1.00  0.00     0.049 A 
ATOM     43  N   UNL A   1      44.888  26.665  30.411  1.00  0.00    -0.248 NA
ATOM     44  C   UNL A   1      44.934  24.491  29.557  1.00  0.00     0.031 C 
ATOM     45  C   UNL A   1      45.318  28.246  26.253  1.00  0.00     0.029 A 
ATOM     46  N   UNL A   1      45.139  28.793  28.416  1.00  0.00    -0.354 N 
ATOM     47  C   UNL A   1      44.797  25.759  31.459  1.00  0.00     0.074 A 
ATOM     48  C   UNL A   1      44.794  24.434  30.874  1.00  0.00     0.031 C 
ATOM     49  C   UNL A   1      45.372  29.586  26.338  1.00  0.00     0.029 A 
ATOM     50  C   UNL A   1      45.210  29.983  27.734  1.00  0.00     0.049 A 
ATOM     51  H   UNL A   1      45.080  28.736  29.396  1.00  0.00     0.167 HD
ATOM     52  C   UNL A   1      44.724  26.007  32.790  1.00  0.00     0.031 A 
ATOM     53  C   UNL A   1      45.123  31.251  28.183  1.00  0.00     0.031 A 
ATOM     54  C   UNL A   1      44.701  27.325  33.368  1.00  0.00     0.049 A 
ATOM     55  C   UNL A   1      44.928  31.501  29.654  1.00  0.00     0.074 A 
ATOM     56  C   UNL A   1      44.653  27.681  34.704  1.00  0.00     0.029 A 
ATOM     57  N   UNL A   1      44.706  28.505  32.639  1.00  0.00    -0.354 N 
ATOM     58  N   UNL A   1      44.874  30.638  30.639  1.00  0.00    -0.248 NA
ATOM     59  C   UNL A   1      44.777  32.903  30.071  1.00  0.00     0.031 C 
ATOM     60  C   UNL A   1      44.555  29.075  34.781  1.00  0.00     0.029 A 
ATOM     61  C   UNL A   1      44.612  29.591  33.496  1.00  0.00     0.049 A 
ATOM     62  H   UNL A   1      44.768  28.563  31.659  1.00  0.00     0.167 HD
ATOM     63  C   UNL A   1      44.700  31.391  31.794  1.00  0.00     0.074 A 
ATOM     64  C   UNL A   1      44.677  32.781  31.388  1.00  0.00     0.031 C 
ATOM     65  C   UNL A   1      44.570  30.969  33.076  1.00  0.00     0.031 A 
BRANCH  52  66
ATOM     66  C   UNL A   1      44.612  24.818  33.706  1.00  0.00    -0.014 A 
ATOM     67  C   UNL A   1      45.740  24.069  34.081  1.00  0.00     0.009 A 
ATOM     68  C   UNL A   1      43.355  24.449  34.211  1.00  0.00     0.009 A 
ATOM     69  C   UNL A   1      45.603  22.948  34.904  1.00  0.00     0.001 A 
ATOM     70  C   UNL A   1      43.226  23.347  35.059  1.00  0.00     0.001 A 
ATOM     71  C   UNL A   1      44.348  22.591  35.395  1.00  0.00     0.000 A 
ENDBRANCH  52  66
BRANCH  53  72
ATOM     72  C   UNL A   1      45.195  32.381  27.221  1.00  0.00    -0.014 A 
ATOM     73  C   UNL A   1      46.396  33.077  27.029  1.00  0.00     0.009 A 
ATOM     74  C   UNL A   1      44.061  32.764  26.486  1.00  0.00     0.009 A 
ATOM     75  C   UNL A   1      46.458  34.144  26.128  1.00  0.00     0.001 A 
ATOM     76  C   UNL A   1      44.133  33.812  25.566  1.00  0.00     0.001 A 
ATOM     77  C   UNL A   1      45.331  34.505  25.393  1.00  0.00     0.000 A 
ENDBRANCH  53  72
BRANCH  65  78
ATOM     78  C   UNL A   1      44.398  32.024  34.135  1.00  0.00    -0.014 A 
ATOM     79  C   UNL A   1      45.504  32.702  34.669  1.00  0.00     0.009 A 
ATOM     80  C   UNL A   1      43.110  32.374  34.571  1.00  0.00     0.009 A 
ATOM     81  C   UNL A   1      45.326  33.691  35.640  1.00  0.00     0.001 A 
ATOM     82  C   UNL A   1      42.934  33.384  35.519  1.00  0.00     0.001 A 
ATOM     83  C   UNL A   1      44.040  34.035  36.058  1.00  0.00     0.000 A 
ENDBRANCH  65  78
ENDBRANCH  39  40
ENDBRANCH  32  34
ENDBRANCH  31  32
ENDBRANCH  30  31
ENDBRANCH  29  30
ENDBRANCH  28  29
ENDBRANCH   1  28
TORSDOF 18
ENDMDL
MODEL 3
REMARK VINA RESULT:     -10.6      4.618     10.749
REMARK SMILES N#C/C(=C/c1ccc(-c2cccc(C(=O)OCCOCCOC(=O)c3ccc(-c4c5nc(c(-c6ccccc6)c6ccc([nH]6)c(-c6ccccc6)c6nc(c(-c7ccccc7)c7ccc4[nH]7)C=C6)C=C5)cc3)c2)o1)c1ccc(F)cc1
REMARK SMILES IDX 18 1 17 2 16 3 14 4 15 5 13 6 9 7 10 8 73 9 11 10 12 11 8 12
REMARK SMILES IDX 5 13 6 14 74 15 7 16 4 17 3 18 2 19 1 20 75 21 76 22 81 23
REMARK SMILES IDX 77 24 80 25 78 26 79 27 19 28 20 29 21 30 22 31 23 32 24 33
REMARK SMILES IDX 25 34 26 35 72 36 27 37 71 38 28 39 29 40 30 41 65 42 31 43
REMARK SMILES IDX 70 44 64 45 66 46 32 47 69 48 63 49 62 50 33 52 55 53 40 54
REMARK SMILES IDX 54 55 41 56 44 57 53 58 67 59 42 60 43 61 52 63 68 64 45 65
REMARK SMILES IDX 34 66 35 67 39 68 36 69 38 70 37 71 56 72 57 73 61 74 58 75
REMARK SMILES IDX 60 76 59 77 46 78 47 79 51 80 48 81 50 82 49 83
REMARK H PARENT 66 51 44 62
REMARK Flexibility Score: inf
ROOT
ATOM      1  C   UNL A   1      44.105  21.344  25.346  1.00  0.00     0.202 C 
ENDROOT
BRANCH   1   2
ATOM      2  C   UNL A   1      43.102  20.393  26.008  1.00  0.00     0.261 C 
BRANCH   2   3
ATOM      3  O   UNL A   1      41.747  20.760  25.704  1.00  0.00    -0.460 OA
BRANCH   3   4
ATOM      4  C   UNL A   1      40.885  20.733  26.751  1.00  0.00     0.338 C 
ATOM      5  O   UNL A   1      40.922  19.978  27.710  1.00  0.00    -0.246 OA
BRANCH   4   6
ATOM      6  C   UNL A   1      39.967  21.893  26.667  1.00  0.00     0.060 A 
ATOM      7  C   UNL A   1      37.908  22.949  25.904  1.00  0.00     0.018 A 
ATOM      8  C   UNL A   1      38.329  24.150  26.491  1.00  0.00     0.012 A 
ATOM      9  C   UNL A   1      38.749  21.826  25.983  1.00  0.00     0.027 A 
ATOM     10  C   UNL A   1      39.551  24.221  27.170  1.00  0.00     0.002 A 
ATOM     11  C   UNL A   1      40.364  23.092  27.268  1.00  0.00     0.016 A 
BRANCH   7  12
ATOM     12  C   UNL A   1      36.593  22.811  25.288  1.00  0.00     0.134 A 
ATOM     13  C   UNL A   1      34.364  22.737  25.293  1.00  0.00     0.128 A 
ATOM     14  C   UNL A   1      34.804  22.528  23.990  1.00  0.00     0.051 A 
ATOM     15  O   UNL A   1      35.484  22.942  26.079  1.00  0.00    -0.457 OA
ATOM     16  C   UNL A   1      36.211  22.546  23.993  1.00  0.00     0.051 A 
BRANCH  13  17
ATOM     17  C   UNL A   1      33.021  22.724  25.788  1.00  0.00     0.067 C 
ATOM     18  C   UNL A   1      32.255  23.838  25.827  1.00  0.00     0.063 C 
BRANCH  18  19
ATOM     19  C   UNL A   1      30.905  23.822  26.525  1.00  0.00     0.100 C 
ATOM     20  N   UNL A   1      29.785  23.810  27.105  1.00  0.00    -0.192 NA
ENDBRANCH  18  19
BRANCH  18  21
ATOM     21  C   UNL A   1      32.673  25.140  25.237  1.00  0.00    -0.007 A 
ATOM     22  C   UNL A   1      32.484  25.402  23.865  1.00  0.00     0.012 A 
ATOM     23  C   UNL A   1      33.300  26.117  26.028  1.00  0.00     0.012 A 
ATOM     24  C   UNL A   1      32.975  26.575  23.287  1.00  0.00     0.040 A 
ATOM     25  C   UNL A   1      33.774  27.300  25.450  1.00  0.00     0.040 A 
ATOM     26  C   UNL A   1      33.622  27.509  24.083  1.00  0.00     0.123 A 
ATOM     27  F   UNL A   1      34.112  28.624  23.528  1.00  0.00    -0.207 F 
ENDBRANCH  18  21
ENDBRANCH  13  17
ENDBRANCH   7  12
ENDBRANCH   4   6
ENDBRANCH   3   4
ENDBRANCH   2   3
ENDBRANCH   1   2
BRANCH   1  28
ATOM     28  O   UNL A   1      44.604  22.419  26.141  1.00  0.00    -0.374 OA
BRANCH  28  29
ATOM     29  C   UNL A   1      43.846  23.627  26.169  1.00  0.00     0.202 C 
BRANCH  29  30
ATOM     30  C   UNL A   1      44.616  24.937  26.379  1.00  0.00     0.261 C 
BRANCH  30  31
ATOM     31  O   UNL A   1      44.144  26.002  25.536  1.00  0.00    -0.460 OA
BRANCH  31  32
ATOM     32  C   UNL A   1      42.833  26.307  25.687  1.00  0.00     0.338 C 
ATOM     33  O   UNL A   1      41.896  25.930  25.000  1.00  0.00    -0.246 OA
BRANCH  32  34
ATOM     34  C   UNL A   1      42.641  27.047  26.946  1.00  0.00     0.060 A 
ATOM     35  C   UNL A   1      41.979  26.394  27.994  1.00  0.00     0.016 A 
ATOM     36  C   UNL A   1      43.053  28.373  27.080  1.00  0.00     0.016 A 
ATOM     37  C   UNL A   1      41.709  27.075  29.179  1.00  0.00     0.010 A 
ATOM     38  C   UNL A   1      42.770  29.058  28.265  1.00  0.00     0.010 A 
ATOM     39  C   UNL A   1      42.080  28.419  29.312  1.00  0.00    -0.014 A 
BRANCH  39  40
ATOM     40  C   UNL A   1      41.677  29.188  30.512  1.00  0.00     0.031 A 
ATOM     41  C   UNL A   1      40.442  30.041  30.467  1.00  0.00     0.074 A 
ATOM     42  C   UNL A   1      42.414  29.128  31.635  1.00  0.00     0.049 A 
ATOM     43  N   UNL A   1      39.955  30.843  31.378  1.00  0.00    -0.248 NA
ATOM     44  C   UNL A   1      39.654  29.983  29.226  1.00  0.00     0.031 C 
ATOM     45  C   UNL A   1      43.604  28.300  31.822  1.00  0.00     0.029 A 
ATOM     46  N   UNL A   1      42.271  29.790  32.828  1.00  0.00    -0.354 N 
ATOM     47  C   UNL A   1      38.809  31.394  30.820  1.00  0.00     0.074 A 
ATOM     48  C   UNL A   1      38.691  30.857  29.480  1.00  0.00     0.031 C 
ATOM     49  C   UNL A   1      44.086  28.505  33.059  1.00  0.00     0.029 A 
ATOM     50  C   UNL A   1      43.268  29.511  33.731  1.00  0.00     0.049 A 
ATOM     51  H   UNL A   1      41.525  30.403  33.019  1.00  0.00     0.167 HD
ATOM     52  C   UNL A   1      37.933  32.268  31.373  1.00  0.00     0.031 A 
ATOM     53  C   UNL A   1      43.509  30.032  34.949  1.00  0.00     0.031 A 
ATOM     54  C   UNL A   1      38.068  32.821  32.695  1.00  0.00     0.049 A 
ATOM     55  C   UNL A   1      42.587  31.086  35.499  1.00  0.00     0.074 A 
ATOM     56  C   UNL A   1      37.223  33.695  33.356  1.00  0.00     0.029 A 
ATOM     57  N   UNL A   1      39.128  32.566  33.553  1.00  0.00    -0.354 N 
ATOM     58  N   UNL A   1      41.489  31.578  34.976  1.00  0.00    -0.248 NA
ATOM     59  C   UNL A   1      42.941  31.659  36.805  1.00  0.00     0.031 C 
ATOM     60  C   UNL A   1      37.808  34.025  34.583  1.00  0.00     0.029 A 
ATOM     61  C   UNL A   1      38.983  33.304  34.717  1.00  0.00     0.049 A 
ATOM     62  H   UNL A   1      39.872  31.951  33.362  1.00  0.00     0.167 HD
ATOM     63  C   UNL A   1      41.014  32.505  35.894  1.00  0.00     0.074 A 
ATOM     64  C   UNL A   1      41.930  32.491  37.016  1.00  0.00     0.031 C 
ATOM     65  C   UNL A   1      39.915  33.297  35.817  1.00  0.00     0.031 A 
BRANCH  52  66
ATOM     66  C   UNL A   1      36.779  32.718  30.520  1.00  0.00    -0.014 A 
ATOM     67  C   UNL A   1      35.554  32.029  30.517  1.00  0.00     0.009 A 
ATOM     68  C   UNL A   1      36.915  33.858  29.712  1.00  0.00     0.009 A 
ATOM     69  C   UNL A   1      34.509  32.446  29.689  1.00  0.00     0.001 A 
ATOM     70  C   UNL A   1      35.859  34.291  28.909  1.00  0.00     0.001 A 
ATOM     71  C   UNL A   1      34.661  33.578  28.889  1.00  0.00     0.000 A 
ENDBRANCH  52  66
BRANCH  53  72
ATOM     72  C   UNL A   1      44.694  29.580  35.723  1.00  0.00    -0.014 A 
ATOM     73  C   UNL A   1      45.924  30.238  35.592  1.00  0.00     0.009 A 
ATOM     74  C   UNL A   1      44.597  28.489  36.603  1.00  0.00     0.009 A 
ATOM     75  C   UNL A   1      47.039  29.806  36.316  1.00  0.00     0.001 A 
ATOM     76  C   UNL A   1      45.705  28.078  37.348  1.00  0.00     0.001 A 
ATOM     77  C   UNL A   1      46.927  28.733  37.198  1.00  0.00     0.000 A 
ENDBRANCH  53  72
BRANCH  65  78
ATOM     78  C   UNL A   1      39.640  34.210  36.980  1.00  0.00    -0.014 A 
ATOM     79  C   UNL A   1      38.970  33.749  38.122  1.00  0.00     0.009 A 
ATOM     80  C   UNL A   1      40.098  35.538  36.950  1.00  0.00     0.009 A 
ATOM     81  C   UNL A   1      38.737  34.605  39.200  1.00  0.00     0.001 A 
ATOM     82  C   UNL A   1      39.891  36.382  38.042  1.00  0.00     0.001 A 
ATOM     83  C   UNL A   1      39.204  35.919  39.162  1.00  0.00     0.000 A 
ENDBRANCH  65  78
ENDBRANCH  39  40
ENDBRANCH  32  34
ENDBRANCH  31  32
ENDBRANCH  30  31
ENDBRANCH  29  30
ENDBRANCH  28  29
ENDBRANCH   1  28
TORSDOF 18
ENDMDL
