MODEL 1
REMARK VINA RESULT:      -9.7      0.000      0.000
REMARK SMILES Cc1cscc1-c1noc(SCC(=O)OCCOCCOC(=O)c2ccc(-c3c4nc(c(-c5ccccc5)c5ccc([nH]5)c(-c5ccccc5)c5nc(c(-c6ccccc6)c6ccc3[nH]6)C=C5)C=C4)cc2)n1
REMARK SMILES IDX 17 1 16 2 15 3 13 4 14 5 12 6 11 7 10 8 7 9 8 10 72 11 9 12
REMARK SMILES IDX 6 13 1 14 2 15 3 16 4 17 5 18 18 19 19 20 20 21 21 22 22 23
REMARK SMILES IDX 23 24 24 25 25 26 71 27 26 28 70 29 27 30 28 31 29 32 64 33
REMARK SMILES IDX 30 34 69 35 63 36 65 37 31 38 68 39 62 40 61 41 32 43 54 44
REMARK SMILES IDX 39 45 53 46 40 47 43 48 52 49 66 50 41 51 42 52 51 54 67 55
REMARK SMILES IDX 44 56 33 57 34 58 38 59 35 60 37 61 36 62 55 63 56 64 60 65
REMARK SMILES IDX 57 66 59 67 58 68 45 69 46 70 50 71 47 72 49 73 48 74
REMARK H PARENT 65 42 43 53
REMARK Flexibility Score: inf
ROOT
ATOM      1  C   UNL A   1      32.721  29.719  27.242  1.00  0.00     0.202 C 
ENDROOT
BRANCH   1   2
ATOM      2  C   UNL A   1      33.502  28.463  26.807  1.00  0.00     0.261 C 
BRANCH   2   3
ATOM      3  O   UNL A   1      32.795  27.589  25.892  1.00  0.00    -0.463 OA
BRANCH   3   4
ATOM      4  C   UNL A   1      31.956  26.682  26.469  1.00  0.00     0.316 C 
ATOM      5  O   UNL A   1      31.044  26.998  27.232  1.00  0.00    -0.251 OA
BRANCH   4   6
ATOM      6  C   UNL A   1      32.116  25.235  26.028  1.00  0.00     0.202 C 
BRANCH   6   7
ATOM      7  S   UNL A   1      30.931  24.556  24.861  1.00  0.00    -0.053 SA
BRANCH   7   8
ATOM      8  C   UNL A   1      30.544  25.844  23.727  1.00  0.00     0.286 A 
ATOM      9  C   UNL A   1      30.021  27.709  22.858  1.00  0.00     0.204 A 
ATOM     10  N   UNL A   1      30.978  27.244  22.047  1.00  0.00    -0.056 NA
ATOM     11  N   UNL A   1      29.688  26.841  23.893  1.00  0.00    -0.181 NA
ATOM     12  O   UNL A   1      31.331  26.026  22.618  1.00  0.00    -0.327 OA
BRANCH   9  13
ATOM     13  C   UNL A   1      29.238  28.918  22.517  1.00  0.00     0.036 A 
ATOM     14  C   UNL A   1      26.789  28.424  23.503  1.00  0.00     0.046 C 
ATOM     15  C   UNL A   1      27.836  29.215  22.784  1.00  0.00    -0.029 A 
ATOM     16  C   UNL A   1      27.510  30.474  22.299  1.00  0.00     0.069 A 
ATOM     17  S   UNL A   1      28.840  31.332  21.680  1.00  0.00    -0.151 S 
ATOM     18  C   UNL A   1      29.883  30.021  21.990  1.00  0.00     0.077 A 
ENDBRANCH   9  13
ENDBRANCH   7   8
ENDBRANCH   6   7
ENDBRANCH   4   6
ENDBRANCH   3   4
ENDBRANCH   2   3
ENDBRANCH   1   2
BRANCH   1  19
ATOM     19  O   UNL A   1      32.577  30.793  26.322  1.00  0.00    -0.374 OA
BRANCH  19  20
ATOM     20  C   UNL A   1      31.490  31.678  26.516  1.00  0.00     0.202 C 
BRANCH  20  21
ATOM     21  C   UNL A   1      31.750  33.057  27.137  1.00  0.00     0.261 C 
BRANCH  21  22
ATOM     22  O   UNL A   1      33.090  33.445  27.320  1.00  0.00    -0.460 OA
BRANCH  22  23
ATOM     23  C   UNL A   1      33.306  34.256  28.366  1.00  0.00     0.338 C 
ATOM     24  O   UNL A   1      32.708  35.256  28.718  1.00  0.00    -0.246 OA
BRANCH  23  25
ATOM     25  C   UNL A   1      34.458  33.665  29.023  1.00  0.00     0.060 A 
ATOM     26  C   UNL A   1      35.714  34.195  28.746  1.00  0.00     0.016 A 
ATOM     27  C   UNL A   1      34.256  32.649  29.965  1.00  0.00     0.016 A 
ATOM     28  C   UNL A   1      36.812  33.652  29.387  1.00  0.00     0.010 A 
ATOM     29  C   UNL A   1      35.355  32.121  30.619  1.00  0.00     0.010 A 
ATOM     30  C   UNL A   1      36.634  32.598  30.297  1.00  0.00    -0.014 A 
BRANCH  30  31
ATOM     31  C   UNL A   1      37.820  31.904  30.813  1.00  0.00     0.031 A 
ATOM     32  C   UNL A   1      38.283  32.225  32.200  1.00  0.00     0.074 A 
ATOM     33  C   UNL A   1      38.421  30.978  30.052  1.00  0.00     0.049 A 
ATOM     34  N   UNL A   1      39.266  31.701  32.881  1.00  0.00    -0.248 NA
ATOM     35  C   UNL A   1      37.541  33.277  32.918  1.00  0.00     0.031 C 
ATOM     36  C   UNL A   1      38.012  30.604  28.696  1.00  0.00     0.029 A 
ATOM     37  N   UNL A   1      39.494  30.176  30.317  1.00  0.00    -0.354 N 
ATOM     38  C   UNL A   1      39.263  32.362  34.102  1.00  0.00     0.074 A 
ATOM     39  C   UNL A   1      38.211  33.351  34.057  1.00  0.00     0.031 C 
ATOM     40  C   UNL A   1      38.819  29.627  28.254  1.00  0.00     0.029 A 
ATOM     41  C   UNL A   1      39.815  29.336  29.281  1.00  0.00     0.049 A 
ATOM     42  H   UNL A   1      39.990  30.199  31.168  1.00  0.00     0.167 HD
ATOM     43  C   UNL A   1      40.066  32.148  35.168  1.00  0.00     0.031 A 
ATOM     44  C   UNL A   1      40.810  28.439  29.184  1.00  0.00     0.031 A 
ATOM     45  C   UNL A   1      41.118  31.169  35.177  1.00  0.00     0.049 A 
ATOM     46  C   UNL A   1      41.722  28.256  30.364  1.00  0.00     0.074 A 
ATOM     47  C   UNL A   1      41.991  30.848  36.198  1.00  0.00     0.029 A 
ATOM     48  N   UNL A   1      41.442  30.360  34.096  1.00  0.00    -0.354 N 
ATOM     49  N   UNL A   1      41.689  28.854  31.532  1.00  0.00    -0.248 NA
ATOM     50  C   UNL A   1      42.797  27.269  30.220  1.00  0.00     0.031 C 
ATOM     51  C   UNL A   1      42.881  29.882  35.715  1.00  0.00     0.029 A 
ATOM     52  C   UNL A   1      42.522  29.558  34.415  1.00  0.00     0.049 A 
ATOM     53  H   UNL A   1      40.973  30.358  33.231  1.00  0.00     0.167 HD
ATOM     54  C   UNL A   1      42.725  28.302  32.272  1.00  0.00     0.074 A 
ATOM     55  C   UNL A   1      43.353  27.308  31.422  1.00  0.00     0.031 C 
ATOM     56  C   UNL A   1      43.124  28.586  33.536  1.00  0.00     0.031 A 
BRANCH  43  57
ATOM     57  C   UNL A   1      39.855  33.017  36.375  1.00  0.00    -0.014 A 
ATOM     58  C   UNL A   1      38.968  32.649  37.400  1.00  0.00     0.009 A 
ATOM     59  C   UNL A   1      40.552  34.230  36.488  1.00  0.00     0.009 A 
ATOM     60  C   UNL A   1      38.756  33.495  38.492  1.00  0.00     0.001 A 
ATOM     61  C   UNL A   1      40.360  35.059  37.594  1.00  0.00     0.001 A 
ATOM     62  C   UNL A   1      39.455  34.696  38.590  1.00  0.00     0.000 A 
ENDBRANCH  43  57
BRANCH  44  63
ATOM     63  C   UNL A   1      40.984  27.660  27.932  1.00  0.00    -0.014 A 
ATOM     64  C   UNL A   1      41.792  28.141  26.891  1.00  0.00     0.009 A 
ATOM     65  C   UNL A   1      40.360  26.410  27.785  1.00  0.00     0.009 A 
ATOM     66  C   UNL A   1      41.953  27.396  25.720  1.00  0.00     0.001 A 
ATOM     67  C   UNL A   1      40.547  25.655  26.626  1.00  0.00     0.001 A 
ATOM     68  C   UNL A   1      41.336  26.152  25.591  1.00  0.00     0.000 A 
ENDBRANCH  44  63
BRANCH  56  69
ATOM     69  C   UNL A   1      44.277  27.789  34.075  1.00  0.00    -0.014 A 
ATOM     70  C   UNL A   1      44.075  26.557  34.715  1.00  0.00     0.009 A 
ATOM     71  C   UNL A   1      45.588  28.262  33.899  1.00  0.00     0.009 A 
ATOM     72  C   UNL A   1      45.163  25.832  35.202  1.00  0.00     0.001 A 
ATOM     73  C   UNL A   1      46.674  27.519  34.358  1.00  0.00     0.001 A 
ATOM     74  C   UNL A   1      46.460  26.311  35.019  1.00  0.00     0.000 A 
ENDBRANCH  56  69
ENDBRANCH  30  31
ENDBRANCH  23  25
ENDBRANCH  22  23
ENDBRANCH  21  22
ENDBRANCH  20  21
ENDBRANCH  19  20
ENDBRANCH   1  19
TORSDOF 17
ENDMDL
MODEL 2
REMARK VINA RESULT:      -9.4      5.041      9.669
REMARK SMILES Cc1cscc1-c1noc(SCC(=O)OCCOCCOC(=O)c2ccc(-c3c4nc(c(-c5ccccc5)c5ccc([nH]5)c(-c5ccccc5)c5nc(c(-c6ccccc6)c6ccc3[nH]6)C=C5)C=C4)cc2)n1
REMARK SMILES IDX 17 1 16 2 15 3 13 4 14 5 12 6 11 7 10 8 7 9 8 10 72 11 9 12
REMARK SMILES IDX 6 13 1 14 2 15 3 16 4 17 5 18 18 19 19 20 20 21 21 22 22 23
REMARK SMILES IDX 23 24 24 25 25 26 71 27 26 28 70 29 27 30 28 31 29 32 64 33
REMARK SMILES IDX 30 34 69 35 63 36 65 37 31 38 68 39 62 40 61 41 32 43 54 44
REMARK SMILES IDX 39 45 53 46 40 47 43 48 52 49 66 50 41 51 42 52 51 54 67 55
REMARK SMILES IDX 44 56 33 57 34 58 38 59 35 60 37 61 36 62 55 63 56 64 60 65
REMARK SMILES IDX 57 66 59 67 58 68 45 69 46 70 50 71 47 72 49 73 48 74
REMARK H PARENT 65 42 43 53
REMARK Flexibility Score: inf
ROOT
ATOM      1  C   UNL A   1      37.351  23.137  25.646  1.00  0.00     0.202 C 
ENDROOT
BRANCH   1   2
ATOM      2  C   UNL A   1      35.828  22.952  25.785  1.00  0.00     0.261 C 
BRANCH   2   3
ATOM      3  O   UNL A   1      35.403  21.617  26.155  1.00  0.00    -0.463 OA
BRANCH   3   4
ATOM      4  C   UNL A   1      34.076  21.473  26.434  1.00  0.00     0.316 C 
ATOM      5  O   UNL A   1      33.654  21.114  27.532  1.00  0.00    -0.251 OA
BRANCH   4   6
ATOM      6  C   UNL A   1      33.104  21.901  25.345  1.00  0.00     0.202 C 
BRANCH   6   7
ATOM      7  S   UNL A   1      31.358  22.020  25.751  1.00  0.00    -0.053 SA
BRANCH   7   8
ATOM      8  C   UNL A   1      30.993  23.733  25.915  1.00  0.00     0.286 A 
ATOM      9  C   UNL A   1      30.592  25.781  25.523  1.00  0.00     0.204 A 
ATOM     10  N   UNL A   1      29.732  25.475  26.501  1.00  0.00    -0.056 NA
ATOM     11  N   UNL A   1      31.431  24.731  25.161  1.00  0.00    -0.181 NA
ATOM     12  O   UNL A   1      29.984  24.132  26.755  1.00  0.00    -0.327 OA
BRANCH   9  13
ATOM     13  C   UNL A   1      30.780  27.176  25.064  1.00  0.00     0.036 A 
ATOM     14  C   UNL A   1      32.164  28.347  27.045  1.00  0.00     0.046 C 
ATOM     15  C   UNL A   1      31.446  28.286  25.734  1.00  0.00    -0.029 A 
ATOM     16  C   UNL A   1      31.402  29.423  24.939  1.00  0.00     0.069 A 
ATOM     17  S   UNL A   1      30.727  29.156  23.403  1.00  0.00    -0.151 S 
ATOM     18  C   UNL A   1      30.420  27.523  23.775  1.00  0.00     0.077 A 
ENDBRANCH   9  13
ENDBRANCH   7   8
ENDBRANCH   6   7
ENDBRANCH   4   6
ENDBRANCH   3   4
ENDBRANCH   2   3
ENDBRANCH   1   2
BRANCH   1  19
ATOM     19  O   UNL A   1      38.132  22.060  25.144  1.00  0.00    -0.374 OA
BRANCH  19  20
ATOM     20  C   UNL A   1      39.073  21.472  26.022  1.00  0.00     0.202 C 
BRANCH  20  21
ATOM     21  C   UNL A   1      39.556  20.041  25.751  1.00  0.00     0.261 C 
BRANCH  21  22
ATOM     22  O   UNL A   1      40.562  19.526  26.590  1.00  0.00    -0.460 OA
BRANCH  22  23
ATOM     23  C   UNL A   1      41.805  19.592  26.089  1.00  0.00     0.338 C 
ATOM     24  O   UNL A   1      42.435  18.772  25.447  1.00  0.00    -0.246 OA
BRANCH  23  25
ATOM     25  C   UNL A   1      42.266  20.908  26.494  1.00  0.00     0.060 A 
ATOM     26  C   UNL A   1      42.298  21.202  27.853  1.00  0.00     0.016 A 
ATOM     27  C   UNL A   1      42.733  21.794  25.516  1.00  0.00     0.016 A 
ATOM     28  C   UNL A   1      42.759  22.445  28.245  1.00  0.00     0.010 A 
ATOM     29  C   UNL A   1      43.211  23.030  25.913  1.00  0.00     0.010 A 
ATOM     30  C   UNL A   1      43.185  23.366  27.274  1.00  0.00    -0.014 A 
BRANCH  30  31
ATOM     31  C   UNL A   1      43.479  24.743  27.689  1.00  0.00     0.031 A 
ATOM     32  C   UNL A   1      44.910  25.179  27.738  1.00  0.00     0.074 A 
ATOM     33  C   UNL A   1      42.464  25.576  27.966  1.00  0.00     0.049 A 
ATOM     34  N   UNL A   1      45.402  26.355  28.021  1.00  0.00    -0.248 NA
ATOM     35  C   UNL A   1      45.924  24.156  27.429  1.00  0.00     0.031 C 
ATOM     36  C   UNL A   1      41.044  25.220  27.922  1.00  0.00     0.029 A 
ATOM     37  N   UNL A   1      42.475  26.894  28.324  1.00  0.00    -0.354 N 
ATOM     38  C   UNL A   1      46.779  26.211  27.927  1.00  0.00     0.074 A 
ATOM     39  C   UNL A   1      47.050  24.829  27.604  1.00  0.00     0.031 C 
ATOM     40  C   UNL A   1      40.316  26.306  28.226  1.00  0.00     0.029 A 
ATOM     41  C   UNL A   1      41.221  27.414  28.515  1.00  0.00     0.049 A 
ATOM     42  H   UNL A   1      43.301  27.418  28.434  1.00  0.00     0.167 HD
ATOM     43  C   UNL A   1      47.730  27.158  28.089  1.00  0.00     0.031 A 
ATOM     44  C   UNL A   1      40.856  28.653  28.889  1.00  0.00     0.031 A 
ATOM     45  C   UNL A   1      47.432  28.523  28.430  1.00  0.00     0.049 A 
ATOM     46  C   UNL A   1      41.935  29.675  29.113  1.00  0.00     0.074 A 
ATOM     47  C   UNL A   1      48.303  29.579  28.609  1.00  0.00     0.029 A 
ATOM     48  N   UNL A   1      46.152  29.010  28.656  1.00  0.00    -0.354 N 
ATOM     49  N   UNL A   1      43.235  29.544  28.983  1.00  0.00    -0.248 NA
ATOM     50  C   UNL A   1      41.499  31.014  29.521  1.00  0.00     0.031 C 
ATOM     51  C   UNL A   1      47.553  30.695  28.999  1.00  0.00     0.029 A 
ATOM     52  C   UNL A   1      46.210  30.348  29.001  1.00  0.00     0.049 A 
ATOM     53  H   UNL A   1      45.325  28.481  28.581  1.00  0.00     0.167 HD
ATOM     54  C   UNL A   1      43.773  30.790  29.273  1.00  0.00     0.074 A 
ATOM     55  C   UNL A   1      42.653  31.665  29.566  1.00  0.00     0.031 C 
ATOM     56  C   UNL A   1      45.071  31.181  29.295  1.00  0.00     0.031 A 
BRANCH  43  57
ATOM     57  C   UNL A   1      49.163  26.731  27.940  1.00  0.00    -0.014 A 
ATOM     58  C   UNL A   1      49.924  26.316  29.045  1.00  0.00     0.009 A 
ATOM     59  C   UNL A   1      49.764  26.748  26.673  1.00  0.00     0.009 A 
ATOM     60  C   UNL A   1      51.267  25.964  28.888  1.00  0.00     0.001 A 
ATOM     61  C   UNL A   1      51.098  26.368  26.514  1.00  0.00     0.001 A 
ATOM     62  C   UNL A   1      51.852  25.988  27.623  1.00  0.00     0.000 A 
ENDBRANCH  43  57
BRANCH  44  63
ATOM     63  C   UNL A   1      39.419  28.979  29.069  1.00  0.00    -0.014 A 
ATOM     64  C   UNL A   1      38.652  29.466  28.001  1.00  0.00     0.009 A 
ATOM     65  C   UNL A   1      38.799  28.774  30.312  1.00  0.00     0.009 A 
ATOM     66  C   UNL A   1      37.299  29.762  28.180  1.00  0.00     0.001 A 
ATOM     67  C   UNL A   1      37.439  29.044  30.481  1.00  0.00     0.001 A 
ATOM     68  C   UNL A   1      36.692  29.546  29.417  1.00  0.00     0.000 A 
ENDBRANCH  44  63
BRANCH  56  69
ATOM     69  C   UNL A   1      45.337  32.622  29.625  1.00  0.00    -0.014 A 
ATOM     70  C   UNL A   1      45.364  33.605  28.624  1.00  0.00     0.009 A 
ATOM     71  C   UNL A   1      45.519  33.003  30.964  1.00  0.00     0.009 A 
ATOM     72  C   UNL A   1      45.608  34.937  28.956  1.00  0.00     0.001 A 
ATOM     73  C   UNL A   1      45.729  34.340  31.294  1.00  0.00     0.001 A 
ATOM     74  C   UNL A   1      45.785  35.305  30.289  1.00  0.00     0.000 A 
ENDBRANCH  56  69
ENDBRANCH  30  31
ENDBRANCH  23  25
ENDBRANCH  22  23
ENDBRANCH  21  22
ENDBRANCH  20  21
ENDBRANCH  19  20
ENDBRANCH   1  19
TORSDOF 17
ENDMDL
MODEL 3
REMARK VINA RESULT:      -9.3      4.369      7.193
REMARK SMILES Cc1cscc1-c1noc(SCC(=O)OCCOCCOC(=O)c2ccc(-c3c4nc(c(-c5ccccc5)c5ccc([nH]5)c(-c5ccccc5)c5nc(c(-c6ccccc6)c6ccc3[nH]6)C=C5)C=C4)cc2)n1
REMARK SMILES IDX 17 1 16 2 15 3 13 4 14 5 12 6 11 7 10 8 7 9 8 10 72 11 9 12
REMARK SMILES IDX 6 13 1 14 2 15 3 16 4 17 5 18 18 19 19 20 20 21 21 22 22 23
REMARK SMILES IDX 23 24 24 25 25 26 71 27 26 28 70 29 27 30 28 31 29 32 64 33
REMARK SMILES IDX 30 34 69 35 63 36 65 37 31 38 68 39 62 40 61 41 32 43 54 44
REMARK SMILES IDX 39 45 53 46 40 47 43 48 52 49 66 50 41 51 42 52 51 54 67 55
REMARK SMILES IDX 44 56 33 57 34 58 38 59 35 60 37 61 36 62 55 63 56 64 60 65
REMARK SMILES IDX 57 66 59 67 58 68 45 69 46 70 50 71 47 72 49 73 48 74
REMARK H PARENT 65 42 43 53
REMARK Flexibility Score: inf
ROOT
ATOM      1  C   UNL A   1      34.000  36.432  32.633  1.00  0.00     0.202 C 
ENDROOT
BRANCH   1   2
ATOM      2  C   UNL A   1      32.709  35.982  31.920  1.00  0.00     0.261 C 
BRANCH   2   3
ATOM      3  O   UNL A   1      32.908  35.067  30.815  1.00  0.00    -0.463 OA
BRANCH   3   4
ATOM      4  C   UNL A   1      32.988  35.638  29.579  1.00  0.00     0.316 C 
ATOM      5  O   UNL A   1      32.176  36.464  29.164  1.00  0.00    -0.251 OA
BRANCH   4   6
ATOM      6  C   UNL A   1      34.219  35.297  28.753  1.00  0.00     0.202 C 
BRANCH   6   7
ATOM      7  S   UNL A   1      34.957  33.670  28.943  1.00  0.00    -0.053 SA
BRANCH   7   8
ATOM      8  C   UNL A   1      33.995  32.562  27.974  1.00  0.00     0.286 A 
ATOM      9  C   UNL A   1      33.042  30.831  27.195  1.00  0.00     0.204 A 
ATOM     10  N   UNL A   1      32.099  31.777  27.101  1.00  0.00    -0.056 NA
ATOM     11  N   UNL A   1      34.257  31.294  27.692  1.00  0.00    -0.181 NA
ATOM     12  O   UNL A   1      32.716  32.910  27.619  1.00  0.00    -0.327 OA
BRANCH   9  13
ATOM     13  C   UNL A   1      32.860  29.494  26.590  1.00  0.00     0.036 A 
ATOM     14  C   UNL A   1      31.048  29.882  24.647  1.00  0.00     0.046 C 
ATOM     15  C   UNL A   1      31.985  29.085  25.498  1.00  0.00    -0.029 A 
ATOM     16  C   UNL A   1      32.137  27.730  25.240  1.00  0.00     0.069 A 
ATOM     17  S   UNL A   1      33.368  26.996  26.153  1.00  0.00    -0.151 S 
ATOM     18  C   UNL A   1      33.697  28.457  26.963  1.00  0.00     0.077 A 
ENDBRANCH   9  13
ENDBRANCH   7   8
ENDBRANCH   6   7
ENDBRANCH   4   6
ENDBRANCH   3   4
ENDBRANCH   2   3
ENDBRANCH   1   2
BRANCH   1  19
ATOM     19  O   UNL A   1      34.817  35.453  33.260  1.00  0.00    -0.374 OA
BRANCH  19  20
ATOM     20  C   UNL A   1      35.889  34.919  32.508  1.00  0.00     0.202 C 
BRANCH  20  21
ATOM     21  C   UNL A   1      36.963  34.087  33.222  1.00  0.00     0.261 C 
BRANCH  21  22
ATOM     22  O   UNL A   1      36.649  32.751  33.533  1.00  0.00    -0.460 OA
BRANCH  22  23
ATOM     23  C   UNL A   1      36.036  32.071  32.552  1.00  0.00     0.338 C 
ATOM     24  O   UNL A   1      34.852  31.970  32.292  1.00  0.00    -0.246 OA
BRANCH  23  25
ATOM     25  C   UNL A   1      37.133  31.449  31.832  1.00  0.00     0.060 A 
ATOM     26  C   UNL A   1      38.115  30.796  32.570  1.00  0.00     0.016 A 
ATOM     27  C   UNL A   1      37.119  31.459  30.432  1.00  0.00     0.016 A 
ATOM     28  C   UNL A   1      39.148  30.181  31.888  1.00  0.00     0.010 A 
ATOM     29  C   UNL A   1      38.145  30.827  29.753  1.00  0.00     0.010 A 
ATOM     30  C   UNL A   1      39.178  30.224  30.485  1.00  0.00    -0.014 A 
BRANCH  30  31
ATOM     31  C   UNL A   1      40.378  29.745  29.790  1.00  0.00     0.031 A 
ATOM     32  C   UNL A   1      41.536  30.681  29.644  1.00  0.00     0.074 A 
ATOM     33  C   UNL A   1      40.419  28.477  29.350  1.00  0.00     0.049 A 
ATOM     34  N   UNL A   1      42.711  30.461  29.119  1.00  0.00    -0.248 NA
ATOM     35  C   UNL A   1      41.348  32.050  30.156  1.00  0.00     0.031 C 
ATOM     36  C   UNL A   1      39.331  27.505  29.473  1.00  0.00     0.029 A 
ATOM     37  N   UNL A   1      41.420  27.791  28.724  1.00  0.00    -0.354 N 
ATOM     38  C   UNL A   1      43.398  31.662  29.235  1.00  0.00     0.074 A 
ATOM     39  C   UNL A   1      42.500  32.619  29.839  1.00  0.00     0.031 C 
ATOM     40  C   UNL A   1      39.733  26.336  28.952  1.00  0.00     0.029 A 
ATOM     41  C   UNL A   1      41.089  26.492  28.433  1.00  0.00     0.049 A 
ATOM     42  H   UNL A   1      42.292  28.190  28.502  1.00  0.00     0.167 HD
ATOM     43  C   UNL A   1      44.672  31.932  28.873  1.00  0.00     0.031 A 
ATOM     44  C   UNL A   1      41.810  25.545  27.810  1.00  0.00     0.031 A 
ATOM     45  C   UNL A   1      45.537  30.965  28.255  1.00  0.00     0.049 A 
ATOM     46  C   UNL A   1      43.206  25.885  27.372  1.00  0.00     0.074 A 
ATOM     47  C   UNL A   1      46.851  31.110  27.855  1.00  0.00     0.029 A 
ATOM     48  N   UNL A   1      45.158  29.667  27.939  1.00  0.00    -0.354 N 
ATOM     49  N   UNL A   1      43.866  27.010  27.520  1.00  0.00    -0.248 NA
ATOM     50  C   UNL A   1      43.961  24.826  26.694  1.00  0.00     0.031 C 
ATOM     51  C   UNL A   1      47.250  29.916  27.244  1.00  0.00     0.029 A 
ATOM     52  C   UNL A   1      46.205  29.007  27.321  1.00  0.00     0.049 A 
ATOM     53  H   UNL A   1      44.275  29.275  28.126  1.00  0.00     0.167 HD
ATOM     54  C   UNL A   1      45.122  26.790  26.974  1.00  0.00     0.074 A 
ATOM     55  C   UNL A   1      45.133  25.416  26.509  1.00  0.00     0.031 C 
ATOM     56  C   UNL A   1      46.172  27.640  26.864  1.00  0.00     0.031 A 
BRANCH  43  57
ATOM     57  C   UNL A   1      45.172  33.330  29.102  1.00  0.00    -0.014 A 
ATOM     58  C   UNL A   1      45.806  33.697  30.300  1.00  0.00     0.009 A 
ATOM     59  C   UNL A   1      45.001  34.300  28.103  1.00  0.00     0.009 A 
ATOM     60  C   UNL A   1      46.223  35.014  30.507  1.00  0.00     0.001 A 
ATOM     61  C   UNL A   1      45.446  35.609  28.300  1.00  0.00     0.001 A 
ATOM     62  C   UNL A   1      46.046  35.968  29.506  1.00  0.00     0.000 A 
ENDBRANCH  43  57
BRANCH  44  63
ATOM     63  C   UNL A   1      41.219  24.203  27.572  1.00  0.00    -0.014 A 
ATOM     64  C   UNL A   1      41.713  23.071  28.238  1.00  0.00     0.009 A 
ATOM     65  C   UNL A   1      40.133  24.055  26.694  1.00  0.00     0.009 A 
ATOM     66  C   UNL A   1      41.145  21.815  28.011  1.00  0.00     0.001 A 
ATOM     67  C   UNL A   1      39.549  22.803  26.492  1.00  0.00     0.001 A 
ATOM     68  C   UNL A   1      40.060  21.683  27.144  1.00  0.00     0.000 A 
ENDBRANCH  44  63
BRANCH  56  69
ATOM     69  C   UNL A   1      47.422  27.091  26.239  1.00  0.00    -0.014 A 
ATOM     70  C   UNL A   1      47.685  27.254  24.870  1.00  0.00     0.009 A 
ATOM     71  C   UNL A   1      48.369  26.439  27.044  1.00  0.00     0.009 A 
ATOM     72  C   UNL A   1      48.856  26.740  24.314  1.00  0.00     0.001 A 
ATOM     73  C   UNL A   1      49.553  25.955  26.490  1.00  0.00     0.001 A 
ATOM     74  C   UNL A   1      49.790  26.096  25.124  1.00  0.00     0.000 A 
ENDBRANCH  56  69
ENDBRANCH  30  31
ENDBRANCH  23  25
ENDBRANCH  22  23
ENDBRANCH  21  22
ENDBRANCH  20  21
ENDBRANCH  19  20
ENDBRANCH   1  19
TORSDOF 17
ENDMDL
