MODEL 1
REMARK VINA RESULT:     -10.2      0.000      0.000
REMARK SMILES C[C@@H](Sc1nc2ccccc2c(=O)n1N)C(=O)OCCOCCOC(=O)c1ccc(-c2c3nc(c(-c4ccccc4)c4ccc([nH]4)c(-c4ccccc4)c4nc(c(-c5ccccc5)c5ccc2[nH]5)C=C4)C=C3)cc1
REMARK SMILES IDX 20 1 19 2 18 3 16 4 17 5 2 6 1 7 3 8 4 9 5 10 14 11 6 12
REMARK SMILES IDX 12 13 7 14 11 15 13 16 8 17 10 18 9 19 15 20 21 23 22 24
REMARK SMILES IDX 23 25 24 26 25 27 26 28 27 29 28 30 74 31 29 32 73 33 30 34
REMARK SMILES IDX 31 35 32 36 67 37 33 38 72 39 66 40 68 41 34 42 71 43 65 44
REMARK SMILES IDX 64 45 35 47 57 48 42 49 56 50 43 51 46 52 55 53 69 54 44 55
REMARK SMILES IDX 45 56 54 58 70 59 47 60 36 61 37 62 41 63 38 64 40 65 39 66
REMARK SMILES IDX 58 67 59 68 63 69 60 70 62 71 61 72 48 73 49 74 53 75 50 76
REMARK SMILES IDX 52 77 51 78
REMARK H PARENT 15 21 15 22 68 46 46 57
REMARK Flexibility Score: inf
ROOT
ATOM      1  C   UNL A   1      42.154  20.562  26.692  1.00  0.00     0.202 C 
ENDROOT
BRANCH   1   2
ATOM      2  C   UNL A   1      40.807  21.072  27.210  1.00  0.00     0.261 C 
BRANCH   2   3
ATOM      3  O   UNL A   1      40.203  22.002  26.295  1.00  0.00    -0.462 OA
BRANCH   3   4
ATOM      4  C   UNL A   1      38.936  21.701  25.898  1.00  0.00     0.319 C 
ATOM      5  O   UNL A   1      38.595  20.626  25.416  1.00  0.00    -0.251 OA
BRANCH   4   6
ATOM      6  C   UNL A   1      37.964  22.858  26.104  1.00  0.00     0.161 C 
ATOM      7  C   UNL A   1      38.605  24.189  26.485  1.00  0.00     0.032 C 
BRANCH   6   8
ATOM      8  S   UNL A   1      36.987  22.995  24.570  1.00  0.00    -0.071 SA
BRANCH   8   9
ATOM      9  C   UNL A   1      35.364  22.837  25.194  1.00  0.00     0.191 A 
ATOM     10  N   UNL A   1      34.730  23.938  25.436  1.00  0.00    -0.222 NA
ATOM     11  N   UNL A   1      34.802  21.571  25.331  1.00  0.00    -0.202 N 
ATOM     12  C   UNL A   1      33.386  23.856  25.820  1.00  0.00     0.079 A 
ATOM     13  C   UNL A   1      33.474  21.403  25.722  1.00  0.00     0.280 A 
ATOM     14  C   UNL A   1      32.677  25.043  26.019  1.00  0.00     0.029 A 
ATOM     15  C   UNL A   1      32.713  22.642  25.960  1.00  0.00     0.068 A 
ATOM     16  O   UNL A   1      32.940  20.301  25.850  1.00  0.00    -0.267 OA
ATOM     17  C   UNL A   1      31.318  25.014  26.341  1.00  0.00     0.002 A 
ATOM     18  C   UNL A   1      31.353  22.601  26.286  1.00  0.00     0.016 A 
ATOM     19  C   UNL A   1      30.655  23.793  26.471  1.00  0.00     0.001 A 
BRANCH  11  20
ATOM     20  N   UNL A   1      35.550  20.373  25.078  1.00  0.00    -0.334 N 
ATOM     21  H   UNL A   1      35.142  19.493  25.248  1.00  0.00     0.178 HD
ATOM     22  H   UNL A   1      36.470  20.431  24.735  1.00  0.00     0.178 HD
ENDBRANCH  11  20
ENDBRANCH   8   9
ENDBRANCH   6   8
ENDBRANCH   4   6
ENDBRANCH   3   4
ENDBRANCH   2   3
ENDBRANCH   1   2
BRANCH   1  23
ATOM     23  O   UNL A   1      42.650  21.179  25.506  1.00  0.00    -0.374 OA
BRANCH  23  24
ATOM     24  C   UNL A   1      44.029  20.993  25.188  1.00  0.00     0.202 C 
BRANCH  24  25
ATOM     25  C   UNL A   1      44.691  22.096  24.355  1.00  0.00     0.261 C 
BRANCH  25  26
ATOM     26  O   UNL A   1      43.938  23.323  24.385  1.00  0.00    -0.460 OA
BRANCH  26  27
ATOM     27  C   UNL A   1      44.608  24.388  24.886  1.00  0.00     0.338 C 
ATOM     28  O   UNL A   1      45.724  24.777  24.573  1.00  0.00    -0.246 OA
BRANCH  27  29
ATOM     29  C   UNL A   1      43.736  25.169  25.781  1.00  0.00     0.060 A 
ATOM     30  C   UNL A   1      44.003  26.539  25.908  1.00  0.00     0.016 A 
ATOM     31  C   UNL A   1      42.745  24.565  26.556  1.00  0.00     0.016 A 
ATOM     32  C   UNL A   1      43.317  27.300  26.851  1.00  0.00     0.010 A 
ATOM     33  C   UNL A   1      42.063  25.330  27.511  1.00  0.00     0.010 A 
ATOM     34  C   UNL A   1      42.374  26.691  27.687  1.00  0.00    -0.014 A 
BRANCH  34  35
ATOM     35  C   UNL A   1      41.830  27.447  28.841  1.00  0.00     0.031 A 
ATOM     36  C   UNL A   1      42.559  27.399  30.156  1.00  0.00     0.074 A 
ATOM     37  C   UNL A   1      40.729  28.208  28.711  1.00  0.00     0.049 A 
ATOM     38  N   UNL A   1      42.262  27.982  31.290  1.00  0.00    -0.248 NA
ATOM     39  C   UNL A   1      43.789  26.591  30.197  1.00  0.00     0.031 C 
ATOM     40  C   UNL A   1      39.961  28.383  27.480  1.00  0.00     0.029 A 
ATOM     41  N   UNL A   1      40.069  28.979  29.634  1.00  0.00    -0.354 N 
ATOM     42  C   UNL A   1      43.266  27.612  32.177  1.00  0.00     0.074 A 
ATOM     43  C   UNL A   1      44.163  26.731  31.460  1.00  0.00     0.031 C 
ATOM     44  C   UNL A   1      38.931  29.213  27.724  1.00  0.00     0.029 A 
ATOM     45  C   UNL A   1      38.952  29.600  29.133  1.00  0.00     0.049 A 
ATOM     46  H   UNL A   1      40.367  29.078  30.567  1.00  0.00     0.167 HD
ATOM     47  C   UNL A   1      43.432  27.975  33.471  1.00  0.00     0.031 A 
ATOM     48  C   UNL A   1      38.041  30.381  29.745  1.00  0.00     0.031 A 
ATOM     49  C   UNL A   1      42.535  28.836  34.195  1.00  0.00     0.049 A 
ATOM     50  C   UNL A   1      38.197  30.697  31.209  1.00  0.00     0.074 A 
ATOM     51  C   UNL A   1      42.621  29.262  35.509  1.00  0.00     0.029 A 
ATOM     52  N   UNL A   1      41.384  29.397  33.666  1.00  0.00    -0.354 N 
ATOM     53  N   UNL A   1      39.156  30.349  32.032  1.00  0.00    -0.248 NA
ATOM     54  C   UNL A   1      37.144  31.518  31.824  1.00  0.00     0.031 C 
ATOM     55  C   UNL A   1      41.494  30.043  35.789  1.00  0.00     0.029 A 
ATOM     56  C   UNL A   1      40.736  30.145  34.635  1.00  0.00     0.049 A 
ATOM     57  H   UNL A   1      41.073  29.280  32.739  1.00  0.00     0.167 HD
ATOM     58  C   UNL A   1      38.836  30.930  33.254  1.00  0.00     0.074 A 
ATOM     59  C   UNL A   1      37.602  31.661  33.060  1.00  0.00     0.031 C 
ATOM     60  C   UNL A   1      39.507  30.865  34.429  1.00  0.00     0.031 A 
BRANCH  47  61
ATOM     61  C   UNL A   1      44.619  27.411  34.198  1.00  0.00    -0.014 A 
ATOM     62  C   UNL A   1      45.844  28.097  34.232  1.00  0.00     0.009 A 
ATOM     63  C   UNL A   1      44.502  26.191  34.882  1.00  0.00     0.009 A 
ATOM     64  C   UNL A   1      46.937  27.555  34.912  1.00  0.00     0.001 A 
ATOM     65  C   UNL A   1      45.590  25.665  35.581  1.00  0.00     0.001 A 
ATOM     66  C   UNL A   1      46.808  26.343  35.589  1.00  0.00     0.000 A 
ENDBRANCH  47  61
BRANCH  48  67
ATOM     67  C   UNL A   1      36.881  30.910  28.982  1.00  0.00    -0.014 A 
ATOM     68  C   UNL A   1      36.828  32.260  28.608  1.00  0.00     0.009 A 
ATOM     69  C   UNL A   1      35.812  30.066  28.639  1.00  0.00     0.009 A 
ATOM     70  C   UNL A   1      35.716  32.760  27.925  1.00  0.00     0.001 A 
ATOM     71  C   UNL A   1      34.715  30.563  27.935  1.00  0.00     0.001 A 
ATOM     72  C   UNL A   1      34.663  31.912  27.586  1.00  0.00     0.000 A 
ENDBRANCH  48  67
BRANCH  60  73
ATOM     73  C   UNL A   1      38.940  31.633  35.589  1.00  0.00    -0.014 A 
ATOM     74  C   UNL A   1      38.171  30.998  36.576  1.00  0.00     0.009 A 
ATOM     75  C   UNL A   1      39.219  33.003  35.718  1.00  0.00     0.009 A 
ATOM     76  C   UNL A   1      37.665  31.728  37.653  1.00  0.00     0.001 A 
ATOM     77  C   UNL A   1      38.734  33.724  36.811  1.00  0.00     0.001 A 
ATOM     78  C   UNL A   1      37.951  33.088  37.772  1.00  0.00     0.000 A 
ENDBRANCH  60  73
ENDBRANCH  34  35
ENDBRANCH  27  29
ENDBRANCH  26  27
ENDBRANCH  25  26
ENDBRANCH  24  25
ENDBRANCH  23  24
ENDBRANCH   1  23
TORSDOF 17
ENDMDL
MODEL 2
REMARK VINA RESULT:     -10.0      0.490      5.958
REMARK SMILES C[C@@H](Sc1nc2ccccc2c(=O)n1N)C(=O)OCCOCCOC(=O)c1ccc(-c2c3nc(c(-c4ccccc4)c4ccc([nH]4)c(-c4ccccc4)c4nc(c(-c5ccccc5)c5ccc2[nH]5)C=C4)C=C3)cc1
REMARK SMILES IDX 20 1 19 2 18 3 16 4 17 5 2 6 1 7 3 8 4 9 5 10 14 11 6 12
REMARK SMILES IDX 12 13 7 14 11 15 13 16 8 17 10 18 9 19 15 20 21 23 22 24
REMARK SMILES IDX 23 25 24 26 25 27 26 28 27 29 28 30 74 31 29 32 73 33 30 34
REMARK SMILES IDX 31 35 32 36 67 37 33 38 72 39 66 40 68 41 34 42 71 43 65 44
REMARK SMILES IDX 64 45 35 47 57 48 42 49 56 50 43 51 46 52 55 53 69 54 44 55
REMARK SMILES IDX 45 56 54 58 70 59 47 60 36 61 37 62 41 63 38 64 40 65 39 66
REMARK SMILES IDX 58 67 59 68 63 69 60 70 62 71 61 72 48 73 49 74 53 75 50 76
REMARK SMILES IDX 52 77 51 78
REMARK H PARENT 15 21 15 22 68 46 46 57
REMARK Flexibility Score: inf
ROOT
ATOM      1  C   UNL A   1      42.014  20.615  26.495  1.00  0.00     0.202 C 
ENDROOT
BRANCH   1   2
ATOM      2  C   UNL A   1      40.915  21.397  27.220  1.00  0.00     0.261 C 
BRANCH   2   3
ATOM      3  O   UNL A   1      40.243  22.310  26.338  1.00  0.00    -0.462 OA
BRANCH   3   4
ATOM      4  C   UNL A   1      38.990  21.943  25.951  1.00  0.00     0.319 C 
ATOM      5  O   UNL A   1      38.696  20.840  25.500  1.00  0.00    -0.251 OA
BRANCH   4   6
ATOM      6  C   UNL A   1      37.968  23.062  26.125  1.00  0.00     0.161 C 
ATOM      7  C   UNL A   1      38.547  24.422  26.503  1.00  0.00     0.032 C 
BRANCH   6   8
ATOM      8  S   UNL A   1      37.018  23.143  24.570  1.00  0.00    -0.071 SA
BRANCH   8   9
ATOM      9  C   UNL A   1      35.390  22.929  25.163  1.00  0.00     0.191 A 
ATOM     10  N   UNL A   1      34.716  24.007  25.398  1.00  0.00    -0.222 NA
ATOM     11  N   UNL A   1      34.867  21.645  25.283  1.00  0.00    -0.202 N 
ATOM     12  C   UNL A   1      33.369  23.881  25.757  1.00  0.00     0.079 A 
ATOM     13  C   UNL A   1      33.538  21.432  25.650  1.00  0.00     0.280 A 
ATOM     14  C   UNL A   1      32.618  25.043  25.950  1.00  0.00     0.029 A 
ATOM     15  C   UNL A   1      32.733  22.644  25.879  1.00  0.00     0.068 A 
ATOM     16  O   UNL A   1      33.038  20.312  25.763  1.00  0.00    -0.267 OA
ATOM     17  C   UNL A   1      31.255  24.968  26.246  1.00  0.00     0.002 A 
ATOM     18  C   UNL A   1      31.370  22.558  26.180  1.00  0.00     0.016 A 
ATOM     19  C   UNL A   1      30.630  23.725  26.358  1.00  0.00     0.001 A 
BRANCH  11  20
ATOM     20  N   UNL A   1      35.657  20.473  25.039  1.00  0.00    -0.334 N 
ATOM     21  H   UNL A   1      36.431  20.520  24.431  1.00  0.00     0.178 HD
ATOM     22  H   UNL A   1      35.427  19.623  25.477  1.00  0.00     0.178 HD
ENDBRANCH  11  20
ENDBRANCH   8   9
ENDBRANCH   6   8
ENDBRANCH   4   6
ENDBRANCH   3   4
ENDBRANCH   2   3
ENDBRANCH   1   2
BRANCH   1  23
ATOM     23  O   UNL A   1      42.663  21.288  25.419  1.00  0.00    -0.374 OA
BRANCH  23  24
ATOM     24  C   UNL A   1      44.087  21.209  25.349  1.00  0.00     0.202 C 
BRANCH  24  25
ATOM     25  C   UNL A   1      44.799  22.355  24.621  1.00  0.00     0.261 C 
BRANCH  25  26
ATOM     26  O   UNL A   1      43.990  23.546  24.565  1.00  0.00    -0.460 OA
BRANCH  26  27
ATOM     27  C   UNL A   1      44.602  24.668  25.014  1.00  0.00     0.338 C 
ATOM     28  O   UNL A   1      45.660  25.142  24.624  1.00  0.00    -0.246 OA
BRANCH  27  29
ATOM     29  C   UNL A   1      43.729  25.387  25.957  1.00  0.00     0.060 A 
ATOM     30  C   UNL A   1      43.927  26.767  26.096  1.00  0.00     0.016 A 
ATOM     31  C   UNL A   1      42.806  24.719  26.764  1.00  0.00     0.016 A 
ATOM     32  C   UNL A   1      43.242  27.476  27.081  1.00  0.00     0.010 A 
ATOM     33  C   UNL A   1      42.126  25.431  27.760  1.00  0.00     0.010 A 
ATOM     34  C   UNL A   1      42.370  26.804  27.946  1.00  0.00    -0.014 A 
BRANCH  34  35
ATOM     35  C   UNL A   1      41.837  27.512  29.135  1.00  0.00     0.031 A 
ATOM     36  C   UNL A   1      40.509  28.211  29.036  1.00  0.00     0.074 A 
ATOM     37  C   UNL A   1      42.502  27.495  30.304  1.00  0.00     0.049 A 
ATOM     38  N   UNL A   1      39.858  28.888  29.948  1.00  0.00    -0.248 NA
ATOM     39  C   UNL A   1      39.819  28.132  27.737  1.00  0.00     0.031 C 
ATOM     40  C   UNL A   1      43.769  26.810  30.547  1.00  0.00     0.029 A 
ATOM     41  N   UNL A   1      42.191  28.072  31.509  1.00  0.00    -0.354 N 
ATOM     42  C   UNL A   1      38.686  29.314  29.335  1.00  0.00     0.074 A 
ATOM     43  C   UNL A   1      38.728  28.846  27.967  1.00  0.00     0.031 C 
ATOM     44  C   UNL A   1      44.131  27.006  31.827  1.00  0.00     0.029 A 
ATOM     45  C   UNL A   1      43.136  27.854  32.481  1.00  0.00     0.049 A 
ATOM     46  H   UNL A   1      41.370  28.592  31.663  1.00  0.00     0.167 HD
ATOM     47  C   UNL A   1      37.663  30.026  29.863  1.00  0.00     0.031 A 
ATOM     48  C   UNL A   1      43.199  28.301  33.751  1.00  0.00     0.031 A 
ATOM     49  C   UNL A   1      37.622  30.509  31.218  1.00  0.00     0.049 A 
ATOM     50  C   UNL A   1      42.091  29.168  34.288  1.00  0.00     0.074 A 
ATOM     51  C   UNL A   1      36.626  31.238  31.845  1.00  0.00     0.029 A 
ATOM     52  N   UNL A   1      38.626  30.316  32.153  1.00  0.00    -0.354 N 
ATOM     53  N   UNL A   1      40.985  29.554  33.702  1.00  0.00    -0.248 NA
ATOM     54  C   UNL A   1      42.244  29.656  35.666  1.00  0.00     0.031 C 
ATOM     55  C   UNL A   1      37.051  31.528  33.146  1.00  0.00     0.029 A 
ATOM     56  C   UNL A   1      38.286  30.934  33.344  1.00  0.00     0.049 A 
ATOM     57  H   UNL A   1      39.458  29.815  31.993  1.00  0.00     0.167 HD
ATOM     58  C   UNL A   1      40.298  30.308  34.646  1.00  0.00     0.074 A 
ATOM     59  C   UNL A   1      41.107  30.314  35.847  1.00  0.00     0.031 C 
ATOM     60  C   UNL A   1      39.102  30.934  34.530  1.00  0.00     0.031 A 
BRANCH  47  61
ATOM     61  C   UNL A   1      36.512  30.354  28.956  1.00  0.00    -0.014 A 
ATOM     62  C   UNL A   1      36.297  31.665  28.499  1.00  0.00     0.009 A 
ATOM     63  C   UNL A   1      35.647  29.334  28.531  1.00  0.00     0.009 A 
ATOM     64  C   UNL A   1      35.219  31.950  27.657  1.00  0.00     0.001 A 
ATOM     65  C   UNL A   1      34.586  29.619  27.669  1.00  0.00     0.001 A 
ATOM     66  C   UNL A   1      34.368  30.927  27.240  1.00  0.00     0.000 A 
ENDBRANCH  47  61
BRANCH  48  67
ATOM     67  C   UNL A   1      44.362  27.952  34.605  1.00  0.00    -0.014 A 
ATOM     68  C   UNL A   1      44.338  26.806  35.413  1.00  0.00     0.009 A 
ATOM     69  C   UNL A   1      45.498  28.778  34.629  1.00  0.00     0.009 A 
ATOM     70  C   UNL A   1      45.420  26.505  36.245  1.00  0.00     0.001 A 
ATOM     71  C   UNL A   1      46.587  28.461  35.442  1.00  0.00     0.001 A 
ATOM     72  C   UNL A   1      46.544  27.330  36.256  1.00  0.00     0.000 A 
ENDBRANCH  48  67
BRANCH  60  73
ATOM     73  C   UNL A   1      38.580  31.651  35.742  1.00  0.00    -0.014 A 
ATOM     74  C   UNL A   1      38.682  33.045  35.864  1.00  0.00     0.009 A 
ATOM     75  C   UNL A   1      37.935  30.924  36.755  1.00  0.00     0.009 A 
ATOM     76  C   UNL A   1      38.177  33.693  36.993  1.00  0.00     0.001 A 
ATOM     77  C   UNL A   1      37.407  31.577  37.870  1.00  0.00     0.001 A 
ATOM     78  C   UNL A   1      37.536  32.960  37.992  1.00  0.00     0.000 A 
ENDBRANCH  60  73
ENDBRANCH  34  35
ENDBRANCH  27  29
ENDBRANCH  26  27
ENDBRANCH  25  26
ENDBRANCH  24  25
ENDBRANCH  23  24
ENDBRANCH   1  23
TORSDOF 17
ENDMDL
MODEL 3
REMARK VINA RESULT:      -9.8      4.827      9.809
REMARK SMILES C[C@@H](Sc1nc2ccccc2c(=O)n1N)C(=O)OCCOCCOC(=O)c1ccc(-c2c3nc(c(-c4ccccc4)c4ccc([nH]4)c(-c4ccccc4)c4nc(c(-c5ccccc5)c5ccc2[nH]5)C=C4)C=C3)cc1
REMARK SMILES IDX 20 1 19 2 18 3 16 4 17 5 2 6 1 7 3 8 4 9 5 10 14 11 6 12
REMARK SMILES IDX 12 13 7 14 11 15 13 16 8 17 10 18 9 19 15 20 21 23 22 24
REMARK SMILES IDX 23 25 24 26 25 27 26 28 27 29 28 30 74 31 29 32 73 33 30 34
REMARK SMILES IDX 31 35 32 36 67 37 33 38 72 39 66 40 68 41 34 42 71 43 65 44
REMARK SMILES IDX 64 45 35 47 57 48 42 49 56 50 43 51 46 52 55 53 69 54 44 55
REMARK SMILES IDX 45 56 54 58 70 59 47 60 36 61 37 62 41 63 38 64 40 65 39 66
REMARK SMILES IDX 58 67 59 68 63 69 60 70 62 71 61 72 48 73 49 74 53 75 50 76
REMARK SMILES IDX 52 77 51 78
REMARK H PARENT 15 21 15 22 68 46 46 57
REMARK Flexibility Score: inf
ROOT
ATOM      1  C   UNL A   1      34.924  32.099  28.010  1.00  0.00     0.202 C 
ENDROOT
BRANCH   1   2
ATOM      2  C   UNL A   1      34.258  30.865  27.396  1.00  0.00     0.261 C 
BRANCH   2   3
ATOM      3  O   UNL A   1      32.833  30.882  27.585  1.00  0.00    -0.462 OA
BRANCH   3   4
ATOM      4  C   UNL A   1      32.094  30.405  26.546  1.00  0.00     0.319 C 
ATOM      5  O   UNL A   1      31.431  31.103  25.786  1.00  0.00    -0.251 OA
BRANCH   4   6
ATOM      6  C   UNL A   1      32.163  28.886  26.422  1.00  0.00     0.161 C 
ATOM      7  C   UNL A   1      31.518  28.108  27.565  1.00  0.00     0.032 C 
BRANCH   6   8
ATOM      8  S   UNL A   1      31.418  28.462  24.813  1.00  0.00    -0.071 SA
BRANCH   8   9
ATOM      9  C   UNL A   1      32.505  27.212  24.261  1.00  0.00     0.191 A 
ATOM     10  N   UNL A   1      33.193  26.604  25.172  1.00  0.00    -0.222 NA
ATOM     11  N   UNL A   1      32.533  26.874  22.911  1.00  0.00    -0.202 N 
ATOM     12  C   UNL A   1      33.984  25.515  24.787  1.00  0.00     0.079 A 
ATOM     13  C   UNL A   1      33.305  25.810  22.444  1.00  0.00     0.280 A 
ATOM     14  C   UNL A   1      34.678  24.813  25.774  1.00  0.00     0.029 A 
ATOM     15  C   UNL A   1      34.064  25.070  23.466  1.00  0.00     0.068 A 
ATOM     16  O   UNL A   1      33.353  25.478  21.259  1.00  0.00    -0.267 OA
ATOM     17  C   UNL A   1      35.429  23.681  25.448  1.00  0.00     0.002 A 
ATOM     18  C   UNL A   1      34.817  23.940  23.128  1.00  0.00     0.016 A 
ATOM     19  C   UNL A   1      35.496  23.243  24.125  1.00  0.00     0.001 A 
BRANCH  11  20
ATOM     20  N   UNL A   1      31.774  27.592  21.929  1.00  0.00    -0.334 N 
ATOM     21  H   UNL A   1      31.372  27.112  21.170  1.00  0.00     0.178 HD
ATOM     22  H   UNL A   1      31.655  28.565  22.014  1.00  0.00     0.178 HD
ENDBRANCH  11  20
ENDBRANCH   8   9
ENDBRANCH   6   8
ENDBRANCH   4   6
ENDBRANCH   3   4
ENDBRANCH   2   3
ENDBRANCH   1   2
BRANCH   1  23
ATOM     23  O   UNL A   1      34.107  32.903  28.858  1.00  0.00    -0.374 OA
BRANCH  23  24
ATOM     24  C   UNL A   1      34.761  33.833  29.722  1.00  0.00     0.202 C 
BRANCH  24  25
ATOM     25  C   UNL A   1      34.462  33.698  31.219  1.00  0.00     0.261 C 
BRANCH  25  26
ATOM     26  O   UNL A   1      34.594  32.340  31.678  1.00  0.00    -0.460 OA
BRANCH  26  27
ATOM     27  C   UNL A   1      35.623  32.127  32.532  1.00  0.00     0.338 C 
ATOM     28  O   UNL A   1      35.679  32.429  33.716  1.00  0.00    -0.246 OA
BRANCH  27  29
ATOM     29  C   UNL A   1      36.661  31.300  31.892  1.00  0.00     0.060 A 
ATOM     30  C   UNL A   1      37.865  31.123  32.586  1.00  0.00     0.016 A 
ATOM     31  C   UNL A   1      36.506  30.792  30.601  1.00  0.00     0.016 A 
ATOM     32  C   UNL A   1      38.939  30.484  31.971  1.00  0.00     0.010 A 
ATOM     33  C   UNL A   1      37.590  30.158  29.981  1.00  0.00     0.010 A 
ATOM     34  C   UNL A   1      38.821  30.036  30.650  1.00  0.00    -0.014 A 
BRANCH  34  35
ATOM     35  C   UNL A   1      40.033  29.582  29.926  1.00  0.00     0.031 A 
ATOM     36  C   UNL A   1      41.176  30.541  29.739  1.00  0.00     0.074 A 
ATOM     37  C   UNL A   1      40.138  28.317  29.483  1.00  0.00     0.049 A 
ATOM     38  N   UNL A   1      42.326  30.354  29.140  1.00  0.00    -0.248 NA
ATOM     39  C   UNL A   1      41.004  31.888  30.307  1.00  0.00     0.031 C 
ATOM     40  C   UNL A   1      39.126  27.275  29.647  1.00  0.00     0.029 A 
ATOM     41  N   UNL A   1      41.156  27.696  28.803  1.00  0.00    -0.354 N 
ATOM     42  C   UNL A   1      43.011  31.557  29.258  1.00  0.00     0.074 A 
ATOM     43  C   UNL A   1      42.140  32.476  29.959  1.00  0.00     0.031 C 
ATOM     44  C   UNL A   1      39.575  26.140  29.082  1.00  0.00     0.029 A 
ATOM     45  C   UNL A   1      40.890  26.385  28.492  1.00  0.00     0.049 A 
ATOM     46  H   UNL A   1      41.997  28.147  28.561  1.00  0.00     0.167 HD
ATOM     47  C   UNL A   1      44.256  31.870  28.829  1.00  0.00     0.031 A 
ATOM     48  C   UNL A   1      41.617  25.490  27.798  1.00  0.00     0.031 A 
ATOM     49  C   UNL A   1      45.121  30.968  28.117  1.00  0.00     0.049 A 
ATOM     50  C   UNL A   1      42.962  25.891  27.251  1.00  0.00     0.074 A 
ATOM     51  C   UNL A   1      46.402  31.194  27.642  1.00  0.00     0.029 A 
ATOM     52  N   UNL A   1      44.790  29.668  27.772  1.00  0.00    -0.354 N 
ATOM     53  N   UNL A   1      43.602  27.027  27.379  1.00  0.00    -0.248 NA
ATOM     54  C   UNL A   1      43.684  24.878  26.466  1.00  0.00     0.031 C 
ATOM     55  C   UNL A   1      46.827  30.045  26.967  1.00  0.00     0.029 A 
ATOM     56  C   UNL A   1      45.832  29.087  27.068  1.00  0.00     0.049 A 
ATOM     57  H   UNL A   1      43.940  29.224  27.994  1.00  0.00     0.167 HD
ATOM     58  C   UNL A   1      44.811  26.858  26.715  1.00  0.00     0.074 A 
ATOM     59  C   UNL A   1      44.820  25.507  26.196  1.00  0.00     0.031 C 
ATOM     60  C   UNL A   1      45.825  27.743  26.554  1.00  0.00     0.031 A 
BRANCH  47  61
ATOM     61  C   UNL A   1      44.745  33.266  29.092  1.00  0.00    -0.014 A 
ATOM     62  C   UNL A   1      44.523  34.300  28.169  1.00  0.00     0.009 A 
ATOM     63  C   UNL A   1      45.411  33.556  30.293  1.00  0.00     0.009 A 
ATOM     64  C   UNL A   1      44.987  35.592  28.431  1.00  0.00     0.001 A 
ATOM     65  C   UNL A   1      45.851  34.853  30.562  1.00  0.00     0.001 A 
ATOM     66  C   UNL A   1      45.646  35.868  29.629  1.00  0.00     0.000 A 
ENDBRANCH  47  61
BRANCH  48  67
ATOM     67  C   UNL A   1      41.086  24.123  27.560  1.00  0.00    -0.014 A 
ATOM     68  C   UNL A   1      41.629  23.018  28.231  1.00  0.00     0.009 A 
ATOM     69  C   UNL A   1      40.041  23.918  26.644  1.00  0.00     0.009 A 
ATOM     70  C   UNL A   1      41.152  21.731  27.973  1.00  0.00     0.001 A 
ATOM     71  C   UNL A   1      39.549  22.633  26.408  1.00  0.00     0.001 A 
ATOM     72  C   UNL A   1      40.111  21.539  27.066  1.00  0.00     0.000 A 
ENDBRANCH  48  67
BRANCH  60  73
ATOM     73  C   UNL A   1      47.043  27.267  25.814  1.00  0.00    -0.014 A 
ATOM     74  C   UNL A   1      47.209  27.523  24.444  1.00  0.00     0.009 A 
ATOM     75  C   UNL A   1      48.059  26.593  26.509  1.00  0.00     0.009 A 
ATOM     76  C   UNL A   1      48.355  27.084  23.779  1.00  0.00     0.001 A 
ATOM     77  C   UNL A   1      49.216  26.179  25.848  1.00  0.00     0.001 A 
ATOM     78  C   UNL A   1      49.359  26.419  24.482  1.00  0.00     0.000 A 
ENDBRANCH  60  73
ENDBRANCH  34  35
ENDBRANCH  27  29
ENDBRANCH  26  27
ENDBRANCH  25  26
ENDBRANCH  24  25
ENDBRANCH  23  24
ENDBRANCH   1  23
TORSDOF 17
ENDMDL
