MODEL 1
REMARK VINA RESULT:      -8.9      0.000      0.000
REMARK SMILES Nc1ccc(-c2cc(Cl)cc3c2O[C@H](C(F)(F)F)C(C(=O)OCCOCCOC(=O)c2ccc(-c4c5nc(c(-c6ccccc6)c6ccc([nH]6)c(-c6ccccc6)c6nc(c(-c7ccccc7)c7ccc4[nH]7)C=C6)C=C5)cc2)=C3)cc1
REMARK SMILES IDX 25 1 24 2 23 3 22 4 20 5 21 6 19 7 6 8 7 9 12 10 8 11 11 12
REMARK SMILES IDX 13 13 9 14 10 15 79 16 14 17 5 18 2 19 3 20 81 21 4 22 80 23
REMARK SMILES IDX 1 24 15 27 16 28 17 29 18 30 26 31 27 32 28 33 29 34 30 35
REMARK SMILES IDX 31 36 32 37 78 38 33 39 77 40 34 41 35 42 36 43 71 44 37 45
REMARK SMILES IDX 76 46 70 47 72 48 38 49 75 50 69 51 68 52 39 54 61 55 46 56
REMARK SMILES IDX 60 57 47 58 50 59 59 60 73 61 48 62 49 63 58 65 74 66 51 67
REMARK SMILES IDX 40 68 41 69 45 70 42 71 44 72 43 73 62 74 63 75 67 76 64 77
REMARK SMILES IDX 66 78 65 79 52 80 53 81 57 82 54 83 56 84 55 85
REMARK H PARENT 1 25 1 26 72 53 50 64
REMARK Flexibility Score: inf
ROOT
ATOM      1  O   UNL A   1      33.105  34.548  32.567  1.00  0.00    -0.374 OA
ENDROOT
BRANCH   1   2
ATOM      2  C   UNL A   1      34.162  33.721  33.043  1.00  0.00     0.202 C 
BRANCH   2   3
ATOM      3  C   UNL A   1      34.876  34.138  34.332  1.00  0.00     0.261 C 
BRANCH   3   4
ATOM      4  O   UNL A   1      35.967  33.265  34.656  1.00  0.00    -0.460 OA
BRANCH   4   5
ATOM      5  C   UNL A   1      37.188  33.761  34.343  1.00  0.00     0.338 C 
ATOM      6  O   UNL A   1      37.512  34.937  34.304  1.00  0.00    -0.246 OA
BRANCH   5   7
ATOM      7  C   UNL A   1      38.146  32.655  34.164  1.00  0.00     0.087 C 
ATOM      8  C   UNL A   1      40.517  29.213  33.976  1.00  0.00     0.026 A 
ATOM      9  C   UNL A   1      40.071  28.147  33.171  1.00  0.00     0.033 A 
ATOM     10  C   UNL A   1      39.781  30.417  33.955  1.00  0.00     0.135 A 
ATOM     11  C   UNL A   1      38.936  28.278  32.373  1.00  0.00     0.042 A 
ATOM     12  C   UNL A   1      38.615  30.524  33.187  1.00  0.00     0.019 A 
ATOM     13  O   UNL A   1      40.268  31.469  34.686  1.00  0.00    -0.475 OA
ATOM     14  Cl  UNL A   1      38.411  26.957  31.405  1.00  0.00    -0.084 Cl
ATOM     15  C   UNL A   1      38.204  29.461  32.379  1.00  0.00     0.032 A 
ATOM     16  C   UNL A   1      37.783  31.709  33.289  1.00  0.00     0.027 C 
ATOM     17  C   UNL A   1      39.419  32.615  34.959  1.00  0.00     0.316 C 
BRANCH   8  18
ATOM     18  C   UNL A   1      41.687  29.017  34.852  1.00  0.00    -0.014 A 
ATOM     19  C   UNL A   1      43.963  28.626  36.500  1.00  0.00     0.031 A 
ATOM     20  C   UNL A   1      43.323  27.541  35.903  1.00  0.00     0.026 A 
ATOM     21  C   UNL A   1      43.487  29.909  36.234  1.00  0.00     0.026 A 
ATOM     22  C   UNL A   1      42.196  27.732  35.097  1.00  0.00     0.011 A 
ATOM     23  C   UNL A   1      42.356  30.105  35.430  1.00  0.00     0.011 A 
BRANCH  19  24
ATOM     24  N   UNL A   1      45.122  28.440  37.235  1.00  0.00    -0.399 N 
ATOM     25  H   UNL A   1      46.001  28.553  36.805  1.00  0.00     0.156 HD
ATOM     26  H   UNL A   1      45.067  28.197  38.187  1.00  0.00     0.156 HD
ENDBRANCH  19  24
ENDBRANCH   8  18
BRANCH  17  27
ATOM     27  C   UNL A   1      39.177  32.688  36.473  1.00  0.00     0.430 C 
ATOM     28  F   UNL A   1      39.109  33.972  36.899  1.00  0.00    -0.167 F 
ATOM     29  F   UNL A   1      38.010  32.103  36.826  1.00  0.00    -0.167 F 
ATOM     30  F   UNL A   1      40.163  32.082  37.172  1.00  0.00    -0.167 F 
ENDBRANCH  17  27
ENDBRANCH   5   7
ENDBRANCH   4   5
ENDBRANCH   3   4
ENDBRANCH   2   3
ENDBRANCH   1   2
BRANCH   1  31
ATOM     31  C   UNL A   1      33.421  35.632  31.694  1.00  0.00     0.202 C 
BRANCH  31  32
ATOM     32  C   UNL A   1      32.544  35.860  30.456  1.00  0.00     0.261 C 
BRANCH  32  33
ATOM     33  O   UNL A   1      33.268  35.729  29.222  1.00  0.00    -0.460 OA
BRANCH  33  34
ATOM     34  C   UNL A   1      33.178  34.508  28.637  1.00  0.00     0.338 C 
ATOM     35  O   UNL A   1      32.260  34.080  27.954  1.00  0.00    -0.246 OA
BRANCH  34  36
ATOM     36  C   UNL A   1      34.464  33.804  28.774  1.00  0.00     0.060 A 
ATOM     37  C   UNL A   1      35.555  34.124  27.966  1.00  0.00     0.016 A 
ATOM     38  C   UNL A   1      34.582  32.834  29.780  1.00  0.00     0.016 A 
ATOM     39  C   UNL A   1      36.780  33.493  28.194  1.00  0.00     0.010 A 
ATOM     40  C   UNL A   1      35.806  32.206  30.006  1.00  0.00     0.010 A 
ATOM     41  C   UNL A   1      36.921  32.550  29.232  1.00  0.00    -0.014 A 
BRANCH  41  42
ATOM     42  C   UNL A   1      38.270  32.058  29.604  1.00  0.00     0.031 A 
ATOM     43  C   UNL A   1      39.201  32.864  30.457  1.00  0.00     0.074 A 
ATOM     44  C   UNL A   1      38.655  30.855  29.137  1.00  0.00     0.049 A 
ATOM     45  N   UNL A   1      40.362  32.513  30.953  1.00  0.00    -0.248 NA
ATOM     46  C   UNL A   1      38.790  34.234  30.794  1.00  0.00     0.031 C 
ATOM     47  C   UNL A   1      37.850  30.004  28.258  1.00  0.00     0.029 A 
ATOM     48  N   UNL A   1      39.801  30.130  29.345  1.00  0.00    -0.354 N 
ATOM     49  C   UNL A   1      40.812  33.608  31.677  1.00  0.00     0.074 A 
ATOM     50  C   UNL A   1      39.825  34.655  31.513  1.00  0.00     0.031 C 
ATOM     51  C   UNL A   1      38.503  28.854  28.046  1.00  0.00     0.029 A 
ATOM     52  C   UNL A   1      39.787  28.897  28.739  1.00  0.00     0.049 A 
ATOM     53  H   UNL A   1      40.560  30.462  29.877  1.00  0.00     0.167 HD
ATOM     54  C   UNL A   1      41.937  33.717  32.423  1.00  0.00     0.031 A 
ATOM     55  C   UNL A   1      40.696  27.903  28.747  1.00  0.00     0.031 A 
ATOM     56  C   UNL A   1      42.923  32.674  32.560  1.00  0.00     0.049 A 
ATOM     57  C   UNL A   1      41.952  28.064  29.555  1.00  0.00     0.074 A 
ATOM     58  C   UNL A   1      44.067  32.676  33.340  1.00  0.00     0.029 A 
ATOM     59  N   UNL A   1      42.897  31.457  31.896  1.00  0.00    -0.354 N 
ATOM     60  N   UNL A   1      42.315  29.065  30.320  1.00  0.00    -0.248 NA
ATOM     61  C   UNL A   1      42.915  26.954  29.518  1.00  0.00     0.031 C 
ATOM     62  C   UNL A   1      44.775  31.501  33.083  1.00  0.00     0.029 A 
ATOM     63  C   UNL A   1      44.028  30.722  32.215  1.00  0.00     0.049 A 
ATOM     64  H   UNL A   1      42.181  31.159  31.289  1.00  0.00     0.167 HD
ATOM     65  C   UNL A   1      43.537  28.700  30.870  1.00  0.00     0.074 A 
ATOM     66  C   UNL A   1      43.840  27.373  30.371  1.00  0.00     0.031 C 
ATOM     67  C   UNL A   1      44.334  29.405  31.710  1.00  0.00     0.031 A 
BRANCH  54  68
ATOM     68  C   UNL A   1      42.179  35.001  33.172  1.00  0.00    -0.014 A 
ATOM     69  C   UNL A   1      43.113  35.931  32.688  1.00  0.00     0.009 A 
ATOM     70  C   UNL A   1      41.586  35.229  34.424  1.00  0.00     0.009 A 
ATOM     71  C   UNL A   1      43.470  37.045  33.451  1.00  0.00     0.001 A 
ATOM     72  C   UNL A   1      41.920  36.361  35.171  1.00  0.00     0.001 A 
ATOM     73  C   UNL A   1      42.870  37.260  34.691  1.00  0.00     0.000 A 
ENDBRANCH  54  68
BRANCH  55  74
ATOM     74  C   UNL A   1      40.408  26.649  27.998  1.00  0.00    -0.014 A 
ATOM     75  C   UNL A   1      40.869  26.479  26.682  1.00  0.00     0.009 A 
ATOM     76  C   UNL A   1      39.616  25.643  28.572  1.00  0.00     0.009 A 
ATOM     77  C   UNL A   1      40.516  25.346  25.946  1.00  0.00     0.001 A 
ATOM     78  C   UNL A   1      39.293  24.494  27.844  1.00  0.00     0.001 A 
ATOM     79  C   UNL A   1      39.733  24.353  26.529  1.00  0.00     0.000 A 
ENDBRANCH  55  74
BRANCH  67  80
ATOM     80  C   UNL A   1      45.624  28.772  32.161  1.00  0.00    -0.014 A 
ATOM     81  C   UNL A   1      45.660  28.028  33.352  1.00  0.00     0.009 A 
ATOM     82  C   UNL A   1      46.826  29.000  31.470  1.00  0.00     0.009 A 
ATOM     83  C   UNL A   1      46.871  27.547  33.854  1.00  0.00     0.001 A 
ATOM     84  C   UNL A   1      48.030  28.484  31.954  1.00  0.00     0.001 A 
ATOM     85  C   UNL A   1      48.054  27.770  33.152  1.00  0.00     0.000 A 
ENDBRANCH  67  80
ENDBRANCH  41  42
ENDBRANCH  34  36
ENDBRANCH  33  34
ENDBRANCH  32  33
ENDBRANCH  31  32
ENDBRANCH   1  31
TORSDOF 17
ENDMDL
MODEL 2
REMARK VINA RESULT:      -8.3      6.064     10.964
REMARK SMILES Nc1ccc(-c2cc(Cl)cc3c2O[C@H](C(F)(F)F)C(C(=O)OCCOCCOC(=O)c2ccc(-c4c5nc(c(-c6ccccc6)c6ccc([nH]6)c(-c6ccccc6)c6nc(c(-c7ccccc7)c7ccc4[nH]7)C=C6)C=C5)cc2)=C3)cc1
REMARK SMILES IDX 25 1 24 2 23 3 22 4 20 5 21 6 19 7 6 8 7 9 12 10 8 11 11 12
REMARK SMILES IDX 13 13 9 14 10 15 79 16 14 17 5 18 2 19 3 20 81 21 4 22 80 23
REMARK SMILES IDX 1 24 15 27 16 28 17 29 18 30 26 31 27 32 28 33 29 34 30 35
REMARK SMILES IDX 31 36 32 37 78 38 33 39 77 40 34 41 35 42 36 43 71 44 37 45
REMARK SMILES IDX 76 46 70 47 72 48 38 49 75 50 69 51 68 52 39 54 61 55 46 56
REMARK SMILES IDX 60 57 47 58 50 59 59 60 73 61 48 62 49 63 58 65 74 66 51 67
REMARK SMILES IDX 40 68 41 69 45 70 42 71 44 72 43 73 62 74 63 75 67 76 64 77
REMARK SMILES IDX 66 78 65 79 52 80 53 81 57 82 54 83 56 84 55 85
REMARK H PARENT 1 25 1 26 72 53 50 64
REMARK Flexibility Score: inf
ROOT
ATOM      1  O   UNL A   1      33.262  29.412  24.991  1.00  0.00    -0.374 OA
ENDROOT
BRANCH   1   2
ATOM      2  C   UNL A   1      32.971  29.151  23.621  1.00  0.00     0.202 C 
BRANCH   2   3
ATOM      3  C   UNL A   1      32.108  27.931  23.289  1.00  0.00     0.261 C 
BRANCH   3   4
ATOM      4  O   UNL A   1      32.739  26.699  23.668  1.00  0.00    -0.460 OA
BRANCH   4   5
ATOM      5  C   UNL A   1      32.114  26.041  24.673  1.00  0.00     0.338 C 
ATOM      6  O   UNL A   1      31.078  26.367  25.229  1.00  0.00    -0.246 OA
BRANCH   5   7
ATOM      7  C   UNL A   1      32.806  24.767  24.943  1.00  0.00     0.087 C 
ATOM      8  C   UNL A   1      35.020  21.228  25.211  1.00  0.00     0.026 A 
ATOM      9  C   UNL A   1      36.399  21.330  25.482  1.00  0.00     0.033 A 
ATOM     10  C   UNL A   1      34.248  22.409  25.232  1.00  0.00     0.135 A 
ATOM     11  C   UNL A   1      36.983  22.563  25.765  1.00  0.00     0.042 A 
ATOM     12  C   UNL A   1      34.852  23.650  25.470  1.00  0.00     0.019 A 
ATOM     13  O   UNL A   1      32.896  22.284  25.039  1.00  0.00    -0.475 OA
ATOM     14  Cl  UNL A   1      38.670  22.658  26.086  1.00  0.00    -0.084 Cl
ATOM     15  C   UNL A   1      36.217  23.723  25.758  1.00  0.00     0.032 A 
ATOM     16  C   UNL A   1      34.081  24.871  25.338  1.00  0.00     0.027 C 
ATOM     17  C   UNL A   1      32.097  23.459  24.739  1.00  0.00     0.316 C 
BRANCH   8  18
ATOM     18  C   UNL A   1      34.448  19.915  24.857  1.00  0.00    -0.014 A 
ATOM     19  C   UNL A   1      33.363  17.373  24.217  1.00  0.00     0.031 A 
ATOM     20  C   UNL A   1      34.742  17.552  24.319  1.00  0.00     0.026 A 
ATOM     21  C   UNL A   1      32.529  18.459  24.482  1.00  0.00     0.026 A 
ATOM     22  C   UNL A   1      35.278  18.807  24.626  1.00  0.00     0.011 A 
ATOM     23  C   UNL A   1      33.062  19.718  24.786  1.00  0.00     0.011 A 
BRANCH  19  24
ATOM     24  N   UNL A   1      32.833  16.115  23.988  1.00  0.00    -0.399 N 
ATOM     25  H   UNL A   1      33.433  15.346  23.843  1.00  0.00     0.156 HD
ATOM     26  H   UNL A   1      31.858  15.988  23.969  1.00  0.00     0.156 HD
ENDBRANCH  19  24
ENDBRANCH   8  18
BRANCH  17  27
ATOM     27  C   UNL A   1      31.524  23.306  23.324  1.00  0.00     0.430 C 
ATOM     28  F   UNL A   1      32.301  23.934  22.408  1.00  0.00    -0.167 F 
ATOM     29  F   UNL A   1      31.453  22.010  22.945  1.00  0.00    -0.167 F 
ATOM     30  F   UNL A   1      30.281  23.828  23.224  1.00  0.00    -0.167 F 
ENDBRANCH  17  27
ENDBRANCH   5   7
ENDBRANCH   4   5
ENDBRANCH   3   4
ENDBRANCH   2   3
ENDBRANCH   1   2
BRANCH   1  31
ATOM     31  C   UNL A   1      32.263  30.035  25.798  1.00  0.00     0.202 C 
BRANCH  31  32
ATOM     32  C   UNL A   1      32.703  30.806  27.049  1.00  0.00     0.261 C 
BRANCH  32  33
ATOM     33  O   UNL A   1      33.738  30.136  27.787  1.00  0.00    -0.460 OA
BRANCH  33  34
ATOM     34  C   UNL A   1      34.679  30.957  28.318  1.00  0.00     0.338 C 
ATOM     35  O   UNL A   1      34.506  32.063  28.808  1.00  0.00    -0.246 OA
BRANCH  34  36
ATOM     36  C   UNL A   1      35.961  30.237  28.408  1.00  0.00     0.060 A 
ATOM     37  C   UNL A   1      36.823  30.152  27.314  1.00  0.00     0.016 A 
ATOM     38  C   UNL A   1      36.322  29.684  29.645  1.00  0.00     0.016 A 
ATOM     39  C   UNL A   1      38.068  29.539  27.474  1.00  0.00     0.010 A 
ATOM     40  C   UNL A   1      37.565  29.072  29.802  1.00  0.00     0.010 A 
ATOM     41  C   UNL A   1      38.458  29.020  28.724  1.00  0.00    -0.014 A 
BRANCH  41  42
ATOM     42  C   UNL A   1      39.858  28.577  28.935  1.00  0.00     0.031 A 
ATOM     43  C   UNL A   1      40.311  27.190  28.597  1.00  0.00     0.074 A 
ATOM     44  C   UNL A   1      40.728  29.459  29.463  1.00  0.00     0.049 A 
ATOM     45  N   UNL A   1      41.526  26.699  28.622  1.00  0.00    -0.248 NA
ATOM     46  C   UNL A   1      39.280  26.227  28.183  1.00  0.00     0.031 C 
ATOM     47  C   UNL A   1      40.387  30.822  29.876  1.00  0.00     0.029 A 
ATOM     48  N   UNL A   1      42.071  29.357  29.725  1.00  0.00    -0.354 N 
ATOM     49  C   UNL A   1      41.411  25.379  28.210  1.00  0.00     0.074 A 
ATOM     50  C   UNL A   1      40.001  25.128  27.991  1.00  0.00     0.031 C 
ATOM     51  C   UNL A   1      41.498  31.445  30.290  1.00  0.00     0.029 A 
ATOM     52  C   UNL A   1      42.624  30.518  30.209  1.00  0.00     0.049 A 
ATOM     53  H   UNL A   1      42.587  28.532  29.582  1.00  0.00     0.167 HD
ATOM     54  C   UNL A   1      42.397  24.471  28.017  1.00  0.00     0.031 A 
ATOM     55  C   UNL A   1      43.896  30.815  30.539  1.00  0.00     0.031 A 
ATOM     56  C   UNL A   1      43.795  24.727  28.260  1.00  0.00     0.049 A 
ATOM     57  C   UNL A   1      44.965  29.777  30.347  1.00  0.00     0.074 A 
ATOM     58  C   UNL A   1      44.870  23.883  28.039  1.00  0.00     0.029 A 
ATOM     59  N   UNL A   1      44.311  25.899  28.792  1.00  0.00    -0.354 N 
ATOM     60  N   UNL A   1      44.857  28.566  29.856  1.00  0.00    -0.248 NA
ATOM     61  C   UNL A   1      46.333  30.150  30.735  1.00  0.00     0.031 C 
ATOM     62  C   UNL A   1      46.023  24.509  28.515  1.00  0.00     0.029 A 
ATOM     63  C   UNL A   1      45.684  25.781  28.947  1.00  0.00     0.049 A 
ATOM     64  H   UNL A   1      43.783  26.696  29.024  1.00  0.00     0.167 HD
ATOM     65  C   UNL A   1      46.142  28.038  29.859  1.00  0.00     0.074 A 
ATOM     66  C   UNL A   1      47.017  29.072  30.375  1.00  0.00     0.031 C 
ATOM     67  C   UNL A   1      46.553  26.807  29.470  1.00  0.00     0.031 A 
BRANCH  54  68
ATOM     68  C   UNL A   1      42.022  23.106  27.503  1.00  0.00    -0.014 A 
ATOM     69  C   UNL A   1      41.512  22.139  28.385  1.00  0.00     0.009 A 
ATOM     70  C   UNL A   1      42.303  22.730  26.179  1.00  0.00     0.009 A 
ATOM     71  C   UNL A   1      41.315  20.823  27.963  1.00  0.00     0.001 A 
ATOM     72  C   UNL A   1      42.075  21.421  25.751  1.00  0.00     0.001 A 
ATOM     73  C   UNL A   1      41.594  20.466  26.645  1.00  0.00     0.000 A 
ENDBRANCH  54  68
BRANCH  55  74
ATOM     74  C   UNL A   1      44.218  32.182  31.034  1.00  0.00    -0.014 A 
ATOM     75  C   UNL A   1      44.191  32.470  32.409  1.00  0.00     0.009 A 
ATOM     76  C   UNL A   1      44.491  33.220  30.131  1.00  0.00     0.009 A 
ATOM     77  C   UNL A   1      44.396  33.772  32.866  1.00  0.00     0.001 A 
ATOM     78  C   UNL A   1      44.731  34.516  30.595  1.00  0.00     0.001 A 
ATOM     79  C   UNL A   1      44.671  34.794  31.960  1.00  0.00     0.000 A 
ENDBRANCH  55  74
BRANCH  67  80
ATOM     80  C   UNL A   1      48.021  26.483  29.578  1.00  0.00    -0.014 A 
ATOM     81  C   UNL A   1      48.533  25.954  30.775  1.00  0.00     0.009 A 
ATOM     82  C   UNL A   1      48.914  26.800  28.542  1.00  0.00     0.009 A 
ATOM     83  C   UNL A   1      49.908  25.772  30.941  1.00  0.00     0.001 A 
ATOM     84  C   UNL A   1      50.284  26.580  28.697  1.00  0.00     0.001 A 
ATOM     85  C   UNL A   1      50.782  26.080  29.900  1.00  0.00     0.000 A 
ENDBRANCH  67  80
ENDBRANCH  41  42
ENDBRANCH  34  36
ENDBRANCH  33  34
ENDBRANCH  32  33
ENDBRANCH  31  32
ENDBRANCH   1  31
TORSDOF 17
ENDMDL
MODEL 3
REMARK VINA RESULT:      -8.1      6.969     12.335
REMARK SMILES Nc1ccc(-c2cc(Cl)cc3c2O[C@H](C(F)(F)F)C(C(=O)OCCOCCOC(=O)c2ccc(-c4c5nc(c(-c6ccccc6)c6ccc([nH]6)c(-c6ccccc6)c6nc(c(-c7ccccc7)c7ccc4[nH]7)C=C6)C=C5)cc2)=C3)cc1
REMARK SMILES IDX 25 1 24 2 23 3 22 4 20 5 21 6 19 7 6 8 7 9 12 10 8 11 11 12
REMARK SMILES IDX 13 13 9 14 10 15 79 16 14 17 5 18 2 19 3 20 81 21 4 22 80 23
REMARK SMILES IDX 1 24 15 27 16 28 17 29 18 30 26 31 27 32 28 33 29 34 30 35
REMARK SMILES IDX 31 36 32 37 78 38 33 39 77 40 34 41 35 42 36 43 71 44 37 45
REMARK SMILES IDX 76 46 70 47 72 48 38 49 75 50 69 51 68 52 39 54 61 55 46 56
REMARK SMILES IDX 60 57 47 58 50 59 59 60 73 61 48 62 49 63 58 65 74 66 51 67
REMARK SMILES IDX 40 68 41 69 45 70 42 71 44 72 43 73 62 74 63 75 67 76 64 77
REMARK SMILES IDX 66 78 65 79 52 80 53 81 57 82 54 83 56 84 55 85
REMARK H PARENT 1 25 1 26 72 53 50 64
REMARK Flexibility Score: inf
ROOT
ATOM      1  O   UNL A   1      38.038  21.561  25.353  1.00  0.00    -0.374 OA
ENDROOT
BRANCH   1   2
ATOM      2  C   UNL A   1      36.943  22.423  25.065  1.00  0.00     0.202 C 
BRANCH   2   3
ATOM      3  C   UNL A   1      35.633  21.789  24.588  1.00  0.00     0.261 C 
BRANCH   3   4
ATOM      4  O   UNL A   1      34.722  22.759  24.051  1.00  0.00    -0.460 OA
BRANCH   4   5
ATOM      5  C   UNL A   1      33.733  23.122  24.901  1.00  0.00     0.338 C 
ATOM      6  O   UNL A   1      33.262  22.452  25.806  1.00  0.00    -0.246 OA
BRANCH   5   7
ATOM      7  C   UNL A   1      33.361  24.529  24.664  1.00  0.00     0.087 C 
ATOM      8  C   UNL A   1      31.988  28.475  24.453  1.00  0.00     0.026 A 
ATOM      9  C   UNL A   1      32.497  29.403  25.382  1.00  0.00     0.033 A 
ATOM     10  C   UNL A   1      32.530  27.172  24.446  1.00  0.00     0.135 A 
ATOM     11  C   UNL A   1      33.510  29.044  26.269  1.00  0.00     0.042 A 
ATOM     12  C   UNL A   1      33.515  26.807  25.373  1.00  0.00     0.019 A 
ATOM     13  O   UNL A   1      32.076  26.303  23.488  1.00  0.00    -0.475 OA
ATOM     14  Cl  UNL A   1      34.108  30.196  27.398  1.00  0.00    -0.084 Cl
ATOM     15  C   UNL A   1      34.020  27.751  26.271  1.00  0.00     0.032 A 
ATOM     16  C   UNL A   1      33.955  25.427  25.459  1.00  0.00     0.027 C 
ATOM     17  C   UNL A   1      32.350  24.883  23.612  1.00  0.00     0.316 C 
BRANCH   8  18
ATOM     18  C   UNL A   1      30.874  28.872  23.571  1.00  0.00    -0.014 A 
ATOM     19  C   UNL A   1      28.714  29.664  21.910  1.00  0.00     0.031 A 
ATOM     20  C   UNL A   1      28.488  28.907  23.058  1.00  0.00     0.026 A 
ATOM     21  C   UNL A   1      30.020  30.061  21.622  1.00  0.00     0.026 A 
ATOM     22  C   UNL A   1      29.552  28.509  23.873  1.00  0.00     0.011 A 
ATOM     23  C   UNL A   1      31.089  29.662  22.433  1.00  0.00     0.011 A 
BRANCH  19  24
ATOM     24  N   UNL A   1      27.653  30.120  21.147  1.00  0.00    -0.399 N 
ATOM     25  H   UNL A   1      26.728  29.927  21.426  1.00  0.00     0.156 HD
ATOM     26  H   UNL A   1      27.822  30.636  20.328  1.00  0.00     0.156 HD
ENDBRANCH  19  24
ENDBRANCH   8  18
BRANCH  17  27
ATOM     27  C   UNL A   1      31.016  24.147  23.798  1.00  0.00     0.430 C 
ATOM     28  F   UNL A   1      30.013  24.770  23.134  1.00  0.00    -0.167 F 
ATOM     29  F   UNL A   1      31.067  22.882  23.320  1.00  0.00    -0.167 F 
ATOM     30  F   UNL A   1      30.655  24.076  25.099  1.00  0.00    -0.167 F 
ENDBRANCH  17  27
ENDBRANCH   5   7
ENDBRANCH   4   5
ENDBRANCH   3   4
ENDBRANCH   2   3
ENDBRANCH   1   2
BRANCH   1  31
ATOM     31  C   UNL A   1      37.901  20.165  25.090  1.00  0.00     0.202 C 
BRANCH  31  32
ATOM     32  C   UNL A   1      39.093  19.242  25.372  1.00  0.00     0.261 C 
BRANCH  32  33
ATOM     33  O   UNL A   1      39.946  19.731  26.420  1.00  0.00    -0.460 OA
BRANCH  33  34
ATOM     34  C   UNL A   1      41.274  19.571  26.192  1.00  0.00     0.338 C 
ATOM     35  O   UNL A   1      41.823  18.631  25.638  1.00  0.00    -0.246 OA
BRANCH  34  36
ATOM     36  C   UNL A   1      41.982  20.816  26.537  1.00  0.00     0.060 A 
ATOM     37  C   UNL A   1      42.516  21.643  25.549  1.00  0.00     0.016 A 
ATOM     38  C   UNL A   1      42.060  21.178  27.890  1.00  0.00     0.016 A 
ATOM     39  C   UNL A   1      43.098  22.858  25.919  1.00  0.00     0.010 A 
ATOM     40  C   UNL A   1      42.642  22.390  28.257  1.00  0.00     0.010 A 
ATOM     41  C   UNL A   1      43.141  23.252  27.272  1.00  0.00    -0.014 A 
BRANCH  41  42
ATOM     42  C   UNL A   1      43.556  24.631  27.626  1.00  0.00     0.031 A 
ATOM     43  C   UNL A   1      44.985  25.075  27.548  1.00  0.00     0.074 A 
ATOM     44  C   UNL A   1      42.606  25.490  28.043  1.00  0.00     0.049 A 
ATOM     45  N   UNL A   1      45.476  26.277  27.718  1.00  0.00    -0.248 NA
ATOM     46  C   UNL A   1      45.994  24.048  27.249  1.00  0.00     0.031 C 
ATOM     47  C   UNL A   1      41.190  25.154  28.204  1.00  0.00     0.029 A 
ATOM     48  N   UNL A   1      42.676  26.816  28.388  1.00  0.00    -0.354 N 
ATOM     49  C   UNL A   1      46.845  26.158  27.528  1.00  0.00     0.074 A 
ATOM     50  C   UNL A   1      47.116  24.757  27.281  1.00  0.00     0.031 C 
ATOM     51  C   UNL A   1      40.518  26.255  28.565  1.00  0.00     0.029 A 
ATOM     52  C   UNL A   1      41.456  27.366  28.699  1.00  0.00     0.049 A 
ATOM     53  H   UNL A   1      43.519  27.324  28.411  1.00  0.00     0.167 HD
ATOM     54  C   UNL A   1      47.783  27.136  27.540  1.00  0.00     0.031 A 
ATOM     55  C   UNL A   1      41.120  28.626  29.040  1.00  0.00     0.031 A 
ATOM     56  C   UNL A   1      47.503  28.525  27.810  1.00  0.00     0.049 A 
ATOM     57  C   UNL A   1      42.187  29.683  29.080  1.00  0.00     0.074 A 
ATOM     58  C   UNL A   1      48.383  29.594  27.789  1.00  0.00     0.029 A 
ATOM     59  N   UNL A   1      46.264  29.036  28.163  1.00  0.00    -0.354 N 
ATOM     60  N   UNL A   1      43.461  29.577  28.794  1.00  0.00    -0.248 NA
ATOM     61  C   UNL A   1      41.768  31.037  29.470  1.00  0.00     0.031 C 
ATOM     62  C   UNL A   1      47.697  30.734  28.212  1.00  0.00     0.029 A 
ATOM     63  C   UNL A   1      46.368  30.397  28.407  1.00  0.00     0.049 A 
ATOM     64  H   UNL A   1      45.434  28.511  28.231  1.00  0.00     0.167 HD
ATOM     65  C   UNL A   1      43.994  30.850  28.952  1.00  0.00     0.074 A 
ATOM     66  C   UNL A   1      42.897  31.718  29.332  1.00  0.00     0.031 C 
ATOM     67  C   UNL A   1      45.277  31.258  28.795  1.00  0.00     0.031 A 
BRANCH  54  68
ATOM     68  C   UNL A   1      49.211  26.762  27.244  1.00  0.00    -0.014 A 
ATOM     69  C   UNL A   1      49.640  26.624  25.914  1.00  0.00     0.009 A 
ATOM     70  C   UNL A   1      50.095  26.412  28.278  1.00  0.00     0.009 A 
ATOM     71  C   UNL A   1      50.909  26.120  25.623  1.00  0.00     0.001 A 
ATOM     72  C   UNL A   1      51.376  25.938  27.985  1.00  0.00     0.001 A 
ATOM     73  C   UNL A   1      51.777  25.780  26.659  1.00  0.00     0.000 A 
ENDBRANCH  54  68
BRANCH  55  74
ATOM     74  C   UNL A   1      39.693  28.948  29.315  1.00  0.00    -0.014 A 
ATOM     75  C   UNL A   1      39.160  28.791  30.606  1.00  0.00     0.009 A 
ATOM     76  C   UNL A   1      38.841  29.351  28.277  1.00  0.00     0.009 A 
ATOM     77  C   UNL A   1      37.801  28.999  30.843  1.00  0.00     0.001 A 
ATOM     78  C   UNL A   1      37.487  29.592  28.525  1.00  0.00     0.001 A 
ATOM     79  C   UNL A   1      36.966  29.404  29.804  1.00  0.00     0.000 A 
ENDBRANCH  55  74
BRANCH  67  80
ATOM     80  C   UNL A   1      45.593  32.712  29.033  1.00  0.00    -0.014 A 
ATOM     81  C   UNL A   1      45.890  33.160  30.331  1.00  0.00     0.009 A 
ATOM     82  C   UNL A   1      45.491  33.656  27.998  1.00  0.00     0.009 A 
ATOM     83  C   UNL A   1      46.054  34.522  30.593  1.00  0.00     0.001 A 
ATOM     84  C   UNL A   1      45.694  35.013  28.256  1.00  0.00     0.001 A 
ATOM     85  C   UNL A   1      45.961  35.447  29.554  1.00  0.00     0.000 A 
ENDBRANCH  67  80
ENDBRANCH  41  42
ENDBRANCH  34  36
ENDBRANCH  33  34
ENDBRANCH  32  33
ENDBRANCH  31  32
ENDBRANCH   1  31
TORSDOF 17
ENDMDL
