MODEL 1
REMARK VINA RESULT:     -12.1      0.000      0.000
REMARK SMILES Cc1ccccc1-c1c(Cl)ccc2c1C=C(C(=O)OCCOCCOC(=O)c1ccc(-c3c4nc(c(-c5ccccc5)c5ccc([nH]5)c(-c5ccccc5)c5nc(c(-c6ccccc6)c6ccc3[nH]6)C=C5)C=C4)cc1)[C@@H](C(F)(F)F)O2
REMARK SMILES IDX 23 1 22 2 21 3 20 4 19 5 17 6 18 7 16 8 8 9 9 10 14 11 10 12
REMARK SMILES IDX 11 13 13 14 15 15 12 16 81 17 76 18 7 19 1 20 2 21 3 22 4 23
REMARK SMILES IDX 6 24 5 25 77 26 78 27 79 28 80 29 24 30 25 31 26 32 27 33
REMARK SMILES IDX 28 34 29 35 75 36 30 37 74 38 31 39 32 40 33 41 68 42 34 43
REMARK SMILES IDX 73 44 67 45 69 46 35 47 72 48 66 49 65 50 36 52 58 53 43 54
REMARK SMILES IDX 57 55 44 56 47 57 56 58 70 59 45 60 46 61 55 63 71 64 48 65
REMARK SMILES IDX 37 66 38 67 42 68 39 69 41 70 40 71 59 72 60 73 64 74 61 75
REMARK SMILES IDX 63 76 62 77 49 78 50 79 54 80 51 81 53 82 52 83
REMARK H PARENT 69 51 47 62
REMARK Flexibility Score: inf
ROOT
ATOM      1  C   UNL A   1      34.042  33.749  28.150  1.00  0.00     0.202 C 
ENDROOT
BRANCH   1   2
ATOM      2  O   UNL A   1      33.992  32.397  28.569  1.00  0.00    -0.374 OA
BRANCH   2   3
ATOM      3  C   UNL A   1      34.459  31.435  27.627  1.00  0.00     0.202 C 
BRANCH   3   4
ATOM      4  C   UNL A   1      33.352  30.418  27.484  1.00  0.00     0.261 C 
BRANCH   4   5
ATOM      5  O   UNL A   1      33.192  30.002  26.118  1.00  0.00    -0.460 OA
BRANCH   5   6
ATOM      6  C   UNL A   1      33.670  28.759  25.883  1.00  0.00     0.338 C 
ATOM      7  O   UNL A   1      34.471  28.134  26.565  1.00  0.00    -0.246 OA
BRANCH   6   8
ATOM      8  C   UNL A   1      33.108  28.174  24.648  1.00  0.00     0.087 C 
ATOM      9  C   UNL A   1      33.114  24.555  25.234  1.00  0.00     0.012 A 
ATOM     10  C   UNL A   1      32.226  23.723  25.972  1.00  0.00     0.049 A 
ATOM     11  C   UNL A   1      32.651  25.868  24.917  1.00  0.00     0.027 A 
ATOM     12  Cl  UNL A   1      32.669  22.132  26.509  1.00  0.00    -0.084 Cl
ATOM     13  C   UNL A   1      30.942  24.147  26.340  1.00  0.00     0.025 A 
ATOM     14  C   UNL A   1      31.335  26.257  25.273  1.00  0.00     0.128 A 
ATOM     15  C   UNL A   1      33.555  26.930  24.408  1.00  0.00     0.028 C 
ATOM     16  C   UNL A   1      30.494  25.407  25.981  1.00  0.00     0.049 A 
ATOM     17  O   UNL A   1      30.784  27.490  25.019  1.00  0.00    -0.475 OA
ATOM     18  C   UNL A   1      31.656  28.500  24.483  1.00  0.00     0.316 C 
BRANCH   9  19
ATOM     19  C   UNL A   1      34.429  24.015  24.761  1.00  0.00    -0.013 A 
ATOM     20  C   UNL A   1      33.668  23.327  22.388  1.00  0.00     0.045 C 
ATOM     21  C   UNL A   1      34.679  23.438  23.492  1.00  0.00    -0.043 A 
ATOM     22  C   UNL A   1      35.964  22.953  23.175  1.00  0.00     0.004 A 
ATOM     23  C   UNL A   1      37.025  23.084  24.061  1.00  0.00     0.000 A 
ATOM     24  C   UNL A   1      35.530  24.115  25.645  1.00  0.00     0.009 A 
ATOM     25  C   UNL A   1      36.811  23.683  25.292  1.00  0.00     0.001 A 
ENDBRANCH   9  19
BRANCH  18  26
ATOM     26  C   UNL A   1      31.353  28.780  23.008  1.00  0.00     0.430 C 
ATOM     27  F   UNL A   1      32.433  29.288  22.369  1.00  0.00    -0.167 F 
ATOM     28  F   UNL A   1      31.019  27.637  22.355  1.00  0.00    -0.167 F 
ATOM     29  F   UNL A   1      30.332  29.650  22.839  1.00  0.00    -0.167 F 
ENDBRANCH  18  26
ENDBRANCH   6   8
ENDBRANCH   5   6
ENDBRANCH   4   5
ENDBRANCH   3   4
ENDBRANCH   2   3
ENDBRANCH   1   2
BRANCH   1  30
ATOM     30  C   UNL A   1      33.131  34.684  28.957  1.00  0.00     0.261 C 
BRANCH  30  31
ATOM     31  O   UNL A   1      33.882  35.307  30.018  1.00  0.00    -0.460 OA
BRANCH  31  32
ATOM     32  C   UNL A   1      33.689  34.780  31.254  1.00  0.00     0.338 C 
ATOM     33  O   UNL A   1      32.646  34.834  31.896  1.00  0.00    -0.246 OA
BRANCH  32  34
ATOM     34  C   UNL A   1      34.999  34.399  31.842  1.00  0.00     0.060 A 
ATOM     35  C   UNL A   1      36.189  34.863  31.250  1.00  0.00     0.016 A 
ATOM     36  C   UNL A   1      35.030  33.321  32.723  1.00  0.00     0.016 A 
ATOM     37  C   UNL A   1      37.373  34.139  31.415  1.00  0.00     0.010 A 
ATOM     38  C   UNL A   1      36.159  32.540  32.765  1.00  0.00     0.010 A 
ATOM     39  C   UNL A   1      37.328  32.932  32.103  1.00  0.00    -0.014 A 
BRANCH  39  40
ATOM     40  C   UNL A   1      38.399  31.947  32.178  1.00  0.00     0.031 A 
ATOM     41  C   UNL A   1      38.236  30.655  31.477  1.00  0.00     0.074 A 
ATOM     42  C   UNL A   1      39.618  32.314  32.633  1.00  0.00     0.049 A 
ATOM     43  N   UNL A   1      39.041  29.662  31.603  1.00  0.00    -0.248 NA
ATOM     44  C   UNL A   1      37.124  30.359  30.578  1.00  0.00     0.031 C 
ATOM     45  C   UNL A   1      40.894  31.665  32.373  1.00  0.00     0.029 A 
ATOM     46  N   UNL A   1      39.923  33.274  33.589  1.00  0.00    -0.354 N 
ATOM     47  C   UNL A   1      38.803  28.800  30.560  1.00  0.00     0.074 A 
ATOM     48  C   UNL A   1      37.530  29.213  30.024  1.00  0.00     0.031 C 
ATOM     49  C   UNL A   1      41.758  31.995  33.342  1.00  0.00     0.029 A 
ATOM     50  C   UNL A   1      41.052  32.845  34.285  1.00  0.00     0.049 A 
ATOM     51  H   UNL A   1      39.428  34.110  33.748  1.00  0.00     0.167 HD
ATOM     52  C   UNL A   1      39.798  27.949  30.185  1.00  0.00     0.031 A 
ATOM     53  C   UNL A   1      41.067  32.780  35.639  1.00  0.00     0.031 A 
ATOM     54  C   UNL A   1      40.951  28.053  31.096  1.00  0.00     0.049 A 
ATOM     55  C   UNL A   1      41.343  31.347  35.972  1.00  0.00     0.074 A 
ATOM     56  C   UNL A   1      42.218  28.594  30.954  1.00  0.00     0.029 A 
ATOM     57  N   UNL A   1      40.764  27.861  32.469  1.00  0.00    -0.354 N 
ATOM     58  N   UNL A   1      40.924  30.357  35.221  1.00  0.00    -0.248 NA
ATOM     59  C   UNL A   1      42.324  30.943  36.974  1.00  0.00     0.031 C 
ATOM     60  C   UNL A   1      42.748  28.815  32.256  1.00  0.00     0.029 A 
ATOM     61  C   UNL A   1      41.818  28.386  33.193  1.00  0.00     0.049 A 
ATOM     62  H   UNL A   1      39.985  27.410  32.867  1.00  0.00     0.167 HD
ATOM     63  C   UNL A   1      41.728  29.282  35.466  1.00  0.00     0.074 A 
ATOM     64  C   UNL A   1      42.520  29.659  36.632  1.00  0.00     0.031 C 
ATOM     65  C   UNL A   1      41.903  28.214  34.638  1.00  0.00     0.031 A 
BRANCH  52  66
ATOM     66  C   UNL A   1      39.843  27.230  28.849  1.00  0.00    -0.014 A 
ATOM     67  C   UNL A   1      39.278  25.946  28.725  1.00  0.00     0.009 A 
ATOM     68  C   UNL A   1      40.455  27.730  27.684  1.00  0.00     0.009 A 
ATOM     69  C   UNL A   1      39.371  25.195  27.541  1.00  0.00     0.001 A 
ATOM     70  C   UNL A   1      40.568  26.981  26.502  1.00  0.00     0.001 A 
ATOM     71  C   UNL A   1      40.028  25.709  26.432  1.00  0.00     0.000 A 
ENDBRANCH  52  66
BRANCH  53  72
ATOM     72  C   UNL A   1      40.171  33.803  36.254  1.00  0.00    -0.014 A 
ATOM     73  C   UNL A   1      39.203  33.304  37.163  1.00  0.00     0.009 A 
ATOM     74  C   UNL A   1      40.566  35.142  36.395  1.00  0.00     0.009 A 
ATOM     75  C   UNL A   1      38.783  34.055  38.269  1.00  0.00     0.001 A 
ATOM     76  C   UNL A   1      40.125  35.897  37.498  1.00  0.00     0.001 A 
ATOM     77  C   UNL A   1      39.279  35.340  38.458  1.00  0.00     0.000 A 
ENDBRANCH  53  72
BRANCH  65  78
ATOM     78  C   UNL A   1      42.276  26.865  35.172  1.00  0.00    -0.014 A 
ATOM     79  C   UNL A   1      41.315  25.906  35.517  1.00  0.00     0.009 A 
ATOM     80  C   UNL A   1      43.621  26.448  35.115  1.00  0.00     0.009 A 
ATOM     81  C   UNL A   1      41.682  24.596  35.820  1.00  0.00     0.001 A 
ATOM     82  C   UNL A   1      43.985  25.128  35.366  1.00  0.00     0.001 A 
ATOM     83  C   UNL A   1      43.013  24.203  35.727  1.00  0.00     0.000 A 
ENDBRANCH  65  78
ENDBRANCH  39  40
ENDBRANCH  32  34
ENDBRANCH  31  32
ENDBRANCH  30  31
ENDBRANCH   1  30
TORSDOF 16
ENDMDL
MODEL 2
REMARK VINA RESULT:     -12.0      5.632     10.495
REMARK SMILES Cc1ccccc1-c1c(Cl)ccc2c1C=C(C(=O)OCCOCCOC(=O)c1ccc(-c3c4nc(c(-c5ccccc5)c5ccc([nH]5)c(-c5ccccc5)c5nc(c(-c6ccccc6)c6ccc3[nH]6)C=C5)C=C4)cc1)[C@@H](C(F)(F)F)O2
REMARK SMILES IDX 23 1 22 2 21 3 20 4 19 5 17 6 18 7 16 8 8 9 9 10 14 11 10 12
REMARK SMILES IDX 11 13 13 14 15 15 12 16 81 17 76 18 7 19 1 20 2 21 3 22 4 23
REMARK SMILES IDX 6 24 5 25 77 26 78 27 79 28 80 29 24 30 25 31 26 32 27 33
REMARK SMILES IDX 28 34 29 35 75 36 30 37 74 38 31 39 32 40 33 41 68 42 34 43
REMARK SMILES IDX 73 44 67 45 69 46 35 47 72 48 66 49 65 50 36 52 58 53 43 54
REMARK SMILES IDX 57 55 44 56 47 57 56 58 70 59 45 60 46 61 55 63 71 64 48 65
REMARK SMILES IDX 37 66 38 67 42 68 39 69 41 70 40 71 59 72 60 73 64 74 61 75
REMARK SMILES IDX 63 76 62 77 49 78 50 79 54 80 51 81 53 82 52 83
REMARK H PARENT 69 51 47 62
REMARK Flexibility Score: inf
ROOT
ATOM      1  C   UNL A   1      40.959  19.681  26.094  1.00  0.00     0.202 C 
ENDROOT
BRANCH   1   2
ATOM      2  O   UNL A   1      39.607  20.098  26.022  1.00  0.00    -0.374 OA
BRANCH   2   3
ATOM      3  C   UNL A   1      39.386  21.505  26.062  1.00  0.00     0.202 C 
BRANCH   3   4
ATOM      4  C   UNL A   1      38.120  21.753  25.274  1.00  0.00     0.261 C 
BRANCH   4   5
ATOM      5  O   UNL A   1      36.982  21.893  26.138  1.00  0.00    -0.460 OA
BRANCH   5   6
ATOM      6  C   UNL A   1      36.230  22.981  25.851  1.00  0.00     0.338 C 
ATOM      7  O   UNL A   1      36.629  24.092  25.528  1.00  0.00    -0.246 OA
BRANCH   6   8
ATOM      8  C   UNL A   1      34.784  22.701  25.969  1.00  0.00     0.087 C 
ATOM      9  C   UNL A   1      33.138  25.586  24.417  1.00  0.00     0.012 A 
ATOM     10  C   UNL A   1      32.913  25.914  23.051  1.00  0.00     0.049 A 
ATOM     11  C   UNL A   1      33.503  24.235  24.703  1.00  0.00     0.027 A 
ATOM     12  Cl  UNL A   1      32.544  27.529  22.529  1.00  0.00    -0.084 Cl
ATOM     13  C   UNL A   1      33.002  24.957  22.032  1.00  0.00     0.025 A 
ATOM     14  C   UNL A   1      33.553  23.281  23.654  1.00  0.00     0.128 A 
ATOM     15  C   UNL A   1      34.038  23.817  26.023  1.00  0.00     0.028 C 
ATOM     16  C   UNL A   1      33.309  23.642  22.335  1.00  0.00     0.049 A 
ATOM     17  O   UNL A   1      33.890  21.959  23.811  1.00  0.00    -0.475 OA
ATOM     18  C   UNL A   1      34.363  21.552  25.106  1.00  0.00     0.316 C 
BRANCH   9  19
ATOM     19  C   UNL A   1      32.915  26.615  25.483  1.00  0.00    -0.013 A 
ATOM     20  C   UNL A   1      30.457  26.013  26.012  1.00  0.00     0.045 C 
ATOM     21  C   UNL A   1      31.704  26.829  26.185  1.00  0.00    -0.043 A 
ATOM     22  C   UNL A   1      31.621  27.846  27.160  1.00  0.00     0.004 A 
ATOM     23  C   UNL A   1      32.727  28.612  27.501  1.00  0.00     0.000 A 
ATOM     24  C   UNL A   1      34.015  27.428  25.845  1.00  0.00     0.009 A 
ATOM     25  C   UNL A   1      33.932  28.391  26.855  1.00  0.00     0.001 A 
ENDBRANCH   9  19
BRANCH  18  26
ATOM     26  C   UNL A   1      33.323  20.705  25.846  1.00  0.00     0.430 C 
ATOM     27  F   UNL A   1      33.412  19.399  25.501  1.00  0.00    -0.167 F 
ATOM     28  F   UNL A   1      33.513  20.766  27.189  1.00  0.00    -0.167 F 
ATOM     29  F   UNL A   1      32.054  21.105  25.603  1.00  0.00    -0.167 F 
ENDBRANCH  18  26
ENDBRANCH   6   8
ENDBRANCH   5   6
ENDBRANCH   4   5
ENDBRANCH   3   4
ENDBRANCH   2   3
ENDBRANCH   1   2
BRANCH   1  30
ATOM     30  C   UNL A   1      41.968  20.834  26.015  1.00  0.00     0.261 C 
BRANCH  30  31
ATOM     31  O   UNL A   1      43.306  20.309  25.906  1.00  0.00    -0.460 OA
BRANCH  31  32
ATOM     32  C   UNL A   1      44.070  20.863  24.929  1.00  0.00     0.338 C 
ATOM     33  O   UNL A   1      44.439  20.295  23.907  1.00  0.00    -0.246 OA
BRANCH  32  34
ATOM     34  C   UNL A   1      44.646  22.143  25.414  1.00  0.00     0.060 A 
ATOM     35  C   UNL A   1      44.972  22.289  26.775  1.00  0.00     0.016 A 
ATOM     36  C   UNL A   1      44.512  23.267  24.602  1.00  0.00     0.016 A 
ATOM     37  C   UNL A   1      44.996  23.563  27.350  1.00  0.00     0.010 A 
ATOM     38  C   UNL A   1      44.397  24.498  25.200  1.00  0.00     0.010 A 
ATOM     39  C   UNL A   1      44.622  24.653  26.573  1.00  0.00    -0.014 A 
BRANCH  39  40
ATOM     40  C   UNL A   1      44.373  26.005  27.056  1.00  0.00     0.031 A 
ATOM     41  C   UNL A   1      43.002  26.554  26.976  1.00  0.00     0.074 A 
ATOM     42  C   UNL A   1      45.302  26.629  27.814  1.00  0.00     0.049 A 
ATOM     43  N   UNL A   1      42.703  27.778  27.226  1.00  0.00    -0.248 NA
ATOM     44  C   UNL A   1      41.838  25.765  26.582  1.00  0.00     0.031 C 
ATOM     45  C   UNL A   1      45.096  27.727  28.746  1.00  0.00     0.029 A 
ATOM     46  N   UNL A   1      46.683  26.499  27.756  1.00  0.00    -0.354 N 
ATOM     47  C   UNL A   1      41.343  27.842  27.414  1.00  0.00     0.074 A 
ATOM     48  C   UNL A   1      40.839  26.599  26.886  1.00  0.00     0.031 C 
ATOM     49  C   UNL A   1      46.255  28.376  28.921  1.00  0.00     0.029 A 
ATOM     50  C   UNL A   1      47.246  27.735  28.076  1.00  0.00     0.049 A 
ATOM     51  H   UNL A   1      47.179  25.680  27.527  1.00  0.00     0.167 HD
ATOM     52  C   UNL A   1      40.840  28.877  28.144  1.00  0.00     0.031 A 
ATOM     53  C   UNL A   1      48.163  28.325  27.271  1.00  0.00     0.031 A 
ATOM     54  C   UNL A   1      41.901  29.830  28.507  1.00  0.00     0.049 A 
ATOM     55  C   UNL A   1      47.565  29.639  26.873  1.00  0.00     0.074 A 
ATOM     56  C   UNL A   1      42.536  30.121  29.703  1.00  0.00     0.029 A 
ATOM     57  N   UNL A   1      42.688  30.402  27.502  1.00  0.00    -0.354 N 
ATOM     58  N   UNL A   1      46.274  29.804  26.716  1.00  0.00    -0.248 NA
ATOM     59  C   UNL A   1      48.313  30.891  26.908  1.00  0.00     0.031 C 
ATOM     60  C   UNL A   1      43.758  30.786  29.399  1.00  0.00     0.029 A 
ATOM     61  C   UNL A   1      43.858  30.924  28.021  1.00  0.00     0.049 A 
ATOM     62  H   UNL A   1      42.441  30.430  26.550  1.00  0.00     0.167 HD
ATOM     63  C   UNL A   1      46.005  31.133  26.871  1.00  0.00     0.074 A 
ATOM     64  C   UNL A   1      47.310  31.785  26.889  1.00  0.00     0.031 C 
ATOM     65  C   UNL A   1      44.791  31.668  27.185  1.00  0.00     0.031 A 
BRANCH  52  66
ATOM     66  C   UNL A   1      39.452  28.886  28.759  1.00  0.00    -0.014 A 
ATOM     67  C   UNL A   1      38.369  29.422  28.037  1.00  0.00     0.009 A 
ATOM     68  C   UNL A   1      39.140  28.425  30.052  1.00  0.00     0.009 A 
ATOM     69  C   UNL A   1      37.082  29.543  28.589  1.00  0.00     0.001 A 
ATOM     70  C   UNL A   1      37.863  28.557  30.620  1.00  0.00     0.001 A 
ATOM     71  C   UNL A   1      36.832  29.121  29.888  1.00  0.00     0.000 A 
ENDBRANCH  52  66
BRANCH  53  72
ATOM     72  C   UNL A   1      48.976  27.320  26.524  1.00  0.00    -0.014 A 
ATOM     73  C   UNL A   1      48.817  27.328  25.114  1.00  0.00     0.009 A 
ATOM     74  C   UNL A   1      50.177  26.812  27.040  1.00  0.00     0.009 A 
ATOM     75  C   UNL A   1      49.878  27.007  24.257  1.00  0.00     0.001 A 
ATOM     76  C   UNL A   1      51.233  26.474  26.172  1.00  0.00     0.001 A 
ATOM     77  C   UNL A   1      51.101  26.619  24.791  1.00  0.00     0.000 A 
ENDBRANCH  53  72
BRANCH  65  78
ATOM     78  C   UNL A   1      44.418  33.057  26.767  1.00  0.00    -0.014 A 
ATOM     79  C   UNL A   1      44.023  33.362  25.457  1.00  0.00     0.009 A 
ATOM     80  C   UNL A   1      44.232  34.048  27.751  1.00  0.00     0.009 A 
ATOM     81  C   UNL A   1      43.492  34.611  25.138  1.00  0.00     0.001 A 
ATOM     82  C   UNL A   1      43.653  35.277  27.445  1.00  0.00     0.001 A 
ATOM     83  C   UNL A   1      43.290  35.560  26.134  1.00  0.00     0.000 A 
ENDBRANCH  65  78
ENDBRANCH  39  40
ENDBRANCH  32  34
ENDBRANCH  31  32
ENDBRANCH  30  31
ENDBRANCH   1  30
TORSDOF 16
ENDMDL
MODEL 3
REMARK VINA RESULT:     -11.6      1.237      1.597
REMARK SMILES Cc1ccccc1-c1c(Cl)ccc2c1C=C(C(=O)OCCOCCOC(=O)c1ccc(-c3c4nc(c(-c5ccccc5)c5ccc([nH]5)c(-c5ccccc5)c5nc(c(-c6ccccc6)c6ccc3[nH]6)C=C5)C=C4)cc1)[C@@H](C(F)(F)F)O2
REMARK SMILES IDX 23 1 22 2 21 3 20 4 19 5 17 6 18 7 16 8 8 9 9 10 14 11 10 12
REMARK SMILES IDX 11 13 13 14 15 15 12 16 81 17 76 18 7 19 1 20 2 21 3 22 4 23
REMARK SMILES IDX 6 24 5 25 77 26 78 27 79 28 80 29 24 30 25 31 26 32 27 33
REMARK SMILES IDX 28 34 29 35 75 36 30 37 74 38 31 39 32 40 33 41 68 42 34 43
REMARK SMILES IDX 73 44 67 45 69 46 35 47 72 48 66 49 65 50 36 52 58 53 43 54
REMARK SMILES IDX 57 55 44 56 47 57 56 58 70 59 45 60 46 61 55 63 71 64 48 65
REMARK SMILES IDX 37 66 38 67 42 68 39 69 41 70 40 71 59 72 60 73 64 74 61 75
REMARK SMILES IDX 63 76 62 77 49 78 50 79 54 80 51 81 53 82 52 83
REMARK H PARENT 69 51 47 62
REMARK Flexibility Score: inf
ROOT
ATOM      1  C   UNL A   1      32.636  32.740  27.245  1.00  0.00     0.202 C 
ENDROOT
BRANCH   1   2
ATOM      2  O   UNL A   1      33.012  31.471  27.749  1.00  0.00    -0.374 OA
BRANCH   2   3
ATOM      3  C   UNL A   1      33.184  30.442  26.778  1.00  0.00     0.202 C 
BRANCH   3   4
ATOM      4  C   UNL A   1      32.180  29.367  27.125  1.00  0.00     0.261 C 
BRANCH   4   5
ATOM      5  O   UNL A   1      32.814  28.089  27.292  1.00  0.00    -0.460 OA
BRANCH   5   6
ATOM      6  C   UNL A   1      32.272  27.123  26.515  1.00  0.00     0.338 C 
ATOM      7  O   UNL A   1      31.451  26.280  26.849  1.00  0.00    -0.246 OA
BRANCH   6   8
ATOM      8  C   UNL A   1      32.789  27.171  25.131  1.00  0.00     0.087 C 
ATOM      9  C   UNL A   1      33.305  23.663  24.199  1.00  0.00     0.012 A 
ATOM     10  C   UNL A   1      32.389  22.663  23.769  1.00  0.00     0.049 A 
ATOM     11  C   UNL A   1      32.847  25.015  24.158  1.00  0.00     0.027 A 
ATOM     12  Cl  UNL A   1      32.761  20.968  23.836  1.00  0.00    -0.084 Cl
ATOM     13  C   UNL A   1      31.112  22.980  23.289  1.00  0.00     0.025 A 
ATOM     14  C   UNL A   1      31.561  25.309  23.637  1.00  0.00     0.128 A 
ATOM     15  C   UNL A   1      33.572  26.123  24.829  1.00  0.00     0.028 C 
ATOM     16  C   UNL A   1      30.704  24.301  23.212  1.00  0.00     0.049 A 
ATOM     17  O   UNL A   1      31.018  26.567  23.548  1.00  0.00    -0.475 OA
ATOM     18  C   UNL A   1      31.750  27.642  24.160  1.00  0.00     0.316 C 
BRANCH   9  19
ATOM     19  C   UNL A   1      34.700  23.284  24.591  1.00  0.00    -0.013 A 
ATOM     20  C   UNL A   1      34.255  22.956  27.116  1.00  0.00     0.045 C 
ATOM     21  C   UNL A   1      35.140  22.990  25.904  1.00  0.00    -0.043 A 
ATOM     22  C   UNL A   1      36.491  22.660  26.142  1.00  0.00     0.004 A 
ATOM     23  C   UNL A   1      37.402  22.550  25.100  1.00  0.00     0.000 A 
ATOM     24  C   UNL A   1      35.661  23.180  23.558  1.00  0.00     0.009 A 
ATOM     25  C   UNL A   1      36.982  22.793  23.803  1.00  0.00     0.001 A 
ENDBRANCH   9  19
BRANCH  18  26
ATOM     26  C   UNL A   1      32.398  28.552  23.113  1.00  0.00     0.430 C 
ATOM     27  F   UNL A   1      31.501  29.417  22.585  1.00  0.00    -0.167 F 
ATOM     28  F   UNL A   1      33.383  29.306  23.666  1.00  0.00    -0.167 F 
ATOM     29  F   UNL A   1      32.951  27.861  22.090  1.00  0.00    -0.167 F 
ENDBRANCH  18  26
ENDBRANCH   6   8
ENDBRANCH   5   6
ENDBRANCH   4   5
ENDBRANCH   3   4
ENDBRANCH   2   3
ENDBRANCH   1   2
BRANCH   1  30
ATOM     30  C   UNL A   1      33.238  33.919  28.021  1.00  0.00     0.261 C 
BRANCH  30  31
ATOM     31  O   UNL A   1      33.544  33.515  29.370  1.00  0.00    -0.460 OA
BRANCH  31  32
ATOM     32  C   UNL A   1      33.971  34.508  30.192  1.00  0.00     0.338 C 
ATOM     33  O   UNL A   1      33.417  35.591  30.347  1.00  0.00    -0.246 OA
BRANCH  32  34
ATOM     34  C   UNL A   1      35.357  34.220  30.641  1.00  0.00     0.060 A 
ATOM     35  C   UNL A   1      36.427  34.375  29.740  1.00  0.00     0.016 A 
ATOM     36  C   UNL A   1      35.523  33.469  31.803  1.00  0.00     0.016 A 
ATOM     37  C   UNL A   1      37.602  33.641  29.926  1.00  0.00     0.010 A 
ATOM     38  C   UNL A   1      36.619  32.647  31.901  1.00  0.00     0.010 A 
ATOM     39  C   UNL A   1      37.654  32.714  30.961  1.00  0.00    -0.014 A 
BRANCH  39  40
ATOM     40  C   UNL A   1      38.694  31.715  31.166  1.00  0.00     0.031 A 
ATOM     41  C   UNL A   1      38.559  30.395  30.512  1.00  0.00     0.074 A 
ATOM     42  C   UNL A   1      39.881  32.080  31.700  1.00  0.00     0.049 A 
ATOM     43  N   UNL A   1      39.330  29.394  30.747  1.00  0.00    -0.248 NA
ATOM     44  C   UNL A   1      37.515  30.078  29.541  1.00  0.00     0.031 C 
ATOM     45  C   UNL A   1      41.160  31.397  31.573  1.00  0.00     0.029 A 
ATOM     46  N   UNL A   1      40.130  33.077  32.633  1.00  0.00    -0.354 N 
ATOM     47  C   UNL A   1      39.156  28.489  29.727  1.00  0.00     0.074 A 
ATOM     48  C   UNL A   1      37.939  28.900  29.073  1.00  0.00     0.031 C 
ATOM     49  C   UNL A   1      41.951  31.756  32.592  1.00  0.00     0.029 A 
ATOM     50  C   UNL A   1      41.192  32.661  33.436  1.00  0.00     0.049 A 
ATOM     51  H   UNL A   1      39.643  33.929  32.715  1.00  0.00     0.167 HD
ATOM     52  C   UNL A   1      40.160  27.604  29.472  1.00  0.00     0.031 A 
ATOM     53  C   UNL A   1      41.098  32.658  34.789  1.00  0.00     0.031 A 
ATOM     54  C   UNL A   1      41.238  27.729  30.466  1.00  0.00     0.049 A 
ATOM     55  C   UNL A   1      41.315  31.237  35.206  1.00  0.00     0.074 A 
ATOM     56  C   UNL A   1      42.524  28.240  30.402  1.00  0.00     0.029 A 
ATOM     57  N   UNL A   1      40.939  27.604  31.827  1.00  0.00    -0.354 N 
ATOM     58  N   UNL A   1      40.936  30.222  34.469  1.00  0.00    -0.248 NA
ATOM     59  C   UNL A   1      42.205  30.862  36.301  1.00  0.00     0.031 C 
ATOM     60  C   UNL A   1      42.954  28.511  31.732  1.00  0.00     0.029 A 
ATOM     61  C   UNL A   1      41.943  28.143  32.609  1.00  0.00     0.049 A 
ATOM     62  H   UNL A   1      40.121  27.187  32.181  1.00  0.00     0.167 HD
ATOM     63  C   UNL A   1      41.694  29.145  34.825  1.00  0.00     0.074 A 
ATOM     64  C   UNL A   1      42.399  29.560  36.033  1.00  0.00     0.031 C 
ATOM     65  C   UNL A   1      41.910  28.036  34.062  1.00  0.00     0.031 A 
BRANCH  52  66
ATOM     66  C   UNL A   1      40.294  26.823  28.176  1.00  0.00    -0.014 A 
ATOM     67  C   UNL A   1      39.505  25.677  27.965  1.00  0.00     0.009 A 
ATOM     68  C   UNL A   1      41.198  27.128  27.142  1.00  0.00     0.009 A 
ATOM     69  C   UNL A   1      39.651  24.862  26.829  1.00  0.00     0.001 A 
ATOM     70  C   UNL A   1      41.364  26.313  26.011  1.00  0.00     0.001 A 
ATOM     71  C   UNL A   1      40.592  25.174  25.857  1.00  0.00     0.000 A 
ENDBRANCH  52  66
BRANCH  53  72
ATOM     72  C   UNL A   1      40.178  33.725  35.284  1.00  0.00    -0.014 A 
ATOM     73  C   UNL A   1      39.245  33.320  36.272  1.00  0.00     0.009 A 
ATOM     74  C   UNL A   1      40.529  35.083  35.238  1.00  0.00     0.009 A 
ATOM     75  C   UNL A   1      38.820  34.197  37.279  1.00  0.00     0.001 A 
ATOM     76  C   UNL A   1      40.083  35.963  36.242  1.00  0.00     0.001 A 
ATOM     77  C   UNL A   1      39.274  35.511  37.285  1.00  0.00     0.000 A 
ENDBRANCH  53  72
BRANCH  65  78
ATOM     78  C   UNL A   1      42.211  26.707  34.684  1.00  0.00    -0.014 A 
ATOM     79  C   UNL A   1      41.277  26.024  35.475  1.00  0.00     0.009 A 
ATOM     80  C   UNL A   1      43.367  26.005  34.288  1.00  0.00     0.009 A 
ATOM     81  C   UNL A   1      41.500  24.708  35.876  1.00  0.00     0.001 A 
ATOM     82  C   UNL A   1      43.567  24.674  34.643  1.00  0.00     0.001 A 
ATOM     83  C   UNL A   1      42.634  24.028  35.446  1.00  0.00     0.000 A 
ENDBRANCH  65  78
ENDBRANCH  39  40
ENDBRANCH  32  34
ENDBRANCH  31  32
ENDBRANCH  30  31
ENDBRANCH   1  30
TORSDOF 16
ENDMDL
