MODEL 1
REMARK VINA RESULT:      -9.7      0.000      0.000
REMARK SMILES CCS(=O)(=O)N1CCC[C@@H](C(=O)OCCOCCOC(=O)c2ccc(-c3c4nc(c(-c5ccccc5)c5ccc([nH]5)c(-c5ccccc5)c5nc(c(-c6ccccc6)c6ccc3[nH]6)C=C5)C=C4)cc2)C1
REMARK SMILES IDX 16 1 15 2 14 3 13 4 11 5 12 6 10 7 6 8 7 9 70 10 8 11 9 12
REMARK SMILES IDX 3 13 4 14 5 15 2 16 1 17 17 18 18 19 19 20 20 21 21 22 22 23
REMARK SMILES IDX 23 24 69 25 24 26 68 27 25 28 26 29 27 30 62 31 28 32 67 33
REMARK SMILES IDX 61 34 63 35 29 36 66 37 60 38 59 39 30 41 52 42 37 43 51 44
REMARK SMILES IDX 38 45 41 46 50 47 64 48 39 49 40 50 49 52 65 53 42 54 31 55
REMARK SMILES IDX 32 56 36 57 33 58 35 59 34 60 53 61 54 62 58 63 55 64 57 65
REMARK SMILES IDX 56 66 43 67 44 68 48 69 45 70 47 71 46 72
REMARK H PARENT 63 40 41 51
REMARK Flexibility Score: inf
ROOT
ATOM      1  O   UNL A   1      34.542  21.025  25.747  1.00  0.00    -0.374 OA
ENDROOT
BRANCH   1   2
ATOM      2  C   UNL A   1      33.584  21.471  24.795  1.00  0.00     0.202 C 
BRANCH   2   3
ATOM      3  C   UNL A   1      32.339  22.194  25.317  1.00  0.00     0.261 C 
BRANCH   3   4
ATOM      4  O   UNL A   1      32.530  23.610  25.476  1.00  0.00    -0.463 OA
BRANCH   4   5
ATOM      5  C   UNL A   1      31.715  24.199  26.394  1.00  0.00     0.310 C 
ATOM      6  O   UNL A   1      31.400  23.707  27.470  1.00  0.00    -0.252 OA
BRANCH   5   7
ATOM      7  C   UNL A   1      31.165  25.524  25.914  1.00  0.00     0.114 C 
ATOM      8  N   UNL A   1      31.596  27.857  25.223  1.00  0.00    -0.201 NA
ATOM      9  C   UNL A   1      30.854  27.680  23.954  1.00  0.00     0.102 C 
ATOM     10  C   UNL A   1      32.221  26.616  25.745  1.00  0.00     0.117 C 
ATOM     11  C   UNL A   1      29.781  26.608  24.145  1.00  0.00     0.018 C 
ATOM     12  C   UNL A   1      30.394  25.296  24.617  1.00  0.00     0.018 C 
BRANCH   8  13
ATOM     13  S   UNL A   1      32.374  29.332  25.503  1.00  0.00     0.213 S 
ATOM     14  O   UNL A   1      31.353  30.354  25.563  1.00  0.00    -0.212 OA
ATOM     15  O   UNL A   1      33.470  29.438  24.558  1.00  0.00    -0.212 OA
BRANCH  13  16
ATOM     16  C   UNL A   1      33.095  29.151  27.141  1.00  0.00     0.151 C 
ATOM     17  C   UNL A   1      34.603  29.308  27.157  1.00  0.00     0.022 C 
ENDBRANCH  13  16
ENDBRANCH   8  13
ENDBRANCH   5   7
ENDBRANCH   4   5
ENDBRANCH   3   4
ENDBRANCH   2   3
ENDBRANCH   1   2
BRANCH   1  18
ATOM     18  C   UNL A   1      35.817  21.664  25.767  1.00  0.00     0.202 C 
BRANCH  18  19
ATOM     19  C   UNL A   1      37.002  20.903  25.161  1.00  0.00     0.261 C 
BRANCH  19  20
ATOM     20  O   UNL A   1      38.180  21.724  25.034  1.00  0.00    -0.460 OA
BRANCH  20  21
ATOM     21  C   UNL A   1      39.173  21.394  25.894  1.00  0.00     0.338 C 
ATOM     22  O   UNL A   1      39.808  20.352  25.925  1.00  0.00    -0.246 OA
BRANCH  21  23
ATOM     23  C   UNL A   1      39.553  22.547  26.732  1.00  0.00     0.060 A 
ATOM     24  C   UNL A   1      38.832  23.731  26.539  1.00  0.00     0.016 A 
ATOM     25  C   UNL A   1      40.669  22.522  27.571  1.00  0.00     0.016 A 
ATOM     26  C   UNL A   1      39.281  24.920  27.103  1.00  0.00     0.010 A 
ATOM     27  C   UNL A   1      41.118  23.721  28.141  1.00  0.00     0.010 A 
ATOM     28  C   UNL A   1      40.462  24.934  27.857  1.00  0.00    -0.014 A 
BRANCH  28  29
ATOM     29  C   UNL A   1      41.094  26.243  28.161  1.00  0.00     0.031 A 
ATOM     30  C   UNL A   1      42.427  26.575  27.539  1.00  0.00     0.074 A 
ATOM     31  C   UNL A   1      40.453  27.163  28.903  1.00  0.00     0.049 A 
ATOM     32  N   UNL A   1      43.132  27.674  27.624  1.00  0.00    -0.248 NA
ATOM     33  C   UNL A   1      43.046  25.528  26.711  1.00  0.00     0.031 C 
ATOM     34  C   UNL A   1      39.138  26.991  29.516  1.00  0.00     0.029 A 
ATOM     35  N   UNL A   1      40.822  28.439  29.250  1.00  0.00    -0.354 N 
ATOM     36  C   UNL A   1      44.278  27.448  26.869  1.00  0.00     0.074 A 
ATOM     37  C   UNL A   1      44.193  26.093  26.368  1.00  0.00     0.031 C 
ATOM     38  C   UNL A   1      38.804  28.124  30.158  1.00  0.00     0.029 A 
ATOM     39  C   UNL A   1      39.893  29.089  30.025  1.00  0.00     0.049 A 
ATOM     40  H   UNL A   1      41.672  28.850  28.969  1.00  0.00     0.167 HD
ATOM     41  C   UNL A   1      45.303  28.292  26.602  1.00  0.00     0.031 A 
ATOM     42  C   UNL A   1      39.922  30.317  30.574  1.00  0.00     0.031 A 
ATOM     43  C   UNL A   1      45.395  29.639  27.101  1.00  0.00     0.049 A 
ATOM     44  C   UNL A   1      41.109  31.210  30.324  1.00  0.00     0.074 A 
ATOM     45  C   UNL A   1      46.387  30.577  26.875  1.00  0.00     0.029 A 
ATOM     46  N   UNL A   1      44.461  30.237  27.932  1.00  0.00    -0.354 N 
ATOM     47  N   UNL A   1      42.173  30.992  29.588  1.00  0.00    -0.248 NA
ATOM     48  C   UNL A   1      41.090  32.529  30.975  1.00  0.00     0.031 C 
ATOM     49  C   UNL A   1      46.086  31.720  27.623  1.00  0.00     0.029 A 
ATOM     50  C   UNL A   1      44.869  31.520  28.255  1.00  0.00     0.049 A 
ATOM     51  H   UNL A   1      43.630  29.812  28.247  1.00  0.00     0.167 HD
ATOM     52  C   UNL A   1      42.932  32.154  29.663  1.00  0.00     0.074 A 
ATOM     53  C   UNL A   1      42.194  33.081  30.496  1.00  0.00     0.031 C 
ATOM     54  C   UNL A   1      44.132  32.430  29.094  1.00  0.00     0.031 A 
BRANCH  41  55
ATOM     55  C   UNL A   1      46.432  27.765  25.756  1.00  0.00    -0.014 A 
ATOM     56  C   UNL A   1      46.494  28.015  24.375  1.00  0.00     0.009 A 
ATOM     57  C   UNL A   1      47.466  27.030  26.358  1.00  0.00     0.009 A 
ATOM     58  C   UNL A   1      47.547  27.506  23.610  1.00  0.00     0.001 A 
ATOM     59  C   UNL A   1      48.533  26.551  25.596  1.00  0.00     0.001 A 
ATOM     60  C   UNL A   1      48.568  26.780  24.222  1.00  0.00     0.000 A 
ENDBRANCH  41  55
BRANCH  42  61
ATOM     61  C   UNL A   1      38.798  30.781  31.430  1.00  0.00    -0.014 A 
ATOM     62  C   UNL A   1      37.655  31.365  30.864  1.00  0.00     0.009 A 
ATOM     63  C   UNL A   1      38.879  30.669  32.827  1.00  0.00     0.009 A 
ATOM     64  C   UNL A   1      36.632  31.857  31.680  1.00  0.00     0.001 A 
ATOM     65  C   UNL A   1      37.841  31.130  33.638  1.00  0.00     0.001 A 
ATOM     66  C   UNL A   1      36.725  31.735  33.064  1.00  0.00     0.000 A 
ENDBRANCH  42  61
BRANCH  54  67
ATOM     67  C   UNL A   1      44.702  33.804  29.328  1.00  0.00    -0.014 A 
ATOM     68  C   UNL A   1      44.412  34.875  28.467  1.00  0.00     0.009 A 
ATOM     69  C   UNL A   1      45.532  34.033  30.437  1.00  0.00     0.009 A 
ATOM     70  C   UNL A   1      44.984  36.131  28.683  1.00  0.00     0.001 A 
ATOM     71  C   UNL A   1      46.071  35.298  30.673  1.00  0.00     0.001 A 
ATOM     72  C   UNL A   1      45.810  36.342  29.787  1.00  0.00     0.000 A 
ENDBRANCH  54  67
ENDBRANCH  28  29
ENDBRANCH  21  23
ENDBRANCH  20  21
ENDBRANCH  19  20
ENDBRANCH  18  19
ENDBRANCH   1  18
TORSDOF 16
ENDMDL
MODEL 2
REMARK VINA RESULT:      -9.6      4.230      8.826
REMARK SMILES CCS(=O)(=O)N1CCC[C@@H](C(=O)OCCOCCOC(=O)c2ccc(-c3c4nc(c(-c5ccccc5)c5ccc([nH]5)c(-c5ccccc5)c5nc(c(-c6ccccc6)c6ccc3[nH]6)C=C5)C=C4)cc2)C1
REMARK SMILES IDX 16 1 15 2 14 3 13 4 11 5 12 6 10 7 6 8 7 9 70 10 8 11 9 12
REMARK SMILES IDX 3 13 4 14 5 15 2 16 1 17 17 18 18 19 19 20 20 21 21 22 22 23
REMARK SMILES IDX 23 24 69 25 24 26 68 27 25 28 26 29 27 30 62 31 28 32 67 33
REMARK SMILES IDX 61 34 63 35 29 36 66 37 60 38 59 39 30 41 52 42 37 43 51 44
REMARK SMILES IDX 38 45 41 46 50 47 64 48 39 49 40 50 49 52 65 53 42 54 31 55
REMARK SMILES IDX 32 56 36 57 33 58 35 59 34 60 53 61 54 62 58 63 55 64 57 65
REMARK SMILES IDX 56 66 43 67 44 68 48 69 45 70 47 71 46 72
REMARK H PARENT 63 40 41 51
REMARK Flexibility Score: inf
ROOT
ATOM      1  O   UNL A   1      33.170  29.384  25.458  1.00  0.00    -0.374 OA
ENDROOT
BRANCH   1   2
ATOM      2  C   UNL A   1      33.254  29.003  24.089  1.00  0.00     0.202 C 
BRANCH   2   3
ATOM      3  C   UNL A   1      33.041  27.526  23.743  1.00  0.00     0.261 C 
BRANCH   3   4
ATOM      4  O   UNL A   1      31.906  27.303  22.888  1.00  0.00    -0.463 OA
BRANCH   4   5
ATOM      5  C   UNL A   1      30.898  26.580  23.449  1.00  0.00     0.310 C 
ATOM      6  O   UNL A   1      30.911  25.366  23.610  1.00  0.00    -0.252 OA
BRANCH   5   7
ATOM      7  C   UNL A   1      29.699  27.432  23.797  1.00  0.00     0.114 C 
ATOM      8  N   UNL A   1      28.434  29.527  23.456  1.00  0.00    -0.201 NA
ATOM      9  C   UNL A   1      27.179  28.794  23.178  1.00  0.00     0.102 C 
ATOM     10  C   UNL A   1      29.669  28.788  23.093  1.00  0.00     0.117 C 
ATOM     11  C   UNL A   1      27.207  27.454  23.913  1.00  0.00     0.018 C 
ATOM     12  C   UNL A   1      28.428  26.635  23.514  1.00  0.00     0.018 C 
BRANCH   8  13
ATOM     13  S   UNL A   1      28.431  31.213  23.313  1.00  0.00     0.213 S 
ATOM     14  O   UNL A   1      29.426  31.725  24.229  1.00  0.00    -0.212 OA
ATOM     15  O   UNL A   1      27.053  31.659  23.395  1.00  0.00    -0.212 OA
BRANCH  13  16
ATOM     16  C   UNL A   1      28.995  31.518  21.633  1.00  0.00     0.151 C 
ATOM     17  C   UNL A   1      27.885  31.444  20.601  1.00  0.00     0.022 C 
ENDBRANCH  13  16
ENDBRANCH   8  13
ENDBRANCH   5   7
ENDBRANCH   4   5
ENDBRANCH   3   4
ENDBRANCH   2   3
ENDBRANCH   1   2
BRANCH   1  18
ATOM     18  C   UNL A   1      31.953  29.970  25.916  1.00  0.00     0.202 C 
BRANCH  18  19
ATOM     19  C   UNL A   1      32.024  31.384  26.506  1.00  0.00     0.261 C 
BRANCH  19  20
ATOM     20  O   UNL A   1      32.767  31.431  27.740  1.00  0.00    -0.460 OA
BRANCH  20  21
ATOM     21  C   UNL A   1      33.660  32.448  27.804  1.00  0.00     0.338 C 
ATOM     22  O   UNL A   1      33.417  33.642  27.870  1.00  0.00    -0.246 OA
BRANCH  21  23
ATOM     23  C   UNL A   1      35.034  31.936  27.965  1.00  0.00     0.060 A 
ATOM     24  C   UNL A   1      35.180  30.548  28.079  1.00  0.00     0.016 A 
ATOM     25  C   UNL A   1      36.128  32.784  28.148  1.00  0.00     0.016 A 
ATOM     26  C   UNL A   1      36.397  30.007  28.476  1.00  0.00     0.010 A 
ATOM     27  C   UNL A   1      37.354  32.236  28.545  1.00  0.00     0.010 A 
ATOM     28  C   UNL A   1      37.475  30.851  28.773  1.00  0.00    -0.014 A 
BRANCH  28  29
ATOM     29  C   UNL A   1      38.638  30.288  29.504  1.00  0.00     0.031 A 
ATOM     30  C   UNL A   1      38.790  30.582  30.975  1.00  0.00     0.074 A 
ATOM     31  C   UNL A   1      39.497  29.451  28.896  1.00  0.00     0.049 A 
ATOM     32  N   UNL A   1      39.694  30.153  31.819  1.00  0.00    -0.248 NA
ATOM     33  C   UNL A   1      37.788  31.477  31.575  1.00  0.00     0.031 C 
ATOM     34  C   UNL A   1      39.432  29.042  27.494  1.00  0.00     0.029 A 
ATOM     35  N   UNL A   1      40.586  28.780  29.393  1.00  0.00    -0.354 N 
ATOM     36  C   UNL A   1      39.375  30.731  33.042  1.00  0.00     0.074 A 
ATOM     37  C   UNL A   1      38.220  31.574  32.822  1.00  0.00     0.031 C 
ATOM     38  C   UNL A   1      40.434  28.180  27.245  1.00  0.00     0.029 A 
ATOM     39  C   UNL A   1      41.226  28.002  28.460  1.00  0.00     0.049 A 
ATOM     40  H   UNL A   1      40.881  28.849  30.330  1.00  0.00     0.167 HD
ATOM     41  C   UNL A   1      39.977  30.569  34.245  1.00  0.00     0.031 A 
ATOM     42  C   UNL A   1      42.331  27.240  28.569  1.00  0.00     0.031 A 
ATOM     43  C   UNL A   1      41.129  29.735  34.468  1.00  0.00     0.049 A 
ATOM     44  C   UNL A   1      43.027  27.135  29.901  1.00  0.00     0.074 A 
ATOM     45  C   UNL A   1      41.803  29.494  35.653  1.00  0.00     0.029 A 
ATOM     46  N   UNL A   1      41.782  29.012  33.483  1.00  0.00    -0.354 N 
ATOM     47  N   UNL A   1      42.699  27.668  31.054  1.00  0.00    -0.248 NA
ATOM     48  C   UNL A   1      44.242  26.309  29.945  1.00  0.00     0.031 C 
ATOM     49  C   UNL A   1      42.902  28.677  35.372  1.00  0.00     0.029 A 
ATOM     50  C   UNL A   1      42.870  28.349  34.026  1.00  0.00     0.049 A 
ATOM     51  H   UNL A   1      41.512  28.974  32.537  1.00  0.00     0.167 HD
ATOM     52  C   UNL A   1      43.648  27.217  31.964  1.00  0.00     0.074 A 
ATOM     53  C   UNL A   1      44.548  26.349  31.233  1.00  0.00     0.031 C 
ATOM     54  C   UNL A   1      43.766  27.496  33.286  1.00  0.00     0.031 A 
BRANCH  41  55
ATOM     55  C   UNL A   1      39.418  31.341  35.410  1.00  0.00    -0.014 A 
ATOM     56  C   UNL A   1      39.890  32.623  35.736  1.00  0.00     0.009 A 
ATOM     57  C   UNL A   1      38.379  30.788  36.175  1.00  0.00     0.009 A 
ATOM     58  C   UNL A   1      39.361  33.316  36.829  1.00  0.00     0.001 A 
ATOM     59  C   UNL A   1      37.831  31.496  37.247  1.00  0.00     0.001 A 
ATOM     60  C   UNL A   1      38.329  32.754  37.579  1.00  0.00     0.000 A 
ENDBRANCH  41  55
BRANCH  42  61
ATOM     61  C   UNL A   1      42.865  26.521  27.382  1.00  0.00    -0.014 A 
ATOM     62  C   UNL A   1      42.474  25.203  27.102  1.00  0.00     0.009 A 
ATOM     63  C   UNL A   1      43.796  27.145  26.537  1.00  0.00     0.009 A 
ATOM     64  C   UNL A   1      43.031  24.514  26.021  1.00  0.00     0.001 A 
ATOM     65  C   UNL A   1      44.325  26.466  25.438  1.00  0.00     0.001 A 
ATOM     66  C   UNL A   1      43.951  25.147  25.188  1.00  0.00     0.000 A 
ENDBRANCH  42  61
BRANCH  54  67
ATOM     67  C   UNL A   1      44.889  26.826  34.031  1.00  0.00    -0.014 A 
ATOM     68  C   UNL A   1      46.169  27.400  34.100  1.00  0.00     0.009 A 
ATOM     69  C   UNL A   1      44.657  25.607  34.688  1.00  0.00     0.009 A 
ATOM     70  C   UNL A   1      47.205  26.739  34.765  1.00  0.00     0.001 A 
ATOM     71  C   UNL A   1      45.684  24.968  35.383  1.00  0.00     0.001 A 
ATOM     72  C   UNL A   1      46.961  25.526  35.408  1.00  0.00     0.000 A 
ENDBRANCH  54  67
ENDBRANCH  28  29
ENDBRANCH  21  23
ENDBRANCH  20  21
ENDBRANCH  19  20
ENDBRANCH  18  19
ENDBRANCH   1  18
TORSDOF 16
ENDMDL
MODEL 3
REMARK VINA RESULT:      -9.6      3.965      9.153
REMARK SMILES CCS(=O)(=O)N1CCC[C@@H](C(=O)OCCOCCOC(=O)c2ccc(-c3c4nc(c(-c5ccccc5)c5ccc([nH]5)c(-c5ccccc5)c5nc(c(-c6ccccc6)c6ccc3[nH]6)C=C5)C=C4)cc2)C1
REMARK SMILES IDX 16 1 15 2 14 3 13 4 11 5 12 6 10 7 6 8 7 9 70 10 8 11 9 12
REMARK SMILES IDX 3 13 4 14 5 15 2 16 1 17 17 18 18 19 19 20 20 21 21 22 22 23
REMARK SMILES IDX 23 24 69 25 24 26 68 27 25 28 26 29 27 30 62 31 28 32 67 33
REMARK SMILES IDX 61 34 63 35 29 36 66 37 60 38 59 39 30 41 52 42 37 43 51 44
REMARK SMILES IDX 38 45 41 46 50 47 64 48 39 49 40 50 49 52 65 53 42 54 31 55
REMARK SMILES IDX 32 56 36 57 33 58 35 59 34 60 53 61 54 62 58 63 55 64 57 65
REMARK SMILES IDX 56 66 43 67 44 68 48 69 45 70 47 71 46 72
REMARK H PARENT 63 40 41 51
REMARK Flexibility Score: inf
ROOT
ATOM      1  O   UNL A   1      31.795  29.902  26.730  1.00  0.00    -0.374 OA
ENDROOT
BRANCH   1   2
ATOM      2  C   UNL A   1      32.854  29.140  26.161  1.00  0.00     0.202 C 
BRANCH   2   3
ATOM      3  C   UNL A   1      32.932  29.052  24.634  1.00  0.00     0.261 C 
BRANCH   3   4
ATOM      4  O   UNL A   1      32.300  27.874  24.101  1.00  0.00    -0.463 OA
BRANCH   4   5
ATOM      5  C   UNL A   1      33.070  27.148  23.245  1.00  0.00     0.310 C 
ATOM      6  O   UNL A   1      33.482  27.545  22.163  1.00  0.00    -0.252 OA
BRANCH   5   7
ATOM      7  C   UNL A   1      33.314  25.740  23.739  1.00  0.00     0.114 C 
ATOM      8  N   UNL A   1      32.482  23.767  24.972  1.00  0.00    -0.201 NA
ATOM      9  C   UNL A   1      32.768  22.862  23.837  1.00  0.00     0.102 C 
ATOM     10  C   UNL A   1      32.175  25.165  24.579  1.00  0.00     0.117 C 
ATOM     11  C   UNL A   1      33.929  23.431  23.022  1.00  0.00     0.018 C 
ATOM     12  C   UNL A   1      33.623  24.844  22.542  1.00  0.00     0.018 C 
BRANCH   8  13
ATOM     13  S   UNL A   1      31.720  23.127  26.341  1.00  0.00     0.213 S 
ATOM     14  O   UNL A   1      30.539  22.427  25.889  1.00  0.00    -0.212 OA
ATOM     15  O   UNL A   1      31.618  24.189  27.324  1.00  0.00    -0.212 OA
BRANCH  13  16
ATOM     16  C   UNL A   1      32.890  21.917  26.976  1.00  0.00     0.151 C 
ATOM     17  C   UNL A   1      34.033  22.536  27.757  1.00  0.00     0.022 C 
ENDBRANCH  13  16
ENDBRANCH   8  13
ENDBRANCH   5   7
ENDBRANCH   4   5
ENDBRANCH   3   4
ENDBRANCH   2   3
ENDBRANCH   1   2
BRANCH   1  18
ATOM     18  C   UNL A   1      31.502  31.175  26.157  1.00  0.00     0.202 C 
BRANCH  18  19
ATOM     19  C   UNL A   1      31.408  32.376  27.106  1.00  0.00     0.261 C 
BRANCH  19  20
ATOM     20  O   UNL A   1      32.488  33.312  26.921  1.00  0.00    -0.460 OA
BRANCH  20  21
ATOM     21  C   UNL A   1      33.114  33.659  28.071  1.00  0.00     0.338 C 
ATOM     22  O   UNL A   1      32.655  34.311  28.995  1.00  0.00    -0.246 OA
BRANCH  21  23
ATOM     23  C   UNL A   1      34.426  32.993  28.182  1.00  0.00     0.060 A 
ATOM     24  C   UNL A   1      34.415  31.626  28.481  1.00  0.00     0.016 A 
ATOM     25  C   UNL A   1      35.627  33.703  28.142  1.00  0.00     0.016 A 
ATOM     26  C   UNL A   1      35.593  30.982  28.842  1.00  0.00     0.010 A 
ATOM     27  C   UNL A   1      36.813  33.052  28.503  1.00  0.00     0.010 A 
ATOM     28  C   UNL A   1      36.790  31.706  28.917  1.00  0.00    -0.014 A 
BRANCH  28  29
ATOM     29  C   UNL A   1      37.948  31.093  29.615  1.00  0.00     0.031 A 
ATOM     30  C   UNL A   1      38.173  31.406  31.073  1.00  0.00     0.074 A 
ATOM     31  C   UNL A   1      38.735  30.197  28.993  1.00  0.00     0.049 A 
ATOM     32  N   UNL A   1      39.085  30.944  31.891  1.00  0.00    -0.248 NA
ATOM     33  C   UNL A   1      37.247  32.369  31.691  1.00  0.00     0.031 C 
ATOM     34  C   UNL A   1      38.592  29.765  27.604  1.00  0.00     0.029 A 
ATOM     35  N   UNL A   1      39.804  29.476  29.463  1.00  0.00    -0.354 N 
ATOM     36  C   UNL A   1      38.847  31.564  33.112  1.00  0.00     0.074 A 
ATOM     37  C   UNL A   1      37.732  32.465  32.918  1.00  0.00     0.031 C 
ATOM     38  C   UNL A   1      39.534  28.844  27.336  1.00  0.00     0.029 A 
ATOM     39  C   UNL A   1      40.362  28.645  28.523  1.00  0.00     0.049 A 
ATOM     40  H   UNL A   1      40.138  29.547  30.386  1.00  0.00     0.167 HD
ATOM     41  C   UNL A   1      39.485  31.391  34.295  1.00  0.00     0.031 A 
ATOM     42  C   UNL A   1      41.426  27.825  28.607  1.00  0.00     0.031 A 
ATOM     43  C   UNL A   1      40.598  30.499  34.491  1.00  0.00     0.049 A 
ATOM     44  C   UNL A   1      42.167  27.707  29.913  1.00  0.00     0.074 A 
ATOM     45  C   UNL A   1      41.303  30.243  35.655  1.00  0.00     0.029 A 
ATOM     46  N   UNL A   1      41.170  29.720  33.498  1.00  0.00    -0.354 N 
ATOM     47  N   UNL A   1      41.915  28.280  31.065  1.00  0.00    -0.248 NA
ATOM     48  C   UNL A   1      43.335  26.814  29.929  1.00  0.00     0.031 C 
ATOM     49  C   UNL A   1      42.343  29.360  35.350  1.00  0.00     0.029 A 
ATOM     50  C   UNL A   1      42.240  29.008  34.013  1.00  0.00     0.049 A 
ATOM     51  H   UNL A   1      40.861  29.679  32.564  1.00  0.00     0.167 HD
ATOM     52  C   UNL A   1      42.873  27.794  31.948  1.00  0.00     0.074 A 
ATOM     53  C   UNL A   1      43.694  26.863  31.203  1.00  0.00     0.031 C 
ATOM     54  C   UNL A   1      43.057  28.092  33.259  1.00  0.00     0.031 A 
BRANCH  41  55
ATOM     55  C   UNL A   1      39.016  32.217  35.462  1.00  0.00    -0.014 A 
ATOM     56  C   UNL A   1      38.117  31.703  36.411  1.00  0.00     0.009 A 
ATOM     57  C   UNL A   1      39.507  33.521  35.632  1.00  0.00     0.009 A 
ATOM     58  C   UNL A   1      37.688  32.494  37.481  1.00  0.00     0.001 A 
ATOM     59  C   UNL A   1      39.101  34.297  36.720  1.00  0.00     0.001 A 
ATOM     60  C   UNL A   1      38.185  33.787  37.638  1.00  0.00     0.000 A 
ENDBRANCH  41  55
BRANCH  42  61
ATOM     61  C   UNL A   1      41.873  27.054  27.416  1.00  0.00    -0.014 A 
ATOM     62  C   UNL A   1      41.425  25.742  27.197  1.00  0.00     0.009 A 
ATOM     63  C   UNL A   1      42.778  27.620  26.504  1.00  0.00     0.009 A 
ATOM     64  C   UNL A   1      41.900  25.003  26.111  1.00  0.00     0.001 A 
ATOM     65  C   UNL A   1      43.225  26.892  25.401  1.00  0.00     0.001 A 
ATOM     66  C   UNL A   1      42.795  25.580  25.212  1.00  0.00     0.000 A 
ENDBRANCH  42  61
BRANCH  54  67
ATOM     67  C   UNL A   1      44.170  27.375  33.975  1.00  0.00    -0.014 A 
ATOM     68  C   UNL A   1      45.462  27.919  34.055  1.00  0.00     0.009 A 
ATOM     69  C   UNL A   1      43.917  26.139  34.592  1.00  0.00     0.009 A 
ATOM     70  C   UNL A   1      46.488  27.215  34.691  1.00  0.00     0.001 A 
ATOM     71  C   UNL A   1      44.934  25.456  35.261  1.00  0.00     0.001 A 
ATOM     72  C   UNL A   1      46.222  25.987  35.296  1.00  0.00     0.000 A 
ENDBRANCH  54  67
ENDBRANCH  28  29
ENDBRANCH  21  23
ENDBRANCH  20  21
ENDBRANCH  19  20
ENDBRANCH  18  19
ENDBRANCH   1  18
TORSDOF 16
ENDMDL
