MODEL 1
REMARK VINA RESULT:     -11.6      0.000      0.000
REMARK SMILES CC(C)CCn1nc(C(=O)OCCOCCOC(=O)c2ccc(-c3c4nc(c(-c5ccccc5)c5ccc([nH]5)c(-c5ccccc5)c5nc(c(-c6ccccc6)c6ccc3[nH]6)C=C5)C=C4)cc2)c2c1CCN(C(=O)[C@@H]1CCc3nn(C)c(=O)n3C1)C2
REMARK SMILES IDX 13 1 12 2 11 3 9 4 10 5 8 6 6 7 7 8 69 9 68 10 70 11 86 12
REMARK SMILES IDX 71 13 72 14 5 15 4 16 2 17 1 18 3 19 73 20 74 21 75 22 76 23
REMARK SMILES IDX 85 24 77 25 84 26 78 27 82 28 79 29 80 30 83 31 81 32 14 33
REMARK SMILES IDX 15 34 16 35 17 36 18 37 19 38 20 39 21 40 67 41 22 42 66 43
REMARK SMILES IDX 23 44 24 45 25 46 60 47 26 48 65 49 59 50 61 51 27 52 64 53
REMARK SMILES IDX 58 54 57 55 28 57 50 58 35 59 49 60 36 61 39 62 48 63 62 64
REMARK SMILES IDX 37 65 38 66 47 68 63 69 40 70 29 71 30 72 34 73 31 74 33 75
REMARK SMILES IDX 32 76 51 77 52 78 56 79 53 80 55 81 54 82 41 83 42 84 46 85
REMARK SMILES IDX 43 86 45 87 44 88
REMARK H PARENT 61 56 39 67
REMARK Flexibility Score: inf
ROOT
ATOM      1  C   UNL A   1      40.245  20.123  26.192  1.00  0.00     0.202 C 
ENDROOT
BRANCH   1   2
ATOM      2  C   UNL A   1      39.577  21.494  26.105  1.00  0.00     0.261 C 
BRANCH   2   3
ATOM      3  O   UNL A   1      38.371  21.404  25.336  1.00  0.00    -0.458 OA
BRANCH   3   4
ATOM      4  C   UNL A   1      37.374  22.280  25.671  1.00  0.00     0.359 C 
ATOM      5  O   UNL A   1      37.562  23.435  26.022  1.00  0.00    -0.244 OA
BRANCH   4   6
ATOM      6  C   UNL A   1      36.048  21.669  25.464  1.00  0.00     0.175 A 
ATOM      7  N   UNL A   1      34.584  20.198  24.936  1.00  0.00    -0.268 N 
ATOM      8  N   UNL A   1      35.903  20.360  25.147  1.00  0.00    -0.165 NA
ATOM      9  C   UNL A   1      33.930  21.386  24.978  1.00  0.00     0.046 A 
ATOM     10  C   UNL A   1      34.778  22.310  25.548  1.00  0.00     0.028 A 
ATOM     11  C   UNL A   1      32.622  21.730  24.391  1.00  0.00     0.078 C 
ATOM     12  C   UNL A   1      34.372  23.723  25.884  1.00  0.00     0.159 C 
ATOM     13  C   UNL A   1      32.684  23.254  24.161  1.00  0.00     0.126 C 
ATOM     14  N   UNL A   1      32.987  23.971  25.398  1.00  0.00    -0.338 N 
BRANCH   7  15
ATOM     15  C   UNL A   1      33.996  18.919  24.576  1.00  0.00     0.145 C 
BRANCH  15  16
ATOM     16  C   UNL A   1      34.949  17.759  24.281  1.00  0.00     0.027 C 
BRANCH  16  17
ATOM     17  C   UNL A   1      34.434  16.354  24.653  1.00  0.00    -0.016 C 
ATOM     18  C   UNL A   1      35.501  15.496  25.337  1.00  0.00     0.007 C 
ATOM     19  C   UNL A   1      33.225  16.491  25.585  1.00  0.00     0.007 C 
ENDBRANCH  16  17
ENDBRANCH  15  16
ENDBRANCH   7  15
BRANCH  14  20
ATOM     20  C   UNL A   1      32.187  24.868  26.081  1.00  0.00     0.227 C 
ATOM     21  O   UNL A   1      31.626  24.498  27.123  1.00  0.00    -0.274 OA
BRANCH  20  22
ATOM     22  C   UNL A   1      31.888  26.329  25.637  1.00  0.00     0.099 C 
ATOM     23  C   UNL A   1      30.418  26.690  25.387  1.00  0.00     0.023 C 
ATOM     24  C   UNL A   1      32.812  26.975  24.610  1.00  0.00     0.142 C 
ATOM     25  C   UNL A   1      29.933  26.496  23.956  1.00  0.00     0.078 C 
ATOM     26  N   UNL A   1      32.277  26.931  23.268  1.00  0.00    -0.278 N 
ATOM     27  C   UNL A   1      31.009  26.633  22.919  1.00  0.00     0.133 A 
ATOM     28  C   UNL A   1      33.043  26.723  22.145  1.00  0.00     0.345 A 
ATOM     29  N   UNL A   1      30.853  26.274  21.678  1.00  0.00    -0.155 NA
ATOM     30  N   UNL A   1      32.133  26.314  21.161  1.00  0.00    -0.216 N 
ATOM     31  O   UNL A   1      34.262  26.712  22.080  1.00  0.00    -0.246 OA
ATOM     32  C   UNL A   1      32.508  25.568  19.987  1.00  0.00     0.179 C 
ENDBRANCH  20  22
ENDBRANCH  14  20
ENDBRANCH   4   6
ENDBRANCH   3   4
ENDBRANCH   2   3
ENDBRANCH   1   2
BRANCH   1  33
ATOM     33  O   UNL A   1      41.563  20.025  25.645  1.00  0.00    -0.374 OA
BRANCH  33  34
ATOM     34  C   UNL A   1      42.653  20.633  26.330  1.00  0.00     0.202 C 
BRANCH  34  35
ATOM     35  C   UNL A   1      43.449  21.686  25.580  1.00  0.00     0.261 C 
BRANCH  35  36
ATOM     36  O   UNL A   1      42.614  22.748  25.143  1.00  0.00    -0.460 OA
BRANCH  36  37
ATOM     37  C   UNL A   1      43.168  23.976  25.266  1.00  0.00     0.338 C 
ATOM     38  O   UNL A   1      44.206  24.375  24.779  1.00  0.00    -0.246 OA
BRANCH  37  39
ATOM     39  C   UNL A   1      42.394  24.714  26.266  1.00  0.00     0.060 A 
ATOM     40  C   UNL A   1      41.436  25.599  25.771  1.00  0.00     0.016 A 
ATOM     41  C   UNL A   1      42.856  24.774  27.589  1.00  0.00     0.016 A 
ATOM     42  C   UNL A   1      41.135  26.705  26.527  1.00  0.00     0.010 A 
ATOM     43  C   UNL A   1      42.565  25.881  28.337  1.00  0.00     0.010 A 
ATOM     44  C   UNL A   1      41.790  26.875  27.750  1.00  0.00    -0.014 A 
BRANCH  44  45
ATOM     45  C   UNL A   1      41.569  28.098  28.474  1.00  0.00     0.031 A 
ATOM     46  C   UNL A   1      42.614  29.102  28.201  1.00  0.00     0.074 A 
ATOM     47  C   UNL A   1      40.470  28.304  29.219  1.00  0.00     0.049 A 
ATOM     48  N   UNL A   1      43.510  29.534  29.020  1.00  0.00    -0.248 NA
ATOM     49  C   UNL A   1      42.809  29.527  26.803  1.00  0.00     0.031 C 
ATOM     50  C   UNL A   1      39.257  27.489  29.319  1.00  0.00     0.029 A 
ATOM     51  N   UNL A   1      40.165  29.387  29.975  1.00  0.00    -0.354 N 
ATOM     52  C   UNL A   1      44.267  30.439  28.292  1.00  0.00     0.074 A 
ATOM     53  C   UNL A   1      43.925  30.245  26.906  1.00  0.00     0.031 C 
ATOM     54  C   UNL A   1      38.269  28.234  29.870  1.00  0.00     0.029 A 
ATOM     55  C   UNL A   1      38.818  29.520  30.271  1.00  0.00     0.049 A 
ATOM     56  H   UNL A   1      40.845  30.027  30.288  1.00  0.00     0.167 HD
ATOM     57  C   UNL A   1      44.906  31.470  28.905  1.00  0.00     0.031 A 
ATOM     58  C   UNL A   1      38.212  30.650  30.720  1.00  0.00     0.031 A 
ATOM     59  C   UNL A   1      45.043  31.251  30.321  1.00  0.00     0.049 A 
ATOM     60  C   UNL A   1      39.276  31.536  31.261  1.00  0.00     0.074 A 
ATOM     61  C   UNL A   1      45.637  30.261  31.082  1.00  0.00     0.029 A 
ATOM     62  N   UNL A   1      44.142  31.876  31.151  1.00  0.00    -0.354 N 
ATOM     63  N   UNL A   1      39.960  31.253  32.334  1.00  0.00    -0.248 NA
ATOM     64  C   UNL A   1      39.921  32.464  30.340  1.00  0.00     0.031 C 
ATOM     65  C   UNL A   1      44.720  30.020  32.146  1.00  0.00     0.029 A 
ATOM     66  C   UNL A   1      43.669  30.932  32.029  1.00  0.00     0.049 A 
ATOM     67  H   UNL A   1      43.884  32.826  31.122  1.00  0.00     0.167 HD
ATOM     68  C   UNL A   1      41.270  31.592  32.020  1.00  0.00     0.074 A 
ATOM     69  C   UNL A   1      41.172  32.409  30.808  1.00  0.00     0.031 C 
ATOM     70  C   UNL A   1      42.331  30.935  32.577  1.00  0.00     0.031 A 
BRANCH  57  71
ATOM     71  C   UNL A   1      45.001  32.830  28.274  1.00  0.00    -0.014 A 
ATOM     72  C   UNL A   1      43.874  33.663  28.277  1.00  0.00     0.009 A 
ATOM     73  C   UNL A   1      46.075  33.212  27.442  1.00  0.00     0.009 A 
ATOM     74  C   UNL A   1      43.810  34.794  27.454  1.00  0.00     0.001 A 
ATOM     75  C   UNL A   1      46.033  34.362  26.653  1.00  0.00     0.001 A 
ATOM     76  C   UNL A   1      44.887  35.140  26.642  1.00  0.00     0.000 A 
ENDBRANCH  57  71
BRANCH  58  77
ATOM     77  C   UNL A   1      36.854  31.146  30.390  1.00  0.00    -0.014 A 
ATOM     78  C   UNL A   1      36.019  31.688  31.380  1.00  0.00     0.009 A 
ATOM     79  C   UNL A   1      36.469  31.330  29.048  1.00  0.00     0.009 A 
ATOM     80  C   UNL A   1      34.865  32.412  31.038  1.00  0.00     0.001 A 
ATOM     81  C   UNL A   1      35.318  32.047  28.706  1.00  0.00     0.001 A 
ATOM     82  C   UNL A   1      34.522  32.601  29.701  1.00  0.00     0.000 A 
ENDBRANCH  58  77
BRANCH  70  83
ATOM     83  C   UNL A   1      42.058  29.943  33.687  1.00  0.00    -0.014 A 
ATOM     84  C   UNL A   1      41.695  28.603  33.456  1.00  0.00     0.009 A 
ATOM     85  C   UNL A   1      42.345  30.330  35.004  1.00  0.00     0.009 A 
ATOM     86  C   UNL A   1      41.600  27.691  34.514  1.00  0.00     0.001 A 
ATOM     87  C   UNL A   1      42.271  29.415  36.056  1.00  0.00     0.001 A 
ATOM     88  C   UNL A   1      41.893  28.097  35.813  1.00  0.00     0.000 A 
ENDBRANCH  70  83
ENDBRANCH  44  45
ENDBRANCH  37  39
ENDBRANCH  36  37
ENDBRANCH  35  36
ENDBRANCH  34  35
ENDBRANCH  33  34
ENDBRANCH   1  33
TORSDOF 19
ENDMDL
MODEL 2
REMARK VINA RESULT:     -11.5      1.083      2.104
REMARK SMILES CC(C)CCn1nc(C(=O)OCCOCCOC(=O)c2ccc(-c3c4nc(c(-c5ccccc5)c5ccc([nH]5)c(-c5ccccc5)c5nc(c(-c6ccccc6)c6ccc3[nH]6)C=C5)C=C4)cc2)c2c1CCN(C(=O)[C@@H]1CCc3nn(C)c(=O)n3C1)C2
REMARK SMILES IDX 13 1 12 2 11 3 9 4 10 5 8 6 6 7 7 8 69 9 68 10 70 11 86 12
REMARK SMILES IDX 71 13 72 14 5 15 4 16 2 17 1 18 3 19 73 20 74 21 75 22 76 23
REMARK SMILES IDX 85 24 77 25 84 26 78 27 82 28 79 29 80 30 83 31 81 32 14 33
REMARK SMILES IDX 15 34 16 35 17 36 18 37 19 38 20 39 21 40 67 41 22 42 66 43
REMARK SMILES IDX 23 44 24 45 25 46 60 47 26 48 65 49 59 50 61 51 27 52 64 53
REMARK SMILES IDX 58 54 57 55 28 57 50 58 35 59 49 60 36 61 39 62 48 63 62 64
REMARK SMILES IDX 37 65 38 66 47 68 63 69 40 70 29 71 30 72 34 73 31 74 33 75
REMARK SMILES IDX 32 76 51 77 52 78 56 79 53 80 55 81 54 82 41 83 42 84 46 85
REMARK SMILES IDX 43 86 45 87 44 88
REMARK H PARENT 61 56 39 67
REMARK Flexibility Score: inf
ROOT
ATOM      1  C   UNL A   1      39.426  19.894  25.829  1.00  0.00     0.202 C 
ENDROOT
BRANCH   1   2
ATOM      2  C   UNL A   1      38.854  21.298  25.639  1.00  0.00     0.261 C 
BRANCH   2   3
ATOM      3  O   UNL A   1      37.594  21.227  24.958  1.00  0.00    -0.458 OA
BRANCH   3   4
ATOM      4  C   UNL A   1      36.757  22.298  25.123  1.00  0.00     0.359 C 
ATOM      5  O   UNL A   1      37.125  23.413  25.459  1.00  0.00    -0.244 OA
BRANCH   4   6
ATOM      6  C   UNL A   1      35.375  21.945  24.752  1.00  0.00     0.175 A 
ATOM      7  N   UNL A   1      33.611  20.756  24.512  1.00  0.00    -0.268 N 
ATOM      8  N   UNL A   1      34.817  20.763  25.107  1.00  0.00    -0.165 NA
ATOM      9  C   UNL A   1      33.459  21.827  23.694  1.00  0.00     0.046 A 
ATOM     10  C   UNL A   1      34.453  22.731  24.002  1.00  0.00     0.028 A 
ATOM     11  C   UNL A   1      32.533  21.987  22.558  1.00  0.00     0.078 C 
ATOM     12  C   UNL A   1      34.548  24.108  23.394  1.00  0.00     0.159 C 
ATOM     13  C   UNL A   1      33.211  23.024  21.641  1.00  0.00     0.126 C 
ATOM     14  N   UNL A   1      33.495  24.268  22.354  1.00  0.00    -0.338 N 
BRANCH   7  15
ATOM     15  C   UNL A   1      32.674  19.653  24.645  1.00  0.00     0.145 C 
BRANCH  15  16
ATOM     16  C   UNL A   1      32.672  18.587  23.547  1.00  0.00     0.027 C 
BRANCH  16  17
ATOM     17  C   UNL A   1      32.938  17.141  24.012  1.00  0.00    -0.016 C 
ATOM     18  C   UNL A   1      34.194  16.539  23.377  1.00  0.00     0.007 C 
ATOM     19  C   UNL A   1      33.086  17.122  25.537  1.00  0.00     0.007 C 
ENDBRANCH  16  17
ENDBRANCH  15  16
ENDBRANCH   7  15
BRANCH  14  20
ATOM     20  C   UNL A   1      32.969  25.524  22.121  1.00  0.00     0.227 C 
ATOM     21  O   UNL A   1      33.361  26.164  21.134  1.00  0.00    -0.274 OA
BRANCH  20  22
ATOM     22  C   UNL A   1      31.928  26.247  23.024  1.00  0.00     0.099 C 
ATOM     23  C   UNL A   1      32.448  27.398  23.896  1.00  0.00     0.023 C 
ATOM     24  C   UNL A   1      30.899  25.398  23.762  1.00  0.00     0.142 C 
ATOM     25  C   UNL A   1      32.907  27.002  25.293  1.00  0.00     0.078 C 
ATOM     26  N   UNL A   1      31.259  25.153  25.141  1.00  0.00    -0.278 N 
ATOM     27  C   UNL A   1      32.217  25.789  25.845  1.00  0.00     0.133 A 
ATOM     28  C   UNL A   1      31.030  23.962  25.791  1.00  0.00     0.345 A 
ATOM     29  N   UNL A   1      32.628  25.156  26.906  1.00  0.00    -0.155 NA
ATOM     30  N   UNL A   1      31.895  23.985  26.894  1.00  0.00    -0.216 N 
ATOM     31  O   UNL A   1      30.365  23.023  25.388  1.00  0.00    -0.246 OA
ATOM     32  C   UNL A   1      32.331  22.802  27.591  1.00  0.00     0.179 C 
ENDBRANCH  20  22
ENDBRANCH  14  20
ENDBRANCH   4   6
ENDBRANCH   3   4
ENDBRANCH   2   3
ENDBRANCH   1   2
BRANCH   1  33
ATOM     33  O   UNL A   1      40.785  19.705  25.429  1.00  0.00    -0.374 OA
BRANCH  33  34
ATOM     34  C   UNL A   1      41.834  20.053  26.327  1.00  0.00     0.202 C 
BRANCH  34  35
ATOM     35  C   UNL A   1      42.857  21.068  25.848  1.00  0.00     0.261 C 
BRANCH  35  36
ATOM     36  O   UNL A   1      42.226  22.247  25.370  1.00  0.00    -0.460 OA
BRANCH  36  37
ATOM     37  C   UNL A   1      42.939  23.379  25.575  1.00  0.00     0.338 C 
ATOM     38  O   UNL A   1      44.037  23.655  25.136  1.00  0.00    -0.246 OA
BRANCH  37  39
ATOM     39  C   UNL A   1      42.241  24.164  26.596  1.00  0.00     0.060 A 
ATOM     40  C   UNL A   1      41.240  25.019  26.134  1.00  0.00     0.016 A 
ATOM     41  C   UNL A   1      42.807  24.292  27.872  1.00  0.00     0.016 A 
ATOM     42  C   UNL A   1      40.992  26.161  26.855  1.00  0.00     0.010 A 
ATOM     43  C   UNL A   1      42.567  25.435  28.585  1.00  0.00     0.010 A 
ATOM     44  C   UNL A   1      41.742  26.394  28.012  1.00  0.00    -0.014 A 
BRANCH  44  45
ATOM     45  C   UNL A   1      41.569  27.653  28.690  1.00  0.00     0.031 A 
ATOM     46  C   UNL A   1      42.637  28.613  28.356  1.00  0.00     0.074 A 
ATOM     47  C   UNL A   1      40.491  27.921  29.445  1.00  0.00     0.049 A 
ATOM     48  N   UNL A   1      43.560  29.051  29.141  1.00  0.00    -0.248 NA
ATOM     49  C   UNL A   1      42.817  28.975  26.939  1.00  0.00     0.031 C 
ATOM     50  C   UNL A   1      39.258  27.146  29.600  1.00  0.00     0.029 A 
ATOM     51  N   UNL A   1      40.232  29.042  30.161  1.00  0.00    -0.354 N 
ATOM     52  C   UNL A   1      44.329  29.903  28.363  1.00  0.00     0.074 A 
ATOM     53  C   UNL A   1      43.955  29.664  26.993  1.00  0.00     0.031 C 
ATOM     54  C   UNL A   1      38.302  27.942  30.138  1.00  0.00     0.029 A 
ATOM     55  C   UNL A   1      38.894  29.227  30.476  1.00  0.00     0.049 A 
ATOM     56  H   UNL A   1      40.935  29.674  30.435  1.00  0.00     0.167 HD
ATOM     57  C   UNL A   1      45.009  30.939  28.921  1.00  0.00     0.031 A 
ATOM     58  C   UNL A   1      38.330  30.391  30.888  1.00  0.00     0.031 A 
ATOM     59  C   UNL A   1      45.167  30.773  30.343  1.00  0.00     0.049 A 
ATOM     60  C   UNL A   1      39.430  31.267  31.373  1.00  0.00     0.074 A 
ATOM     61  C   UNL A   1      45.746  29.798  31.133  1.00  0.00     0.029 A 
ATOM     62  N   UNL A   1      44.300  31.459  31.162  1.00  0.00    -0.354 N 
ATOM     63  N   UNL A   1      40.126  31.007  32.444  1.00  0.00    -0.248 NA
ATOM     64  C   UNL A   1      40.083  32.137  30.403  1.00  0.00     0.031 C 
ATOM     65  C   UNL A   1      44.844  29.628  32.222  1.00  0.00     0.029 A 
ATOM     66  C   UNL A   1      43.817  30.565  32.086  1.00  0.00     0.049 A 
ATOM     67  H   UNL A   1      44.069  32.414  31.099  1.00  0.00     0.167 HD
ATOM     68  C   UNL A   1      41.438  31.294  32.094  1.00  0.00     0.074 A 
ATOM     69  C   UNL A   1      41.341  32.064  30.851  1.00  0.00     0.031 C 
ATOM     70  C   UNL A   1      42.490  30.629  32.658  1.00  0.00     0.031 A 
BRANCH  57  71
ATOM     71  C   UNL A   1      45.131  32.269  28.233  1.00  0.00    -0.014 A 
ATOM     72  C   UNL A   1      43.983  33.053  28.057  1.00  0.00     0.009 A 
ATOM     73  C   UNL A   1      46.283  32.654  27.516  1.00  0.00     0.009 A 
ATOM     74  C   UNL A   1      43.979  34.138  27.172  1.00  0.00     0.001 A 
ATOM     75  C   UNL A   1      46.296  33.761  26.667  1.00  0.00     0.001 A 
ATOM     76  C   UNL A   1      45.133  34.489  26.476  1.00  0.00     0.000 A 
ENDBRANCH  57  71
BRANCH  58  77
ATOM     77  C   UNL A   1      36.980  30.913  30.562  1.00  0.00    -0.014 A 
ATOM     78  C   UNL A   1      36.242  31.652  31.500  1.00  0.00     0.009 A 
ATOM     79  C   UNL A   1      36.517  30.911  29.232  1.00  0.00     0.009 A 
ATOM     80  C   UNL A   1      35.108  32.384  31.115  1.00  0.00     0.001 A 
ATOM     81  C   UNL A   1      35.385  31.636  28.848  1.00  0.00     0.001 A 
ATOM     82  C   UNL A   1      34.688  32.385  29.788  1.00  0.00     0.000 A 
ENDBRANCH  58  77
BRANCH  70  83
ATOM     83  C   UNL A   1      42.210  29.692  33.813  1.00  0.00    -0.014 A 
ATOM     84  C   UNL A   1      41.879  28.334  33.645  1.00  0.00     0.009 A 
ATOM     85  C   UNL A   1      42.458  30.153  35.113  1.00  0.00     0.009 A 
ATOM     86  C   UNL A   1      41.776  27.477  34.747  1.00  0.00     0.001 A 
ATOM     87  C   UNL A   1      42.376  29.294  36.211  1.00  0.00     0.001 A 
ATOM     88  C   UNL A   1      42.030  27.958  36.030  1.00  0.00     0.000 A 
ENDBRANCH  70  83
ENDBRANCH  44  45
ENDBRANCH  37  39
ENDBRANCH  36  37
ENDBRANCH  35  36
ENDBRANCH  34  35
ENDBRANCH  33  34
ENDBRANCH   1  33
TORSDOF 19
ENDMDL
MODEL 3
REMARK VINA RESULT:     -11.3      1.564      2.503
REMARK SMILES CC(C)CCn1nc(C(=O)OCCOCCOC(=O)c2ccc(-c3c4nc(c(-c5ccccc5)c5ccc([nH]5)c(-c5ccccc5)c5nc(c(-c6ccccc6)c6ccc3[nH]6)C=C5)C=C4)cc2)c2c1CCN(C(=O)[C@@H]1CCc3nn(C)c(=O)n3C1)C2
REMARK SMILES IDX 13 1 12 2 11 3 9 4 10 5 8 6 6 7 7 8 69 9 68 10 70 11 86 12
REMARK SMILES IDX 71 13 72 14 5 15 4 16 2 17 1 18 3 19 73 20 74 21 75 22 76 23
REMARK SMILES IDX 85 24 77 25 84 26 78 27 82 28 79 29 80 30 83 31 81 32 14 33
REMARK SMILES IDX 15 34 16 35 17 36 18 37 19 38 20 39 21 40 67 41 22 42 66 43
REMARK SMILES IDX 23 44 24 45 25 46 60 47 26 48 65 49 59 50 61 51 27 52 64 53
REMARK SMILES IDX 58 54 57 55 28 57 50 58 35 59 49 60 36 61 39 62 48 63 62 64
REMARK SMILES IDX 37 65 38 66 47 68 63 69 40 70 29 71 30 72 34 73 31 74 33 75
REMARK SMILES IDX 32 76 51 77 52 78 56 79 53 80 55 81 54 82 41 83 42 84 46 85
REMARK SMILES IDX 43 86 45 87 44 88
REMARK H PARENT 61 56 39 67
REMARK Flexibility Score: inf
ROOT
ATOM      1  C   UNL A   1      39.499  20.821  25.928  1.00  0.00     0.202 C 
ENDROOT
BRANCH   1   2
ATOM      2  C   UNL A   1      38.331  21.356  25.102  1.00  0.00     0.261 C 
BRANCH   2   3
ATOM      3  O   UNL A   1      37.142  21.396  25.901  1.00  0.00    -0.458 OA
BRANCH   3   4
ATOM      4  C   UNL A   1      36.329  22.482  25.720  1.00  0.00     0.359 C 
ATOM      5  O   UNL A   1      36.673  23.639  25.910  1.00  0.00    -0.244 OA
BRANCH   4   6
ATOM      6  C   UNL A   1      35.019  22.073  25.183  1.00  0.00     0.175 A 
ATOM      7  N   UNL A   1      33.338  20.818  24.750  1.00  0.00    -0.268 N 
ATOM      8  N   UNL A   1      34.454  20.882  25.497  1.00  0.00    -0.165 NA
ATOM      9  C   UNL A   1      33.264  21.862  23.887  1.00  0.00     0.046 A 
ATOM     10  C   UNL A   1      34.181  22.806  24.294  1.00  0.00     0.028 A 
ATOM     11  C   UNL A   1      32.492  21.960  22.635  1.00  0.00     0.078 C 
ATOM     12  C   UNL A   1      34.314  24.169  23.663  1.00  0.00     0.159 C 
ATOM     13  C   UNL A   1      33.253  22.995  21.783  1.00  0.00     0.126 C 
ATOM     14  N   UNL A   1      33.403  24.266  22.489  1.00  0.00    -0.338 N 
BRANCH   7  15
ATOM     15  C   UNL A   1      32.425  19.688  24.793  1.00  0.00     0.145 C 
BRANCH  15  16
ATOM     16  C   UNL A   1      33.032  18.293  24.956  1.00  0.00     0.027 C 
BRANCH  16  17
ATOM     17  C   UNL A   1      32.997  17.393  23.705  1.00  0.00    -0.016 C 
ATOM     18  C   UNL A   1      32.518  18.138  22.456  1.00  0.00     0.007 C 
ATOM     19  C   UNL A   1      34.399  16.830  23.450  1.00  0.00     0.007 C 
ENDBRANCH  16  17
ENDBRANCH  15  16
ENDBRANCH   7  15
BRANCH  14  20
ATOM     20  C   UNL A   1      32.874  25.497  22.150  1.00  0.00     0.227 C 
ATOM     21  O   UNL A   1      33.613  26.342  21.623  1.00  0.00    -0.274 OA
BRANCH  20  22
ATOM     22  C   UNL A   1      31.408  25.950  22.406  1.00  0.00     0.099 C 
ATOM     23  C   UNL A   1      31.018  27.349  21.910  1.00  0.00     0.023 C 
ATOM     24  C   UNL A   1      30.782  25.636  23.761  1.00  0.00     0.142 C 
ATOM     25  C   UNL A   1      31.204  28.475  22.918  1.00  0.00     0.078 C 
ATOM     26  N   UNL A   1      30.816  26.761  24.669  1.00  0.00    -0.278 N 
ATOM     27  C   UNL A   1      31.089  28.042  24.350  1.00  0.00     0.133 A 
ATOM     28  C   UNL A   1      31.041  26.645  26.022  1.00  0.00     0.345 A 
ATOM     29  N   UNL A   1      31.447  28.791  25.353  1.00  0.00    -0.155 NA
ATOM     30  N   UNL A   1      31.433  27.927  26.430  1.00  0.00    -0.216 N 
ATOM     31  O   UNL A   1      31.077  25.614  26.674  1.00  0.00    -0.246 OA
ATOM     32  C   UNL A   1      32.187  28.187  27.630  1.00  0.00     0.179 C 
ENDBRANCH  20  22
ENDBRANCH  14  20
ENDBRANCH   4   6
ENDBRANCH   3   4
ENDBRANCH   2   3
ENDBRANCH   1   2
BRANCH   1  33
ATOM     33  O   UNL A   1      39.956  21.657  26.994  1.00  0.00    -0.374 OA
BRANCH  33  34
ATOM     34  C   UNL A   1      41.335  21.653  27.346  1.00  0.00     0.202 C 
BRANCH  34  35
ATOM     35  C   UNL A   1      42.317  22.211  26.330  1.00  0.00     0.261 C 
BRANCH  35  36
ATOM     36  O   UNL A   1      42.283  23.629  26.307  1.00  0.00    -0.460 OA
BRANCH  36  37
ATOM     37  C   UNL A   1      43.151  24.218  27.162  1.00  0.00     0.338 C 
ATOM     38  O   UNL A   1      44.322  23.946  27.337  1.00  0.00    -0.246 OA
BRANCH  37  39
ATOM     39  C   UNL A   1      42.387  25.136  28.010  1.00  0.00     0.060 A 
ATOM     40  C   UNL A   1      41.207  25.640  27.461  1.00  0.00     0.016 A 
ATOM     41  C   UNL A   1      43.005  25.722  29.124  1.00  0.00     0.016 A 
ATOM     42  C   UNL A   1      40.791  26.882  27.870  1.00  0.00     0.010 A 
ATOM     43  C   UNL A   1      42.597  26.965  29.524  1.00  0.00     0.010 A 
ATOM     44  C   UNL A   1      41.560  27.564  28.819  1.00  0.00    -0.014 A 
BRANCH  44  45
ATOM     45  C   UNL A   1      41.192  28.916  29.145  1.00  0.00     0.031 A 
ATOM     46  C   UNL A   1      42.224  29.887  28.736  1.00  0.00     0.074 A 
ATOM     47  C   UNL A   1      39.992  29.230  29.664  1.00  0.00     0.049 A 
ATOM     48  N   UNL A   1      42.980  30.588  29.509  1.00  0.00    -0.248 NA
ATOM     49  C   UNL A   1      42.594  29.936  27.311  1.00  0.00     0.031 C 
ATOM     50  C   UNL A   1      38.811  28.382  29.834  1.00  0.00     0.029 A 
ATOM     51  N   UNL A   1      39.543  30.449  30.049  1.00  0.00    -0.354 N 
ATOM     52  C   UNL A   1      43.795  31.320  28.659  1.00  0.00     0.074 A 
ATOM     53  C   UNL A   1      43.656  30.738  27.348  1.00  0.00     0.031 C 
ATOM     54  C   UNL A   1      37.727  29.170  30.033  1.00  0.00     0.029 A 
ATOM     55  C   UNL A   1      38.164  30.555  30.129  1.00  0.00     0.049 A 
ATOM     56  H   UNL A   1      40.147  31.199  30.254  1.00  0.00     0.167 HD
ATOM     57  C   UNL A   1      44.301  32.523  29.037  1.00  0.00     0.031 A 
ATOM     58  C   UNL A   1      37.457  31.714  30.171  1.00  0.00     0.031 A 
ATOM     59  C   UNL A   1      44.249  32.702  30.465  1.00  0.00     0.049 A 
ATOM     60  C   UNL A   1      38.400  32.791  30.574  1.00  0.00     0.074 A 
ATOM     61  C   UNL A   1      44.769  32.000  31.536  1.00  0.00     0.029 A 
ATOM     62  N   UNL A   1      43.216  33.457  30.973  1.00  0.00    -0.354 N 
ATOM     63  N   UNL A   1      38.939  32.858  31.758  1.00  0.00    -0.248 NA
ATOM     64  C   UNL A   1      39.130  33.484  29.518  1.00  0.00     0.031 C 
ATOM     65  C   UNL A   1      43.724  31.984  32.504  1.00  0.00     0.029 A 
ATOM     66  C   UNL A   1      42.665  32.749  32.011  1.00  0.00     0.049 A 
ATOM     67  H   UNL A   1      42.928  34.342  30.652  1.00  0.00     0.167 HD
ATOM     68  C   UNL A   1      40.265  33.198  31.527  1.00  0.00     0.074 A 
ATOM     69  C   UNL A   1      40.305  33.651  30.135  1.00  0.00     0.031 C 
ATOM     70  C   UNL A   1      41.264  32.797  32.370  1.00  0.00     0.031 A 
BRANCH  57  71
ATOM     71  C   UNL A   1      44.430  33.668  28.072  1.00  0.00    -0.014 A 
ATOM     72  C   UNL A   1      45.637  34.378  28.016  1.00  0.00     0.009 A 
ATOM     73  C   UNL A   1      43.321  34.240  27.413  1.00  0.00     0.009 A 
ATOM     74  C   UNL A   1      45.715  35.619  27.372  1.00  0.00     0.001 A 
ATOM     75  C   UNL A   1      43.405  35.454  26.733  1.00  0.00     0.001 A 
ATOM     76  C   UNL A   1      44.600  36.157  26.735  1.00  0.00     0.000 A 
ENDBRANCH  57  71
BRANCH  58  77
ATOM     77  C   UNL A   1      36.140  31.999  29.552  1.00  0.00    -0.014 A 
ATOM     78  C   UNL A   1      35.391  33.126  29.927  1.00  0.00     0.009 A 
ATOM     79  C   UNL A   1      35.728  31.303  28.399  1.00  0.00     0.009 A 
ATOM     80  C   UNL A   1      34.298  33.557  29.159  1.00  0.00     0.001 A 
ATOM     81  C   UNL A   1      34.636  31.729  27.635  1.00  0.00     0.001 A 
ATOM     82  C   UNL A   1      33.929  32.866  28.008  1.00  0.00     0.000 A 
ENDBRANCH  58  77
BRANCH  70  83
ATOM     83  C   UNL A   1      40.878  32.120  33.667  1.00  0.00    -0.014 A 
ATOM     84  C   UNL A   1      40.544  30.757  33.760  1.00  0.00     0.009 A 
ATOM     85  C   UNL A   1      41.028  32.845  34.859  1.00  0.00     0.009 A 
ATOM     86  C   UNL A   1      40.340  30.149  35.005  1.00  0.00     0.001 A 
ATOM     87  C   UNL A   1      40.845  32.234  36.101  1.00  0.00     0.001 A 
ATOM     88  C   UNL A   1      40.496  30.888  36.175  1.00  0.00     0.000 A 
ENDBRANCH  70  83
ENDBRANCH  44  45
ENDBRANCH  37  39
ENDBRANCH  36  37
ENDBRANCH  35  36
ENDBRANCH  34  35
ENDBRANCH  33  34
ENDBRANCH   1  33
TORSDOF 19
ENDMDL
