MODEL 1
REMARK VINA RESULT:     -10.6      0.000      0.000
REMARK SMILES C=CC[C@@]1(C(=O)OCCOCCOC(=O)c2ccc(-c3c4nc(c(-c5ccccc5)c5ccc([nH]5)c(-c5ccccc5)c5nc(c(-c6ccccc6)c6ccc3[nH]6)C=C5)C=C4)cc2)CCCN(C(=O)c2ccc3c(c2)OCO3)C1
REMARK SMILES IDX 10 1 9 2 8 3 7 4 5 5 6 6 4 7 64 8 79 9 65 10 67 11 66 12
REMARK SMILES IDX 3 13 2 14 1 15 68 16 69 17 70 18 71 19 75 20 72 21 74 22
REMARK SMILES IDX 73 23 76 24 78 25 77 26 11 27 12 28 13 29 14 30 15 31 16 32
REMARK SMILES IDX 17 33 63 34 18 35 62 36 19 37 20 38 21 39 56 40 22 41 61 42
REMARK SMILES IDX 55 43 57 44 23 45 60 46 54 47 53 48 24 50 46 51 31 52 45 53
REMARK SMILES IDX 32 54 35 55 44 56 58 57 33 58 34 59 43 61 59 62 36 63 25 64
REMARK SMILES IDX 26 65 30 66 27 67 29 68 28 69 47 70 48 71 52 72 49 73 51 74
REMARK SMILES IDX 50 75 37 76 38 77 42 78 39 79 41 80 40 81
REMARK H PARENT 57 49 35 60
REMARK Flexibility Score: inf
ROOT
ATOM      1  O   UNL A   1      38.687  21.489  25.463  1.00  0.00    -0.374 OA
ENDROOT
BRANCH   1   2
ATOM      2  C   UNL A   1      37.451  22.175  25.478  1.00  0.00     0.202 C 
BRANCH   2   3
ATOM      3  C   UNL A   1      36.212  21.264  25.342  1.00  0.00     0.261 C 
BRANCH   3   4
ATOM      4  O   UNL A   1      34.988  21.879  24.876  1.00  0.00    -0.463 OA
BRANCH   4   5
ATOM      5  C   UNL A   1      33.908  21.695  25.690  1.00  0.00     0.314 C 
ATOM      6  O   UNL A   1      33.995  21.705  26.913  1.00  0.00    -0.252 OA
BRANCH   5   7
ATOM      7  C   UNL A   1      32.574  21.436  24.947  1.00  0.00     0.089 C 
ATOM      8  C   UNL A   1      32.589  21.669  23.410  1.00  0.00     0.023 C 
ATOM      9  C   UNL A   1      31.432  22.254  25.628  1.00  0.00     0.138 C 
ATOM     10  C   UNL A   1      32.297  23.084  22.926  1.00  0.00     0.023 C 
ATOM     11  N   UNL A   1      31.190  23.618  25.097  1.00  0.00    -0.337 N 
ATOM     12  C   UNL A   1      31.128  23.745  23.643  1.00  0.00     0.120 C 
BRANCH   7  13
ATOM     13  C   UNL A   1      32.311  19.894  25.115  1.00  0.00     0.047 C 
BRANCH  13  14
ATOM     14  C   UNL A   1      32.975  18.953  24.147  1.00  0.00    -0.034 C 
ATOM     15  C   UNL A   1      33.871  18.014  24.467  1.00  0.00     0.004 C 
ENDBRANCH  13  14
ENDBRANCH   7  13
BRANCH  11  16
ATOM     16  C   UNL A   1      30.796  24.636  25.999  1.00  0.00     0.254 C 
ATOM     17  O   UNL A   1      29.759  24.597  26.654  1.00  0.00    -0.269 OA
BRANCH  16  18
ATOM     18  C   UNL A   1      31.716  25.779  26.266  1.00  0.00     0.043 A 
ATOM     19  C   UNL A   1      33.087  25.640  25.947  1.00  0.00     0.018 A 
ATOM     20  C   UNL A   1      31.225  26.996  26.741  1.00  0.00     0.064 A 
ATOM     21  C   UNL A   1      33.927  26.755  25.894  1.00  0.00     0.051 A 
ATOM     22  C   UNL A   1      32.086  28.073  26.706  1.00  0.00     0.166 A 
ATOM     23  C   UNL A   1      33.386  27.965  26.257  1.00  0.00     0.165 A 
ATOM     24  O   UNL A   1      31.762  29.356  27.027  1.00  0.00    -0.454 OA
ATOM     25  O   UNL A   1      34.018  29.166  26.204  1.00  0.00    -0.454 OA
ATOM     26  C   UNL A   1      32.939  30.051  26.562  1.00  0.00     0.468 C 
ENDBRANCH  16  18
ENDBRANCH  11  16
ENDBRANCH   5   7
ENDBRANCH   4   5
ENDBRANCH   3   4
ENDBRANCH   2   3
ENDBRANCH   1   2
BRANCH   1  27
ATOM     27  C   UNL A   1      38.706  20.090  25.185  1.00  0.00     0.202 C 
BRANCH  27  28
ATOM     28  C   UNL A   1      39.837  19.239  25.747  1.00  0.00     0.261 C 
BRANCH  28  29
ATOM     29  O   UNL A   1      41.116  19.445  25.183  1.00  0.00    -0.460 OA
BRANCH  29  30
ATOM     30  C   UNL A   1      42.128  19.398  26.069  1.00  0.00     0.338 C 
ATOM     31  O   UNL A   1      42.857  18.481  26.363  1.00  0.00    -0.246 OA
BRANCH  30  32
ATOM     32  C   UNL A   1      42.168  20.756  26.592  1.00  0.00     0.060 A 
ATOM     33  C   UNL A   1      42.361  21.804  25.695  1.00  0.00     0.016 A 
ATOM     34  C   UNL A   1      41.923  20.962  27.953  1.00  0.00     0.016 A 
ATOM     35  C   UNL A   1      42.397  23.094  26.191  1.00  0.00     0.010 A 
ATOM     36  C   UNL A   1      41.938  22.257  28.443  1.00  0.00     0.010 A 
ATOM     37  C   UNL A   1      42.232  23.314  27.568  1.00  0.00    -0.014 A 
BRANCH  37  38
ATOM     38  C   UNL A   1      42.567  24.642  28.102  1.00  0.00     0.031 A 
ATOM     39  C   UNL A   1      44.017  24.993  28.257  1.00  0.00     0.074 A 
ATOM     40  C   UNL A   1      41.588  25.529  28.336  1.00  0.00     0.049 A 
ATOM     41  N   UNL A   1      44.559  26.134  28.586  1.00  0.00    -0.248 NA
ATOM     42  C   UNL A   1      44.991  23.914  28.003  1.00  0.00     0.031 C 
ATOM     43  C   UNL A   1      40.157  25.268  28.182  1.00  0.00     0.029 A 
ATOM     44  N   UNL A   1      41.656  26.838  28.724  1.00  0.00    -0.354 N 
ATOM     45  C   UNL A   1      45.930  25.909  28.578  1.00  0.00     0.074 A 
ATOM     46  C   UNL A   1      46.140  24.517  28.260  1.00  0.00     0.031 C 
ATOM     47  C   UNL A   1      39.479  26.398  28.441  1.00  0.00     0.029 A 
ATOM     48  C   UNL A   1      40.428  27.445  28.804  1.00  0.00     0.049 A 
ATOM     49  H   UNL A   1      42.502  27.299  28.924  1.00  0.00     0.167 HD
ATOM     50  C   UNL A   1      46.925  26.798  28.799  1.00  0.00     0.031 A 
ATOM     51  C   UNL A   1      40.120  28.712  29.131  1.00  0.00     0.031 A 
ATOM     52  C   UNL A   1      46.691  28.177  29.126  1.00  0.00     0.049 A 
ATOM     53  C   UNL A   1      41.245  29.667  29.420  1.00  0.00     0.074 A 
ATOM     54  C   UNL A   1      47.612  29.177  29.374  1.00  0.00     0.029 A 
ATOM     55  N   UNL A   1      45.431  28.747  29.256  1.00  0.00    -0.354 N 
ATOM     56  N   UNL A   1      42.540  29.455  29.384  1.00  0.00    -0.248 NA
ATOM     57  C   UNL A   1      40.866  31.038  29.776  1.00  0.00     0.031 C 
ATOM     58  C   UNL A   1      46.909  30.338  29.710  1.00  0.00     0.029 A 
ATOM     59  C   UNL A   1      45.550  30.080  29.603  1.00  0.00     0.049 A 
ATOM     60  H   UNL A   1      44.580  28.272  29.119  1.00  0.00     0.167 HD
ATOM     61  C   UNL A   1      43.133  30.674  29.687  1.00  0.00     0.074 A 
ATOM     62  C   UNL A   1      42.051  31.622  29.879  1.00  0.00     0.031 C 
ATOM     63  C   UNL A   1      44.447  30.988  29.797  1.00  0.00     0.031 A 
BRANCH  50  64
ATOM     64  C   UNL A   1      48.337  26.285  28.733  1.00  0.00    -0.014 A 
ATOM     65  C   UNL A   1      49.075  26.312  27.537  1.00  0.00     0.009 A 
ATOM     66  C   UNL A   1      48.940  25.761  29.887  1.00  0.00     0.009 A 
ATOM     67  C   UNL A   1      50.372  25.795  27.493  1.00  0.00     0.001 A 
ATOM     68  C   UNL A   1      50.247  25.274  29.848  1.00  0.00     0.001 A 
ATOM     69  C   UNL A   1      50.958  25.282  28.649  1.00  0.00     0.000 A 
ENDBRANCH  50  64
BRANCH  51  70
ATOM     70  C   UNL A   1      38.699  29.140  29.193  1.00  0.00    -0.014 A 
ATOM     71  C   UNL A   1      37.966  29.047  30.386  1.00  0.00     0.009 A 
ATOM     72  C   UNL A   1      38.065  29.650  28.048  1.00  0.00     0.009 A 
ATOM     73  C   UNL A   1      36.622  29.429  30.423  1.00  0.00     0.001 A 
ATOM     74  C   UNL A   1      36.732  30.060  28.095  1.00  0.00     0.001 A 
ATOM     75  C   UNL A   1      36.009  29.939  29.280  1.00  0.00     0.000 A 
ENDBRANCH  51  70
BRANCH  63  76
ATOM     76  C   UNL A   1      44.774  32.422  30.107  1.00  0.00    -0.014 A 
ATOM     77  C   UNL A   1      44.882  32.879  31.429  1.00  0.00     0.009 A 
ATOM     78  C   UNL A   1      44.993  33.323  29.053  1.00  0.00     0.009 A 
ATOM     79  C   UNL A   1      45.151  34.223  31.690  1.00  0.00     0.001 A 
ATOM     80  C   UNL A   1      45.298  34.657  29.317  1.00  0.00     0.001 A 
ATOM     81  C   UNL A   1      45.361  35.110  30.633  1.00  0.00     0.000 A 
ENDBRANCH  63  76
ENDBRANCH  37  38
ENDBRANCH  30  32
ENDBRANCH  29  30
ENDBRANCH  28  29
ENDBRANCH  27  28
ENDBRANCH   1  27
TORSDOF 18
ENDMDL
MODEL 2
REMARK VINA RESULT:     -10.6      4.031      9.493
REMARK SMILES C=CC[C@@]1(C(=O)OCCOCCOC(=O)c2ccc(-c3c4nc(c(-c5ccccc5)c5ccc([nH]5)c(-c5ccccc5)c5nc(c(-c6ccccc6)c6ccc3[nH]6)C=C5)C=C4)cc2)CCCN(C(=O)c2ccc3c(c2)OCO3)C1
REMARK SMILES IDX 10 1 9 2 8 3 7 4 5 5 6 6 4 7 64 8 79 9 65 10 67 11 66 12
REMARK SMILES IDX 3 13 2 14 1 15 68 16 69 17 70 18 71 19 75 20 72 21 74 22
REMARK SMILES IDX 73 23 76 24 78 25 77 26 11 27 12 28 13 29 14 30 15 31 16 32
REMARK SMILES IDX 17 33 63 34 18 35 62 36 19 37 20 38 21 39 56 40 22 41 61 42
REMARK SMILES IDX 55 43 57 44 23 45 60 46 54 47 53 48 24 50 46 51 31 52 45 53
REMARK SMILES IDX 32 54 35 55 44 56 58 57 33 58 34 59 43 61 59 62 36 63 25 64
REMARK SMILES IDX 26 65 30 66 27 67 29 68 28 69 47 70 48 71 52 72 49 73 51 74
REMARK SMILES IDX 50 75 37 76 38 77 42 78 39 79 41 80 40 81
REMARK H PARENT 57 49 35 60
REMARK Flexibility Score: inf
ROOT
ATOM      1  O   UNL A   1      32.857  30.693  26.700  1.00  0.00    -0.374 OA
ENDROOT
BRANCH   1   2
ATOM      2  C   UNL A   1      32.810  29.386  27.239  1.00  0.00     0.202 C 
BRANCH   2   3
ATOM      3  C   UNL A   1      32.444  28.287  26.219  1.00  0.00     0.261 C 
BRANCH   3   4
ATOM      4  O   UNL A   1      31.250  28.492  25.427  1.00  0.00    -0.463 OA
BRANCH   4   5
ATOM      5  C   UNL A   1      31.465  28.612  24.084  1.00  0.00     0.314 C 
ATOM      6  O   UNL A   1      32.342  29.332  23.619  1.00  0.00    -0.252 OA
BRANCH   5   7
ATOM      7  C   UNL A   1      30.491  27.798  23.198  1.00  0.00     0.089 C 
ATOM      8  C   UNL A   1      29.447  26.924  23.949  1.00  0.00     0.023 C 
ATOM      9  C   UNL A   1      31.307  26.944  22.177  1.00  0.00     0.138 C 
ATOM     10  C   UNL A   1      29.880  25.516  24.336  1.00  0.00     0.023 C 
ATOM     11  N   UNL A   1      31.682  25.577  22.611  1.00  0.00    -0.337 N 
ATOM     12  C   UNL A   1      30.623  24.781  23.229  1.00  0.00     0.120 C 
BRANCH   7  13
ATOM     13  C   UNL A   1      29.636  28.879  22.439  1.00  0.00     0.047 C 
BRANCH  13  14
ATOM     14  C   UNL A   1      29.088  30.034  23.234  1.00  0.00    -0.034 C 
ATOM     15  C   UNL A   1      27.809  30.419  23.264  1.00  0.00     0.004 C 
ENDBRANCH  13  14
ENDBRANCH   7  13
BRANCH  11  16
ATOM     16  C   UNL A   1      32.926  25.049  22.188  1.00  0.00     0.254 C 
ATOM     17  O   UNL A   1      33.363  25.173  21.048  1.00  0.00    -0.269 OA
BRANCH  16  18
ATOM     18  C   UNL A   1      33.821  24.390  23.182  1.00  0.00     0.043 A 
ATOM     19  C   UNL A   1      34.405  25.178  24.202  1.00  0.00     0.018 A 
ATOM     20  C   UNL A   1      34.016  23.008  23.163  1.00  0.00     0.064 A 
ATOM     21  C   UNL A   1      35.000  24.581  25.317  1.00  0.00     0.051 A 
ATOM     22  C   UNL A   1      34.633  22.450  24.264  1.00  0.00     0.166 A 
ATOM     23  C   UNL A   1      35.075  23.209  25.327  1.00  0.00     0.165 A 
ATOM     24  O   UNL A   1      34.818  21.118  24.476  1.00  0.00    -0.454 OA
ATOM     25  O   UNL A   1      35.550  22.447  26.347  1.00  0.00    -0.454 OA
ATOM     26  C   UNL A   1      35.255  21.126  25.852  1.00  0.00     0.468 C 
ENDBRANCH  16  18
ENDBRANCH  11  16
ENDBRANCH   5   7
ENDBRANCH   4   5
ENDBRANCH   3   4
ENDBRANCH   2   3
ENDBRANCH   1   2
BRANCH   1  27
ATOM     27  C   UNL A   1      31.676  31.494  26.708  1.00  0.00     0.202 C 
BRANCH  27  28
ATOM     28  C   UNL A   1      31.781  32.964  27.094  1.00  0.00     0.261 C 
BRANCH  28  29
ATOM     29  O   UNL A   1      33.086  33.473  27.275  1.00  0.00    -0.460 OA
BRANCH  29  30
ATOM     30  C   UNL A   1      33.345  33.906  28.523  1.00  0.00     0.338 C 
ATOM     31  O   UNL A   1      32.713  34.655  29.228  1.00  0.00    -0.246 OA
BRANCH  30  32
ATOM     32  C   UNL A   1      34.588  33.225  28.855  1.00  0.00     0.060 A 
ATOM     33  C   UNL A   1      34.516  31.926  29.355  1.00  0.00     0.016 A 
ATOM     34  C   UNL A   1      35.801  33.861  28.577  1.00  0.00     0.016 A 
ATOM     35  C   UNL A   1      35.695  31.278  29.669  1.00  0.00     0.010 A 
ATOM     36  C   UNL A   1      36.981  33.199  28.872  1.00  0.00     0.010 A 
ATOM     37  C   UNL A   1      36.922  31.932  29.471  1.00  0.00    -0.014 A 
BRANCH  37  38
ATOM     38  C   UNL A   1      38.125  31.346  30.081  1.00  0.00     0.031 A 
ATOM     39  C   UNL A   1      38.432  31.698  31.507  1.00  0.00     0.074 A 
ATOM     40  C   UNL A   1      38.847  30.450  29.394  1.00  0.00     0.049 A 
ATOM     41  N   UNL A   1      39.356  31.217  32.294  1.00  0.00    -0.248 NA
ATOM     42  C   UNL A   1      37.582  32.727  32.134  1.00  0.00     0.031 C 
ATOM     43  C   UNL A   1      38.592  30.038  28.013  1.00  0.00     0.029 A 
ATOM     44  N   UNL A   1      39.924  29.701  29.779  1.00  0.00    -0.354 N 
ATOM     45  C   UNL A   1      39.198  31.883  33.502  1.00  0.00     0.074 A 
ATOM     46  C   UNL A   1      38.124  32.834  33.336  1.00  0.00     0.031 C 
ATOM     47  C   UNL A   1      39.472  29.082  27.676  1.00  0.00     0.029 A 
ATOM     48  C   UNL A   1      40.363  28.839  28.806  1.00  0.00     0.049 A 
ATOM     49  H   UNL A   1      40.343  29.772  30.667  1.00  0.00     0.167 HD
ATOM     50  C   UNL A   1      39.880  31.699  34.655  1.00  0.00     0.031 A 
ATOM     51  C   UNL A   1      41.372  27.952  28.840  1.00  0.00     0.031 A 
ATOM     52  C   UNL A   1      40.954  30.755  34.793  1.00  0.00     0.049 A 
ATOM     53  C   UNL A   1      42.146  27.803  30.120  1.00  0.00     0.074 A 
ATOM     54  C   UNL A   1      41.723  30.474  35.906  1.00  0.00     0.029 A 
ATOM     55  N   UNL A   1      41.411  29.935  33.768  1.00  0.00    -0.354 N 
ATOM     56  N   UNL A   1      41.973  28.416  31.268  1.00  0.00    -0.248 NA
ATOM     57  C   UNL A   1      43.241  26.826  30.115  1.00  0.00     0.031 C 
ATOM     58  C   UNL A   1      42.684  29.527  35.538  1.00  0.00     0.029 A 
ATOM     59  C   UNL A   1      42.468  29.165  34.216  1.00  0.00     0.049 A 
ATOM     60  H   UNL A   1      41.036  29.907  32.859  1.00  0.00     0.167 HD
ATOM     61  C   UNL A   1      42.920  27.881  32.131  1.00  0.00     0.074 A 
ATOM     62  C   UNL A   1      43.646  26.877  31.376  1.00  0.00     0.031 C 
ATOM     63  C   UNL A   1      43.173  28.185  33.428  1.00  0.00     0.031 A 
BRANCH  50  64
ATOM     64  C   UNL A   1      39.505  32.565  35.826  1.00  0.00    -0.014 A 
ATOM     65  C   UNL A   1      40.118  33.810  36.048  1.00  0.00     0.009 A 
ATOM     66  C   UNL A   1      38.520  32.127  36.725  1.00  0.00     0.009 A 
ATOM     67  C   UNL A   1      39.778  34.578  37.163  1.00  0.00     0.001 A 
ATOM     68  C   UNL A   1      38.160  32.912  37.822  1.00  0.00     0.001 A 
ATOM     69  C   UNL A   1      38.796  34.132  38.045  1.00  0.00     0.000 A 
ENDBRANCH  50  64
BRANCH  51  70
ATOM     70  C   UNL A   1      41.694  27.144  27.636  1.00  0.00    -0.014 A 
ATOM     71  C   UNL A   1      41.100  25.891  27.425  1.00  0.00     0.009 A 
ATOM     72  C   UNL A   1      42.604  27.629  26.683  1.00  0.00     0.009 A 
ATOM     73  C   UNL A   1      41.432  25.130  26.300  1.00  0.00     0.001 A 
ATOM     74  C   UNL A   1      42.911  26.883  25.544  1.00  0.00     0.001 A 
ATOM     75  C   UNL A   1      42.332  25.629  25.360  1.00  0.00     0.000 A 
ENDBRANCH  51  70
BRANCH  63  76
ATOM     76  C   UNL A   1      44.255  27.395  34.108  1.00  0.00    -0.014 A 
ATOM     77  C   UNL A   1      45.584  27.843  34.131  1.00  0.00     0.009 A 
ATOM     78  C   UNL A   1      43.931  26.189  34.750  1.00  0.00     0.009 A 
ATOM     79  C   UNL A   1      46.577  27.073  34.738  1.00  0.00     0.001 A 
ATOM     80  C   UNL A   1      44.918  25.440  35.387  1.00  0.00     0.001 A 
ATOM     81  C   UNL A   1      46.242  25.874  35.367  1.00  0.00     0.000 A 
ENDBRANCH  63  76
ENDBRANCH  37  38
ENDBRANCH  30  32
ENDBRANCH  29  30
ENDBRANCH  28  29
ENDBRANCH  27  28
ENDBRANCH   1  27
TORSDOF 18
ENDMDL
MODEL 3
REMARK VINA RESULT:     -10.5      4.363      9.072
REMARK SMILES C=CC[C@@]1(C(=O)OCCOCCOC(=O)c2ccc(-c3c4nc(c(-c5ccccc5)c5ccc([nH]5)c(-c5ccccc5)c5nc(c(-c6ccccc6)c6ccc3[nH]6)C=C5)C=C4)cc2)CCCN(C(=O)c2ccc3c(c2)OCO3)C1
REMARK SMILES IDX 10 1 9 2 8 3 7 4 5 5 6 6 4 7 64 8 79 9 65 10 67 11 66 12
REMARK SMILES IDX 3 13 2 14 1 15 68 16 69 17 70 18 71 19 75 20 72 21 74 22
REMARK SMILES IDX 73 23 76 24 78 25 77 26 11 27 12 28 13 29 14 30 15 31 16 32
REMARK SMILES IDX 17 33 63 34 18 35 62 36 19 37 20 38 21 39 56 40 22 41 61 42
REMARK SMILES IDX 55 43 57 44 23 45 60 46 54 47 53 48 24 50 46 51 31 52 45 53
REMARK SMILES IDX 32 54 35 55 44 56 58 57 33 58 34 59 43 61 59 62 36 63 25 64
REMARK SMILES IDX 26 65 30 66 27 67 29 68 28 69 47 70 48 71 52 72 49 73 51 74
REMARK SMILES IDX 50 75 37 76 38 77 42 78 39 79 41 80 40 81
REMARK H PARENT 57 49 35 60
REMARK Flexibility Score: inf
ROOT
ATOM      1  O   UNL A   1      31.541  30.334  26.986  1.00  0.00    -0.374 OA
ENDROOT
BRANCH   1   2
ATOM      2  C   UNL A   1      31.956  29.267  26.156  1.00  0.00     0.202 C 
BRANCH   2   3
ATOM      3  C   UNL A   1      33.465  29.259  25.831  1.00  0.00     0.261 C 
BRANCH   3   4
ATOM      4  O   UNL A   1      34.101  27.968  25.680  1.00  0.00    -0.463 OA
BRANCH   4   5
ATOM      5  C   UNL A   1      33.889  27.360  24.476  1.00  0.00     0.314 C 
ATOM      6  O   UNL A   1      33.909  27.975  23.415  1.00  0.00    -0.252 OA
BRANCH   5   7
ATOM      7  C   UNL A   1      33.583  25.845  24.561  1.00  0.00     0.089 C 
ATOM      8  C   UNL A   1      33.780  25.031  23.252  1.00  0.00     0.023 C 
ATOM      9  C   UNL A   1      32.148  25.636  25.142  1.00  0.00     0.138 C 
ATOM     10  C   UNL A   1      32.594  24.964  22.298  1.00  0.00     0.023 C 
ATOM     11  N   UNL A   1      31.042  25.564  24.157  1.00  0.00    -0.337 N 
ATOM     12  C   UNL A   1      31.265  24.707  22.994  1.00  0.00     0.120 C 
BRANCH   7  13
ATOM     13  C   UNL A   1      34.659  25.271  25.556  1.00  0.00     0.047 C 
BRANCH  13  14
ATOM     14  C   UNL A   1      35.322  23.967  25.204  1.00  0.00    -0.034 C 
ATOM     15  C   UNL A   1      35.189  22.821  25.878  1.00  0.00     0.004 C 
ENDBRANCH  13  14
ENDBRANCH   7  13
BRANCH  11  16
ATOM     16  C   UNL A   1      29.783  26.108  24.511  1.00  0.00     0.254 C 
ATOM     17  O   UNL A   1      29.192  25.827  25.550  1.00  0.00    -0.269 OA
BRANCH  16  18
ATOM     18  C   UNL A   1      29.164  27.153  23.648  1.00  0.00     0.043 A 
ATOM     19  C   UNL A   1      27.766  27.356  23.718  1.00  0.00     0.018 A 
ATOM     20  C   UNL A   1      29.954  27.979  22.846  1.00  0.00     0.064 A 
ATOM     21  C   UNL A   1      27.178  28.499  23.169  1.00  0.00     0.051 A 
ATOM     22  C   UNL A   1      29.341  29.083  22.291  1.00  0.00     0.166 A 
ATOM     23  C   UNL A   1      28.002  29.357  22.481  1.00  0.00     0.165 A 
ATOM     24  O   UNL A   1      29.963  30.055  21.570  1.00  0.00    -0.454 OA
ATOM     25  O   UNL A   1      27.634  30.548  21.939  1.00  0.00    -0.454 OA
ATOM     26  C   UNL A   1      28.911  31.040  21.488  1.00  0.00     0.468 C 
ENDBRANCH  16  18
ENDBRANCH  11  16
ENDBRANCH   5   7
ENDBRANCH   4   5
ENDBRANCH   3   4
ENDBRANCH   2   3
ENDBRANCH   1   2
BRANCH   1  27
ATOM     27  C   UNL A   1      31.090  31.548  26.390  1.00  0.00     0.202 C 
BRANCH  27  28
ATOM     28  C   UNL A   1      31.726  32.865  26.817  1.00  0.00     0.261 C 
BRANCH  28  29
ATOM     29  O   UNL A   1      33.119  32.842  27.046  1.00  0.00    -0.460 OA
BRANCH  29  30
ATOM     30  C   UNL A   1      33.518  33.552  28.119  1.00  0.00     0.338 C 
ATOM     31  O   UNL A   1      32.985  34.485  28.669  1.00  0.00    -0.246 OA
BRANCH  30  32
ATOM     32  C   UNL A   1      34.763  32.902  28.498  1.00  0.00     0.060 A 
ATOM     33  C   UNL A   1      34.729  31.547  28.825  1.00  0.00     0.016 A 
ATOM     34  C   UNL A   1      35.953  33.633  28.433  1.00  0.00     0.016 A 
ATOM     35  C   UNL A   1      35.912  30.929  29.182  1.00  0.00     0.010 A 
ATOM     36  C   UNL A   1      37.139  33.003  28.770  1.00  0.00     0.010 A 
ATOM     37  C   UNL A   1      37.105  31.668  29.200  1.00  0.00    -0.014 A 
BRANCH  37  38
ATOM     38  C   UNL A   1      38.277  31.075  29.860  1.00  0.00     0.031 A 
ATOM     39  C   UNL A   1      38.487  31.368  31.317  1.00  0.00     0.074 A 
ATOM     40  C   UNL A   1      39.059  30.222  29.183  1.00  0.00     0.049 A 
ATOM     41  N   UNL A   1      39.367  30.866  32.140  1.00  0.00    -0.248 NA
ATOM     42  C   UNL A   1      37.579  32.354  31.932  1.00  0.00     0.031 C 
ATOM     43  C   UNL A   1      38.900  29.868  27.772  1.00  0.00     0.029 A 
ATOM     44  N   UNL A   1      40.123  29.474  29.604  1.00  0.00    -0.354 N 
ATOM     45  C   UNL A   1      39.119  31.475  33.364  1.00  0.00     0.074 A 
ATOM     46  C   UNL A   1      38.041  32.416  33.170  1.00  0.00     0.031 C 
ATOM     47  C   UNL A   1      39.818  28.942  27.451  1.00  0.00     0.029 A 
ATOM     48  C   UNL A   1      40.639  28.663  28.624  1.00  0.00     0.049 A 
ATOM     49  H   UNL A   1      40.482  29.512  30.520  1.00  0.00     0.167 HD
ATOM     50  C   UNL A   1      39.730  31.250  34.549  1.00  0.00     0.031 A 
ATOM     51  C   UNL A   1      41.660  27.791  28.686  1.00  0.00     0.031 A 
ATOM     52  C   UNL A   1      40.810  30.318  34.715  1.00  0.00     0.049 A 
ATOM     53  C   UNL A   1      42.353  27.597  30.005  1.00  0.00     0.074 A 
ATOM     54  C   UNL A   1      41.512  30.001  35.862  1.00  0.00     0.029 A 
ATOM     55  N   UNL A   1      41.346  29.553  33.688  1.00  0.00    -0.354 N 
ATOM     56  N   UNL A   1      42.096  28.155  31.165  1.00  0.00    -0.248 NA
ATOM     57  C   UNL A   1      43.464  26.639  30.028  1.00  0.00     0.031 C 
ATOM     58  C   UNL A   1      42.512  29.086  35.517  1.00  0.00     0.029 A 
ATOM     59  C   UNL A   1      42.387  28.780  34.169  1.00  0.00     0.049 A 
ATOM     60  H   UNL A   1      41.031  29.559  32.755  1.00  0.00     0.167 HD
ATOM     61  C   UNL A   1      42.996  27.598  32.063  1.00  0.00     0.074 A 
ATOM     62  C   UNL A   1      43.787  26.640  31.313  1.00  0.00     0.031 C 
ATOM     63  C   UNL A   1      43.159  27.848  33.386  1.00  0.00     0.031 A 
BRANCH  50  64
ATOM     64  C   UNL A   1      39.264  32.058  35.730  1.00  0.00    -0.014 A 
ATOM     65  C   UNL A   1      39.842  33.298  36.048  1.00  0.00     0.009 A 
ATOM     66  C   UNL A   1      38.229  31.567  36.541  1.00  0.00     0.009 A 
ATOM     67  C   UNL A   1      39.417  34.011  37.172  1.00  0.00     0.001 A 
ATOM     68  C   UNL A   1      37.785  32.296  37.645  1.00  0.00     0.001 A 
ATOM     69  C   UNL A   1      38.386  33.512  37.965  1.00  0.00     0.000 A 
ENDBRANCH  50  64
BRANCH  51  70
ATOM     70  C   UNL A   1      42.073  27.043  27.470  1.00  0.00    -0.014 A 
ATOM     71  C   UNL A   1      43.033  27.565  26.590  1.00  0.00     0.009 A 
ATOM     72  C   UNL A   1      41.505  25.791  27.185  1.00  0.00     0.009 A 
ATOM     73  C   UNL A   1      43.393  26.862  25.437  1.00  0.00     0.001 A 
ATOM     74  C   UNL A   1      41.889  25.075  26.050  1.00  0.00     0.001 A 
ATOM     75  C   UNL A   1      42.825  25.617  25.171  1.00  0.00     0.000 A 
ENDBRANCH  51  70
BRANCH  63  76
ATOM     76  C   UNL A   1      44.210  27.045  34.100  1.00  0.00    -0.014 A 
ATOM     77  C   UNL A   1      43.915  25.801  34.676  1.00  0.00     0.009 A 
ATOM     78  C   UNL A   1      45.522  27.540  34.178  1.00  0.00     0.009 A 
ATOM     79  C   UNL A   1      44.900  25.092  35.364  1.00  0.00     0.001 A 
ATOM     80  C   UNL A   1      46.513  26.812  34.834  1.00  0.00     0.001 A 
ATOM     81  C   UNL A   1      46.199  25.597  35.440  1.00  0.00     0.000 A 
ENDBRANCH  63  76
ENDBRANCH  37  38
ENDBRANCH  30  32
ENDBRANCH  29  30
ENDBRANCH  28  29
ENDBRANCH  27  28
ENDBRANCH   1  27
TORSDOF 18
ENDMDL
