MODEL 1
REMARK VINA RESULT:     -10.7      0.000      0.000
REMARK SMILES Cc1cc(C(=O)OCCOCCOC(=O)c2ccc(-c3c4nc(c(-c5ccccc5)c5ccc([nH]5)c(-c5ccccc5)c5nc(c(-c6ccccc6)c6ccc3[nH]6)C=C5)C=C4)cc2)nc(N2CCN(c3ccccc3Cl)CC2)n1
REMARK SMILES IDX 10 1 9 2 8 3 7 4 5 5 6 6 4 7 1 8 2 9 3 10 79 11 65 12 64 13
REMARK SMILES IDX 66 14 67 15 78 16 68 17 77 18 69 19 70 20 71 21 75 22 72 23
REMARK SMILES IDX 74 24 76 25 73 26 11 27 12 28 13 29 14 30 15 31 16 32 17 33
REMARK SMILES IDX 63 34 18 35 62 36 19 37 20 38 21 39 56 40 22 41 61 42 55 43
REMARK SMILES IDX 57 44 23 45 60 46 54 47 53 48 24 50 46 51 31 52 45 53 32 54
REMARK SMILES IDX 35 55 44 56 58 57 33 58 34 59 43 61 59 62 36 63 25 64 26 65
REMARK SMILES IDX 30 66 27 67 29 68 28 69 47 70 48 71 52 72 49 73 51 74 50 75
REMARK SMILES IDX 37 76 38 77 42 78 39 79 41 80 40 81
REMARK H PARENT 57 49 35 60
REMARK Flexibility Score: inf
ROOT
ATOM      1  O   UNL A   1      34.964  34.569  28.757  1.00  0.00    -0.374 OA
ENDROOT
BRANCH   1   2
ATOM      2  C   UNL A   1      34.399  33.278  28.985  1.00  0.00     0.202 C 
BRANCH   2   3
ATOM      3  C   UNL A   1      34.891  32.164  28.059  1.00  0.00     0.261 C 
BRANCH   3   4
ATOM      4  O   UNL A   1      33.798  31.325  27.649  1.00  0.00    -0.459 OA
BRANCH   4   5
ATOM      5  C   UNL A   1      34.164  30.077  27.260  1.00  0.00     0.357 C 
ATOM      6  O   UNL A   1      35.139  29.453  27.649  1.00  0.00    -0.244 OA
BRANCH   5   7
ATOM      7  C   UNL A   1      33.114  29.504  26.381  1.00  0.00     0.154 A 
ATOM      8  C   UNL A   1      30.229  30.320  24.176  1.00  0.00     0.067 C 
ATOM      9  C   UNL A   1      31.305  29.600  24.932  1.00  0.00     0.044 A 
ATOM     10  C   UNL A   1      32.158  30.282  25.770  1.00  0.00     0.059 A 
ATOM     11  N   UNL A   1      31.422  28.272  24.705  1.00  0.00    -0.218 NA
ATOM     12  C   UNL A   1      32.357  27.596  25.387  1.00  0.00     0.226 A 
ATOM     13  N   UNL A   1      33.196  28.171  26.240  1.00  0.00    -0.206 NA
BRANCH  12  14
ATOM     14  N   UNL A   1      32.517  26.253  25.218  1.00  0.00    -0.337 N 
ATOM     15  C   UNL A   1      32.395  25.355  26.359  1.00  0.00     0.141 C 
ATOM     16  C   UNL A   1      33.410  25.831  24.139  1.00  0.00     0.141 C 
ATOM     17  C   UNL A   1      31.958  23.956  25.855  1.00  0.00     0.138 C 
ATOM     18  C   UNL A   1      33.036  24.413  23.653  1.00  0.00     0.138 C 
ATOM     19  N   UNL A   1      32.882  23.506  24.803  1.00  0.00    -0.367 N 
BRANCH  19  20
ATOM     20  C   UNL A   1      33.270  22.185  24.704  1.00  0.00     0.056 A 
ATOM     21  C   UNL A   1      32.363  21.209  24.266  1.00  0.00     0.027 A 
ATOM     22  C   UNL A   1      34.566  21.756  25.059  1.00  0.00     0.064 A 
ATOM     23  C   UNL A   1      32.725  19.860  24.189  1.00  0.00     0.002 A 
ATOM     24  C   UNL A   1      34.928  20.407  24.990  1.00  0.00     0.023 A 
ATOM     25  Cl  UNL A   1      35.753  22.861  25.676  1.00  0.00    -0.082 Cl
ATOM     26  C   UNL A   1      34.007  19.458  24.555  1.00  0.00     0.002 A 
ENDBRANCH  19  20
ENDBRANCH  12  14
ENDBRANCH   5   7
ENDBRANCH   4   5
ENDBRANCH   3   4
ENDBRANCH   2   3
ENDBRANCH   1   2
BRANCH   1  27
ATOM     27  C   UNL A   1      34.063  35.679  28.738  1.00  0.00     0.202 C 
BRANCH  27  28
ATOM     28  C   UNL A   1      32.853  35.568  29.675  1.00  0.00     0.261 C 
BRANCH  28  29
ATOM     29  O   UNL A   1      33.071  36.269  30.914  1.00  0.00    -0.460 OA
BRANCH  29  30
ATOM     30  C   UNL A   1      32.729  35.581  32.028  1.00  0.00     0.338 C 
ATOM     31  O   UNL A   1      31.606  35.407  32.479  1.00  0.00    -0.246 OA
BRANCH  30  32
ATOM     32  C   UNL A   1      33.910  34.885  32.572  1.00  0.00     0.060 A 
ATOM     33  C   UNL A   1      35.155  35.511  32.425  1.00  0.00     0.016 A 
ATOM     34  C   UNL A   1      33.819  33.619  33.155  1.00  0.00     0.016 A 
ATOM     35  C   UNL A   1      36.319  34.854  32.818  1.00  0.00     0.010 A 
ATOM     36  C   UNL A   1      34.990  32.958  33.541  1.00  0.00     0.010 A 
ATOM     37  C   UNL A   1      36.247  33.558  33.344  1.00  0.00    -0.014 A 
BRANCH  37  38
ATOM     38  C   UNL A   1      37.493  32.784  33.557  1.00  0.00     0.031 A 
ATOM     39  C   UNL A   1      38.289  33.008  34.814  1.00  0.00     0.074 A 
ATOM     40  C   UNL A   1      37.900  31.869  32.659  1.00  0.00     0.049 A 
ATOM     41  N   UNL A   1      39.417  32.458  35.191  1.00  0.00    -0.248 NA
ATOM     42  C   UNL A   1      37.742  33.979  35.776  1.00  0.00     0.031 C 
ATOM     43  C   UNL A   1      37.196  31.524  31.424  1.00  0.00     0.029 A 
ATOM     44  N   UNL A   1      39.010  31.063  32.651  1.00  0.00    -0.354 N 
ATOM     45  C   UNL A   1      39.714  33.018  36.427  1.00  0.00     0.074 A 
ATOM     46  C   UNL A   1      38.666  33.971  36.724  1.00  0.00     0.031 C 
ATOM     47  C   UNL A   1      37.898  30.579  30.774  1.00  0.00     0.029 A 
ATOM     48  C   UNL A   1      39.112  30.277  31.530  1.00  0.00     0.049 A 
ATOM     49  H   UNL A   1      39.672  31.050  33.380  1.00  0.00     0.167 HD
ATOM     50  C   UNL A   1      40.761  32.759  37.245  1.00  0.00     0.031 A 
ATOM     51  C   UNL A   1      40.082  29.425  31.149  1.00  0.00     0.031 A 
ATOM     52  C   UNL A   1      41.812  31.823  36.949  1.00  0.00     0.049 A 
ATOM     53  C   UNL A   1      41.278  29.215  32.039  1.00  0.00     0.074 A 
ATOM     54  C   UNL A   1      42.909  31.485  37.722  1.00  0.00     0.029 A 
ATOM     55  N   UNL A   1      41.898  31.077  35.785  1.00  0.00    -0.354 N 
ATOM     56  N   UNL A   1      41.535  29.736  33.214  1.00  0.00    -0.248 NA
ATOM     57  C   UNL A   1      42.314  28.294  31.549  1.00  0.00     0.031 C 
ATOM     58  C   UNL A   1      43.687  30.573  37.003  1.00  0.00     0.029 A 
ATOM     59  C   UNL A   1      43.044  30.301  35.805  1.00  0.00     0.049 A 
ATOM     60  H   UNL A   1      41.242  31.097  35.051  1.00  0.00     0.167 HD
ATOM     61  C   UNL A   1      42.746  29.183  33.616  1.00  0.00     0.074 A 
ATOM     62  C   UNL A   1      43.165  28.279  32.566  1.00  0.00     0.031 C 
ATOM     63  C   UNL A   1      43.447  29.404  34.754  1.00  0.00     0.031 A 
BRANCH  50  64
ATOM     64  C   UNL A   1      40.839  33.527  38.535  1.00  0.00    -0.014 A 
ATOM     65  C   UNL A   1      40.268  33.024  39.715  1.00  0.00     0.009 A 
ATOM     66  C   UNL A   1      41.527  34.748  38.578  1.00  0.00     0.009 A 
ATOM     67  C   UNL A   1      40.364  33.744  40.907  1.00  0.00     0.001 A 
ATOM     68  C   UNL A   1      41.643  35.453  39.777  1.00  0.00     0.001 A 
ATOM     69  C   UNL A   1      41.054  34.955  40.939  1.00  0.00     0.000 A 
ENDBRANCH  50  64
BRANCH  51  70
ATOM     70  C   UNL A   1      39.985  28.717  29.845  1.00  0.00    -0.014 A 
ATOM     71  C   UNL A   1      39.472  27.413  29.773  1.00  0.00     0.009 A 
ATOM     72  C   UNL A   1      40.438  29.334  28.668  1.00  0.00     0.009 A 
ATOM     73  C   UNL A   1      39.443  26.730  28.556  1.00  0.00     0.001 A 
ATOM     74  C   UNL A   1      40.381  28.659  27.446  1.00  0.00     0.001 A 
ATOM     75  C   UNL A   1      39.893  27.355  27.393  1.00  0.00     0.000 A 
ENDBRANCH  51  70
BRANCH  63  76
ATOM     76  C   UNL A   1      44.722  28.630  34.941  1.00  0.00    -0.014 A 
ATOM     77  C   UNL A   1      45.951  29.129  34.485  1.00  0.00     0.009 A 
ATOM     78  C   UNL A   1      44.695  27.402  35.621  1.00  0.00     0.009 A 
ATOM     79  C   UNL A   1      47.125  28.396  34.679  1.00  0.00     0.001 A 
ATOM     80  C   UNL A   1      45.873  26.686  35.837  1.00  0.00     0.001 A 
ATOM     81  C   UNL A   1      47.085  27.179  35.358  1.00  0.00     0.000 A 
ENDBRANCH  63  76
ENDBRANCH  37  38
ENDBRANCH  30  32
ENDBRANCH  29  30
ENDBRANCH  28  29
ENDBRANCH  27  28
ENDBRANCH   1  27
TORSDOF 16
ENDMDL
MODEL 2
REMARK VINA RESULT:     -10.7      3.770      9.113
REMARK SMILES Cc1cc(C(=O)OCCOCCOC(=O)c2ccc(-c3c4nc(c(-c5ccccc5)c5ccc([nH]5)c(-c5ccccc5)c5nc(c(-c6ccccc6)c6ccc3[nH]6)C=C5)C=C4)cc2)nc(N2CCN(c3ccccc3Cl)CC2)n1
REMARK SMILES IDX 10 1 9 2 8 3 7 4 5 5 6 6 4 7 1 8 2 9 3 10 79 11 65 12 64 13
REMARK SMILES IDX 66 14 67 15 78 16 68 17 77 18 69 19 70 20 71 21 75 22 72 23
REMARK SMILES IDX 74 24 76 25 73 26 11 27 12 28 13 29 14 30 15 31 16 32 17 33
REMARK SMILES IDX 63 34 18 35 62 36 19 37 20 38 21 39 56 40 22 41 61 42 55 43
REMARK SMILES IDX 57 44 23 45 60 46 54 47 53 48 24 50 46 51 31 52 45 53 32 54
REMARK SMILES IDX 35 55 44 56 58 57 33 58 34 59 43 61 59 62 36 63 25 64 26 65
REMARK SMILES IDX 30 66 27 67 29 68 28 69 47 70 48 71 52 72 49 73 51 74 50 75
REMARK SMILES IDX 37 76 38 77 42 78 39 79 41 80 40 81
REMARK H PARENT 57 49 35 60
REMARK Flexibility Score: inf
ROOT
ATOM      1  O   UNL A   1      41.982  20.760  26.661  1.00  0.00    -0.374 OA
ENDROOT
BRANCH   1   2
ATOM      2  C   UNL A   1      40.664  20.590  26.138  1.00  0.00     0.202 C 
BRANCH   2   3
ATOM      3  C   UNL A   1      39.651  21.671  26.521  1.00  0.00     0.261 C 
BRANCH   3   4
ATOM      4  O   UNL A   1      38.474  21.576  25.701  1.00  0.00    -0.459 OA
BRANCH   4   5
ATOM      5  C   UNL A   1      37.704  22.694  25.693  1.00  0.00     0.357 C 
ATOM      6  O   UNL A   1      38.086  23.838  25.887  1.00  0.00    -0.244 OA
BRANCH   5   7
ATOM      7  C   UNL A   1      36.327  22.345  25.267  1.00  0.00     0.154 A 
ATOM      8  C   UNL A   1      33.972  19.534  24.630  1.00  0.00     0.067 C 
ATOM      9  C   UNL A   1      34.578  20.895  24.792  1.00  0.00     0.044 A 
ATOM     10  C   UNL A   1      35.906  21.043  25.125  1.00  0.00     0.059 A 
ATOM     11  N   UNL A   1      33.747  21.952  24.649  1.00  0.00    -0.218 NA
ATOM     12  C   UNL A   1      34.266  23.183  24.761  1.00  0.00     0.226 A 
ATOM     13  N   UNL A   1      35.543  23.413  25.045  1.00  0.00    -0.206 NA
BRANCH  12  14
ATOM     14  N   UNL A   1      33.487  24.291  24.612  1.00  0.00    -0.337 N 
ATOM     15  C   UNL A   1      32.396  24.545  25.545  1.00  0.00     0.141 C 
ATOM     16  C   UNL A   1      33.321  24.796  23.249  1.00  0.00     0.141 C 
ATOM     17  C   UNL A   1      32.124  26.070  25.597  1.00  0.00     0.138 C 
ATOM     18  C   UNL A   1      32.990  26.305  23.270  1.00  0.00     0.138 C 
ATOM     19  N   UNL A   1      31.908  26.574  24.232  1.00  0.00    -0.367 N 
BRANCH  19  20
ATOM     20  C   UNL A   1      30.968  27.549  23.966  1.00  0.00     0.056 A 
ATOM     21  C   UNL A   1      29.718  27.206  23.431  1.00  0.00     0.027 A 
ATOM     22  C   UNL A   1      31.226  28.919  24.190  1.00  0.00     0.064 A 
ATOM     23  C   UNL A   1      28.764  28.181  23.124  1.00  0.00     0.002 A 
ATOM     24  C   UNL A   1      30.277  29.896  23.876  1.00  0.00     0.023 A 
ATOM     25  Cl  UNL A   1      32.759  29.470  24.786  1.00  0.00    -0.082 Cl
ATOM     26  C   UNL A   1      29.045  29.528  23.343  1.00  0.00     0.002 A 
ENDBRANCH  19  20
ENDBRANCH  12  14
ENDBRANCH   5   7
ENDBRANCH   4   5
ENDBRANCH   3   4
ENDBRANCH   2   3
ENDBRANCH   1   2
BRANCH   1  27
ATOM     27  C   UNL A   1      43.069  20.340  25.834  1.00  0.00     0.202 C 
BRANCH  27  28
ATOM     28  C   UNL A   1      43.778  21.455  25.053  1.00  0.00     0.261 C 
BRANCH  28  29
ATOM     29  O   UNL A   1      43.079  22.710  25.160  1.00  0.00    -0.460 OA
BRANCH  29  30
ATOM     30  C   UNL A   1      43.871  23.807  25.154  1.00  0.00     0.338 C 
ATOM     31  O   UNL A   1      44.610  24.185  24.256  1.00  0.00    -0.246 OA
BRANCH  30  32
ATOM     32  C   UNL A   1      43.600  24.629  26.348  1.00  0.00     0.060 A 
ATOM     33  C   UNL A   1      42.754  24.091  27.326  1.00  0.00     0.016 A 
ATOM     34  C   UNL A   1      44.106  25.924  26.484  1.00  0.00     0.016 A 
ATOM     35  C   UNL A   1      42.372  24.863  28.422  1.00  0.00     0.010 A 
ATOM     36  C   UNL A   1      43.715  26.700  27.580  1.00  0.00     0.010 A 
ATOM     37  C   UNL A   1      42.820  26.185  28.537  1.00  0.00    -0.014 A 
BRANCH  37  38
ATOM     38  C   UNL A   1      42.243  27.066  29.580  1.00  0.00     0.031 A 
ATOM     39  C   UNL A   1      42.940  27.182  30.909  1.00  0.00     0.074 A 
ATOM     40  C   UNL A   1      41.129  27.781  29.341  1.00  0.00     0.049 A 
ATOM     41  N   UNL A   1      42.598  27.874  31.966  1.00  0.00    -0.248 NA
ATOM     42  C   UNL A   1      44.188  26.418  31.066  1.00  0.00     0.031 C 
ATOM     43  C   UNL A   1      40.385  27.794  28.082  1.00  0.00     0.029 A 
ATOM     44  N   UNL A   1      40.429  28.635  30.156  1.00  0.00    -0.354 N 
ATOM     45  C   UNL A   1      43.583  27.626  32.913  1.00  0.00     0.074 A 
ATOM     46  C   UNL A   1      44.521  26.698  32.317  1.00  0.00     0.031 C 
ATOM     47  C   UNL A   1      39.326  28.612  28.212  1.00  0.00     0.029 A 
ATOM     48  C   UNL A   1      39.301  29.154  29.569  1.00  0.00     0.049 A 
ATOM     49  H   UNL A   1      40.708  28.853  31.074  1.00  0.00     0.167 HD
ATOM     50  C   UNL A   1      43.703  28.128  34.165  1.00  0.00     0.031 A 
ATOM     51  C   UNL A   1      38.349  29.959  30.075  1.00  0.00     0.031 A 
ATOM     52  C   UNL A   1      42.769  29.041  34.767  1.00  0.00     0.049 A 
ATOM     53  C   UNL A   1      38.462  30.441  31.497  1.00  0.00     0.074 A 
ATOM     54  C   UNL A   1      42.812  29.613  36.026  1.00  0.00     0.029 A 
ATOM     55  N   UNL A   1      41.619  29.510  34.153  1.00  0.00    -0.354 N 
ATOM     56  N   UNL A   1      39.410  30.215  32.374  1.00  0.00    -0.248 NA
ATOM     57  C   UNL A   1      37.372  31.293  31.997  1.00  0.00     0.031 C 
ATOM     58  C   UNL A   1      41.661  30.389  36.193  1.00  0.00     0.029 A 
ATOM     59  C   UNL A   1      40.930  30.344  35.017  1.00  0.00     0.049 A 
ATOM     60  H   UNL A   1      41.334  29.284  33.238  1.00  0.00     0.167 HD
ATOM     61  C   UNL A   1      39.047  30.920  33.515  1.00  0.00     0.074 A 
ATOM     62  C   UNL A   1      37.799  31.591  33.217  1.00  0.00     0.031 C 
ATOM     63  C   UNL A   1      39.690  31.005  34.705  1.00  0.00     0.031 A 
BRANCH  50  64
ATOM     64  C   UNL A   1      44.880  27.676  34.983  1.00  0.00    -0.014 A 
ATOM     65  C   UNL A   1      44.833  26.487  35.728  1.00  0.00     0.009 A 
ATOM     66  C   UNL A   1      46.064  28.428  34.975  1.00  0.00     0.009 A 
ATOM     67  C   UNL A   1      45.942  26.076  36.470  1.00  0.00     0.001 A 
ATOM     68  C   UNL A   1      47.179  28.002  35.697  1.00  0.00     0.001 A 
ATOM     69  C   UNL A   1      47.115  26.830  36.451  1.00  0.00     0.000 A 
ENDBRANCH  50  64
BRANCH  51  70
ATOM     70  C   UNL A   1      37.180  30.349  29.243  1.00  0.00    -0.014 A 
ATOM     71  C   UNL A   1      36.231  29.395  28.847  1.00  0.00     0.009 A 
ATOM     72  C   UNL A   1      37.028  31.677  28.813  1.00  0.00     0.009 A 
ATOM     73  C   UNL A   1      35.171  29.756  28.013  1.00  0.00     0.001 A 
ATOM     74  C   UNL A   1      35.951  32.041  28.002  1.00  0.00     0.001 A 
ATOM     75  C   UNL A   1      35.029  31.078  27.595  1.00  0.00     0.000 A 
ENDBRANCH  51  70
BRANCH  63  76
ATOM     76  C   UNL A   1      39.077  31.883  35.760  1.00  0.00    -0.014 A 
ATOM     77  C   UNL A   1      39.377  33.251  35.835  1.00  0.00     0.009 A 
ATOM     78  C   UNL A   1      38.153  31.337  36.665  1.00  0.00     0.009 A 
ATOM     79  C   UNL A   1      38.786  34.049  36.818  1.00  0.00     0.001 A 
ATOM     80  C   UNL A   1      37.544  32.143  37.627  1.00  0.00     0.001 A 
ATOM     81  C   UNL A   1      37.868  33.496  37.709  1.00  0.00     0.000 A 
ENDBRANCH  63  76
ENDBRANCH  37  38
ENDBRANCH  30  32
ENDBRANCH  29  30
ENDBRANCH  28  29
ENDBRANCH  27  28
ENDBRANCH   1  27
TORSDOF 16
ENDMDL
MODEL 3
REMARK VINA RESULT:     -10.6      6.635     11.975
REMARK SMILES Cc1cc(C(=O)OCCOCCOC(=O)c2ccc(-c3c4nc(c(-c5ccccc5)c5ccc([nH]5)c(-c5ccccc5)c5nc(c(-c6ccccc6)c6ccc3[nH]6)C=C5)C=C4)cc2)nc(N2CCN(c3ccccc3Cl)CC2)n1
REMARK SMILES IDX 10 1 9 2 8 3 7 4 5 5 6 6 4 7 1 8 2 9 3 10 79 11 65 12 64 13
REMARK SMILES IDX 66 14 67 15 78 16 68 17 77 18 69 19 70 20 71 21 75 22 72 23
REMARK SMILES IDX 74 24 76 25 73 26 11 27 12 28 13 29 14 30 15 31 16 32 17 33
REMARK SMILES IDX 63 34 18 35 62 36 19 37 20 38 21 39 56 40 22 41 61 42 55 43
REMARK SMILES IDX 57 44 23 45 60 46 54 47 53 48 24 50 46 51 31 52 45 53 32 54
REMARK SMILES IDX 35 55 44 56 58 57 33 58 34 59 43 61 59 62 36 63 25 64 26 65
REMARK SMILES IDX 30 66 27 67 29 68 28 69 47 70 48 71 52 72 49 73 51 74 50 75
REMARK SMILES IDX 37 76 38 77 42 78 39 79 41 80 40 81
REMARK H PARENT 57 49 35 60
REMARK Flexibility Score: inf
ROOT
ATOM      1  O   UNL A   1      41.440  20.427  26.217  1.00  0.00    -0.374 OA
ENDROOT
BRANCH   1   2
ATOM      2  C   UNL A   1      40.016  20.530  26.202  1.00  0.00     0.202 C 
BRANCH   2   3
ATOM      3  C   UNL A   1      39.452  21.951  26.148  1.00  0.00     0.261 C 
BRANCH   3   4
ATOM      4  O   UNL A   1      38.268  21.995  25.334  1.00  0.00    -0.459 OA
BRANCH   4   5
ATOM      5  C   UNL A   1      37.354  22.922  25.722  1.00  0.00     0.357 C 
ATOM      6  O   UNL A   1      37.589  23.974  26.296  1.00  0.00    -0.244 OA
BRANCH   5   7
ATOM      7  C   UNL A   1      36.014  22.539  25.216  1.00  0.00     0.154 A 
ATOM      8  C   UNL A   1      33.684  19.690  24.656  1.00  0.00     0.067 C 
ATOM      9  C   UNL A   1      34.293  21.058  24.737  1.00  0.00     0.044 A 
ATOM     10  C   UNL A   1      35.590  21.231  25.165  1.00  0.00     0.059 A 
ATOM     11  N   UNL A   1      33.490  22.100  24.423  1.00  0.00    -0.218 NA
ATOM     12  C   UNL A   1      34.014  23.333  24.459  1.00  0.00     0.226 A 
ATOM     13  N   UNL A   1      35.265  23.584  24.826  1.00  0.00    -0.206 NA
BRANCH  12  14
ATOM     14  N   UNL A   1      33.264  24.425  24.137  1.00  0.00    -0.337 N 
ATOM     15  C   UNL A   1      32.475  25.094  25.164  1.00  0.00     0.141 C 
ATOM     16  C   UNL A   1      32.755  24.489  22.767  1.00  0.00     0.141 C 
ATOM     17  C   UNL A   1      32.282  26.579  24.761  1.00  0.00     0.138 C 
ATOM     18  C   UNL A   1      32.497  25.956  22.357  1.00  0.00     0.138 C 
ATOM     19  N   UNL A   1      31.725  26.648  23.403  1.00  0.00    -0.367 N 
BRANCH  19  20
ATOM     20  C   UNL A   1      30.784  27.598  23.059  1.00  0.00     0.056 A 
ATOM     21  C   UNL A   1      31.162  28.751  22.355  1.00  0.00     0.027 A 
ATOM     22  C   UNL A   1      29.425  27.470  23.418  1.00  0.00     0.064 A 
ATOM     23  C   UNL A   1      30.230  29.740  22.025  1.00  0.00     0.002 A 
ATOM     24  C   UNL A   1      28.494  28.463  23.096  1.00  0.00     0.023 A 
ATOM     25  Cl  UNL A   1      28.853  26.121  24.346  1.00  0.00    -0.082 Cl
ATOM     26  C   UNL A   1      28.897  29.598  22.400  1.00  0.00     0.002 A 
ENDBRANCH  19  20
ENDBRANCH  12  14
ENDBRANCH   5   7
ENDBRANCH   4   5
ENDBRANCH   3   4
ENDBRANCH   2   3
ENDBRANCH   1   2
BRANCH   1  27
ATOM     27  C   UNL A   1      41.999  19.197  26.683  1.00  0.00     0.202 C 
BRANCH  27  28
ATOM     28  C   UNL A   1      43.123  18.610  25.820  1.00  0.00     0.261 C 
BRANCH  28  29
ATOM     29  O   UNL A   1      43.327  19.373  24.616  1.00  0.00    -0.460 OA
BRANCH  29  30
ATOM     30  C   UNL A   1      44.621  19.612  24.303  1.00  0.00     0.338 C 
ATOM     31  O   UNL A   1      45.392  18.870  23.710  1.00  0.00    -0.246 OA
BRANCH  30  32
ATOM     32  C   UNL A   1      44.967  21.009  24.624  1.00  0.00     0.060 A 
ATOM     33  C   UNL A   1      45.541  21.262  25.877  1.00  0.00     0.016 A 
ATOM     34  C   UNL A   1      44.681  22.062  23.752  1.00  0.00     0.016 A 
ATOM     35  C   UNL A   1      45.787  22.572  26.282  1.00  0.00     0.010 A 
ATOM     36  C   UNL A   1      44.921  23.377  24.164  1.00  0.00     0.010 A 
ATOM     37  C   UNL A   1      45.444  23.640  25.444  1.00  0.00    -0.014 A 
BRANCH  37  38
ATOM     38  C   UNL A   1      45.505  25.028  25.961  1.00  0.00     0.031 A 
ATOM     39  C   UNL A   1      46.821  25.757  25.949  1.00  0.00     0.074 A 
ATOM     40  C   UNL A   1      44.398  25.646  26.411  1.00  0.00     0.049 A 
ATOM     41  N   UNL A   1      47.104  26.963  26.373  1.00  0.00    -0.248 NA
ATOM     42  C   UNL A   1      47.969  25.033  25.380  1.00  0.00     0.031 C 
ATOM     43  C   UNL A   1      43.055  25.067  26.434  1.00  0.00     0.029 A 
ATOM     44  N   UNL A   1      44.233  26.902  26.937  1.00  0.00    -0.354 N 
ATOM     45  C   UNL A   1      48.460  27.139  26.128  1.00  0.00     0.074 A 
ATOM     46  C   UNL A   1      48.949  25.908  25.545  1.00  0.00     0.031 C 
ATOM     47  C   UNL A   1      42.204  25.967  26.957  1.00  0.00     0.029 A 
ATOM     48  C   UNL A   1      42.945  27.170  27.331  1.00  0.00     0.049 A 
ATOM     49  H   UNL A   1      44.969  27.551  27.025  1.00  0.00     0.167 HD
ATOM     50  C   UNL A   1      49.229  28.229  26.361  1.00  0.00     0.031 A 
ATOM     51  C   UNL A   1      42.429  28.253  27.941  1.00  0.00     0.031 A 
ATOM     52  C   UNL A   1      48.751  29.450  26.951  1.00  0.00     0.049 A 
ATOM     53  C   UNL A   1      43.322  29.421  28.263  1.00  0.00     0.074 A 
ATOM     54  C   UNL A   1      49.454  30.613  27.216  1.00  0.00     0.029 A 
ATOM     55  N   UNL A   1      47.449  29.665  27.372  1.00  0.00    -0.354 N 
ATOM     56  N   UNL A   1      44.598  29.582  28.006  1.00  0.00    -0.248 NA
ATOM     57  C   UNL A   1      42.700  30.559  28.956  1.00  0.00     0.031 C 
ATOM     58  C   UNL A   1      48.588  31.513  27.845  1.00  0.00     0.029 A 
ATOM     59  C   UNL A   1      47.333  30.931  27.921  1.00  0.00     0.049 A 
ATOM     60  H   UNL A   1      46.715  29.014  27.294  1.00  0.00     0.167 HD
ATOM     61  C   UNL A   1      44.922  30.849  28.478  1.00  0.00     0.074 A 
ATOM     62  C   UNL A   1      43.709  31.418  29.025  1.00  0.00     0.031 C 
ATOM     63  C   UNL A   1      46.119  31.484  28.459  1.00  0.00     0.031 A 
BRANCH  50  64
ATOM     64  C   UNL A   1      50.685  28.139  26.000  1.00  0.00    -0.014 A 
ATOM     65  C   UNL A   1      51.143  28.511  24.726  1.00  0.00     0.009 A 
ATOM     66  C   UNL A   1      51.615  27.715  26.961  1.00  0.00     0.009 A 
ATOM     67  C   UNL A   1      52.502  28.435  24.415  1.00  0.00     0.001 A 
ATOM     68  C   UNL A   1      52.976  27.664  26.655  1.00  0.00     0.001 A 
ATOM     69  C   UNL A   1      53.418  28.016  25.380  1.00  0.00     0.000 A 
ENDBRANCH  50  64
BRANCH  51  70
ATOM     70  C   UNL A   1      40.991  28.284  28.317  1.00  0.00    -0.014 A 
ATOM     71  C   UNL A   1      40.047  28.916  27.492  1.00  0.00     0.009 A 
ATOM     72  C   UNL A   1      40.560  27.708  29.522  1.00  0.00     0.009 A 
ATOM     73  C   UNL A   1      38.709  28.996  27.882  1.00  0.00     0.001 A 
ATOM     74  C   UNL A   1      39.216  27.765  29.896  1.00  0.00     0.001 A 
ATOM     75  C   UNL A   1      38.294  28.418  29.081  1.00  0.00     0.000 A 
ENDBRANCH  51  70
BRANCH  63  76
ATOM     76  C   UNL A   1      46.167  32.880  29.013  1.00  0.00    -0.014 A 
ATOM     77  C   UNL A   1      45.847  33.991  28.218  1.00  0.00     0.009 A 
ATOM     78  C   UNL A   1      46.499  33.081  30.362  1.00  0.00     0.009 A 
ATOM     79  C   UNL A   1      45.889  35.279  28.757  1.00  0.00     0.001 A 
ATOM     80  C   UNL A   1      46.512  34.367  30.904  1.00  0.00     0.001 A 
ATOM     81  C   UNL A   1      46.217  35.465  30.099  1.00  0.00     0.000 A 
ENDBRANCH  63  76
ENDBRANCH  37  38
ENDBRANCH  30  32
ENDBRANCH  29  30
ENDBRANCH  28  29
ENDBRANCH  27  28
ENDBRANCH   1  27
TORSDOF 16
ENDMDL
