MODEL 1
REMARK VINA RESULT:     -10.5      0.000      0.000
REMARK SMILES O=C(Nc1ccc(O)cc1C(=O)OCCOCCOC(=O)c1ccc(-c2c3nc(c(-c4ccccc4)c4ccc([nH]4)c(-c4ccccc4)c4nc(c(-c5ccccc5)c5ccc2[nH]5)C=C4)C=C3)cc1)c1ccc(Br)nc1
REMARK SMILES IDX 16 1 15 2 14 3 13 4 11 5 12 6 10 7 4 8 5 9 6 10 9 11 7 12
REMARK SMILES IDX 3 13 1 14 2 15 70 17 71 18 76 19 72 20 75 21 73 22 74 23
REMARK SMILES IDX 8 24 17 26 18 27 19 28 20 29 21 30 22 31 23 32 69 33 24 34
REMARK SMILES IDX 68 35 25 36 26 37 27 38 62 39 28 40 67 41 61 42 63 43 29 44
REMARK SMILES IDX 66 45 60 46 59 47 30 49 52 50 37 51 51 52 38 53 41 54 50 55
REMARK SMILES IDX 64 56 39 57 40 58 49 60 65 61 42 62 31 63 32 64 36 65 33 66
REMARK SMILES IDX 35 67 34 68 53 69 54 70 58 71 55 72 57 73 56 74 43 75 44 76
REMARK SMILES IDX 48 77 45 78 47 79 46 80
REMARK H PARENT 3 16 8 25 63 48 41 59
REMARK Flexibility Score: inf
ROOT
ATOM      1  O   UNL A   1      40.300  21.832  26.950  1.00  0.00    -0.374 OA
ENDROOT
BRANCH   1   2
ATOM      2  C   UNL A   1      39.181  22.596  26.502  1.00  0.00     0.202 C 
BRANCH   2   3
ATOM      3  C   UNL A   1      38.282  21.910  25.469  1.00  0.00     0.261 C 
BRANCH   3   4
ATOM      4  O   UNL A   1      36.928  22.388  25.580  1.00  0.00    -0.460 OA
BRANCH   4   5
ATOM      5  C   UNL A   1      36.271  22.518  24.402  1.00  0.00     0.340 C 
ATOM      6  O   UNL A   1      36.759  22.909  23.352  1.00  0.00    -0.246 OA
BRANCH   5   7
ATOM      7  C   UNL A   1      34.879  22.000  24.485  1.00  0.00     0.087 A 
ATOM      8  C   UNL A   1      33.816  22.329  23.618  1.00  0.00     0.056 A 
ATOM      9  C   UNL A   1      32.614  21.616  23.759  1.00  0.00     0.031 A 
ATOM     10  C   UNL A   1      32.394  20.754  24.836  1.00  0.00     0.048 A 
ATOM     11  C   UNL A   1      34.648  21.135  25.572  1.00  0.00     0.064 A 
ATOM     12  C   UNL A   1      33.403  20.556  25.760  1.00  0.00     0.116 A 
BRANCH   8  13
ATOM     13  N   UNL A   1      33.956  23.336  22.633  1.00  0.00    -0.321 N 
ATOM     14  O   UNL A   1      33.594  25.306  21.566  1.00  0.00    -0.269 OA
ATOM     15  C   UNL A   1      33.552  24.657  22.610  1.00  0.00     0.257 C 
ATOM     16  H   UNL A   1      34.427  23.042  21.818  1.00  0.00     0.170 HD
BRANCH  15  17
ATOM     17  C   UNL A   1      33.136  25.357  23.839  1.00  0.00     0.058 A 
ATOM     18  C   UNL A   1      34.091  25.849  24.730  1.00  0.00     0.018 A 
ATOM     19  C   UNL A   1      31.794  25.553  24.137  1.00  0.00     0.126 A 
ATOM     20  C   UNL A   1      33.668  26.586  25.836  1.00  0.00     0.037 A 
ATOM     21  N   UNL A   1      31.359  26.273  25.198  1.00  0.00    -0.249 NA
ATOM     22  C   UNL A   1      32.304  26.785  26.020  1.00  0.00     0.106 A 
ATOM     23  Br  UNL A   1      31.720  27.857  27.470  1.00  0.00    -0.029 Br
ENDBRANCH  15  17
ENDBRANCH   8  13
BRANCH  12  24
ATOM     24  O   UNL A   1      33.216  19.787  26.866  1.00  0.00    -0.508 OA
ATOM     25  H   UNL A   1      32.681  20.099  27.570  1.00  0.00     0.293 HD
ENDBRANCH  12  24
ENDBRANCH   5   7
ENDBRANCH   4   5
ENDBRANCH   3   4
ENDBRANCH   2   3
ENDBRANCH   1   2
BRANCH   1  26
ATOM     26  C   UNL A   1      41.244  21.412  25.963  1.00  0.00     0.202 C 
BRANCH  26  27
ATOM     27  C   UNL A   1      42.524  22.250  25.857  1.00  0.00     0.261 C 
BRANCH  27  28
ATOM     28  O   UNL A   1      42.243  23.600  25.442  1.00  0.00    -0.460 OA
BRANCH  28  29
ATOM     29  C   UNL A   1      43.158  24.516  25.842  1.00  0.00     0.338 C 
ATOM     30  O   UNL A   1      44.289  24.673  25.403  1.00  0.00    -0.246 OA
BRANCH  29  31
ATOM     31  C   UNL A   1      42.548  25.463  26.792  1.00  0.00     0.060 A 
ATOM     32  C   UNL A   1      43.133  26.731  26.902  1.00  0.00     0.016 A 
ATOM     33  C   UNL A   1      41.472  25.105  27.608  1.00  0.00     0.016 A 
ATOM     34  C   UNL A   1      42.679  27.629  27.866  1.00  0.00     0.010 A 
ATOM     35  C   UNL A   1      41.024  26.006  28.580  1.00  0.00     0.010 A 
ATOM     36  C   UNL A   1      41.649  27.256  28.737  1.00  0.00    -0.014 A 
BRANCH  36  37
ATOM     37  C   UNL A   1      41.325  28.120  29.898  1.00  0.00     0.031 A 
ATOM     38  C   UNL A   1      40.179  29.087  29.793  1.00  0.00     0.074 A 
ATOM     39  C   UNL A   1      42.021  28.024  31.043  1.00  0.00     0.049 A 
ATOM     40  N   UNL A   1      39.735  29.945  30.676  1.00  0.00    -0.248 NA
ATOM     41  C   UNL A   1      39.433  29.085  28.524  1.00  0.00     0.031 C 
ATOM     42  C   UNL A   1      43.128  27.101  31.284  1.00  0.00     0.029 A 
ATOM     43  N   UNL A   1      41.899  28.721  32.218  1.00  0.00    -0.354 N 
ATOM     44  C   UNL A   1      38.661  30.587  30.070  1.00  0.00     0.074 A 
ATOM     45  C   UNL A   1      38.541  30.041  28.735  1.00  0.00     0.031 C 
ATOM     46  C   UNL A   1      43.591  27.296  32.532  1.00  0.00     0.029 A 
ATOM     47  C   UNL A   1      42.836  28.377  33.160  1.00  0.00     0.049 A 
ATOM     48  H   UNL A   1      41.204  29.403  32.371  1.00  0.00     0.167 HD
ATOM     49  C   UNL A   1      37.845  31.540  30.580  1.00  0.00     0.031 A 
ATOM     50  C   UNL A   1      43.071  28.891  34.382  1.00  0.00     0.031 A 
ATOM     51  C   UNL A   1      37.977  32.101  31.897  1.00  0.00     0.049 A 
ATOM     52  C   UNL A   1      42.202  30.006  34.898  1.00  0.00     0.074 A 
ATOM     53  C   UNL A   1      37.197  33.070  32.505  1.00  0.00     0.029 A 
ATOM     54  N   UNL A   1      38.962  31.751  32.807  1.00  0.00    -0.354 N 
ATOM     55  N   UNL A   1      41.178  30.589  34.325  1.00  0.00    -0.248 NA
ATOM     56  C   UNL A   1      42.519  30.528  36.236  1.00  0.00     0.031 C 
ATOM     57  C   UNL A   1      37.741  33.342  33.765  1.00  0.00     0.029 A 
ATOM     58  C   UNL A   1      38.825  32.503  33.963  1.00  0.00     0.049 A 
ATOM     59  H   UNL A   1      39.656  31.070  32.654  1.00  0.00     0.167 HD
ATOM     60  C   UNL A   1      40.714  31.528  35.239  1.00  0.00     0.074 A 
ATOM     61  C   UNL A   1      41.559  31.426  36.410  1.00  0.00     0.031 C 
ATOM     62  C   UNL A   1      39.679  32.395  35.118  1.00  0.00     0.031 A 
BRANCH  49  63
ATOM     63  C   UNL A   1      36.754  32.058  29.685  1.00  0.00    -0.014 A 
ATOM     64  C   UNL A   1      35.480  31.468  29.674  1.00  0.00     0.009 A 
ATOM     65  C   UNL A   1      36.999  33.162  28.854  1.00  0.00     0.009 A 
ATOM     66  C   UNL A   1      34.485  31.950  28.821  1.00  0.00     0.001 A 
ATOM     67  C   UNL A   1      35.994  33.659  28.022  1.00  0.00     0.001 A 
ATOM     68  C   UNL A   1      34.741  33.047  27.998  1.00  0.00     0.000 A 
ENDBRANCH  49  63
BRANCH  50  69
ATOM     69  C   UNL A   1      44.200  28.372  35.196  1.00  0.00    -0.014 A 
ATOM     70  C   UNL A   1      45.480  28.935  35.092  1.00  0.00     0.009 A 
ATOM     71  C   UNL A   1      43.998  27.301  36.082  1.00  0.00     0.009 A 
ATOM     72  C   UNL A   1      46.540  28.423  35.845  1.00  0.00     0.001 A 
ATOM     73  C   UNL A   1      45.053  26.809  36.852  1.00  0.00     0.001 A 
ATOM     74  C   UNL A   1      46.325  27.365  36.727  1.00  0.00     0.000 A 
ENDBRANCH  50  69
BRANCH  62  75
ATOM     75  C   UNL A   1      39.383  33.282  36.295  1.00  0.00    -0.014 A 
ATOM     76  C   UNL A   1      38.651  32.815  37.396  1.00  0.00     0.009 A 
ATOM     77  C   UNL A   1      39.883  34.594  36.318  1.00  0.00     0.009 A 
ATOM     78  C   UNL A   1      38.398  33.654  38.484  1.00  0.00     0.001 A 
ATOM     79  C   UNL A   1      39.652  35.421  37.418  1.00  0.00     0.001 A 
ATOM     80  C   UNL A   1      38.903  34.955  38.495  1.00  0.00     0.000 A 
ENDBRANCH  62  75
ENDBRANCH  36  37
ENDBRANCH  29  31
ENDBRANCH  28  29
ENDBRANCH  27  28
ENDBRANCH  26  27
ENDBRANCH   1  26
TORSDOF 17
ENDMDL
MODEL 2
REMARK VINA RESULT:     -10.5      4.603      9.674
REMARK SMILES O=C(Nc1ccc(O)cc1C(=O)OCCOCCOC(=O)c1ccc(-c2c3nc(c(-c4ccccc4)c4ccc([nH]4)c(-c4ccccc4)c4nc(c(-c5ccccc5)c5ccc2[nH]5)C=C4)C=C3)cc1)c1ccc(Br)nc1
REMARK SMILES IDX 16 1 15 2 14 3 13 4 11 5 12 6 10 7 4 8 5 9 6 10 9 11 7 12
REMARK SMILES IDX 3 13 1 14 2 15 70 17 71 18 76 19 72 20 75 21 73 22 74 23
REMARK SMILES IDX 8 24 17 26 18 27 19 28 20 29 21 30 22 31 23 32 69 33 24 34
REMARK SMILES IDX 68 35 25 36 26 37 27 38 62 39 28 40 67 41 61 42 63 43 29 44
REMARK SMILES IDX 66 45 60 46 59 47 30 49 52 50 37 51 51 52 38 53 41 54 50 55
REMARK SMILES IDX 64 56 39 57 40 58 49 60 65 61 42 62 31 63 32 64 36 65 33 66
REMARK SMILES IDX 35 67 34 68 53 69 54 70 58 71 55 72 57 73 56 74 43 75 44 76
REMARK SMILES IDX 48 77 45 78 47 79 46 80
REMARK H PARENT 3 16 8 25 63 48 41 59
REMARK Flexibility Score: inf
ROOT
ATOM      1  O   UNL A   1      34.552  31.435  28.554  1.00  0.00    -0.374 OA
ENDROOT
BRANCH   1   2
ATOM      2  C   UNL A   1      34.011  31.172  27.259  1.00  0.00     0.202 C 
BRANCH   2   3
ATOM      3  C   UNL A   1      32.701  30.382  27.237  1.00  0.00     0.261 C 
BRANCH   3   4
ATOM      4  O   UNL A   1      32.903  29.082  26.652  1.00  0.00    -0.460 OA
BRANCH   4   5
ATOM      5  C   UNL A   1      31.880  28.211  26.829  1.00  0.00     0.340 C 
ATOM      6  O   UNL A   1      31.416  27.865  27.906  1.00  0.00    -0.246 OA
BRANCH   5   7
ATOM      7  C   UNL A   1      31.274  27.798  25.535  1.00  0.00     0.087 A 
ATOM      8  C   UNL A   1      30.559  26.606  25.295  1.00  0.00     0.056 A 
ATOM      9  C   UNL A   1      29.924  26.466  24.049  1.00  0.00     0.031 A 
ATOM     10  C   UNL A   1      30.146  27.369  23.006  1.00  0.00     0.048 A 
ATOM     11  C   UNL A   1      31.498  28.701  24.478  1.00  0.00     0.064 A 
ATOM     12  C   UNL A   1      30.971  28.458  23.220  1.00  0.00     0.116 A 
BRANCH   8  13
ATOM     13  N   UNL A   1      30.475  25.589  26.275  1.00  0.00    -0.321 N 
ATOM     14  O   UNL A   1      30.796  23.560  27.241  1.00  0.00    -0.269 OA
ATOM     15  C   UNL A   1      31.168  24.404  26.427  1.00  0.00     0.257 C 
ATOM     16  H   UNL A   1      29.802  25.756  26.975  1.00  0.00     0.170 HD
BRANCH  15  17
ATOM     17  C   UNL A   1      32.415  24.140  25.685  1.00  0.00     0.058 A 
ATOM     18  C   UNL A   1      33.581  24.845  25.988  1.00  0.00     0.018 A 
ATOM     19  C   UNL A   1      32.466  23.184  24.679  1.00  0.00     0.126 A 
ATOM     20  C   UNL A   1      34.765  24.508  25.333  1.00  0.00     0.037 A 
ATOM     21  N   UNL A   1      33.605  22.833  24.035  1.00  0.00    -0.249 NA
ATOM     22  C   UNL A   1      34.733  23.493  24.383  1.00  0.00     0.106 A 
ATOM     23  Br  UNL A   1      36.351  22.968  23.547  1.00  0.00    -0.029 Br
ENDBRANCH  15  17
ENDBRANCH   8  13
BRANCH  12  24
ATOM     24  O   UNL A   1      31.280  29.326  22.219  1.00  0.00    -0.508 OA
ATOM     25  H   UNL A   1      31.754  30.112  22.409  1.00  0.00     0.293 HD
ENDBRANCH  12  24
ENDBRANCH   5   7
ENDBRANCH   4   5
ENDBRANCH   3   4
ENDBRANCH   2   3
ENDBRANCH   1   2
BRANCH   1  26
ATOM     26  C   UNL A   1      34.429  32.767  29.056  1.00  0.00     0.202 C 
BRANCH  26  27
ATOM     27  C   UNL A   1      34.840  32.975  30.518  1.00  0.00     0.261 C 
BRANCH  27  28
ATOM     28  O   UNL A   1      36.239  32.704  30.722  1.00  0.00    -0.460 OA
BRANCH  28  29
ATOM     29  C   UNL A   1      36.499  31.585  31.440  1.00  0.00     0.338 C 
ATOM     30  O   UNL A   1      35.834  31.122  32.356  1.00  0.00    -0.246 OA
BRANCH  29  31
ATOM     31  C   UNL A   1      37.635  30.854  30.850  1.00  0.00     0.060 A 
ATOM     32  C   UNL A   1      38.513  30.210  31.731  1.00  0.00     0.016 A 
ATOM     33  C   UNL A   1      37.882  30.852  29.475  1.00  0.00     0.016 A 
ATOM     34  C   UNL A   1      39.671  29.604  31.246  1.00  0.00     0.010 A 
ATOM     35  C   UNL A   1      39.048  30.250  28.992  1.00  0.00     0.010 A 
ATOM     36  C   UNL A   1      39.965  29.656  29.878  1.00  0.00    -0.014 A 
BRANCH  36  37
ATOM     37  C   UNL A   1      41.296  29.212  29.400  1.00  0.00     0.031 A 
ATOM     38  C   UNL A   1      41.471  27.795  28.933  1.00  0.00     0.074 A 
ATOM     39  C   UNL A   1      42.331  30.069  29.353  1.00  0.00     0.049 A 
ATOM     40  N   UNL A   1      42.548  27.194  28.493  1.00  0.00    -0.248 NA
ATOM     41  C   UNL A   1      40.272  26.942  28.963  1.00  0.00     0.031 C 
ATOM     42  C   UNL A   1      42.281  31.477  29.741  1.00  0.00     0.029 A 
ATOM     43  N   UNL A   1      43.630  29.871  28.960  1.00  0.00    -0.354 N 
ATOM     44  C   UNL A   1      42.158  25.893  28.198  1.00  0.00     0.074 A 
ATOM     45  C   UNL A   1      40.755  25.784  28.537  1.00  0.00     0.031 C 
ATOM     46  C   UNL A   1      43.502  32.016  29.575  1.00  0.00     0.029 A 
ATOM     47  C   UNL A   1      44.421  30.984  29.102  1.00  0.00     0.049 A 
ATOM     48  H   UNL A   1      43.963  29.013  28.609  1.00  0.00     0.167 HD
ATOM     49  C   UNL A   1      42.898  24.882  27.685  1.00  0.00     0.031 A 
ATOM     50  C   UNL A   1      45.742  31.145  28.895  1.00  0.00     0.031 A 
ATOM     51  C   UNL A   1      44.298  24.979  27.369  1.00  0.00     0.049 A 
ATOM     52  C   UNL A   1      46.563  29.985  28.401  1.00  0.00     0.074 A 
ATOM     53  C   UNL A   1      45.134  24.010  26.842  1.00  0.00     0.029 A 
ATOM     54  N   UNL A   1      45.071  26.113  27.561  1.00  0.00    -0.354 N 
ATOM     55  N   UNL A   1      46.179  28.767  28.105  1.00  0.00    -0.248 NA
ATOM     56  C   UNL A   1      48.000  30.226  28.205  1.00  0.00     0.031 C 
ATOM     57  C   UNL A   1      46.425  24.543  26.765  1.00  0.00     0.029 A 
ATOM     58  C   UNL A   1      46.380  25.860  27.189  1.00  0.00     0.049 A 
ATOM     59  H   UNL A   1      44.738  26.971  27.912  1.00  0.00     0.167 HD
ATOM     60  C   UNL A   1      47.319  28.104  27.666  1.00  0.00     0.074 A 
ATOM     61  C   UNL A   1      48.406  29.060  27.721  1.00  0.00     0.031 C 
ATOM     62  C   UNL A   1      47.453  26.820  27.254  1.00  0.00     0.031 A 
BRANCH  49  63
ATOM     63  C   UNL A   1      42.204  23.566  27.467  1.00  0.00    -0.014 A 
ATOM     64  C   UNL A   1      41.605  23.254  26.235  1.00  0.00     0.009 A 
ATOM     65  C   UNL A   1      42.162  22.620  28.503  1.00  0.00     0.009 A 
ATOM     66  C   UNL A   1      40.947  22.035  26.059  1.00  0.00     0.001 A 
ATOM     67  C   UNL A   1      41.527  21.391  28.313  1.00  0.00     0.001 A 
ATOM     68  C   UNL A   1      40.911  21.103  27.096  1.00  0.00     0.000 A 
ENDBRANCH  49  63
BRANCH  50  69
ATOM     69  C   UNL A   1      46.379  32.456  29.181  1.00  0.00    -0.014 A 
ATOM     70  C   UNL A   1      46.479  33.439  28.185  1.00  0.00     0.009 A 
ATOM     71  C   UNL A   1      46.897  32.727  30.458  1.00  0.00     0.009 A 
ATOM     72  C   UNL A   1      47.103  34.659  28.458  1.00  0.00     0.001 A 
ATOM     73  C   UNL A   1      47.496  33.957  30.735  1.00  0.00     0.001 A 
ATOM     74  C   UNL A   1      47.605  34.919  29.733  1.00  0.00     0.000 A 
ENDBRANCH  50  69
BRANCH  62  75
ATOM     75  C   UNL A   1      48.817  26.381  26.800  1.00  0.00    -0.014 A 
ATOM     76  C   UNL A   1      49.669  25.655  27.645  1.00  0.00     0.009 A 
ATOM     77  C   UNL A   1      49.237  26.664  25.490  1.00  0.00     0.009 A 
ATOM     78  C   UNL A   1      50.929  25.247  27.198  1.00  0.00     0.001 A 
ATOM     79  C   UNL A   1      50.485  26.232  25.038  1.00  0.00     0.001 A 
ATOM     80  C   UNL A   1      51.332  25.533  25.893  1.00  0.00     0.000 A 
ENDBRANCH  62  75
ENDBRANCH  36  37
ENDBRANCH  29  31
ENDBRANCH  28  29
ENDBRANCH  27  28
ENDBRANCH  26  27
ENDBRANCH   1  26
TORSDOF 17
ENDMDL
MODEL 3
REMARK VINA RESULT:     -10.4      3.891      7.661
REMARK SMILES O=C(Nc1ccc(O)cc1C(=O)OCCOCCOC(=O)c1ccc(-c2c3nc(c(-c4ccccc4)c4ccc([nH]4)c(-c4ccccc4)c4nc(c(-c5ccccc5)c5ccc2[nH]5)C=C4)C=C3)cc1)c1ccc(Br)nc1
REMARK SMILES IDX 16 1 15 2 14 3 13 4 11 5 12 6 10 7 4 8 5 9 6 10 9 11 7 12
REMARK SMILES IDX 3 13 1 14 2 15 70 17 71 18 76 19 72 20 75 21 73 22 74 23
REMARK SMILES IDX 8 24 17 26 18 27 19 28 20 29 21 30 22 31 23 32 69 33 24 34
REMARK SMILES IDX 68 35 25 36 26 37 27 38 62 39 28 40 67 41 61 42 63 43 29 44
REMARK SMILES IDX 66 45 60 46 59 47 30 49 52 50 37 51 51 52 38 53 41 54 50 55
REMARK SMILES IDX 64 56 39 57 40 58 49 60 65 61 42 62 31 63 32 64 36 65 33 66
REMARK SMILES IDX 35 67 34 68 53 69 54 70 58 71 55 72 57 73 56 74 43 75 44 76
REMARK SMILES IDX 48 77 45 78 47 79 46 80
REMARK H PARENT 3 16 8 25 63 48 41 59
REMARK Flexibility Score: inf
ROOT
ATOM      1  O   UNL A   1      37.164  22.076  24.526  1.00  0.00    -0.374 OA
ENDROOT
BRANCH   1   2
ATOM      2  C   UNL A   1      36.906  23.110  25.476  1.00  0.00     0.202 C 
BRANCH   2   3
ATOM      3  C   UNL A   1      35.742  24.045  25.137  1.00  0.00     0.261 C 
BRANCH   3   4
ATOM      4  O   UNL A   1      35.279  23.811  23.793  1.00  0.00    -0.460 OA
BRANCH   4   5
ATOM      5  C   UNL A   1      34.017  23.328  23.700  1.00  0.00     0.340 C 
ATOM      6  O   UNL A   1      33.631  22.253  24.137  1.00  0.00    -0.246 OA
BRANCH   5   7
ATOM      7  C   UNL A   1      33.086  24.322  23.102  1.00  0.00     0.087 A 
ATOM      8  C   UNL A   1      31.946  24.872  23.724  1.00  0.00     0.056 A 
ATOM      9  C   UNL A   1      31.281  25.917  23.062  1.00  0.00     0.031 A 
ATOM     10  C   UNL A   1      31.601  26.275  21.750  1.00  0.00     0.048 A 
ATOM     11  C   UNL A   1      33.399  24.684  21.778  1.00  0.00     0.064 A 
ATOM     12  C   UNL A   1      32.633  25.620  21.103  1.00  0.00     0.116 A 
BRANCH   8  13
ATOM     13  N   UNL A   1      31.490  24.395  24.977  1.00  0.00    -0.321 N 
ATOM     14  O   UNL A   1      31.333  24.217  27.234  1.00  0.00    -0.269 OA
ATOM     15  C   UNL A   1      31.633  24.899  26.256  1.00  0.00     0.257 C 
ATOM     16  H   UNL A   1      30.979  23.554  24.928  1.00  0.00     0.170 HD
BRANCH  15  17
ATOM     17  C   UNL A   1      32.070  26.287  26.493  1.00  0.00     0.058 A 
ATOM     18  C   UNL A   1      33.378  26.677  26.200  1.00  0.00     0.018 A 
ATOM     19  C   UNL A   1      31.197  27.240  27.001  1.00  0.00     0.126 A 
ATOM     20  C   UNL A   1      33.734  28.017  26.348  1.00  0.00     0.037 A 
ATOM     21  N   UNL A   1      31.516  28.548  27.145  1.00  0.00    -0.249 NA
ATOM     22  C   UNL A   1      32.773  28.913  26.805  1.00  0.00     0.106 A 
ATOM     23  Br  UNL A   1      33.219  30.751  26.929  1.00  0.00    -0.029 Br
ENDBRANCH  15  17
ENDBRANCH   8  13
BRANCH  12  24
ATOM     24  O   UNL A   1      32.937  25.878  19.803  1.00  0.00    -0.508 OA
ATOM     25  H   UNL A   1      33.520  25.310  19.336  1.00  0.00     0.293 HD
ENDBRANCH  12  24
ENDBRANCH   5   7
ENDBRANCH   4   5
ENDBRANCH   3   4
ENDBRANCH   2   3
ENDBRANCH   1   2
BRANCH   1  26
ATOM     26  C   UNL A   1      37.778  20.881  25.011  1.00  0.00     0.202 C 
BRANCH  26  27
ATOM     27  C   UNL A   1      39.195  21.034  25.577  1.00  0.00     0.261 C 
BRANCH  27  28
ATOM     28  O   UNL A   1      39.696  19.790  26.102  1.00  0.00    -0.460 OA
BRANCH  28  29
ATOM     29  C   UNL A   1      41.046  19.683  26.109  1.00  0.00     0.338 C 
ATOM     30  O   UNL A   1      41.719  18.771  25.649  1.00  0.00    -0.246 OA
BRANCH  29  31
ATOM     31  C   UNL A   1      41.653  20.933  26.601  1.00  0.00     0.060 A 
ATOM     32  C   UNL A   1      41.463  21.252  27.952  1.00  0.00     0.016 A 
ATOM     33  C   UNL A   1      42.336  21.809  25.755  1.00  0.00     0.016 A 
ATOM     34  C   UNL A   1      41.908  22.475  28.451  1.00  0.00     0.010 A 
ATOM     35  C   UNL A   1      42.774  23.040  26.256  1.00  0.00     0.010 A 
ATOM     36  C   UNL A   1      42.530  23.392  27.595  1.00  0.00    -0.014 A 
BRANCH  36  37
ATOM     37  C   UNL A   1      42.796  24.771  28.073  1.00  0.00     0.031 A 
ATOM     38  C   UNL A   1      44.207  25.173  28.398  1.00  0.00     0.074 A 
ATOM     39  C   UNL A   1      41.798  25.664  28.185  1.00  0.00     0.049 A 
ATOM     40  N   UNL A   1      44.661  26.317  28.845  1.00  0.00    -0.248 NA
ATOM     41  C   UNL A   1      45.245  24.150  28.191  1.00  0.00     0.031 C 
ATOM     42  C   UNL A   1      40.395  25.411  27.864  1.00  0.00     0.029 A 
ATOM     43  N   UNL A   1      41.819  26.969  28.607  1.00  0.00    -0.354 N 
ATOM     44  C   UNL A   1      46.035  26.150  28.975  1.00  0.00     0.074 A 
ATOM     45  C   UNL A   1      46.335  24.788  28.590  1.00  0.00     0.031 C 
ATOM     46  C   UNL A   1      39.686  26.526  28.111  1.00  0.00     0.029 A 
ATOM     47  C   UNL A   1      40.579  27.555  28.637  1.00  0.00     0.049 A 
ATOM     48  H   UNL A   1      42.645  27.441  28.864  1.00  0.00     0.167 HD
ATOM     49  C   UNL A   1      46.963  27.052  29.374  1.00  0.00     0.031 A 
ATOM     50  C   UNL A   1      40.203  28.777  29.061  1.00  0.00     0.031 A 
ATOM     51  C   UNL A   1      46.666  28.399  29.780  1.00  0.00     0.049 A 
ATOM     52  C   UNL A   1      41.242  29.736  29.576  1.00  0.00     0.074 A 
ATOM     53  C   UNL A   1      47.540  29.388  30.198  1.00  0.00     0.029 A 
ATOM     54  N   UNL A   1      45.392  28.943  29.830  1.00  0.00    -0.354 N 
ATOM     55  N   UNL A   1      42.539  29.575  29.674  1.00  0.00    -0.248 NA
ATOM     56  C   UNL A   1      40.763  31.050  30.032  1.00  0.00     0.031 C 
ATOM     57  C   UNL A   1      46.788  30.514  30.550  1.00  0.00     0.029 A 
ATOM     58  C   UNL A   1      45.453  30.245  30.297  1.00  0.00     0.049 A 
ATOM     59  H   UNL A   1      44.566  28.472  29.574  1.00  0.00     0.167 HD
ATOM     60  C   UNL A   1      43.034  30.772  30.179  1.00  0.00     0.074 A 
ATOM     61  C   UNL A   1      41.899  31.654  30.353  1.00  0.00     0.031 C 
ATOM     62  C   UNL A   1      44.314  31.110  30.470  1.00  0.00     0.031 A 
BRANCH  49  63
ATOM     63  C   UNL A   1      48.393  26.588  29.419  1.00  0.00    -0.014 A 
ATOM     64  C   UNL A   1      48.918  25.958  30.559  1.00  0.00     0.009 A 
ATOM     65  C   UNL A   1      49.221  26.770  28.301  1.00  0.00     0.009 A 
ATOM     66  C   UNL A   1      50.254  25.553  30.590  1.00  0.00     0.001 A 
ATOM     67  C   UNL A   1      50.549  26.339  28.325  1.00  0.00     0.001 A 
ATOM     68  C   UNL A   1      51.067  25.740  29.473  1.00  0.00     0.000 A 
ENDBRANCH  49  63
BRANCH  50  69
ATOM     69  C   UNL A   1      38.767  29.156  29.041  1.00  0.00    -0.014 A 
ATOM     70  C   UNL A   1      38.185  29.710  27.891  1.00  0.00     0.009 A 
ATOM     71  C   UNL A   1      37.970  28.968  30.182  1.00  0.00     0.009 A 
ATOM     72  C   UNL A   1      36.839  30.086  27.891  1.00  0.00     0.001 A 
ATOM     73  C   UNL A   1      36.619  29.320  30.171  1.00  0.00     0.001 A 
ATOM     74  C   UNL A   1      36.057  29.885  29.028  1.00  0.00     0.000 A 
ENDBRANCH  50  69
BRANCH  62  75
ATOM     75  C   UNL A   1      44.560  32.503  30.980  1.00  0.00    -0.014 A 
ATOM     76  C   UNL A   1      44.787  33.571  30.100  1.00  0.00     0.009 A 
ATOM     77  C   UNL A   1      44.521  32.754  32.361  1.00  0.00     0.009 A 
ATOM     78  C   UNL A   1      45.003  34.860  30.596  1.00  0.00     0.001 A 
ATOM     79  C   UNL A   1      44.709  34.047  32.851  1.00  0.00     0.001 A 
ATOM     80  C   UNL A   1      44.959  35.097  31.970  1.00  0.00     0.000 A 
ENDBRANCH  62  75
ENDBRANCH  36  37
ENDBRANCH  29  31
ENDBRANCH  28  29
ENDBRANCH  27  28
ENDBRANCH  26  27
ENDBRANCH   1  26
TORSDOF 17
ENDMDL
