MODEL 1
REMARK VINA RESULT:     -11.0      0.000      0.000
REMARK SMILES COc1ccc(Cl)c(NS(=O)(=O)c2ccc(C)c(C(=O)OCCOCCOC(=O)c3ccc(-c4c5nc(c(-c6ccccc6)c6ccc([nH]6)c(-c6ccccc6)c6nc(c(-c7ccccc7)c7ccc4[nH]7)C=C6)C=C5)cc3)c2)c1
REMARK SMILES IDX 23 1 22 2 21 3 19 4 20 5 18 6 13 7 14 8 78 9 15 10 16 11
REMARK SMILES IDX 17 12 10 13 11 14 12 15 9 16 8 18 3 19 4 20 79 21 5 22 6 23
REMARK SMILES IDX 7 24 2 25 1 26 24 27 25 28 26 29 27 30 28 31 29 32 30 33
REMARK SMILES IDX 31 34 77 35 32 36 76 37 33 38 34 39 35 40 70 41 36 42 75 43
REMARK SMILES IDX 69 44 71 45 37 46 74 47 68 48 67 49 38 51 60 52 45 53 59 54
REMARK SMILES IDX 46 55 49 56 58 57 72 58 47 59 48 60 57 62 73 63 50 64 39 65
REMARK SMILES IDX 40 66 44 67 41 68 43 69 42 70 61 71 62 72 66 73 63 74 65 75
REMARK SMILES IDX 64 76 51 77 52 78 56 79 53 80 55 81 54 82
REMARK H PARENT 9 17 71 50 49 61
REMARK Flexibility Score: inf
ROOT
ATOM      1  C   UNL A   1      33.868  28.126  25.433  1.00  0.00     0.202 C 
ENDROOT
BRANCH   1   2
ATOM      2  C   UNL A   1      33.120  27.345  24.415  1.00  0.00     0.261 C 
BRANCH   2   3
ATOM      3  O   UNL A   1      33.741  26.068  24.204  1.00  0.00    -0.460 OA
BRANCH   3   4
ATOM      4  C   UNL A   1      33.742  25.413  23.021  1.00  0.00     0.338 C 
ATOM      5  O   UNL A   1      34.026  25.838  21.931  1.00  0.00    -0.246 OA
BRANCH   4   6
ATOM      6  C   UNL A   1      33.364  23.995  23.307  1.00  0.00     0.064 A 
ATOM      7  C   UNL A   1      34.174  21.865  24.099  1.00  0.00     0.088 A 
ATOM      8  C   UNL A   1      32.900  21.311  23.999  1.00  0.00     0.022 A 
ATOM      9  C   UNL A   1      34.434  23.153  23.626  1.00  0.00     0.038 A 
ATOM     10  C   UNL A   1      31.831  22.143  23.672  1.00  0.00     0.006 A 
ATOM     11  C   UNL A   1      32.036  23.511  23.422  1.00  0.00    -0.036 A 
ATOM     12  C   UNL A   1      30.817  24.400  23.435  1.00  0.00     0.045 C 
BRANCH   7  13
ATOM     13  S   UNL A   1      35.426  21.047  25.051  1.00  0.00     0.261 S 
ATOM     14  O   UNL A   1      35.333  19.627  24.786  1.00  0.00    -0.201 OA
ATOM     15  O   UNL A   1      35.322  21.553  26.404  1.00  0.00    -0.201 OA
BRANCH  13  16
ATOM     16  N   UNL A   1      36.968  21.514  24.492  1.00  0.00    -0.278 N 
ATOM     17  H   UNL A   1      37.034  21.867  23.575  1.00  0.00     0.180 HD
BRANCH  16  18
ATOM     18  C   UNL A   1      38.186  21.429  25.269  1.00  0.00     0.071 A 
ATOM     19  C   UNL A   1      40.146  20.217  26.060  1.00  0.00     0.121 A 
ATOM     20  C   UNL A   1      40.554  21.324  26.797  1.00  0.00     0.048 A 
ATOM     21  C   UNL A   1      38.926  20.253  25.366  1.00  0.00     0.074 A 
ATOM     22  C   UNL A   1      39.742  22.459  26.840  1.00  0.00     0.026 A 
ATOM     23  C   UNL A   1      38.572  22.514  26.075  1.00  0.00     0.065 A 
ATOM     24  Cl  UNL A   1      37.622  23.957  26.136  1.00  0.00    -0.082 Cl
BRANCH  19  25
ATOM     25  O   UNL A   1      40.894  19.098  25.828  1.00  0.00    -0.497 OA
ATOM     26  C   UNL A   1      42.305  19.206  25.950  1.00  0.00     0.278 C 
ENDBRANCH  19  25
ENDBRANCH  16  18
ENDBRANCH  13  16
ENDBRANCH   7  13
ENDBRANCH   4   6
ENDBRANCH   3   4
ENDBRANCH   2   3
ENDBRANCH   1   2
BRANCH   1  27
ATOM     27  O   UNL A   1      33.485  29.467  25.192  1.00  0.00    -0.374 OA
BRANCH  27  28
ATOM     28  C   UNL A   1      32.782  30.096  26.235  1.00  0.00     0.202 C 
BRANCH  28  29
ATOM     29  C   UNL A   1      33.645  30.238  27.493  1.00  0.00     0.261 C 
BRANCH  29  30
ATOM     30  O   UNL A   1      34.641  31.269  27.297  1.00  0.00    -0.460 OA
BRANCH  30  31
ATOM     31  C   UNL A   1      35.545  31.452  28.305  1.00  0.00     0.338 C 
ATOM     32  O   UNL A   1      35.781  32.516  28.855  1.00  0.00    -0.246 OA
BRANCH  31  33
ATOM     33  C   UNL A   1      36.416  30.243  28.435  1.00  0.00     0.060 A 
ATOM     34  C   UNL A   1      36.489  29.544  29.658  1.00  0.00     0.016 A 
ATOM     35  C   UNL A   1      37.413  30.071  27.481  1.00  0.00     0.016 A 
ATOM     36  C   UNL A   1      37.645  28.816  29.988  1.00  0.00     0.010 A 
ATOM     37  C   UNL A   1      38.597  29.496  27.877  1.00  0.00     0.010 A 
ATOM     38  C   UNL A   1      38.739  28.877  29.130  1.00  0.00    -0.014 A 
BRANCH  38  39
ATOM     39  C   UNL A   1      40.100  28.410  29.402  1.00  0.00     0.031 A 
ATOM     40  C   UNL A   1      40.511  27.147  28.757  1.00  0.00     0.074 A 
ATOM     41  C   UNL A   1      41.035  29.202  29.990  1.00  0.00     0.049 A 
ATOM     42  N   UNL A   1      41.505  26.444  29.166  1.00  0.00    -0.248 NA
ATOM     43  C   UNL A   1      39.811  26.525  27.630  1.00  0.00     0.031 C 
ATOM     44  C   UNL A   1      42.494  29.147  29.879  1.00  0.00     0.029 A 
ATOM     45  N   UNL A   1      40.846  30.297  30.833  1.00  0.00    -0.354 N 
ATOM     46  C   UNL A   1      41.793  25.547  28.168  1.00  0.00     0.074 A 
ATOM     47  C   UNL A   1      40.636  25.526  27.313  1.00  0.00     0.031 C 
ATOM     48  C   UNL A   1      43.047  29.965  30.799  1.00  0.00     0.029 A 
ATOM     49  C   UNL A   1      41.974  30.470  31.643  1.00  0.00     0.049 A 
ATOM     50  H   UNL A   1      40.041  30.863  30.855  1.00  0.00     0.167 HD
ATOM     51  C   UNL A   1      43.055  25.052  28.078  1.00  0.00     0.031 A 
ATOM     52  C   UNL A   1      41.841  30.425  32.997  1.00  0.00     0.031 A 
ATOM     53  C   UNL A   1      43.931  25.652  29.094  1.00  0.00     0.049 A 
ATOM     54  C   UNL A   1      42.505  29.169  33.497  1.00  0.00     0.074 A 
ATOM     55  C   UNL A   1      44.939  26.603  29.062  1.00  0.00     0.029 A 
ATOM     56  N   UNL A   1      43.555  25.561  30.426  1.00  0.00    -0.354 N 
ATOM     57  N   UNL A   1      43.040  28.302  32.683  1.00  0.00    -0.248 NA
ATOM     58  C   UNL A   1      42.604  28.742  34.885  1.00  0.00     0.031 C 
ATOM     59  C   UNL A   1      45.186  27.035  30.404  1.00  0.00     0.029 A 
ATOM     60  C   UNL A   1      44.349  26.330  31.251  1.00  0.00     0.049 A 
ATOM     61  H   UNL A   1      42.806  25.008  30.747  1.00  0.00     0.167 HD
ATOM     62  C   UNL A   1      43.535  27.242  33.358  1.00  0.00     0.074 A 
ATOM     63  C   UNL A   1      43.197  27.539  34.744  1.00  0.00     0.031 C 
ATOM     64  C   UNL A   1      44.155  26.222  32.695  1.00  0.00     0.031 A 
BRANCH  51  65
ATOM     65  C   UNL A   1      43.544  24.206  26.933  1.00  0.00    -0.014 A 
ATOM     66  C   UNL A   1      44.507  23.211  27.174  1.00  0.00     0.009 A 
ATOM     67  C   UNL A   1      43.084  24.308  25.606  1.00  0.00     0.009 A 
ATOM     68  C   UNL A   1      45.017  22.405  26.149  1.00  0.00     0.001 A 
ATOM     69  C   UNL A   1      43.615  23.531  24.567  1.00  0.00     0.001 A 
ATOM     70  C   UNL A   1      44.583  22.576  24.841  1.00  0.00     0.000 A 
ENDBRANCH  51  65
BRANCH  52  71
ATOM     71  C   UNL A   1      40.554  31.053  33.456  1.00  0.00    -0.014 A 
ATOM     72  C   UNL A   1      39.587  30.214  34.063  1.00  0.00     0.009 A 
ATOM     73  C   UNL A   1      40.500  32.425  33.753  1.00  0.00     0.009 A 
ATOM     74  C   UNL A   1      38.691  30.709  35.024  1.00  0.00     0.001 A 
ATOM     75  C   UNL A   1      39.616  32.911  34.733  1.00  0.00     0.001 A 
ATOM     76  C   UNL A   1      38.737  32.051  35.390  1.00  0.00     0.000 A 
ENDBRANCH  52  71
BRANCH  64  77
ATOM     77  C   UNL A   1      44.573  24.955  33.371  1.00  0.00    -0.014 A 
ATOM     78  C   UNL A   1      43.676  23.939  33.702  1.00  0.00     0.009 A 
ATOM     79  C   UNL A   1      45.924  24.766  33.728  1.00  0.00     0.009 A 
ATOM     80  C   UNL A   1      44.136  22.727  34.217  1.00  0.00     0.001 A 
ATOM     81  C   UNL A   1      46.384  23.573  34.273  1.00  0.00     0.001 A 
ATOM     82  C   UNL A   1      45.491  22.538  34.484  1.00  0.00     0.000 A 
ENDBRANCH  64  77
ENDBRANCH  38  39
ENDBRANCH  31  33
ENDBRANCH  30  31
ENDBRANCH  29  30
ENDBRANCH  28  29
ENDBRANCH  27  28
ENDBRANCH   1  27
TORSDOF 18
ENDMDL
MODEL 2
REMARK VINA RESULT:     -11.0      3.566      9.423
REMARK SMILES COc1ccc(Cl)c(NS(=O)(=O)c2ccc(C)c(C(=O)OCCOCCOC(=O)c3ccc(-c4c5nc(c(-c6ccccc6)c6ccc([nH]6)c(-c6ccccc6)c6nc(c(-c7ccccc7)c7ccc4[nH]7)C=C6)C=C5)cc3)c2)c1
REMARK SMILES IDX 23 1 22 2 21 3 19 4 20 5 18 6 13 7 14 8 78 9 15 10 16 11
REMARK SMILES IDX 17 12 10 13 11 14 12 15 9 16 8 18 3 19 4 20 79 21 5 22 6 23
REMARK SMILES IDX 7 24 2 25 1 26 24 27 25 28 26 29 27 30 28 31 29 32 30 33
REMARK SMILES IDX 31 34 77 35 32 36 76 37 33 38 34 39 35 40 70 41 36 42 75 43
REMARK SMILES IDX 69 44 71 45 37 46 74 47 68 48 67 49 38 51 60 52 45 53 59 54
REMARK SMILES IDX 46 55 49 56 58 57 72 58 47 59 48 60 57 62 73 63 50 64 39 65
REMARK SMILES IDX 40 66 44 67 41 68 43 69 42 70 61 71 62 72 66 73 63 74 65 75
REMARK SMILES IDX 64 76 51 77 52 78 56 79 53 80 55 81 54 82
REMARK H PARENT 9 17 71 50 49 61
REMARK Flexibility Score: inf
ROOT
ATOM      1  C   UNL A   1      37.065  22.043  24.564  1.00  0.00     0.202 C 
ENDROOT
BRANCH   1   2
ATOM      2  C   UNL A   1      36.528  23.282  25.183  1.00  0.00     0.261 C 
BRANCH   2   3
ATOM      3  O   UNL A   1      35.139  23.121  25.507  1.00  0.00    -0.460 OA
BRANCH   3   4
ATOM      4  C   UNL A   1      34.127  23.346  24.636  1.00  0.00     0.338 C 
ATOM      5  O   UNL A   1      33.726  22.631  23.756  1.00  0.00    -0.246 OA
BRANCH   4   6
ATOM      6  C   UNL A   1      33.529  24.668  24.996  1.00  0.00     0.064 A 
ATOM      7  C   UNL A   1      33.135  26.922  24.230  1.00  0.00     0.088 A 
ATOM      8  C   UNL A   1      32.421  27.221  25.389  1.00  0.00     0.022 A 
ATOM      9  C   UNL A   1      33.802  25.703  24.094  1.00  0.00     0.038 A 
ATOM     10  C   UNL A   1      32.155  26.197  26.295  1.00  0.00     0.006 A 
ATOM     11  C   UNL A   1      32.619  24.891  26.060  1.00  0.00    -0.036 A 
ATOM     12  C   UNL A   1      31.996  23.786  26.876  1.00  0.00     0.045 C 
BRANCH   7  13
ATOM     13  S   UNL A   1      33.002  27.974  22.810  1.00  0.00     0.261 S 
ATOM     14  O   UNL A   1      34.041  27.597  21.875  1.00  0.00    -0.201 OA
ATOM     15  O   UNL A   1      32.910  29.333  23.300  1.00  0.00    -0.201 OA
BRANCH  13  16
ATOM     16  N   UNL A   1      31.531  27.665  22.003  1.00  0.00    -0.278 N 
ATOM     17  H   UNL A   1      31.541  27.007  21.270  1.00  0.00     0.180 HD
BRANCH  16  18
ATOM     18  C   UNL A   1      30.270  28.299  22.320  1.00  0.00     0.071 A 
ATOM     19  C   UNL A   1      28.744  30.198  22.244  1.00  0.00     0.121 A 
ATOM     20  C   UNL A   1      27.791  29.483  22.961  1.00  0.00     0.048 A 
ATOM     21  C   UNL A   1      30.003  29.629  21.998  1.00  0.00     0.074 A 
ATOM     22  C   UNL A   1      28.100  28.204  23.431  1.00  0.00     0.026 A 
ATOM     23  C   UNL A   1      29.326  27.615  23.106  1.00  0.00     0.065 A 
ATOM     24  Cl  UNL A   1      29.644  26.017  23.683  1.00  0.00    -0.082 Cl
BRANCH  19  25
ATOM     25  O   UNL A   1      28.535  31.395  21.620  1.00  0.00    -0.497 OA
ATOM     26  C   UNL A   1      28.730  32.580  22.377  1.00  0.00     0.278 C 
ENDBRANCH  19  25
ENDBRANCH  16  18
ENDBRANCH  13  16
ENDBRANCH   7  13
ENDBRANCH   4   6
ENDBRANCH   3   4
ENDBRANCH   2   3
ENDBRANCH   1   2
BRANCH   1  27
ATOM     27  O   UNL A   1      37.767  21.407  25.615  1.00  0.00    -0.374 OA
BRANCH  27  28
ATOM     28  C   UNL A   1      38.883  22.105  26.112  1.00  0.00     0.202 C 
BRANCH  28  29
ATOM     29  C   UNL A   1      40.019  21.153  26.498  1.00  0.00     0.261 C 
BRANCH  29  30
ATOM     30  O   UNL A   1      41.171  21.388  25.654  1.00  0.00    -0.460 OA
BRANCH  30  31
ATOM     31  C   UNL A   1      42.371  20.913  26.102  1.00  0.00     0.338 C 
ATOM     32  O   UNL A   1      42.714  19.742  26.091  1.00  0.00    -0.246 OA
BRANCH  31  33
ATOM     33  C   UNL A   1      43.080  21.975  26.882  1.00  0.00     0.060 A 
ATOM     34  C   UNL A   1      42.900  22.077  28.278  1.00  0.00     0.016 A 
ATOM     35  C   UNL A   1      43.584  23.058  26.171  1.00  0.00     0.016 A 
ATOM     36  C   UNL A   1      43.058  23.316  28.923  1.00  0.00     0.010 A 
ATOM     37  C   UNL A   1      43.579  24.292  26.777  1.00  0.00     0.010 A 
ATOM     38  C   UNL A   1      43.304  24.444  28.146  1.00  0.00    -0.014 A 
BRANCH  38  39
ATOM     39  C   UNL A   1      43.253  25.841  28.582  1.00  0.00     0.031 A 
ATOM     40  C   UNL A   1      41.966  26.545  28.408  1.00  0.00     0.074 A 
ATOM     41  C   UNL A   1      44.228  26.399  29.347  1.00  0.00     0.049 A 
ATOM     42  N   UNL A   1      41.865  27.826  28.404  1.00  0.00    -0.248 NA
ATOM     43  C   UNL A   1      40.683  25.881  28.161  1.00  0.00     0.031 C 
ATOM     44  C   UNL A   1      44.139  27.522  30.284  1.00  0.00     0.029 A 
ATOM     45  N   UNL A   1      45.567  26.027  29.462  1.00  0.00    -0.354 N 
ATOM     46  C   UNL A   1      40.532  28.118  28.548  1.00  0.00     0.074 A 
ATOM     47  C   UNL A   1      39.828  26.902  28.239  1.00  0.00     0.031 C 
ATOM     48  C   UNL A   1      45.381  27.895  30.658  1.00  0.00     0.029 A 
ATOM     49  C   UNL A   1      46.330  27.128  29.866  1.00  0.00     0.049 A 
ATOM     50  H   UNL A   1      45.922  25.126  29.285  1.00  0.00     0.167 HD
ATOM     51  C   UNL A   1      40.179  29.314  29.087  1.00  0.00     0.031 A 
ATOM     52  C   UNL A   1      47.352  27.562  29.078  1.00  0.00     0.031 A 
ATOM     53  C   UNL A   1      41.364  30.083  29.486  1.00  0.00     0.049 A 
ATOM     54  C   UNL A   1      46.967  28.894  28.492  1.00  0.00     0.074 A 
ATOM     55  C   UNL A   1      41.959  30.383  30.702  1.00  0.00     0.029 A 
ATOM     56  N   UNL A   1      42.335  30.343  28.530  1.00  0.00    -0.354 N 
ATOM     57  N   UNL A   1      45.801  29.434  28.716  1.00  0.00    -0.248 NA
ATOM     58  C   UNL A   1      47.781  29.712  27.604  1.00  0.00     0.031 C 
ATOM     59  C   UNL A   1      43.280  30.871  30.443  1.00  0.00     0.029 A 
ATOM     60  C   UNL A   1      43.477  30.891  29.073  1.00  0.00     0.049 A 
ATOM     61  H   UNL A   1      42.221  30.155  27.569  1.00  0.00     0.167 HD
ATOM     62  C   UNL A   1      45.671  30.604  28.054  1.00  0.00     0.074 A 
ATOM     63  C   UNL A   1      46.928  30.719  27.326  1.00  0.00     0.031 C 
ATOM     64  C   UNL A   1      44.529  31.343  28.164  1.00  0.00     0.031 A 
BRANCH  51  65
ATOM     65  C   UNL A   1      38.767  29.680  29.461  1.00  0.00    -0.014 A 
ATOM     66  C   UNL A   1      38.128  30.733  28.784  1.00  0.00     0.009 A 
ATOM     67  C   UNL A   1      37.998  29.022  30.439  1.00  0.00     0.009 A 
ATOM     68  C   UNL A   1      36.824  31.136  29.098  1.00  0.00     0.001 A 
ATOM     69  C   UNL A   1      36.706  29.441  30.785  1.00  0.00     0.001 A 
ATOM     70  C   UNL A   1      36.118  30.501  30.110  1.00  0.00     0.000 A 
ENDBRANCH  51  65
BRANCH  52  71
ATOM     71  C   UNL A   1      48.075  26.420  28.417  1.00  0.00    -0.014 A 
ATOM     72  C   UNL A   1      48.227  26.458  27.010  1.00  0.00     0.009 A 
ATOM     73  C   UNL A   1      48.989  25.641  29.147  1.00  0.00     0.009 A 
ATOM     74  C   UNL A   1      49.323  25.848  26.377  1.00  0.00     0.001 A 
ATOM     75  C   UNL A   1      50.097  25.053  28.511  1.00  0.00     0.001 A 
ATOM     76  C   UNL A   1      50.282  25.183  27.136  1.00  0.00     0.000 A 
ENDBRANCH  52  71
BRANCH  64  77
ATOM     77  C   UNL A   1      44.268  32.557  27.330  1.00  0.00    -0.014 A 
ATOM     78  C   UNL A   1      44.336  32.550  25.937  1.00  0.00     0.009 A 
ATOM     79  C   UNL A   1      43.966  33.784  27.956  1.00  0.00     0.009 A 
ATOM     80  C   UNL A   1      43.962  33.675  25.203  1.00  0.00     0.001 A 
ATOM     81  C   UNL A   1      43.624  34.919  27.231  1.00  0.00     0.001 A 
ATOM     82  C   UNL A   1      43.588  34.852  25.849  1.00  0.00     0.000 A 
ENDBRANCH  64  77
ENDBRANCH  38  39
ENDBRANCH  31  33
ENDBRANCH  30  31
ENDBRANCH  29  30
ENDBRANCH  28  29
ENDBRANCH  27  28
ENDBRANCH   1  27
TORSDOF 18
ENDMDL
MODEL 3
REMARK VINA RESULT:     -10.6      2.767      4.641
REMARK SMILES COc1ccc(Cl)c(NS(=O)(=O)c2ccc(C)c(C(=O)OCCOCCOC(=O)c3ccc(-c4c5nc(c(-c6ccccc6)c6ccc([nH]6)c(-c6ccccc6)c6nc(c(-c7ccccc7)c7ccc4[nH]7)C=C6)C=C5)cc3)c2)c1
REMARK SMILES IDX 23 1 22 2 21 3 19 4 20 5 18 6 13 7 14 8 78 9 15 10 16 11
REMARK SMILES IDX 17 12 10 13 11 14 12 15 9 16 8 18 3 19 4 20 79 21 5 22 6 23
REMARK SMILES IDX 7 24 2 25 1 26 24 27 25 28 26 29 27 30 28 31 29 32 30 33
REMARK SMILES IDX 31 34 77 35 32 36 76 37 33 38 34 39 35 40 70 41 36 42 75 43
REMARK SMILES IDX 69 44 71 45 37 46 74 47 68 48 67 49 38 51 60 52 45 53 59 54
REMARK SMILES IDX 46 55 49 56 58 57 72 58 47 59 48 60 57 62 73 63 50 64 39 65
REMARK SMILES IDX 40 66 44 67 41 68 43 69 42 70 61 71 62 72 66 73 63 74 65 75
REMARK SMILES IDX 64 76 51 77 52 78 56 79 53 80 55 81 54 82
REMARK H PARENT 9 17 71 50 49 61
REMARK Flexibility Score: inf
ROOT
ATOM      1  C   UNL A   1      35.279  29.632  27.666  1.00  0.00     0.202 C 
ENDROOT
BRANCH   1   2
ATOM      2  C   UNL A   1      33.872  29.220  27.424  1.00  0.00     0.261 C 
BRANCH   2   3
ATOM      3  O   UNL A   1      33.825  27.905  26.853  1.00  0.00    -0.460 OA
BRANCH   3   4
ATOM      4  C   UNL A   1      32.700  27.333  26.363  1.00  0.00     0.338 C 
ATOM      5  O   UNL A   1      31.816  26.785  26.968  1.00  0.00    -0.246 OA
BRANCH   4   6
ATOM      6  C   UNL A   1      32.711  27.546  24.884  1.00  0.00     0.064 A 
ATOM      7  C   UNL A   1      33.137  26.505  22.749  1.00  0.00     0.088 A 
ATOM      8  C   UNL A   1      32.738  27.658  22.075  1.00  0.00     0.022 A 
ATOM      9  C   UNL A   1      33.256  26.494  24.140  1.00  0.00     0.038 A 
ATOM     10  C   UNL A   1      32.204  28.713  22.811  1.00  0.00     0.006 A 
ATOM     11  C   UNL A   1      32.092  28.629  24.210  1.00  0.00    -0.036 A 
ATOM     12  C   UNL A   1      31.190  29.632  24.885  1.00  0.00     0.045 C 
BRANCH   7  13
ATOM     13  S   UNL A   1      33.257  24.965  21.879  1.00  0.00     0.261 S 
ATOM     14  O   UNL A   1      34.400  24.245  22.399  1.00  0.00    -0.201 OA
ATOM     15  O   UNL A   1      33.157  25.271  20.468  1.00  0.00    -0.201 OA
BRANCH  13  16
ATOM     16  N   UNL A   1      31.903  23.994  22.246  1.00  0.00    -0.278 N 
ATOM     17  H   UNL A   1      31.203  23.907  21.558  1.00  0.00     0.180 HD
BRANCH  16  18
ATOM     18  C   UNL A   1      31.710  23.288  23.494  1.00  0.00     0.071 A 
ATOM     19  C   UNL A   1      32.099  21.384  24.964  1.00  0.00     0.121 A 
ATOM     20  C   UNL A   1      31.304  21.961  25.949  1.00  0.00     0.048 A 
ATOM     21  C   UNL A   1      32.231  22.015  23.717  1.00  0.00     0.074 A 
ATOM     22  C   UNL A   1      30.643  23.162  25.683  1.00  0.00     0.026 A 
ATOM     23  C   UNL A   1      30.852  23.824  24.469  1.00  0.00     0.065 A 
ATOM     24  Cl  UNL A   1      30.038  25.326  24.206  1.00  0.00    -0.082 Cl
BRANCH  19  25
ATOM     25  O   UNL A   1      32.897  20.289  25.130  1.00  0.00    -0.497 OA
ATOM     26  C   UNL A   1      34.283  20.430  24.859  1.00  0.00     0.278 C 
ENDBRANCH  19  25
ENDBRANCH  16  18
ENDBRANCH  13  16
ENDBRANCH   7  13
ENDBRANCH   4   6
ENDBRANCH   3   4
ENDBRANCH   2   3
ENDBRANCH   1   2
BRANCH   1  27
ATOM     27  O   UNL A   1      35.202  31.032  27.862  1.00  0.00    -0.374 OA
BRANCH  27  28
ATOM     28  C   UNL A   1      33.948  31.614  27.606  1.00  0.00     0.202 C 
BRANCH  28  29
ATOM     29  C   UNL A   1      33.824  32.997  28.253  1.00  0.00     0.261 C 
BRANCH  29  30
ATOM     30  O   UNL A   1      34.052  32.900  29.679  1.00  0.00    -0.460 OA
BRANCH  30  31
ATOM     31  C   UNL A   1      34.442  34.042  30.319  1.00  0.00     0.338 C 
ATOM     32  O   UNL A   1      33.799  35.078  30.367  1.00  0.00    -0.246 OA
BRANCH  31  33
ATOM     33  C   UNL A   1      35.888  33.948  30.693  1.00  0.00     0.060 A 
ATOM     34  C   UNL A   1      36.891  34.191  29.731  1.00  0.00     0.016 A 
ATOM     35  C   UNL A   1      36.201  33.257  31.857  1.00  0.00     0.016 A 
ATOM     36  C   UNL A   1      38.154  33.588  29.859  1.00  0.00     0.010 A 
ATOM     37  C   UNL A   1      37.377  32.544  31.892  1.00  0.00     0.010 A 
ATOM     38  C   UNL A   1      38.358  32.684  30.897  1.00  0.00    -0.014 A 
BRANCH  38  39
ATOM     39  C   UNL A   1      39.493  31.772  31.061  1.00  0.00     0.031 A 
ATOM     40  C   UNL A   1      39.457  30.518  30.282  1.00  0.00     0.074 A 
ATOM     41  C   UNL A   1      40.644  32.151  31.675  1.00  0.00     0.049 A 
ATOM     42  N   UNL A   1      40.169  29.491  30.577  1.00  0.00    -0.248 NA
ATOM     43  C   UNL A   1      38.575  30.278  29.136  1.00  0.00     0.031 C 
ATOM     44  C   UNL A   1      42.003  31.635  31.492  1.00  0.00     0.029 A 
ATOM     45  N   UNL A   1      40.839  33.154  32.625  1.00  0.00    -0.354 N 
ATOM     46  C   UNL A   1      40.132  28.657  29.488  1.00  0.00     0.074 A 
ATOM     47  C   UNL A   1      39.021  29.103  28.689  1.00  0.00     0.031 C 
ATOM     48  C   UNL A   1      42.807  32.127  32.457  1.00  0.00     0.029 A 
ATOM     49  C   UNL A   1      41.972  32.864  33.393  1.00  0.00     0.049 A 
ATOM     50  H   UNL A   1      40.265  33.946  32.738  1.00  0.00     0.167 HD
ATOM     51  C   UNL A   1      41.160  27.790  29.293  1.00  0.00     0.031 A 
ATOM     52  C   UNL A   1      41.850  32.726  34.742  1.00  0.00     0.031 A 
ATOM     53  C   UNL A   1      42.198  27.963  30.317  1.00  0.00     0.049 A 
ATOM     54  C   UNL A   1      42.070  31.278  35.091  1.00  0.00     0.074 A 
ATOM     55  C   UNL A   1      43.462  28.532  30.327  1.00  0.00     0.029 A 
ATOM     56  N   UNL A   1      41.832  27.862  31.651  1.00  0.00    -0.354 N 
ATOM     57  N   UNL A   1      42.279  30.372  34.176  1.00  0.00    -0.248 NA
ATOM     58  C   UNL A   1      42.042  30.700  36.427  1.00  0.00     0.031 C 
ATOM     59  C   UNL A   1      43.856  28.718  31.690  1.00  0.00     0.029 A 
ATOM     60  C   UNL A   1      42.845  28.241  32.506  1.00  0.00     0.049 A 
ATOM     61  H   UNL A   1      40.946  27.554  31.954  1.00  0.00     0.167 HD
ATOM     62  C   UNL A   1      42.406  29.145  34.725  1.00  0.00     0.074 A 
ATOM     63  C   UNL A   1      42.203  29.391  36.147  1.00  0.00     0.031 C 
ATOM     64  C   UNL A   1      42.646  28.053  33.942  1.00  0.00     0.031 A 
BRANCH  51  65
ATOM     65  C   UNL A   1      41.327  26.954  28.051  1.00  0.00    -0.014 A 
ATOM     66  C   UNL A   1      41.886  27.536  26.900  1.00  0.00     0.009 A 
ATOM     67  C   UNL A   1      40.988  25.592  27.950  1.00  0.00     0.009 A 
ATOM     68  C   UNL A   1      42.048  26.818  25.709  1.00  0.00     0.001 A 
ATOM     69  C   UNL A   1      41.113  24.876  26.751  1.00  0.00     0.001 A 
ATOM     70  C   UNL A   1      41.647  25.492  25.628  1.00  0.00     0.000 A 
ENDBRANCH  51  65
BRANCH  52  71
ATOM     71  C   UNL A   1      40.847  33.688  35.317  1.00  0.00    -0.014 A 
ATOM     72  C   UNL A   1      39.544  33.204  35.587  1.00  0.00     0.009 A 
ATOM     73  C   UNL A   1      41.277  34.822  36.028  1.00  0.00     0.009 A 
ATOM     74  C   UNL A   1      38.759  33.753  36.615  1.00  0.00     0.001 A 
ATOM     75  C   UNL A   1      40.498  35.352  37.070  1.00  0.00     0.001 A 
ATOM     76  C   UNL A   1      39.257  34.800  37.385  1.00  0.00     0.000 A 
ENDBRANCH  52  71
BRANCH  64  77
ATOM     77  C   UNL A   1      42.633  26.657  34.477  1.00  0.00    -0.014 A 
ATOM     78  C   UNL A   1      41.582  26.144  35.236  1.00  0.00     0.009 A 
ATOM     79  C   UNL A   1      43.734  25.807  34.240  1.00  0.00     0.009 A 
ATOM     80  C   UNL A   1      41.562  24.799  35.604  1.00  0.00     0.001 A 
ATOM     81  C   UNL A   1      43.736  24.474  34.633  1.00  0.00     0.001 A 
ATOM     82  C   UNL A   1      42.629  23.961  35.286  1.00  0.00     0.000 A 
ENDBRANCH  64  77
ENDBRANCH  38  39
ENDBRANCH  31  33
ENDBRANCH  30  31
ENDBRANCH  29  30
ENDBRANCH  28  29
ENDBRANCH  27  28
ENDBRANCH   1  27
TORSDOF 18
ENDMDL
