MODEL 1
REMARK VINA RESULT:     -11.0      0.000      0.000
REMARK SMILES CCc1ccc2c(CC(=O)OCCOCCOC(=O)c3ccc(-c4c5nc(c(-c6ccccc6)c6ccc([nH]6)c(-c6ccccc6)c6nc(c(-c7ccccc7)c7ccc4[nH]7)C=C6)C=C5)cc3)c(C(=O)c3cc(C)ccn3)[nH]c2c1
REMARK SMILES IDX 13 1 12 2 11 3 9 4 10 5 8 6 7 7 3 8 4 9 80 10 5 11 79 12
REMARK SMILES IDX 6 13 78 14 68 15 2 17 1 18 69 19 70 20 71 21 72 22 77 23
REMARK SMILES IDX 73 24 76 25 74 26 75 27 14 28 15 29 16 30 17 31 18 32 19 33
REMARK SMILES IDX 20 34 21 35 67 36 22 37 66 38 23 39 24 40 25 41 60 42 26 43
REMARK SMILES IDX 65 44 59 45 61 46 27 47 64 48 58 49 57 50 28 52 50 53 35 54
REMARK SMILES IDX 49 55 36 56 39 57 48 58 62 59 37 60 38 61 47 63 63 64 40 65
REMARK SMILES IDX 29 66 30 67 34 68 31 69 33 70 32 71 51 72 52 73 56 74 53 75
REMARK SMILES IDX 55 76 54 77 41 78 42 79 46 80 43 81 45 82 44 83
REMARK H PARENT 78 16 61 51 39 62
REMARK Flexibility Score: inf
ROOT
ATOM      1  C   UNL A   1      35.692  22.346  25.403  1.00  0.00     0.202 C 
ENDROOT
BRANCH   1   2
ATOM      2  C   UNL A   1      34.994  23.581  24.816  1.00  0.00     0.261 C 
BRANCH   2   3
ATOM      3  O   UNL A   1      34.322  24.397  25.799  1.00  0.00    -0.463 OA
BRANCH   3   4
ATOM      4  C   UNL A   1      33.900  25.609  25.343  1.00  0.00     0.310 C 
ATOM      5  O   UNL A   1      34.303  26.122  24.299  1.00  0.00    -0.252 OA
BRANCH   4   6
ATOM      6  C   UNL A   1      32.813  26.278  26.156  1.00  0.00     0.161 C 
BRANCH   6   7
ATOM      7  C   UNL A   1      31.388  26.215  25.670  1.00  0.00     0.000 A 
ATOM      8  C   UNL A   1      29.135  28.713  23.110  1.00  0.00    -0.046 A 
ATOM      9  C   UNL A   1      30.351  29.238  23.562  1.00  0.00     0.004 A 
ATOM     10  C   UNL A   1      28.680  27.483  23.616  1.00  0.00     0.030 A 
ATOM     11  C   UNL A   1      31.157  28.533  24.467  1.00  0.00     0.011 A 
ATOM     12  C   UNL A   1      29.514  26.780  24.499  1.00  0.00     0.046 A 
ATOM     13  C   UNL A   1      30.751  27.259  24.912  1.00  0.00     0.004 A 
ATOM     14  N   UNL A   1      29.346  25.551  25.089  1.00  0.00    -0.352 N 
ATOM     15  C   UNL A   1      30.526  25.108  25.653  1.00  0.00     0.093 A 
ATOM     16  H   UNL A   1      28.497  25.052  25.106  1.00  0.00     0.167 HD
BRANCH   8  17
ATOM     17  C   UNL A   1      28.362  29.429  22.026  1.00  0.00     0.032 C 
ATOM     18  C   UNL A   1      28.001  30.864  22.373  1.00  0.00     0.009 C 
ENDBRANCH   8  17
BRANCH  15  19
ATOM     19  C   UNL A   1      30.775  23.736  26.108  1.00  0.00     0.227 C 
ATOM     20  O   UNL A   1      30.481  23.341  27.235  1.00  0.00    -0.285 OA
BRANCH  19  21
ATOM     21  C   UNL A   1      31.361  22.730  25.165  1.00  0.00     0.113 A 
ATOM     22  C   UNL A   1      31.843  21.504  25.601  1.00  0.00     0.036 A 
ATOM     23  N   UNL A   1      31.392  23.121  23.865  1.00  0.00    -0.253 NA
ATOM     24  C   UNL A   1      32.419  20.649  24.652  1.00  0.00    -0.047 A 
ATOM     25  C   UNL A   1      31.961  22.291  22.973  1.00  0.00     0.112 A 
ATOM     26  C   UNL A   1      32.934  19.292  25.024  1.00  0.00     0.044 C 
ATOM     27  C   UNL A   1      32.487  21.062  23.316  1.00  0.00     0.023 A 
ENDBRANCH  19  21
ENDBRANCH  15  19
ENDBRANCH   6   7
ENDBRANCH   4   6
ENDBRANCH   3   4
ENDBRANCH   2   3
ENDBRANCH   1   2
BRANCH   1  28
ATOM     28  O   UNL A   1      36.372  21.480  24.498  1.00  0.00    -0.374 OA
BRANCH  28  29
ATOM     29  C   UNL A   1      36.773  20.205  24.993  1.00  0.00     0.202 C 
BRANCH  29  30
ATOM     30  C   UNL A   1      38.272  19.902  24.980  1.00  0.00     0.261 C 
BRANCH  30  31
ATOM     31  O   UNL A   1      39.048  20.674  25.897  1.00  0.00    -0.460 OA
BRANCH  31  32
ATOM     32  C   UNL A   1      40.290  20.199  26.103  1.00  0.00     0.338 C 
ATOM     33  O   UNL A   1      40.735  19.083  25.868  1.00  0.00    -0.246 OA
BRANCH  32  34
ATOM     34  C   UNL A   1      41.125  21.289  26.597  1.00  0.00     0.060 A 
ATOM     35  C   UNL A   1      41.105  21.554  27.968  1.00  0.00     0.016 A 
ATOM     36  C   UNL A   1      41.821  22.105  25.702  1.00  0.00     0.016 A 
ATOM     37  C   UNL A   1      41.729  22.699  28.446  1.00  0.00     0.010 A 
ATOM     38  C   UNL A   1      42.450  23.250  26.183  1.00  0.00     0.010 A 
ATOM     39  C   UNL A   1      42.358  23.574  27.547  1.00  0.00    -0.014 A 
BRANCH  39  40
ATOM     40  C   UNL A   1      42.771  24.906  28.032  1.00  0.00     0.031 A 
ATOM     41  C   UNL A   1      41.721  25.952  28.261  1.00  0.00     0.074 A 
ATOM     42  C   UNL A   1      44.061  25.146  28.317  1.00  0.00     0.049 A 
ATOM     43  N   UNL A   1      41.844  27.154  28.762  1.00  0.00    -0.248 NA
ATOM     44  C   UNL A   1      40.345  25.600  27.870  1.00  0.00     0.031 C 
ATOM     45  C   UNL A   1      45.154  24.192  28.141  1.00  0.00     0.029 A 
ATOM     46  N   UNL A   1      44.662  26.267  28.824  1.00  0.00    -0.354 N 
ATOM     47  C   UNL A   1      40.567  27.701  28.743  1.00  0.00     0.074 A 
ATOM     48  C   UNL A   1      39.691  26.717  28.148  1.00  0.00     0.031 C 
ATOM     49  C   UNL A   1      46.299  24.768  28.544  1.00  0.00     0.029 A 
ATOM     50  C   UNL A   1      46.017  26.132  28.985  1.00  0.00     0.049 A 
ATOM     51  H   UNL A   1      44.170  27.089  29.050  1.00  0.00     0.167 HD
ATOM     52  C   UNL A   1      40.162  28.912  29.191  1.00  0.00     0.031 A 
ATOM     53  C   UNL A   1      46.925  27.014  29.441  1.00  0.00     0.031 A 
ATOM     54  C   UNL A   1      41.046  29.888  29.766  1.00  0.00     0.049 A 
ATOM     55  C   UNL A   1      46.459  28.363  29.909  1.00  0.00     0.074 A 
ATOM     56  C   UNL A   1      40.742  31.137  30.280  1.00  0.00     0.029 A 
ATOM     57  N   UNL A   1      42.418  29.726  29.893  1.00  0.00    -0.354 N 
ATOM     58  N   UNL A   1      45.242  28.850  29.938  1.00  0.00    -0.248 NA
ATOM     59  C   UNL A   1      47.488  29.275  30.424  1.00  0.00     0.031 C 
ATOM     60  C   UNL A   1      41.939  31.750  30.668  1.00  0.00     0.029 A 
ATOM     61  C   UNL A   1      42.981  30.863  30.448  1.00  0.00     0.049 A 
ATOM     62  H   UNL A   1      42.918  28.921  29.627  1.00  0.00     0.167 HD
ATOM     63  C   UNL A   1      45.353  30.120  30.490  1.00  0.00     0.074 A 
ATOM     64  C   UNL A   1      46.757  30.317  30.795  1.00  0.00     0.031 C 
ATOM     65  C   UNL A   1      44.384  31.039  30.725  1.00  0.00     0.031 A 
BRANCH  52  66
ATOM     66  C   UNL A   1      38.706  29.251  29.026  1.00  0.00    -0.014 A 
ATOM     67  C   UNL A   1      37.790  29.084  30.078  1.00  0.00     0.009 A 
ATOM     68  C   UNL A   1      38.240  29.731  27.793  1.00  0.00     0.009 A 
ATOM     69  C   UNL A   1      36.432  29.345  29.883  1.00  0.00     0.001 A 
ATOM     70  C   UNL A   1      36.886  30.019  27.608  1.00  0.00     0.001 A 
ATOM     71  C   UNL A   1      35.982  29.814  28.650  1.00  0.00     0.000 A 
ENDBRANCH  52  66
BRANCH  53  72
ATOM     72  C   UNL A   1      48.358  26.629  29.476  1.00  0.00    -0.014 A 
ATOM     73  C   UNL A   1      48.870  25.853  30.525  1.00  0.00     0.009 A 
ATOM     74  C   UNL A   1      49.213  26.999  28.424  1.00  0.00     0.009 A 
ATOM     75  C   UNL A   1      50.211  25.463  30.525  1.00  0.00     0.001 A 
ATOM     76  C   UNL A   1      50.547  26.587  28.415  1.00  0.00     0.001 A 
ATOM     77  C   UNL A   1      51.045  25.823  29.467  1.00  0.00     0.000 A 
ENDBRANCH  53  72
BRANCH  65  78
ATOM     78  C   UNL A   1      44.813  32.333  31.356  1.00  0.00    -0.014 A 
ATOM     79  C   UNL A   1      45.173  33.439  30.570  1.00  0.00     0.009 A 
ATOM     80  C   UNL A   1      44.818  32.457  32.753  1.00  0.00     0.009 A 
ATOM     81  C   UNL A   1      45.564  34.635  31.176  1.00  0.00     0.001 A 
ATOM     82  C   UNL A   1      45.182  33.662  33.355  1.00  0.00     0.001 A 
ATOM     83  C   UNL A   1      45.564  34.747  32.566  1.00  0.00     0.000 A 
ENDBRANCH  65  78
ENDBRANCH  39  40
ENDBRANCH  32  34
ENDBRANCH  31  32
ENDBRANCH  30  31
ENDBRANCH  29  30
ENDBRANCH  28  29
ENDBRANCH   1  28
TORSDOF 18
ENDMDL
MODEL 2
REMARK VINA RESULT:     -10.9      0.566      5.754
REMARK SMILES CCc1ccc2c(CC(=O)OCCOCCOC(=O)c3ccc(-c4c5nc(c(-c6ccccc6)c6ccc([nH]6)c(-c6ccccc6)c6nc(c(-c7ccccc7)c7ccc4[nH]7)C=C6)C=C5)cc3)c(C(=O)c3cc(C)ccn3)[nH]c2c1
REMARK SMILES IDX 13 1 12 2 11 3 9 4 10 5 8 6 7 7 3 8 4 9 80 10 5 11 79 12
REMARK SMILES IDX 6 13 78 14 68 15 2 17 1 18 69 19 70 20 71 21 72 22 77 23
REMARK SMILES IDX 73 24 76 25 74 26 75 27 14 28 15 29 16 30 17 31 18 32 19 33
REMARK SMILES IDX 20 34 21 35 67 36 22 37 66 38 23 39 24 40 25 41 60 42 26 43
REMARK SMILES IDX 65 44 59 45 61 46 27 47 64 48 58 49 57 50 28 52 50 53 35 54
REMARK SMILES IDX 49 55 36 56 39 57 48 58 62 59 37 60 38 61 47 63 63 64 40 65
REMARK SMILES IDX 29 66 30 67 34 68 31 69 33 70 32 71 51 72 52 73 56 74 53 75
REMARK SMILES IDX 55 76 54 77 41 78 42 79 46 80 43 81 45 82 44 83
REMARK H PARENT 78 16 61 51 39 62
REMARK Flexibility Score: inf
ROOT
ATOM      1  C   UNL A   1      36.533  23.187  24.469  1.00  0.00     0.202 C 
ENDROOT
BRANCH   1   2
ATOM      2  C   UNL A   1      35.048  23.264  24.851  1.00  0.00     0.261 C 
BRANCH   2   3
ATOM      3  O   UNL A   1      34.717  24.391  25.691  1.00  0.00    -0.463 OA
BRANCH   3   4
ATOM      4  C   UNL A   1      34.049  25.396  25.059  1.00  0.00     0.310 C 
ATOM      5  O   UNL A   1      34.157  25.636  23.857  1.00  0.00    -0.252 OA
BRANCH   4   6
ATOM      6  C   UNL A   1      33.067  26.172  25.911  1.00  0.00     0.161 C 
BRANCH   6   7
ATOM      7  C   UNL A   1      31.608  26.174  25.534  1.00  0.00     0.000 A 
ATOM      8  C   UNL A   1      29.298  28.731  23.088  1.00  0.00    -0.046 A 
ATOM      9  C   UNL A   1      30.569  29.201  23.434  1.00  0.00     0.004 A 
ATOM     10  C   UNL A   1      28.820  27.538  23.657  1.00  0.00     0.030 A 
ATOM     11  C   UNL A   1      31.405  28.474  24.294  1.00  0.00     0.011 A 
ATOM     12  C   UNL A   1      29.682  26.811  24.492  1.00  0.00     0.046 A 
ATOM     13  C   UNL A   1      30.970  27.233  24.800  1.00  0.00     0.004 A 
ATOM     14  N   UNL A   1      29.497  25.605  25.123  1.00  0.00    -0.352 N 
ATOM     15  C   UNL A   1      30.693  25.113  25.609  1.00  0.00     0.093 A 
ATOM     16  H   UNL A   1      28.628  25.152  25.216  1.00  0.00     0.167 HD
BRANCH   8  17
ATOM     17  C   UNL A   1      28.482  29.463  22.047  1.00  0.00     0.032 C 
ATOM     18  C   UNL A   1      28.972  30.873  21.760  1.00  0.00     0.009 C 
ENDBRANCH   8  17
BRANCH  15  19
ATOM     19  C   UNL A   1      30.906  23.740  26.079  1.00  0.00     0.227 C 
ATOM     20  O   UNL A   1      30.643  23.376  27.223  1.00  0.00    -0.285 OA
BRANCH  19  21
ATOM     21  C   UNL A   1      31.412  22.696  25.131  1.00  0.00     0.113 A 
ATOM     22  C   UNL A   1      31.816  21.441  25.564  1.00  0.00     0.036 A 
ATOM     23  N   UNL A   1      31.455  23.082  23.829  1.00  0.00    -0.253 NA
ATOM     24  C   UNL A   1      32.323  20.548  24.611  1.00  0.00    -0.047 A 
ATOM     25  C   UNL A   1      31.958  22.215  22.933  1.00  0.00     0.112 A 
ATOM     26  C   UNL A   1      32.751  19.160  24.979  1.00  0.00     0.044 C 
ATOM     27  C   UNL A   1      32.404  20.954  23.273  1.00  0.00     0.023 A 
ENDBRANCH  19  21
ENDBRANCH  15  19
ENDBRANCH   6   7
ENDBRANCH   4   6
ENDBRANCH   3   4
ENDBRANCH   2   3
ENDBRANCH   1   2
BRANCH   1  28
ATOM     28  O   UNL A   1      37.149  21.901  24.470  1.00  0.00    -0.374 OA
BRANCH  28  29
ATOM     29  C   UNL A   1      38.166  21.667  25.440  1.00  0.00     0.202 C 
BRANCH  29  30
ATOM     30  C   UNL A   1      38.982  20.382  25.284  1.00  0.00     0.261 C 
BRANCH  30  31
ATOM     31  O   UNL A   1      39.851  20.087  26.377  1.00  0.00    -0.460 OA
BRANCH  31  32
ATOM     32  C   UNL A   1      41.154  20.026  26.044  1.00  0.00     0.338 C 
ATOM     33  O   UNL A   1      41.733  19.199  25.353  1.00  0.00    -0.246 OA
BRANCH  32  34
ATOM     34  C   UNL A   1      41.822  21.209  26.580  1.00  0.00     0.060 A 
ATOM     35  C   UNL A   1      41.860  21.362  27.968  1.00  0.00     0.016 A 
ATOM     36  C   UNL A   1      42.296  22.201  25.718  1.00  0.00     0.016 A 
ATOM     37  C   UNL A   1      42.311  22.561  28.504  1.00  0.00     0.010 A 
ATOM     38  C   UNL A   1      42.750  23.401  26.258  1.00  0.00     0.010 A 
ATOM     39  C   UNL A   1      42.708  23.599  27.649  1.00  0.00    -0.014 A 
BRANCH  39  40
ATOM     40  C   UNL A   1      42.919  24.944  28.222  1.00  0.00     0.031 A 
ATOM     41  C   UNL A   1      44.311  25.364  28.592  1.00  0.00     0.074 A 
ATOM     42  C   UNL A   1      41.884  25.789  28.349  1.00  0.00     0.049 A 
ATOM     43  N   UNL A   1      44.738  26.521  29.027  1.00  0.00    -0.248 NA
ATOM     44  C   UNL A   1      45.364  24.343  28.458  1.00  0.00     0.031 C 
ATOM     45  C   UNL A   1      40.497  25.480  28.006  1.00  0.00     0.029 A 
ATOM     46  N   UNL A   1      41.847  27.083  28.793  1.00  0.00    -0.354 N 
ATOM     47  C   UNL A   1      46.105  26.367  29.221  1.00  0.00     0.074 A 
ATOM     48  C   UNL A   1      46.430  24.997  28.893  1.00  0.00     0.031 C 
ATOM     49  C   UNL A   1      39.741  26.564  28.246  1.00  0.00     0.029 A 
ATOM     50  C   UNL A   1      40.589  27.630  28.775  1.00  0.00     0.049 A 
ATOM     51  H   UNL A   1      42.645  27.574  29.096  1.00  0.00     0.167 HD
ATOM     52  C   UNL A   1      47.009  27.289  29.627  1.00  0.00     0.031 A 
ATOM     53  C   UNL A   1      40.173  28.855  29.143  1.00  0.00     0.031 A 
ATOM     54  C   UNL A   1      46.671  28.644  29.966  1.00  0.00     0.049 A 
ATOM     55  C   UNL A   1      41.188  29.857  29.617  1.00  0.00     0.074 A 
ATOM     56  C   UNL A   1      47.507  29.673  30.362  1.00  0.00     0.029 A 
ATOM     57  N   UNL A   1      45.381  29.157  29.957  1.00  0.00    -0.354 N 
ATOM     58  N   UNL A   1      42.486  29.718  29.745  1.00  0.00    -0.248 NA
ATOM     59  C   UNL A   1      40.683  31.187  29.978  1.00  0.00     0.031 C 
ATOM     60  C   UNL A   1      46.715  30.792  30.644  1.00  0.00     0.029 A 
ATOM     61  C   UNL A   1      45.393  30.477  30.371  1.00  0.00     0.049 A 
ATOM     62  H   UNL A   1      44.576  28.654  29.696  1.00  0.00     0.167 HD
ATOM     63  C   UNL A   1      42.959  30.947  30.184  1.00  0.00     0.074 A 
ATOM     64  C   UNL A   1      41.806  31.822  30.284  1.00  0.00     0.031 C 
ATOM     65  C   UNL A   1      44.229  31.321  30.477  1.00  0.00     0.031 A 
BRANCH  52  66
ATOM     66  C   UNL A   1      48.435  26.834  29.768  1.00  0.00    -0.014 A 
ATOM     67  C   UNL A   1      48.912  26.270  30.963  1.00  0.00     0.009 A 
ATOM     68  C   UNL A   1      49.321  26.984  28.690  1.00  0.00     0.009 A 
ATOM     69  C   UNL A   1      50.256  25.913  31.091  1.00  0.00     0.001 A 
ATOM     70  C   UNL A   1      50.658  26.599  28.810  1.00  0.00     0.001 A 
ATOM     71  C   UNL A   1      51.127  26.076  30.014  1.00  0.00     0.000 A 
ENDBRANCH  52  66
BRANCH  53  72
ATOM     72  C   UNL A   1      38.729  29.186  29.065  1.00  0.00    -0.014 A 
ATOM     73  C   UNL A   1      37.895  29.040  30.184  1.00  0.00     0.009 A 
ATOM     74  C   UNL A   1      38.186  29.700  27.876  1.00  0.00     0.009 A 
ATOM     75  C   UNL A   1      36.546  29.393  30.108  1.00  0.00     0.001 A 
ATOM     76  C   UNL A   1      36.844  30.076  27.811  1.00  0.00     0.001 A 
ATOM     77  C   UNL A   1      36.024  29.918  28.927  1.00  0.00     0.000 A 
ENDBRANCH  53  72
BRANCH  65  78
ATOM     78  C   UNL A   1      44.435  32.741  30.920  1.00  0.00    -0.014 A 
ATOM     79  C   UNL A   1      44.380  33.094  32.277  1.00  0.00     0.009 A 
ATOM     80  C   UNL A   1      44.727  33.730  29.968  1.00  0.00     0.009 A 
ATOM     81  C   UNL A   1      44.579  34.420  32.668  1.00  0.00     0.001 A 
ATOM     82  C   UNL A   1      44.954  35.048  30.365  1.00  0.00     0.001 A 
ATOM     83  C   UNL A   1      44.870  35.394  31.713  1.00  0.00     0.000 A 
ENDBRANCH  65  78
ENDBRANCH  39  40
ENDBRANCH  32  34
ENDBRANCH  31  32
ENDBRANCH  30  31
ENDBRANCH  29  30
ENDBRANCH  28  29
ENDBRANCH   1  28
TORSDOF 18
ENDMDL
MODEL 3
REMARK VINA RESULT:     -10.8      2.111      5.760
REMARK SMILES CCc1ccc2c(CC(=O)OCCOCCOC(=O)c3ccc(-c4c5nc(c(-c6ccccc6)c6ccc([nH]6)c(-c6ccccc6)c6nc(c(-c7ccccc7)c7ccc4[nH]7)C=C6)C=C5)cc3)c(C(=O)c3cc(C)ccn3)[nH]c2c1
REMARK SMILES IDX 13 1 12 2 11 3 9 4 10 5 8 6 7 7 3 8 4 9 80 10 5 11 79 12
REMARK SMILES IDX 6 13 78 14 68 15 2 17 1 18 69 19 70 20 71 21 72 22 77 23
REMARK SMILES IDX 73 24 76 25 74 26 75 27 14 28 15 29 16 30 17 31 18 32 19 33
REMARK SMILES IDX 20 34 21 35 67 36 22 37 66 38 23 39 24 40 25 41 60 42 26 43
REMARK SMILES IDX 65 44 59 45 61 46 27 47 64 48 58 49 57 50 28 52 50 53 35 54
REMARK SMILES IDX 49 55 36 56 39 57 48 58 62 59 37 60 38 61 47 63 63 64 40 65
REMARK SMILES IDX 29 66 30 67 34 68 31 69 33 70 32 71 51 72 52 73 56 74 53 75
REMARK SMILES IDX 55 76 54 77 41 78 42 79 46 80 43 81 45 82 44 83
REMARK H PARENT 78 16 61 51 39 62
REMARK Flexibility Score: inf
ROOT
ATOM      1  C   UNL A   1      35.255  23.131  25.646  1.00  0.00     0.202 C 
ENDROOT
BRANCH   1   2
ATOM      2  C   UNL A   1      34.447  24.426  25.819  1.00  0.00     0.261 C 
BRANCH   2   3
ATOM      3  O   UNL A   1      34.279  25.177  24.598  1.00  0.00    -0.463 OA
BRANCH   3   4
ATOM      4  C   UNL A   1      33.769  26.429  24.764  1.00  0.00     0.310 C 
ATOM      5  O   UNL A   1      34.078  27.390  24.060  1.00  0.00    -0.252 OA
BRANCH   4   6
ATOM      6  C   UNL A   1      32.704  26.571  25.830  1.00  0.00     0.161 C 
BRANCH   6   7
ATOM      7  C   UNL A   1      31.252  26.499  25.432  1.00  0.00     0.000 A 
ATOM      8  C   UNL A   1      28.859  28.915  22.923  1.00  0.00    -0.046 A 
ATOM      9  C   UNL A   1      30.102  29.448  23.281  1.00  0.00     0.004 A 
ATOM     10  C   UNL A   1      28.430  27.707  23.499  1.00  0.00     0.030 A 
ATOM     11  C   UNL A   1      30.958  28.772  24.162  1.00  0.00     0.011 A 
ATOM     12  C   UNL A   1      29.313  27.032  24.356  1.00  0.00     0.046 A 
ATOM     13  C   UNL A   1      30.575  27.518  24.676  1.00  0.00     0.004 A 
ATOM     14  N   UNL A   1      29.177  25.825  24.999  1.00  0.00    -0.352 N 
ATOM     15  C   UNL A   1      30.387  25.397  25.507  1.00  0.00     0.093 A 
ATOM     16  H   UNL A   1      28.329  25.332  25.085  1.00  0.00     0.167 HD
BRANCH   8  17
ATOM     17  C   UNL A   1      28.025  29.595  21.861  1.00  0.00     0.032 C 
ATOM     18  C   UNL A   1      28.635  30.881  21.329  1.00  0.00     0.009 C 
ENDBRANCH   8  17
BRANCH  15  19
ATOM     19  C   UNL A   1      30.658  24.041  25.997  1.00  0.00     0.227 C 
ATOM     20  O   UNL A   1      30.344  23.660  27.123  1.00  0.00    -0.285 OA
BRANCH  19  21
ATOM     21  C   UNL A   1      31.294  23.032  25.090  1.00  0.00     0.113 A 
ATOM     22  C   UNL A   1      31.757  21.809  25.557  1.00  0.00     0.036 A 
ATOM     23  N   UNL A   1      31.391  23.416  23.791  1.00  0.00    -0.253 NA
ATOM     24  C   UNL A   1      32.384  20.952  24.643  1.00  0.00    -0.047 A 
ATOM     25  C   UNL A   1      32.007  22.584  22.934  1.00  0.00     0.112 A 
ATOM     26  C   UNL A   1      32.884  19.598  25.047  1.00  0.00     0.044 C 
ATOM     27  C   UNL A   1      32.519  21.358  23.310  1.00  0.00     0.023 A 
ENDBRANCH  19  21
ENDBRANCH  15  19
ENDBRANCH   6   7
ENDBRANCH   4   6
ENDBRANCH   3   4
ENDBRANCH   2   3
ENDBRANCH   1   2
BRANCH   1  28
ATOM     28  O   UNL A   1      36.334  23.146  24.715  1.00  0.00    -0.374 OA
BRANCH  28  29
ATOM     29  C   UNL A   1      36.636  21.924  24.047  1.00  0.00     0.202 C 
BRANCH  29  30
ATOM     30  C   UNL A   1      37.642  20.997  24.731  1.00  0.00     0.261 C 
BRANCH  30  31
ATOM     31  O   UNL A   1      38.059  21.416  26.030  1.00  0.00    -0.460 OA
BRANCH  31  32
ATOM     32  C   UNL A   1      39.394  21.454  26.195  1.00  0.00     0.338 C 
ATOM     33  O   UNL A   1      40.239  20.660  25.803  1.00  0.00    -0.246 OA
BRANCH  32  34
ATOM     34  C   UNL A   1      39.740  22.699  26.875  1.00  0.00     0.060 A 
ATOM     35  C   UNL A   1      39.081  23.864  26.475  1.00  0.00     0.016 A 
ATOM     36  C   UNL A   1      40.779  22.727  27.807  1.00  0.00     0.016 A 
ATOM     37  C   UNL A   1      39.519  25.089  26.958  1.00  0.00     0.010 A 
ATOM     38  C   UNL A   1      41.215  23.956  28.293  1.00  0.00     0.010 A 
ATOM     39  C   UNL A   1      40.619  25.140  27.827  1.00  0.00    -0.014 A 
BRANCH  39  40
ATOM     40  C   UNL A   1      41.235  26.452  28.108  1.00  0.00     0.031 A 
ATOM     41  C   UNL A   1      42.557  26.783  27.479  1.00  0.00     0.074 A 
ATOM     42  C   UNL A   1      40.588  27.349  28.868  1.00  0.00     0.049 A 
ATOM     43  N   UNL A   1      43.235  27.900  27.517  1.00  0.00    -0.248 NA
ATOM     44  C   UNL A   1      43.203  25.710  26.704  1.00  0.00     0.031 C 
ATOM     45  C   UNL A   1      39.295  27.129  29.514  1.00  0.00     0.029 A 
ATOM     46  N   UNL A   1      40.930  28.629  29.213  1.00  0.00    -0.354 N 
ATOM     47  C   UNL A   1      44.387  27.664  26.776  1.00  0.00     0.074 A 
ATOM     48  C   UNL A   1      44.334  26.289  26.333  1.00  0.00     0.031 C 
ATOM     49  C   UNL A   1      38.946  28.245  30.175  1.00  0.00     0.029 A 
ATOM     50  C   UNL A   1      39.999  29.244  30.011  1.00  0.00     0.049 A 
ATOM     51  H   UNL A   1      41.761  29.065  28.918  1.00  0.00     0.167 HD
ATOM     52  C   UNL A   1      45.393  28.521  26.485  1.00  0.00     0.031 A 
ATOM     53  C   UNL A   1      40.001  30.479  30.547  1.00  0.00     0.031 A 
ATOM     54  C   UNL A   1      45.442  29.882  26.945  1.00  0.00     0.049 A 
ATOM     55  C   UNL A   1      41.140  31.407  30.233  1.00  0.00     0.074 A 
ATOM     56  C   UNL A   1      46.398  30.849  26.689  1.00  0.00     0.029 A 
ATOM     57  N   UNL A   1      44.492  30.465  27.772  1.00  0.00    -0.354 N 
ATOM     58  N   UNL A   1      42.197  31.192  29.487  1.00  0.00    -0.248 NA
ATOM     59  C   UNL A   1      41.076  32.752  30.819  1.00  0.00     0.031 C 
ATOM     60  C   UNL A   1      46.052  32.001  27.405  1.00  0.00     0.029 A 
ATOM     61  C   UNL A   1      44.853  31.769  28.062  1.00  0.00     0.049 A 
ATOM     62  H   UNL A   1      43.681  30.016  28.104  1.00  0.00     0.167 HD
ATOM     63  C   UNL A   1      42.918  32.379  29.499  1.00  0.00     0.074 A 
ATOM     64  C   UNL A   1      42.165  33.313  30.313  1.00  0.00     0.031 C 
ATOM     65  C   UNL A   1      44.093  32.672  28.890  1.00  0.00     0.031 A 
BRANCH  52  66
ATOM     66  C   UNL A   1      46.536  27.983  25.669  1.00  0.00    -0.014 A 
ATOM     67  C   UNL A   1      46.516  28.019  24.265  1.00  0.00     0.009 A 
ATOM     68  C   UNL A   1      47.646  27.418  26.316  1.00  0.00     0.009 A 
ATOM     69  C   UNL A   1      47.560  27.457  23.527  1.00  0.00     0.001 A 
ATOM     70  C   UNL A   1      48.702  26.882  25.576  1.00  0.00     0.001 A 
ATOM     71  C   UNL A   1      48.653  26.891  24.183  1.00  0.00     0.000 A 
ENDBRANCH  52  66
BRANCH  53  72
ATOM     72  C   UNL A   1      38.877  30.892  31.424  1.00  0.00    -0.014 A 
ATOM     73  C   UNL A   1      37.834  31.690  30.930  1.00  0.00     0.009 A 
ATOM     74  C   UNL A   1      38.819  30.444  32.754  1.00  0.00     0.009 A 
ATOM     75  C   UNL A   1      36.762  32.038  31.755  1.00  0.00     0.001 A 
ATOM     76  C   UNL A   1      37.735  30.774  33.568  1.00  0.00     0.001 A 
ATOM     77  C   UNL A   1      36.709  31.574  33.069  1.00  0.00     0.000 A 
ENDBRANCH  53  72
BRANCH  65  78
ATOM     78  C   UNL A   1      44.626  34.064  29.074  1.00  0.00    -0.014 A 
ATOM     79  C   UNL A   1      44.265  35.102  28.200  1.00  0.00     0.009 A 
ATOM     80  C   UNL A   1      45.468  34.348  30.160  1.00  0.00     0.009 A 
ATOM     81  C   UNL A   1      44.768  36.390  28.392  1.00  0.00     0.001 A 
ATOM     82  C   UNL A   1      45.946  35.643  30.365  1.00  0.00     0.001 A 
ATOM     83  C   UNL A   1      45.604  36.661  29.475  1.00  0.00     0.000 A 
ENDBRANCH  65  78
ENDBRANCH  39  40
ENDBRANCH  32  34
ENDBRANCH  31  32
ENDBRANCH  30  31
ENDBRANCH  29  30
ENDBRANCH  28  29
ENDBRANCH   1  28
TORSDOF 18
ENDMDL
