MODEL 1
REMARK VINA RESULT:      -8.3      0.000      0.000
REMARK SMILES CN(C(=O)[C@H]1CCCC[C@H]1C(=O)OCCOCCOC(=O)c1ccc(-c2c3nc(c(-c4ccccc4)c4ccc([nH]4)c(-c4ccccc4)c4nc(c(-c5ccccc5)c5ccc2[nH]5)C=C4)C=C3)cc1)C1CC1
REMARK SMILES IDX 15 1 14 2 13 3 11 4 12 5 10 6 5 7 6 8 7 9 9 10 8 11 3 12
REMARK SMILES IDX 4 13 2 14 1 15 70 16 71 17 72 18 16 19 17 20 18 21 19 22
REMARK SMILES IDX 20 23 21 24 22 25 23 26 69 27 24 28 68 29 25 30 26 31 27 32
REMARK SMILES IDX 62 33 28 34 67 35 61 36 63 37 29 38 66 39 60 40 59 41 30 43
REMARK SMILES IDX 52 44 37 45 51 46 38 47 41 48 50 49 64 50 39 51 40 52 49 54
REMARK SMILES IDX 65 55 42 56 31 57 32 58 36 59 33 60 35 61 34 62 53 63 54 64
REMARK SMILES IDX 58 65 55 66 57 67 56 68 43 69 44 70 48 71 45 72 47 73 46 74
REMARK H PARENT 63 42 41 53
REMARK Flexibility Score: inf
ROOT
ATOM      1  C   UNL A   1      33.048  35.804  31.201  1.00  0.00     0.202 C 
ENDROOT
BRANCH   1   2
ATOM      2  C   UNL A   1      33.499  35.196  32.528  1.00  0.00     0.261 C 
BRANCH   2   3
ATOM      3  O   UNL A   1      34.912  35.401  32.717  1.00  0.00    -0.463 OA
BRANCH   3   4
ATOM      4  C   UNL A   1      35.695  34.320  32.520  1.00  0.00     0.309 C 
ATOM      5  O   UNL A   1      35.293  33.235  32.109  1.00  0.00    -0.252 OA
BRANCH   4   6
ATOM      6  C   UNL A   1      37.156  34.531  32.862  1.00  0.00     0.111 C 
ATOM      7  C   UNL A   1      37.663  34.335  34.317  1.00  0.00     0.093 C 
ATOM      8  C   UNL A   1      39.093  34.923  34.362  1.00  0.00     0.014 C 
ATOM      9  C   UNL A   1      40.023  34.269  33.340  1.00  0.00     0.001 C 
ATOM     10  C   UNL A   1      38.048  33.862  31.812  1.00  0.00     0.016 C 
ATOM     11  C   UNL A   1      39.480  34.373  31.919  1.00  0.00     0.001 C 
BRANCH   7  12
ATOM     12  C   UNL A   1      37.638  32.881  34.838  1.00  0.00     0.226 C 
ATOM     13  O   UNL A   1      37.180  31.976  34.137  1.00  0.00    -0.275 OA
BRANCH  12  14
ATOM     14  N   UNL A   1      38.141  32.613  36.116  1.00  0.00    -0.343 N 
ATOM     15  C   UNL A   1      37.654  33.180  37.372  1.00  0.00     0.147 C 
BRANCH  14  16
ATOM     16  C   UNL A   1      39.177  31.612  36.266  1.00  0.00     0.084 C 
ATOM     17  C   UNL A   1      40.112  31.221  35.155  1.00  0.00     0.027 C 
ATOM     18  C   UNL A   1      40.639  31.983  36.331  1.00  0.00     0.027 C 
ENDBRANCH  14  16
ENDBRANCH  12  14
ENDBRANCH   7  12
ENDBRANCH   4   6
ENDBRANCH   3   4
ENDBRANCH   2   3
ENDBRANCH   1   2
BRANCH   1  19
ATOM     19  O   UNL A   1      33.841  35.453  30.066  1.00  0.00    -0.374 OA
BRANCH  19  20
ATOM     20  C   UNL A   1      33.280  34.509  29.156  1.00  0.00     0.202 C 
BRANCH  20  21
ATOM     21  C   UNL A   1      34.293  33.675  28.364  1.00  0.00     0.261 C 
BRANCH  21  22
ATOM     22  O   UNL A   1      34.688  32.487  29.075  1.00  0.00    -0.460 OA
BRANCH  22  23
ATOM     23  C   UNL A   1      34.569  31.336  28.372  1.00  0.00     0.338 C 
ATOM     24  O   UNL A   1      33.652  31.014  27.626  1.00  0.00    -0.246 OA
BRANCH  23  25
ATOM     25  C   UNL A   1      35.804  30.539  28.489  1.00  0.00     0.060 A 
ATOM     26  C   UNL A   1      36.081  29.940  29.724  1.00  0.00     0.016 A 
ATOM     27  C   UNL A   1      36.708  30.430  27.433  1.00  0.00     0.016 A 
ATOM     28  C   UNL A   1      37.285  29.266  29.920  1.00  0.00     0.010 A 
ATOM     29  C   UNL A   1      37.913  29.744  27.628  1.00  0.00     0.010 A 
ATOM     30  C   UNL A   1      38.225  29.194  28.884  1.00  0.00    -0.014 A 
BRANCH  30  31
ATOM     31  C   UNL A   1      39.597  28.701  29.169  1.00  0.00     0.031 A 
ATOM     32  C   UNL A   1      40.534  29.580  29.955  1.00  0.00     0.074 A 
ATOM     33  C   UNL A   1      39.996  27.479  28.774  1.00  0.00     0.049 A 
ATOM     34  N   UNL A   1      41.774  29.362  30.310  1.00  0.00    -0.248 NA
ATOM     35  C   UNL A   1      40.000  30.879  30.397  1.00  0.00     0.031 C 
ATOM     36  C   UNL A   1      39.180  26.514  28.040  1.00  0.00     0.029 A 
ATOM     37  N   UNL A   1      41.200  26.842  28.946  1.00  0.00    -0.354 N 
ATOM     38  C   UNL A   1      42.172  30.500  31.002  1.00  0.00     0.074 A 
ATOM     39  C   UNL A   1      41.055  31.418  30.988  1.00  0.00     0.031 C 
ATOM     40  C   UNL A   1      39.906  25.401  27.830  1.00  0.00     0.029 A 
ATOM     41  C   UNL A   1      41.245  25.588  28.385  1.00  0.00     0.049 A 
ATOM     42  H   UNL A   1      41.960  27.244  29.425  1.00  0.00     0.167 HD
ATOM     43  C   UNL A   1      43.356  30.757  31.607  1.00  0.00     0.031 A 
ATOM     44  C   UNL A   1      42.255  24.699  28.317  1.00  0.00     0.031 A 
ATOM     45  C   UNL A   1      44.470  29.849  31.629  1.00  0.00     0.049 A 
ATOM     46  C   UNL A   1      43.583  25.034  28.942  1.00  0.00     0.074 A 
ATOM     47  C   UNL A   1      45.703  30.012  32.235  1.00  0.00     0.029 A 
ATOM     48  N   UNL A   1      44.485  28.607  31.016  1.00  0.00    -0.354 N 
ATOM     49  N   UNL A   1      43.937  26.103  29.612  1.00  0.00    -0.248 NA
ATOM     50  C   UNL A   1      44.652  24.031  28.803  1.00  0.00     0.031 C 
ATOM     51  C   UNL A   1      46.484  28.889  31.946  1.00  0.00     0.029 A 
ATOM     52  C   UNL A   1      45.716  28.003  31.207  1.00  0.00     0.049 A 
ATOM     53  H   UNL A   1      43.732  28.212  30.519  1.00  0.00     0.167 HD
ATOM     54  C   UNL A   1      45.256  25.891  29.998  1.00  0.00     0.074 A 
ATOM     55  C   UNL A   1      45.635  24.586  29.499  1.00  0.00     0.031 C 
ATOM     56  C   UNL A   1      46.079  26.703  30.705  1.00  0.00     0.031 A 
BRANCH  43  57
ATOM     57  C   UNL A   1      43.512  32.095  32.271  1.00  0.00    -0.014 A 
ATOM     58  C   UNL A   1      43.339  32.247  33.657  1.00  0.00     0.009 A 
ATOM     59  C   UNL A   1      43.861  33.216  31.502  1.00  0.00     0.009 A 
ATOM     60  C   UNL A   1      43.478  33.502  34.252  1.00  0.00     0.001 A 
ATOM     61  C   UNL A   1      44.027  34.464  32.104  1.00  0.00     0.001 A 
ATOM     62  C   UNL A   1      43.826  34.608  33.477  1.00  0.00     0.000 A 
ENDBRANCH  43  57
BRANCH  44  63
ATOM     63  C   UNL A   1      42.062  23.404  27.614  1.00  0.00    -0.014 A 
ATOM     64  C   UNL A   1      41.492  22.306  28.278  1.00  0.00     0.009 A 
ATOM     65  C   UNL A   1      42.473  23.250  26.280  1.00  0.00     0.009 A 
ATOM     66  C   UNL A   1      41.359  21.077  27.629  1.00  0.00     0.001 A 
ATOM     67  C   UNL A   1      42.314  22.027  25.626  1.00  0.00     0.001 A 
ATOM     68  C   UNL A   1      41.767  20.940  26.303  1.00  0.00     0.000 A 
ENDBRANCH  44  63
BRANCH  56  69
ATOM     69  C   UNL A   1      47.459  26.194  31.013  1.00  0.00    -0.014 A 
ATOM     70  C   UNL A   1      48.502  26.306  30.082  1.00  0.00     0.009 A 
ATOM     71  C   UNL A   1      47.727  25.635  32.272  1.00  0.00     0.009 A 
ATOM     72  C   UNL A   1      49.781  25.840  30.395  1.00  0.00     0.001 A 
ATOM     73  C   UNL A   1      49.013  25.196  32.594  1.00  0.00     0.001 A 
ATOM     74  C   UNL A   1      50.036  25.291  31.651  1.00  0.00     0.000 A 
ENDBRANCH  56  69
ENDBRANCH  30  31
ENDBRANCH  23  25
ENDBRANCH  22  23
ENDBRANCH  21  22
ENDBRANCH  20  21
ENDBRANCH  19  20
ENDBRANCH   1  19
TORSDOF 17
ENDMDL
MODEL 2
REMARK VINA RESULT:      -8.2      4.810     10.224
REMARK SMILES CN(C(=O)[C@H]1CCCC[C@H]1C(=O)OCCOCCOC(=O)c1ccc(-c2c3nc(c(-c4ccccc4)c4ccc([nH]4)c(-c4ccccc4)c4nc(c(-c5ccccc5)c5ccc2[nH]5)C=C4)C=C3)cc1)C1CC1
REMARK SMILES IDX 15 1 14 2 13 3 11 4 12 5 10 6 5 7 6 8 7 9 9 10 8 11 3 12
REMARK SMILES IDX 4 13 2 14 1 15 70 16 71 17 72 18 16 19 17 20 18 21 19 22
REMARK SMILES IDX 20 23 21 24 22 25 23 26 69 27 24 28 68 29 25 30 26 31 27 32
REMARK SMILES IDX 62 33 28 34 67 35 61 36 63 37 29 38 66 39 60 40 59 41 30 43
REMARK SMILES IDX 52 44 37 45 51 46 38 47 41 48 50 49 64 50 39 51 40 52 49 54
REMARK SMILES IDX 65 55 42 56 31 57 32 58 36 59 33 60 35 61 34 62 53 63 54 64
REMARK SMILES IDX 58 65 55 66 57 67 56 68 43 69 44 70 48 71 45 72 47 73 46 74
REMARK H PARENT 63 42 41 53
REMARK Flexibility Score: inf
ROOT
ATOM      1  C   UNL A   1      35.230  22.881  25.778  1.00  0.00     0.202 C 
ENDROOT
BRANCH   1   2
ATOM      2  C   UNL A   1      33.718  22.849  25.986  1.00  0.00     0.261 C 
BRANCH   2   3
ATOM      3  O   UNL A   1      33.295  23.988  26.761  1.00  0.00    -0.463 OA
BRANCH   3   4
ATOM      4  C   UNL A   1      32.400  24.803  26.169  1.00  0.00     0.309 C 
ATOM      5  O   UNL A   1      31.468  24.421  25.466  1.00  0.00    -0.252 OA
BRANCH   4   6
ATOM      6  C   UNL A   1      32.630  26.280  26.421  1.00  0.00     0.111 C 
ATOM      7  C   UNL A   1      33.380  27.152  25.377  1.00  0.00     0.093 C 
ATOM      8  C   UNL A   1      33.702  28.491  26.081  1.00  0.00     0.014 C 
ATOM      9  C   UNL A   1      32.448  29.186  26.613  1.00  0.00     0.001 C 
ATOM     10  C   UNL A   1      31.351  26.932  26.953  1.00  0.00     0.016 C 
ATOM     11  C   UNL A   1      31.656  28.295  27.563  1.00  0.00     0.001 C 
BRANCH   7  12
ATOM     12  C   UNL A   1      32.629  27.386  24.047  1.00  0.00     0.226 C 
ATOM     13  O   UNL A   1      31.403  27.511  24.037  1.00  0.00    -0.275 OA
BRANCH  12  14
ATOM     14  N   UNL A   1      33.366  27.448  22.858  1.00  0.00    -0.343 N 
ATOM     15  C   UNL A   1      34.070  28.619  22.340  1.00  0.00     0.147 C 
BRANCH  14  16
ATOM     16  C   UNL A   1      33.556  26.238  22.086  1.00  0.00     0.084 C 
ATOM     17  C   UNL A   1      33.570  24.864  22.698  1.00  0.00     0.027 C 
ATOM     18  C   UNL A   1      32.424  25.273  21.827  1.00  0.00     0.027 C 
ENDBRANCH  14  16
ENDBRANCH  12  14
ENDBRANCH   7  12
ENDBRANCH   4   6
ENDBRANCH   3   4
ENDBRANCH   2   3
ENDBRANCH   1   2
BRANCH   1  19
ATOM     19  O   UNL A   1      35.717  22.070  24.707  1.00  0.00    -0.374 OA
BRANCH  19  20
ATOM     20  C   UNL A   1      35.944  20.692  24.995  1.00  0.00     0.202 C 
BRANCH  20  21
ATOM     21  C   UNL A   1      37.414  20.259  25.029  1.00  0.00     0.261 C 
BRANCH  21  22
ATOM     22  O   UNL A   1      38.303  21.380  25.187  1.00  0.00    -0.460 OA
BRANCH  22  23
ATOM     23  C   UNL A   1      39.321  21.181  26.057  1.00  0.00     0.338 C 
ATOM     24  O   UNL A   1      39.944  20.143  26.244  1.00  0.00    -0.246 OA
BRANCH  23  25
ATOM     25  C   UNL A   1      39.718  22.459  26.676  1.00  0.00     0.060 A 
ATOM     26  C   UNL A   1      39.066  23.623  26.250  1.00  0.00     0.016 A 
ATOM     27  C   UNL A   1      40.752  22.531  27.609  1.00  0.00     0.016 A 
ATOM     28  C   UNL A   1      39.476  24.868  26.724  1.00  0.00     0.010 A 
ATOM     29  C   UNL A   1      41.157  23.780  28.092  1.00  0.00     0.010 A 
ATOM     30  C   UNL A   1      40.548  24.958  27.621  1.00  0.00    -0.014 A 
BRANCH  30  31
ATOM     31  C   UNL A   1      41.142  26.285  27.927  1.00  0.00     0.031 A 
ATOM     32  C   UNL A   1      42.484  26.631  27.337  1.00  0.00     0.074 A 
ATOM     33  C   UNL A   1      40.487  27.186  28.680  1.00  0.00     0.049 A 
ATOM     34  N   UNL A   1      43.195  27.720  27.477  1.00  0.00    -0.248 NA
ATOM     35  C   UNL A   1      43.107  25.610  26.479  1.00  0.00     0.031 C 
ATOM     36  C   UNL A   1      39.168  26.995  29.280  1.00  0.00     0.029 A 
ATOM     37  N   UNL A   1      40.852  28.453  29.063  1.00  0.00    -0.354 N 
ATOM     38  C   UNL A   1      44.353  27.510  26.737  1.00  0.00     0.074 A 
ATOM     39  C   UNL A   1      44.265  26.178  26.180  1.00  0.00     0.031 C 
ATOM     40  C   UNL A   1      38.830  28.110  29.952  1.00  0.00     0.029 A 
ATOM     41  C   UNL A   1      39.921  29.079  29.855  1.00  0.00     0.049 A 
ATOM     42  H   UNL A   1      41.701  28.874  28.796  1.00  0.00     0.167 HD
ATOM     43  C   UNL A   1      45.393  28.351  26.528  1.00  0.00     0.031 A 
ATOM     44  C   UNL A   1      39.950  30.290  30.446  1.00  0.00     0.031 A 
ATOM     45  C   UNL A   1      45.486  29.677  27.074  1.00  0.00     0.049 A 
ATOM     46  C   UNL A   1      41.147  31.183  30.251  1.00  0.00     0.074 A 
ATOM     47  C   UNL A   1      46.492  30.612  26.900  1.00  0.00     0.029 A 
ATOM     48  N   UNL A   1      44.539  30.256  27.903  1.00  0.00    -0.354 N 
ATOM     49  N   UNL A   1      42.223  30.979  29.531  1.00  0.00    -0.248 NA
ATOM     50  C   UNL A   1      41.127  32.477  30.950  1.00  0.00     0.031 C 
ATOM     51  C   UNL A   1      46.177  31.740  27.665  1.00  0.00     0.029 A 
ATOM     52  C   UNL A   1      44.949  31.527  28.270  1.00  0.00     0.049 A 
ATOM     53  H   UNL A   1      43.699  29.827  28.188  1.00  0.00     0.167 HD
ATOM     54  C   UNL A   1      42.994  32.128  29.667  1.00  0.00     0.074 A 
ATOM     55  C   UNL A   1      42.256  33.030  30.527  1.00  0.00     0.031 C 
ATOM     56  C   UNL A   1      44.204  32.413  29.126  1.00  0.00     0.031 A 
BRANCH  43  57
ATOM     57  C   UNL A   1      46.531  27.842  25.690  1.00  0.00    -0.014 A 
ATOM     58  C   UNL A   1      47.565  27.074  26.251  1.00  0.00     0.009 A 
ATOM     59  C   UNL A   1      46.555  28.113  24.313  1.00  0.00     0.009 A 
ATOM     60  C   UNL A   1      48.618  26.620  25.455  1.00  0.00     0.001 A 
ATOM     61  C   UNL A   1      47.595  27.634  23.515  1.00  0.00     0.001 A 
ATOM     62  C   UNL A   1      48.631  26.896  24.088  1.00  0.00     0.000 A 
ENDBRANCH  43  57
BRANCH  44  63
ATOM     63  C   UNL A   1      38.815  30.732  31.297  1.00  0.00    -0.014 A 
ATOM     64  C   UNL A   1      37.750  31.463  30.748  1.00  0.00     0.009 A 
ATOM     65  C   UNL A   1      38.804  30.448  32.672  1.00  0.00     0.009 A 
ATOM     66  C   UNL A   1      36.711  31.920  31.562  1.00  0.00     0.001 A 
ATOM     67  C   UNL A   1      37.751  30.883  33.478  1.00  0.00     0.001 A 
ATOM     68  C   UNL A   1      36.711  31.627  32.925  1.00  0.00     0.000 A 
ENDBRANCH  44  63
BRANCH  56  69
ATOM     69  C   UNL A   1      44.792  33.765  29.416  1.00  0.00    -0.014 A 
ATOM     70  C   UNL A   1      45.616  33.977  30.532  1.00  0.00     0.009 A 
ATOM     71  C   UNL A   1      44.553  34.830  28.534  1.00  0.00     0.009 A 
ATOM     72  C   UNL A   1      46.166  35.237  30.773  1.00  0.00     0.001 A 
ATOM     73  C   UNL A   1      45.127  36.082  28.762  1.00  0.00     0.001 A 
ATOM     74  C   UNL A   1      45.925  36.287  29.886  1.00  0.00     0.000 A 
ENDBRANCH  56  69
ENDBRANCH  30  31
ENDBRANCH  23  25
ENDBRANCH  22  23
ENDBRANCH  21  22
ENDBRANCH  20  21
ENDBRANCH  19  20
ENDBRANCH   1  19
TORSDOF 17
ENDMDL
MODEL 3
REMARK VINA RESULT:      -8.2      3.782      7.290
REMARK SMILES CN(C(=O)[C@H]1CCCC[C@H]1C(=O)OCCOCCOC(=O)c1ccc(-c2c3nc(c(-c4ccccc4)c4ccc([nH]4)c(-c4ccccc4)c4nc(c(-c5ccccc5)c5ccc2[nH]5)C=C4)C=C3)cc1)C1CC1
REMARK SMILES IDX 15 1 14 2 13 3 11 4 12 5 10 6 5 7 6 8 7 9 9 10 8 11 3 12
REMARK SMILES IDX 4 13 2 14 1 15 70 16 71 17 72 18 16 19 17 20 18 21 19 22
REMARK SMILES IDX 20 23 21 24 22 25 23 26 69 27 24 28 68 29 25 30 26 31 27 32
REMARK SMILES IDX 62 33 28 34 67 35 61 36 63 37 29 38 66 39 60 40 59 41 30 43
REMARK SMILES IDX 52 44 37 45 51 46 38 47 41 48 50 49 64 50 39 51 40 52 49 54
REMARK SMILES IDX 65 55 42 56 31 57 32 58 36 59 33 60 35 61 34 62 53 63 54 64
REMARK SMILES IDX 58 65 55 66 57 67 56 68 43 69 44 70 48 71 45 72 47 73 46 74
REMARK H PARENT 63 42 41 53
REMARK Flexibility Score: inf
ROOT
ATOM      1  C   UNL A   1      33.875  28.606  23.413  1.00  0.00     0.202 C 
ENDROOT
BRANCH   1   2
ATOM      2  C   UNL A   1      33.369  27.235  22.969  1.00  0.00     0.261 C 
BRANCH   2   3
ATOM      3  O   UNL A   1      33.778  26.222  23.908  1.00  0.00    -0.463 OA
BRANCH   3   4
ATOM      4  C   UNL A   1      34.104  25.026  23.379  1.00  0.00     0.309 C 
ATOM      5  O   UNL A   1      34.045  24.755  22.183  1.00  0.00    -0.252 OA
BRANCH   4   6
ATOM      6  C   UNL A   1      34.554  23.992  24.391  1.00  0.00     0.111 C 
ATOM      7  C   UNL A   1      34.045  24.048  25.857  1.00  0.00     0.093 C 
ATOM      8  C   UNL A   1      34.925  23.062  26.661  1.00  0.00     0.014 C 
ATOM      9  C   UNL A   1      34.877  21.644  26.093  1.00  0.00     0.001 C 
ATOM     10  C   UNL A   1      34.491  22.590  23.779  1.00  0.00     0.016 C 
ATOM     11  C   UNL A   1      35.282  21.598  24.624  1.00  0.00     0.001 C 
BRANCH   7  12
ATOM     12  C   UNL A   1      32.543  23.743  26.050  1.00  0.00     0.226 C 
ATOM     13  O   UNL A   1      32.170  22.603  26.335  1.00  0.00    -0.275 OA
BRANCH  12  14
ATOM     14  N   UNL A   1      31.617  24.781  25.892  1.00  0.00    -0.343 N 
ATOM     15  C   UNL A   1      31.712  26.118  26.474  1.00  0.00     0.147 C 
BRANCH  14  16
ATOM     16  C   UNL A   1      30.495  24.589  24.997  1.00  0.00     0.084 C 
ATOM     17  C   UNL A   1      30.079  25.605  23.969  1.00  0.00     0.027 C 
ATOM     18  C   UNL A   1      30.688  24.311  23.526  1.00  0.00     0.027 C 
ENDBRANCH  14  16
ENDBRANCH  12  14
ENDBRANCH   7  12
ENDBRANCH   4   6
ENDBRANCH   3   4
ENDBRANCH   2   3
ENDBRANCH   1   2
BRANCH   1  19
ATOM     19  O   UNL A   1      33.108  29.238  24.439  1.00  0.00    -0.374 OA
BRANCH  19  20
ATOM     20  C   UNL A   1      33.667  29.240  25.751  1.00  0.00     0.202 C 
BRANCH  20  21
ATOM     21  C   UNL A   1      33.268  30.427  26.635  1.00  0.00     0.261 C 
BRANCH  21  22
ATOM     22  O   UNL A   1      33.687  30.248  28.001  1.00  0.00    -0.460 OA
BRANCH  22  23
ATOM     23  C   UNL A   1      34.695  31.060  28.399  1.00  0.00     0.338 C 
ATOM     24  O   UNL A   1      34.603  32.215  28.795  1.00  0.00    -0.246 OA
BRANCH  23  25
ATOM     25  C   UNL A   1      35.963  30.310  28.450  1.00  0.00     0.060 A 
ATOM     26  C   UNL A   1      36.293  29.665  29.648  1.00  0.00     0.016 A 
ATOM     27  C   UNL A   1      36.846  30.289  27.371  1.00  0.00     0.016 A 
ATOM     28  C   UNL A   1      37.527  29.032  29.786  1.00  0.00     0.010 A 
ATOM     29  C   UNL A   1      38.081  29.645  27.506  1.00  0.00     0.010 A 
ATOM     30  C   UNL A   1      38.445  29.049  28.727  1.00  0.00    -0.014 A 
BRANCH  30  31
ATOM     31  C   UNL A   1      39.842  28.600  28.958  1.00  0.00     0.031 A 
ATOM     32  C   UNL A   1      40.800  29.538  29.645  1.00  0.00     0.074 A 
ATOM     33  C   UNL A   1      40.247  27.368  28.603  1.00  0.00     0.049 A 
ATOM     34  N   UNL A   1      42.063  29.365  29.939  1.00  0.00    -0.248 NA
ATOM     35  C   UNL A   1      40.260  30.847  30.050  1.00  0.00     0.031 C 
ATOM     36  C   UNL A   1      39.415  26.350  27.965  1.00  0.00     0.029 A 
ATOM     37  N   UNL A   1      41.474  26.766  28.737  1.00  0.00    -0.354 N 
ATOM     38  C   UNL A   1      42.471  30.545  30.550  1.00  0.00     0.074 A 
ATOM     39  C   UNL A   1      41.334  31.437  30.553  1.00  0.00     0.031 C 
ATOM     40  C   UNL A   1      40.154  25.244  27.769  1.00  0.00     0.029 A 
ATOM     41  C   UNL A   1      41.518  25.487  28.238  1.00  0.00     0.049 A 
ATOM     42  H   UNL A   1      42.250  27.208  29.151  1.00  0.00     0.167 HD
ATOM     43  C   UNL A   1      43.680  30.857  31.073  1.00  0.00     0.031 A 
ATOM     44  C   UNL A   1      42.543  24.617  28.157  1.00  0.00     0.031 A 
ATOM     45  C   UNL A   1      44.815  29.975  31.077  1.00  0.00     0.049 A 
ATOM     46  C   UNL A   1      43.896  25.011  28.688  1.00  0.00     0.074 A 
ATOM     47  C   UNL A   1      46.076  30.195  31.603  1.00  0.00     0.029 A 
ATOM     48  N   UNL A   1      44.826  28.704  30.527  1.00  0.00    -0.354 N 
ATOM     49  N   UNL A   1      44.261  26.120  29.283  1.00  0.00    -0.248 NA
ATOM     50  C   UNL A   1      44.978  24.025  28.539  1.00  0.00     0.031 C 
ATOM     51  C   UNL A   1      46.866  29.074  31.327  1.00  0.00     0.029 A 
ATOM     52  C   UNL A   1      46.080  28.137  30.678  1.00  0.00     0.049 A 
ATOM     53  H   UNL A   1      44.056  28.268  30.093  1.00  0.00     0.167 HD
ATOM     54  C   UNL A   1      45.604  25.956  29.604  1.00  0.00     0.074 A 
ATOM     55  C   UNL A   1      45.985  24.635  29.150  1.00  0.00     0.031 C 
ATOM     56  C   UNL A   1      46.445  26.821  30.221  1.00  0.00     0.031 A 
BRANCH  43  57
ATOM     57  C   UNL A   1      43.841  32.231  31.660  1.00  0.00    -0.014 A 
ATOM     58  C   UNL A   1      44.096  33.347  30.847  1.00  0.00     0.009 A 
ATOM     59  C   UNL A   1      43.710  32.413  33.045  1.00  0.00     0.009 A 
ATOM     60  C   UNL A   1      44.252  34.612  31.415  1.00  0.00     0.001 A 
ATOM     61  C   UNL A   1      43.839  33.684  33.607  1.00  0.00     0.001 A 
ATOM     62  C   UNL A   1      44.119  34.781  32.793  1.00  0.00     0.000 A 
ENDBRANCH  43  57
BRANCH  44  63
ATOM     63  C   UNL A   1      42.342  23.284  27.532  1.00  0.00    -0.014 A 
ATOM     64  C   UNL A   1      41.817  22.215  28.276  1.00  0.00     0.009 A 
ATOM     65  C   UNL A   1      42.701  23.065  26.192  1.00  0.00     0.009 A 
ATOM     66  C   UNL A   1      41.678  20.952  27.698  1.00  0.00     0.001 A 
ATOM     67  C   UNL A   1      42.535  21.807  25.610  1.00  0.00     0.001 A 
ATOM     68  C   UNL A   1      42.034  20.749  26.365  1.00  0.00     0.000 A 
ENDBRANCH  44  63
BRANCH  56  69
ATOM     69  C   UNL A   1      47.852  26.356  30.475  1.00  0.00    -0.014 A 
ATOM     70  C   UNL A   1      48.858  26.518  29.511  1.00  0.00     0.009 A 
ATOM     71  C   UNL A   1      48.182  25.791  31.717  1.00  0.00     0.009 A 
ATOM     72  C   UNL A   1      50.162  26.094  29.775  1.00  0.00     0.001 A 
ATOM     73  C   UNL A   1      49.493  25.394  31.989  1.00  0.00     0.001 A 
ATOM     74  C   UNL A   1      50.480  25.538  31.014  1.00  0.00     0.000 A 
ENDBRANCH  56  69
ENDBRANCH  30  31
ENDBRANCH  23  25
ENDBRANCH  22  23
ENDBRANCH  21  22
ENDBRANCH  20  21
ENDBRANCH  19  20
ENDBRANCH   1  19
TORSDOF 17
ENDMDL
