MODEL 1
REMARK VINA RESULT:     -12.0      0.000      0.000
REMARK SMILES Cc1cccc(N2C(=O)/C(=C/c3ccc(C(=O)OCCOCCOC(=O)c4ccc(-c5c6nc(c(-c7ccccc7)c7ccc([nH]7)c(-c7ccccc7)c7nc(c(-c8ccccc8)c8ccc5[nH]8)C=C7)C=C6)cc4)cc3)c3ccccc3C2=O)c1
REMARK SMILES IDX 21 1 20 2 19 3 18 4 16 5 17 6 15 7 12 8 13 9 76 10 14 11
REMARK SMILES IDX 75 12 11 13 7 14 8 15 83 16 9 17 10 18 82 19 84 20 77 21
REMARK SMILES IDX 81 22 78 23 80 24 79 25 6 26 1 27 2 28 3 29 85 30 4 31 5 32
REMARK SMILES IDX 22 33 23 34 24 35 25 36 26 37 27 38 28 39 74 40 29 41 73 42
REMARK SMILES IDX 30 43 31 44 32 45 67 46 33 47 72 48 66 49 68 50 34 51 71 52
REMARK SMILES IDX 65 53 64 54 35 56 57 57 42 58 56 59 43 60 46 61 55 62 69 63
REMARK SMILES IDX 44 64 45 65 54 67 70 68 47 69 36 70 37 71 41 72 38 73 40 74
REMARK SMILES IDX 39 75 58 76 59 77 63 78 60 79 62 80 61 81 48 82 49 83 53 84
REMARK SMILES IDX 50 85 52 86 51 87
REMARK H PARENT 68 55 46 66
REMARK Flexibility Score: inf
ROOT
ATOM      1  O   UNL A   1      29.211  28.006  22.503  1.00  0.00    -0.374 OA
ENDROOT
BRANCH   1   2
ATOM      2  C   UNL A   1      28.463  27.348  23.512  1.00  0.00     0.202 C 
BRANCH   2   3
ATOM      3  C   UNL A   1      29.382  26.325  24.124  1.00  0.00     0.261 C 
BRANCH   3   4
ATOM      4  O   UNL A   1      30.346  25.817  23.180  1.00  0.00    -0.460 OA
BRANCH   4   5
ATOM      5  C   UNL A   1      30.955  24.610  23.404  1.00  0.00     0.338 C 
ATOM      6  O   UNL A   1      30.547  23.500  23.234  1.00  0.00    -0.246 OA
BRANCH   5   7
ATOM      7  C   UNL A   1      32.358  24.948  23.714  1.00  0.00     0.060 A 
ATOM      8  C   UNL A   1      34.891  24.623  24.715  1.00  0.00    -0.025 A 
ATOM      9  C   UNL A   1      33.904  25.202  25.521  1.00  0.00     0.009 A 
ATOM     10  C   UNL A   1      34.672  24.452  23.344  1.00  0.00     0.009 A 
ATOM     11  C   UNL A   1      32.624  25.380  25.013  1.00  0.00     0.016 A 
ATOM     12  C   UNL A   1      33.386  24.581  22.843  1.00  0.00     0.016 A 
BRANCH   8  13
ATOM     13  C   UNL A   1      36.086  24.086  25.362  1.00  0.00     0.022 C 
ATOM     14  N   UNL A   1      38.258  21.429  25.719  1.00  0.00    -0.242 N 
ATOM     15  C   UNL A   1      37.616  22.533  26.312  1.00  0.00     0.265 C 
ATOM     16  C   UNL A   1      37.510  20.490  24.962  1.00  0.00     0.265 C 
ATOM     17  O   UNL A   1      38.021  23.294  27.187  1.00  0.00    -0.268 OA
ATOM     18  C   UNL A   1      36.265  22.806  25.754  1.00  0.00     0.049 C 
ATOM     19  C   UNL A   1      36.033  20.491  25.131  1.00  0.00     0.048 A 
ATOM     20  O   UNL A   1      37.937  19.645  24.178  1.00  0.00    -0.268 OA
ATOM     21  C   UNL A   1      35.396  21.647  25.576  1.00  0.00    -0.000 A 
ATOM     22  C   UNL A   1      35.287  19.339  24.841  1.00  0.00     0.014 A 
ATOM     23  C   UNL A   1      34.017  21.617  25.824  1.00  0.00     0.010 A 
ATOM     24  C   UNL A   1      33.907  19.330  25.042  1.00  0.00     0.001 A 
ATOM     25  C   UNL A   1      33.275  20.464  25.548  1.00  0.00     0.001 A 
BRANCH  14  26
ATOM     26  C   UNL A   1      39.706  21.276  25.871  1.00  0.00     0.053 A 
ATOM     27  C   UNL A   1      42.277  18.458  26.288  1.00  0.00     0.044 C 
ATOM     28  C   UNL A   1      41.701  19.837  26.170  1.00  0.00    -0.049 A 
ATOM     29  C   UNL A   1      42.526  20.953  26.198  1.00  0.00     0.003 A 
ATOM     30  C   UNL A   1      40.314  20.012  25.992  1.00  0.00     0.030 A 
ATOM     31  C   UNL A   1      41.967  22.220  26.072  1.00  0.00     0.002 A 
ATOM     32  C   UNL A   1      40.582  22.374  25.916  1.00  0.00     0.027 A 
ENDBRANCH  14  26
ENDBRANCH   8  13
ENDBRANCH   5   7
ENDBRANCH   4   5
ENDBRANCH   3   4
ENDBRANCH   2   3
ENDBRANCH   1   2
BRANCH   1  33
ATOM     33  C   UNL A   1      29.734  29.274  22.849  1.00  0.00     0.202 C 
BRANCH  33  34
ATOM     34  C   UNL A   1      31.259  29.357  22.708  1.00  0.00     0.261 C 
BRANCH  34  35
ATOM     35  O   UNL A   1      31.883  28.910  23.928  1.00  0.00    -0.460 OA
BRANCH  35  36
ATOM     36  C   UNL A   1      33.234  28.750  23.876  1.00  0.00     0.338 C 
ATOM     37  O   UNL A   1      33.874  28.457  22.879  1.00  0.00    -0.246 OA
BRANCH  36  38
ATOM     38  C   UNL A   1      33.786  28.703  25.259  1.00  0.00     0.060 A 
ATOM     39  C   UNL A   1      32.971  29.059  26.351  1.00  0.00     0.016 A 
ATOM     40  C   UNL A   1      35.167  28.625  25.424  1.00  0.00     0.016 A 
ATOM     41  C   UNL A   1      33.552  29.497  27.551  1.00  0.00     0.010 A 
ATOM     42  C   UNL A   1      35.728  29.140  26.573  1.00  0.00     0.010 A 
ATOM     43  C   UNL A   1      34.937  29.619  27.629  1.00  0.00    -0.014 A 
BRANCH  43  44
ATOM     44  C   UNL A   1      35.686  30.328  28.675  1.00  0.00     0.031 A 
ATOM     45  C   UNL A   1      35.370  31.750  28.942  1.00  0.00     0.074 A 
ATOM     46  C   UNL A   1      36.416  29.644  29.592  1.00  0.00     0.049 A 
ATOM     47  N   UNL A   1      36.032  32.486  29.767  1.00  0.00    -0.248 NA
ATOM     48  C   UNL A   1      34.303  32.495  28.269  1.00  0.00     0.031 C 
ATOM     49  C   UNL A   1      36.728  30.035  30.970  1.00  0.00     0.029 A 
ATOM     50  N   UNL A   1      37.085  28.425  29.460  1.00  0.00    -0.354 N 
ATOM     51  C   UNL A   1      35.263  33.590  30.033  1.00  0.00     0.074 A 
ATOM     52  C   UNL A   1      34.294  33.634  28.970  1.00  0.00     0.031 C 
ATOM     53  C   UNL A   1      37.717  29.260  31.445  1.00  0.00     0.029 A 
ATOM     54  C   UNL A   1      38.173  28.430  30.346  1.00  0.00     0.049 A 
ATOM     55  H   UNL A   1      36.837  27.692  28.852  1.00  0.00     0.167 HD
ATOM     56  C   UNL A   1      35.448  34.237  31.217  1.00  0.00     0.031 A 
ATOM     57  C   UNL A   1      39.446  28.290  29.886  1.00  0.00     0.031 A 
ATOM     58  C   UNL A   1      36.637  33.737  31.922  1.00  0.00     0.049 A 
ATOM     59  C   UNL A   1      40.217  29.541  30.202  1.00  0.00     0.074 A 
ATOM     60  C   UNL A   1      36.832  33.021  33.091  1.00  0.00     0.029 A 
ATOM     61  N   UNL A   1      37.858  33.718  31.247  1.00  0.00    -0.354 N 
ATOM     62  N   UNL A   1      39.619  30.671  30.463  1.00  0.00    -0.248 NA
ATOM     63  C   UNL A   1      41.666  29.636  30.336  1.00  0.00     0.031 C 
ATOM     64  C   UNL A   1      38.156  32.490  33.061  1.00  0.00     0.029 A 
ATOM     65  C   UNL A   1      38.779  32.923  31.900  1.00  0.00     0.049 A 
ATOM     66  H   UNL A   1      38.041  34.209  30.414  1.00  0.00     0.167 HD
ATOM     67  C   UNL A   1      40.525  31.580  30.904  1.00  0.00     0.074 A 
ATOM     68  C   UNL A   1      41.806  30.912  30.749  1.00  0.00     0.031 C 
ATOM     69  C   UNL A   1      40.142  32.797  31.383  1.00  0.00     0.031 A 
BRANCH  56  70
ATOM     70  C   UNL A   1      34.449  35.192  31.836  1.00  0.00    -0.014 A 
ATOM     71  C   UNL A   1      34.820  35.953  32.960  1.00  0.00     0.009 A 
ATOM     72  C   UNL A   1      33.109  35.336  31.423  1.00  0.00     0.009 A 
ATOM     73  C   UNL A   1      33.918  36.805  33.617  1.00  0.00     0.001 A 
ATOM     74  C   UNL A   1      32.209  36.207  32.055  1.00  0.00     0.001 A 
ATOM     75  C   UNL A   1      32.613  36.941  33.158  1.00  0.00     0.000 A 
ENDBRANCH  56  70
BRANCH  57  76
ATOM     76  C   UNL A   1      39.509  27.406  28.684  1.00  0.00    -0.014 A 
ATOM     77  C   UNL A   1      39.958  27.999  27.480  1.00  0.00     0.009 A 
ATOM     78  C   UNL A   1      39.640  26.014  28.818  1.00  0.00     0.009 A 
ATOM     79  C   UNL A   1      40.643  27.252  26.513  1.00  0.00     0.001 A 
ATOM     80  C   UNL A   1      40.322  25.270  27.841  1.00  0.00     0.001 A 
ATOM     81  C   UNL A   1      40.860  25.893  26.715  1.00  0.00     0.000 A 
ENDBRANCH  57  76
BRANCH  69  82
ATOM     82  C   UNL A   1      41.041  33.995  31.440  1.00  0.00    -0.014 A 
ATOM     83  C   UNL A   1      41.562  34.506  32.636  1.00  0.00     0.009 A 
ATOM     84  C   UNL A   1      41.567  34.511  30.236  1.00  0.00     0.009 A 
ATOM     85  C   UNL A   1      42.538  35.506  32.629  1.00  0.00     0.001 A 
ATOM     86  C   UNL A   1      42.579  35.468  30.227  1.00  0.00     0.001 A 
ATOM     87  C   UNL A   1      43.058  35.973  31.427  1.00  0.00     0.000 A 
ENDBRANCH  69  82
ENDBRANCH  43  44
ENDBRANCH  36  38
ENDBRANCH  35  36
ENDBRANCH  34  35
ENDBRANCH  33  34
ENDBRANCH   1  33
TORSDOF 16
ENDMDL
MODEL 2
REMARK VINA RESULT:     -11.8      4.350      9.760
REMARK SMILES Cc1cccc(N2C(=O)/C(=C/c3ccc(C(=O)OCCOCCOC(=O)c4ccc(-c5c6nc(c(-c7ccccc7)c7ccc([nH]7)c(-c7ccccc7)c7nc(c(-c8ccccc8)c8ccc5[nH]8)C=C7)C=C6)cc4)cc3)c3ccccc3C2=O)c1
REMARK SMILES IDX 21 1 20 2 19 3 18 4 16 5 17 6 15 7 12 8 13 9 76 10 14 11
REMARK SMILES IDX 75 12 11 13 7 14 8 15 83 16 9 17 10 18 82 19 84 20 77 21
REMARK SMILES IDX 81 22 78 23 80 24 79 25 6 26 1 27 2 28 3 29 85 30 4 31 5 32
REMARK SMILES IDX 22 33 23 34 24 35 25 36 26 37 27 38 28 39 74 40 29 41 73 42
REMARK SMILES IDX 30 43 31 44 32 45 67 46 33 47 72 48 66 49 68 50 34 51 71 52
REMARK SMILES IDX 65 53 64 54 35 56 57 57 42 58 56 59 43 60 46 61 55 62 69 63
REMARK SMILES IDX 44 64 45 65 54 67 70 68 47 69 36 70 37 71 41 72 38 73 40 74
REMARK SMILES IDX 39 75 58 76 59 77 63 78 60 79 62 80 61 81 48 82 49 83 53 84
REMARK SMILES IDX 50 85 52 86 51 87
REMARK H PARENT 68 55 46 66
REMARK Flexibility Score: inf
ROOT
ATOM      1  O   UNL A   1      40.935  19.979  26.339  1.00  0.00    -0.374 OA
ENDROOT
BRANCH   1   2
ATOM      2  C   UNL A   1      40.408  21.149  26.944  1.00  0.00     0.202 C 
BRANCH   2   3
ATOM      3  C   UNL A   1      39.358  21.677  26.004  1.00  0.00     0.261 C 
BRANCH   3   4
ATOM      4  O   UNL A   1      38.040  21.186  26.319  1.00  0.00    -0.460 OA
BRANCH   4   5
ATOM      5  C   UNL A   1      37.122  20.992  25.320  1.00  0.00     0.338 C 
ATOM      6  O   UNL A   1      36.533  20.004  24.998  1.00  0.00    -0.246 OA
BRANCH   5   7
ATOM      7  C   UNL A   1      36.819  22.347  24.820  1.00  0.00     0.060 A 
ATOM      8  C   UNL A   1      35.302  24.443  23.910  1.00  0.00    -0.025 A 
ATOM      9  C   UNL A   1      35.827  23.527  22.991  1.00  0.00     0.009 A 
ATOM     10  C   UNL A   1      35.750  24.450  25.236  1.00  0.00     0.009 A 
ATOM     11  C   UNL A   1      36.606  22.473  23.447  1.00  0.00     0.016 A 
ATOM     12  C   UNL A   1      36.488  23.374  25.705  1.00  0.00     0.016 A 
BRANCH   8  13
ATOM     13  C   UNL A   1      34.189  25.289  23.485  1.00  0.00     0.022 C 
ATOM     14  N   UNL A   1      31.111  26.652  24.248  1.00  0.00    -0.242 N 
ATOM     15  C   UNL A   1      31.982  26.148  23.262  1.00  0.00     0.265 C 
ATOM     16  C   UNL A   1      30.891  25.924  25.446  1.00  0.00     0.265 C 
ATOM     17  O   UNL A   1      32.109  26.483  22.088  1.00  0.00    -0.268 OA
ATOM     18  C   UNL A   1      32.883  25.074  23.758  1.00  0.00     0.049 C 
ATOM     19  C   UNL A   1      31.283  24.489  25.460  1.00  0.00     0.048 A 
ATOM     20  O   UNL A   1      30.390  26.330  26.492  1.00  0.00    -0.268 OA
ATOM     21  C   UNL A   1      32.261  24.038  24.577  1.00  0.00    -0.000 A 
ATOM     22  C   UNL A   1      30.677  23.599  26.359  1.00  0.00     0.014 A 
ATOM     23  C   UNL A   1      32.562  22.671  24.528  1.00  0.00     0.010 A 
ATOM     24  C   UNL A   1      31.017  22.246  26.341  1.00  0.00     0.001 A 
ATOM     25  C   UNL A   1      31.948  21.780  25.415  1.00  0.00     0.001 A 
BRANCH  14  26
ATOM     26  C   UNL A   1      30.459  27.945  24.033  1.00  0.00     0.053 A 
ATOM     27  C   UNL A   1      27.281  29.329  22.388  1.00  0.00     0.044 C 
ATOM     28  C   UNL A   1      28.594  29.289  23.111  1.00  0.00    -0.049 A 
ATOM     29  C   UNL A   1      29.181  30.458  23.576  1.00  0.00     0.003 A 
ATOM     30  C   UNL A   1      29.229  28.057  23.358  1.00  0.00     0.030 A 
ATOM     31  C   UNL A   1      30.391  30.392  24.256  1.00  0.00     0.002 A 
ATOM     32  C   UNL A   1      31.018  29.157  24.475  1.00  0.00     0.027 A 
ENDBRANCH  14  26
ENDBRANCH   8  13
ENDBRANCH   5   7
ENDBRANCH   4   5
ENDBRANCH   3   4
ENDBRANCH   2   3
ENDBRANCH   1   2
BRANCH   1  33
ATOM     33  C   UNL A   1      42.289  19.690  26.628  1.00  0.00     0.202 C 
BRANCH  33  34
ATOM     34  C   UNL A   1      43.175  19.634  25.378  1.00  0.00     0.261 C 
BRANCH  34  35
ATOM     35  O   UNL A   1      43.564  20.970  25.000  1.00  0.00    -0.460 OA
BRANCH  35  36
ATOM     36  C   UNL A   1      44.897  21.165  24.809  1.00  0.00     0.338 C 
ATOM     37  O   UNL A   1      45.655  20.382  24.258  1.00  0.00    -0.246 OA
BRANCH  36  38
ATOM     38  C   UNL A   1      45.354  22.333  25.614  1.00  0.00     0.060 A 
ATOM     39  C   UNL A   1      45.045  22.400  26.987  1.00  0.00     0.016 A 
ATOM     40  C   UNL A   1      45.786  23.475  24.946  1.00  0.00     0.016 A 
ATOM     41  C   UNL A   1      45.010  23.641  27.642  1.00  0.00     0.010 A 
ATOM     42  C   UNL A   1      45.663  24.697  25.573  1.00  0.00     0.010 A 
ATOM     43  C   UNL A   1      45.236  24.802  26.906  1.00  0.00    -0.014 A 
BRANCH  43  44
ATOM     44  C   UNL A   1      44.952  26.174  27.346  1.00  0.00     0.031 A 
ATOM     45  C   UNL A   1      43.570  26.694  27.219  1.00  0.00     0.074 A 
ATOM     46  C   UNL A   1      45.826  26.846  28.136  1.00  0.00     0.049 A 
ATOM     47  N   UNL A   1      43.238  27.910  27.484  1.00  0.00    -0.248 NA
ATOM     48  C   UNL A   1      42.436  25.903  26.738  1.00  0.00     0.031 C 
ATOM     49  C   UNL A   1      45.532  27.892  29.120  1.00  0.00     0.029 A 
ATOM     50  N   UNL A   1      47.218  26.751  28.197  1.00  0.00    -0.354 N 
ATOM     51  C   UNL A   1      41.873  27.940  27.613  1.00  0.00     0.074 A 
ATOM     52  C   UNL A   1      41.414  26.729  26.984  1.00  0.00     0.031 C 
ATOM     53  C   UNL A   1      46.669  28.520  29.465  1.00  0.00     0.029 A 
ATOM     54  C   UNL A   1      47.721  27.992  28.614  1.00  0.00     0.049 A 
ATOM     55  H   UNL A   1      47.753  25.952  27.985  1.00  0.00     0.167 HD
ATOM     56  C   UNL A   1      41.317  28.914  28.384  1.00  0.00     0.031 A 
ATOM     57  C   UNL A   1      48.581  28.695  27.828  1.00  0.00     0.031 A 
ATOM     58  C   UNL A   1      42.312  29.925  28.774  1.00  0.00     0.049 A 
ATOM     59  C   UNL A   1      47.932  29.993  27.438  1.00  0.00     0.074 A 
ATOM     60  C   UNL A   1      42.894  30.287  29.976  1.00  0.00     0.029 A 
ATOM     61  N   UNL A   1      43.066  30.543  27.775  1.00  0.00    -0.354 N 
ATOM     62  N   UNL A   1      46.640  30.163  27.496  1.00  0.00    -0.248 NA
ATOM     63  C   UNL A   1      48.634  31.208  27.040  1.00  0.00     0.031 C 
ATOM     64  C   UNL A   1      44.064  31.050  29.682  1.00  0.00     0.029 A 
ATOM     65  C   UNL A   1      44.164  31.190  28.305  1.00  0.00     0.049 A 
ATOM     66  H   UNL A   1      42.843  30.522  26.817  1.00  0.00     0.167 HD
ATOM     67  C   UNL A   1      46.337  31.469  27.284  1.00  0.00     0.074 A 
ATOM     68  C   UNL A   1      47.610  32.079  26.938  1.00  0.00     0.031 C 
ATOM     69  C   UNL A   1      45.068  31.941  27.435  1.00  0.00     0.031 A 
BRANCH  56  70
ATOM     70  C   UNL A   1      39.914  28.861  28.951  1.00  0.00    -0.014 A 
ATOM     71  C   UNL A   1      38.907  29.667  28.388  1.00  0.00     0.009 A 
ATOM     72  C   UNL A   1      39.529  28.111  30.080  1.00  0.00     0.009 A 
ATOM     73  C   UNL A   1      37.604  29.710  28.913  1.00  0.00     0.001 A 
ATOM     74  C   UNL A   1      38.223  28.124  30.592  1.00  0.00     0.001 A 
ATOM     75  C   UNL A   1      37.258  28.930  30.009  1.00  0.00     0.000 A 
ENDBRANCH  56  70
BRANCH  57  76
ATOM     76  C   UNL A   1      49.472  27.795  27.037  1.00  0.00    -0.014 A 
ATOM     77  C   UNL A   1      50.441  27.060  27.761  1.00  0.00     0.009 A 
ATOM     78  C   UNL A   1      49.066  27.293  25.790  1.00  0.00     0.009 A 
ATOM     79  C   UNL A   1      50.876  25.802  27.324  1.00  0.00     0.001 A 
ATOM     80  C   UNL A   1      49.512  26.033  25.354  1.00  0.00     0.001 A 
ATOM     81  C   UNL A   1      50.378  25.272  26.139  1.00  0.00     0.000 A 
ENDBRANCH  57  76
BRANCH  69  82
ATOM     82  C   UNL A   1      44.560  33.196  26.790  1.00  0.00    -0.014 A 
ATOM     83  C   UNL A   1      44.024  33.230  25.496  1.00  0.00     0.009 A 
ATOM     84  C   UNL A   1      44.412  34.356  27.579  1.00  0.00     0.009 A 
ATOM     85  C   UNL A   1      43.397  34.378  25.004  1.00  0.00     0.001 A 
ATOM     86  C   UNL A   1      43.739  35.483  27.111  1.00  0.00     0.001 A 
ATOM     87  C   UNL A   1      43.239  35.496  25.816  1.00  0.00     0.000 A 
ENDBRANCH  69  82
ENDBRANCH  43  44
ENDBRANCH  36  38
ENDBRANCH  35  36
ENDBRANCH  34  35
ENDBRANCH  33  34
ENDBRANCH   1  33
TORSDOF 16
ENDMDL
MODEL 3
REMARK VINA RESULT:     -11.2      4.942     12.403
REMARK SMILES Cc1cccc(N2C(=O)/C(=C/c3ccc(C(=O)OCCOCCOC(=O)c4ccc(-c5c6nc(c(-c7ccccc7)c7ccc([nH]7)c(-c7ccccc7)c7nc(c(-c8ccccc8)c8ccc5[nH]8)C=C7)C=C6)cc4)cc3)c3ccccc3C2=O)c1
REMARK SMILES IDX 21 1 20 2 19 3 18 4 16 5 17 6 15 7 12 8 13 9 76 10 14 11
REMARK SMILES IDX 75 12 11 13 7 14 8 15 83 16 9 17 10 18 82 19 84 20 77 21
REMARK SMILES IDX 81 22 78 23 80 24 79 25 6 26 1 27 2 28 3 29 85 30 4 31 5 32
REMARK SMILES IDX 22 33 23 34 24 35 25 36 26 37 27 38 28 39 74 40 29 41 73 42
REMARK SMILES IDX 30 43 31 44 32 45 67 46 33 47 72 48 66 49 68 50 34 51 71 52
REMARK SMILES IDX 65 53 64 54 35 56 57 57 42 58 56 59 43 60 46 61 55 62 69 63
REMARK SMILES IDX 44 64 45 65 54 67 70 68 47 69 36 70 37 71 41 72 38 73 40 74
REMARK SMILES IDX 39 75 58 76 59 77 63 78 60 79 62 80 61 81 48 82 49 83 53 84
REMARK SMILES IDX 50 85 52 86 51 87
REMARK H PARENT 68 55 46 66
REMARK Flexibility Score: inf
ROOT
ATOM      1  O   UNL A   1      35.391  33.551  29.043  1.00  0.00    -0.374 OA
ENDROOT
BRANCH   1   2
ATOM      2  C   UNL A   1      34.314  33.420  29.956  1.00  0.00     0.202 C 
BRANCH   2   3
ATOM      3  C   UNL A   1      34.914  32.958  31.257  1.00  0.00     0.261 C 
BRANCH   3   4
ATOM      4  O   UNL A   1      36.331  33.215  31.332  1.00  0.00    -0.460 OA
BRANCH   4   5
ATOM      5  C   UNL A   1      37.167  32.290  31.900  1.00  0.00     0.338 C 
ATOM      6  O   UNL A   1      36.915  31.341  32.580  1.00  0.00    -0.246 OA
BRANCH   5   7
ATOM      7  C   UNL A   1      38.492  32.571  31.315  1.00  0.00     0.060 A 
ATOM      8  C   UNL A   1      40.594  34.064  30.377  1.00  0.00    -0.025 A 
ATOM      9  C   UNL A   1      39.577  33.681  29.495  1.00  0.00     0.009 A 
ATOM     10  C   UNL A   1      40.682  33.484  31.647  1.00  0.00     0.009 A 
ATOM     11  C   UNL A   1      38.518  32.915  29.963  1.00  0.00     0.016 A 
ATOM     12  C   UNL A   1      39.606  32.759  32.135  1.00  0.00     0.016 A 
BRANCH   8  13
ATOM     13  C   UNL A   1      41.467  35.169  29.989  1.00  0.00     0.022 C 
ATOM     14  N   UNL A   1      43.528  36.549  27.589  1.00  0.00    -0.242 N 
ATOM     15  C   UNL A   1      43.241  36.372  28.957  1.00  0.00     0.265 C 
ATOM     16  C   UNL A   1      43.545  35.433  26.713  1.00  0.00     0.265 C 
ATOM     17  O   UNL A   1      43.419  37.140  29.898  1.00  0.00    -0.268 OA
ATOM     18  C   UNL A   1      42.603  35.064  29.266  1.00  0.00     0.049 C 
ATOM     19  C   UNL A   1      43.633  34.080  27.325  1.00  0.00     0.048 A 
ATOM     20  O   UNL A   1      43.514  35.440  25.485  1.00  0.00    -0.268 OA
ATOM     21  C   UNL A   1      43.200  33.892  28.635  1.00  0.00    -0.000 A 
ATOM     22  C   UNL A   1      44.144  33.002  26.586  1.00  0.00     0.014 A 
ATOM     23  C   UNL A   1      43.370  32.639  29.239  1.00  0.00     0.010 A 
ATOM     24  C   UNL A   1      44.264  31.744  27.177  1.00  0.00     0.001 A 
ATOM     25  C   UNL A   1      43.892  31.567  28.508  1.00  0.00     0.001 A 
BRANCH  14  26
ATOM     26  C   UNL A   1      43.782  37.898  27.081  1.00  0.00     0.053 A 
ATOM     27  C   UNL A   1      41.782  40.978  25.967  1.00  0.00     0.044 C 
ATOM     28  C   UNL A   1      42.948  40.082  26.260  1.00  0.00    -0.049 A 
ATOM     29  C   UNL A   1      44.248  40.525  26.059  1.00  0.00     0.003 A 
ATOM     30  C   UNL A   1      42.735  38.790  26.779  1.00  0.00     0.030 A 
ATOM     31  C   UNL A   1      45.311  39.679  26.353  1.00  0.00     0.002 A 
ATOM     32  C   UNL A   1      45.078  38.389  26.850  1.00  0.00     0.027 A 
ENDBRANCH  14  26
ENDBRANCH   8  13
ENDBRANCH   5   7
ENDBRANCH   4   5
ENDBRANCH   3   4
ENDBRANCH   2   3
ENDBRANCH   1   2
BRANCH   1  33
ATOM     33  C   UNL A   1      35.332  32.726  27.895  1.00  0.00     0.202 C 
BRANCH  33  34
ATOM     34  C   UNL A   1      34.374  31.539  28.053  1.00  0.00     0.261 C 
BRANCH  34  35
ATOM     35  O   UNL A   1      35.019  30.493  28.807  1.00  0.00    -0.460 OA
BRANCH  35  36
ATOM     36  C   UNL A   1      35.835  29.670  28.094  1.00  0.00     0.338 C 
ATOM     37  O   UNL A   1      35.467  28.839  27.280  1.00  0.00    -0.246 OA
BRANCH  36  38
ATOM     38  C   UNL A   1      37.216  29.727  28.652  1.00  0.00     0.060 A 
ATOM     39  C   UNL A   1      38.299  30.050  27.811  1.00  0.00     0.016 A 
ATOM     40  C   UNL A   1      37.456  29.154  29.898  1.00  0.00     0.016 A 
ATOM     41  C   UNL A   1      39.599  29.645  28.148  1.00  0.00     0.010 A 
ATOM     42  C   UNL A   1      38.721  28.682  30.179  1.00  0.00     0.010 A 
ATOM     43  C   UNL A   1      39.795  28.881  29.296  1.00  0.00    -0.014 A 
BRANCH  43  44
ATOM     44  C   UNL A   1      41.010  28.132  29.641  1.00  0.00     0.031 A 
ATOM     45  C   UNL A   1      41.213  26.787  29.052  1.00  0.00     0.074 A 
ATOM     46  C   UNL A   1      42.071  28.753  30.215  1.00  0.00     0.049 A 
ATOM     47  N   UNL A   1      42.192  26.012  29.364  1.00  0.00    -0.248 NA
ATOM     48  C   UNL A   1      40.303  26.169  28.086  1.00  0.00     0.031 C 
ATOM     49  C   UNL A   1      43.490  28.400  30.107  1.00  0.00     0.029 A 
ATOM     50  N   UNL A   1      42.093  29.853  31.075  1.00  0.00    -0.354 N 
ATOM     51  C   UNL A   1      42.273  25.047  28.393  1.00  0.00     0.074 A 
ATOM     52  C   UNL A   1      40.997  25.084  27.726  1.00  0.00     0.031 C 
ATOM     53  C   UNL A   1      44.189  29.050  31.053  1.00  0.00     0.029 A 
ATOM     54  C   UNL A   1      43.228  29.742  31.892  1.00  0.00     0.049 A 
ATOM     55  H   UNL A   1      41.429  30.579  31.103  1.00  0.00     0.167 HD
ATOM     56  C   UNL A   1      43.475  24.449  28.172  1.00  0.00     0.031 A 
ATOM     57  C   UNL A   1      43.108  29.669  33.246  1.00  0.00     0.031 A 
ATOM     58  C   UNL A   1      44.453  24.810  29.210  1.00  0.00     0.049 A 
ATOM     59  C   UNL A   1      43.632  28.340  33.710  1.00  0.00     0.074 A 
ATOM     60  C   UNL A   1      45.620  25.556  29.214  1.00  0.00     0.029 A 
ATOM     61  N   UNL A   1      44.113  24.614  30.549  1.00  0.00    -0.354 N 
ATOM     62  N   UNL A   1      43.752  27.325  32.899  1.00  0.00    -0.248 NA
ATOM     63  C   UNL A   1      44.135  28.044  35.047  1.00  0.00     0.031 C 
ATOM     64  C   UNL A   1      45.921  25.887  30.569  1.00  0.00     0.029 A 
ATOM     65  C   UNL A   1      44.966  25.303  31.388  1.00  0.00     0.049 A 
ATOM     66  H   UNL A   1      43.363  24.056  30.856  1.00  0.00     0.167 HD
ATOM     67  C   UNL A   1      44.427  26.321  33.514  1.00  0.00     0.074 A 
ATOM     68  C   UNL A   1      44.593  26.787  34.880  1.00  0.00     0.031 C 
ATOM     69  C   UNL A   1      44.813  25.202  32.839  1.00  0.00     0.031 A 
BRANCH  56  70
ATOM     70  C   UNL A   1      43.835  23.685  26.915  1.00  0.00    -0.014 A 
ATOM     71  C   UNL A   1      44.491  24.351  25.862  1.00  0.00     0.009 A 
ATOM     72  C   UNL A   1      43.494  22.342  26.663  1.00  0.00     0.009 A 
ATOM     73  C   UNL A   1      44.791  23.713  24.647  1.00  0.00     0.001 A 
ATOM     74  C   UNL A   1      43.816  21.688  25.465  1.00  0.00     0.001 A 
ATOM     75  C   UNL A   1      44.463  22.377  24.452  1.00  0.00     0.000 A 
ENDBRANCH  56  70
BRANCH  57  76
ATOM     76  C   UNL A   1      41.946  30.466  33.743  1.00  0.00    -0.014 A 
ATOM     77  C   UNL A   1      40.740  29.760  33.969  1.00  0.00     0.009 A 
ATOM     78  C   UNL A   1      42.142  31.669  34.440  1.00  0.00     0.009 A 
ATOM     79  C   UNL A   1      39.835  30.165  34.959  1.00  0.00     0.001 A 
ATOM     80  C   UNL A   1      41.226  32.073  35.427  1.00  0.00     0.001 A 
ATOM     81  C   UNL A   1      40.101  31.301  35.716  1.00  0.00     0.000 A 
ENDBRANCH  57  76
BRANCH  69  82
ATOM     82  C   UNL A   1      45.120  23.891  33.500  1.00  0.00    -0.014 A 
ATOM     83  C   UNL A   1      46.382  23.570  34.015  1.00  0.00     0.009 A 
ATOM     84  C   UNL A   1      44.055  23.020  33.815  1.00  0.00     0.009 A 
ATOM     85  C   UNL A   1      46.578  22.418  34.783  1.00  0.00     0.001 A 
ATOM     86  C   UNL A   1      44.236  21.902  34.625  1.00  0.00     0.001 A 
ATOM     87  C   UNL A   1      45.503  21.595  35.102  1.00  0.00     0.000 A 
ENDBRANCH  69  82
ENDBRANCH  43  44
ENDBRANCH  36  38
ENDBRANCH  35  36
ENDBRANCH  34  35
ENDBRANCH  33  34
ENDBRANCH   1  33
TORSDOF 16
ENDMDL
