MODEL 1
REMARK VINA RESULT:      -9.2      0.000      0.000
REMARK SMILES CCOc1ccc(SCC(=O)N2CSC[C@@H]2C(=O)OCCOCCOC(=O)c2ccc(-c3c4nc(c(-c5ccccc5)c5ccc([nH]5)c(-c5ccccc5)c5nc(c(-c6ccccc6)c6ccc3[nH]6)C=C5)C=C4)cc2)cc1
REMARK SMILES IDX 20 1 19 2 17 3 18 4 16 5 12 6 13 7 14 8 15 9 10 10 11 11
REMARK SMILES IDX 9 12 8 13 7 14 4 15 5 16 77 17 6 18 76 19 3 20 2 21 1 22
REMARK SMILES IDX 21 23 22 24 23 25 24 26 25 27 26 28 27 29 28 30 29 31 75 32
REMARK SMILES IDX 30 33 74 34 31 35 32 36 33 37 68 38 34 39 73 40 67 41 69 42
REMARK SMILES IDX 35 43 72 44 66 45 65 46 36 48 58 49 43 50 57 51 44 52 47 53
REMARK SMILES IDX 56 54 70 55 45 56 46 57 55 59 71 60 48 61 37 62 38 63 42 64
REMARK SMILES IDX 39 65 41 66 40 67 59 68 60 69 64 70 61 71 63 72 62 73 49 74
REMARK SMILES IDX 50 75 54 76 51 77 53 78 52 79
REMARK H PARENT 69 47 47 58
REMARK Flexibility Score: inf
ROOT
ATOM      1  C   UNL A   1      36.499  23.523  25.505  1.00  0.00     0.261 C 
ENDROOT
BRANCH   1   2
ATOM      2  O   UNL A   1      35.584  24.560  25.907  1.00  0.00    -0.462 OA
BRANCH   2   3
ATOM      3  C   UNL A   1      34.583  24.855  25.024  1.00  0.00     0.329 C 
ATOM      4  O   UNL A   1      34.600  24.583  23.830  1.00  0.00    -0.250 OA
BRANCH   3   5
ATOM      5  C   UNL A   1      33.412  25.542  25.748  1.00  0.00     0.205 C 
ATOM      6  N   UNL A   1      32.183  24.764  25.528  1.00  0.00    -0.318 N 
ATOM      7  C   UNL A   1      31.254  25.327  24.578  1.00  0.00     0.190 C 
ATOM      8  S   UNL A   1      31.990  26.830  23.907  1.00  0.00    -0.138 SA
ATOM      9  C   UNL A   1      33.244  26.951  25.206  1.00  0.00     0.108 C 
BRANCH   6  10
ATOM     10  C   UNL A   1      31.923  23.635  26.275  1.00  0.00     0.234 C 
ATOM     11  O   UNL A   1      31.454  23.726  27.414  1.00  0.00    -0.274 OA
BRANCH  10  12
ATOM     12  C   UNL A   1      32.451  22.298  25.773  1.00  0.00     0.175 C 
BRANCH  12  13
ATOM     13  S   UNL A   1      31.906  21.811  24.119  1.00  0.00    -0.116 SA
BRANCH  13  14
ATOM     14  C   UNL A   1      32.485  20.136  23.951  1.00  0.00     0.008 A 
ATOM     15  C   UNL A   1      33.456  17.510  23.885  1.00  0.00     0.119 A 
ATOM     16  C   UNL A   1      33.644  18.286  25.023  1.00  0.00     0.047 A 
ATOM     17  C   UNL A   1      32.741  18.017  22.804  1.00  0.00     0.047 A 
ATOM     18  C   UNL A   1      33.161  19.595  25.052  1.00  0.00     0.019 A 
ATOM     19  C   UNL A   1      32.262  19.329  22.834  1.00  0.00     0.019 A 
BRANCH  15  20
ATOM     20  O   UNL A   1      33.868  16.209  23.907  1.00  0.00    -0.494 OA
BRANCH  20  21
ATOM     21  C   UNL A   1      33.846  15.641  25.223  1.00  0.00     0.226 C 
ATOM     22  C   UNL A   1      32.545  14.900  25.490  1.00  0.00     0.049 C 
ENDBRANCH  20  21
ENDBRANCH  15  20
ENDBRANCH  13  14
ENDBRANCH  12  13
ENDBRANCH  10  12
ENDBRANCH   6  10
ENDBRANCH   3   5
ENDBRANCH   2   3
ENDBRANCH   1   2
BRANCH   1  23
ATOM     23  C   UNL A   1      36.033  22.129  25.953  1.00  0.00     0.202 C 
BRANCH  23  24
ATOM     24  O   UNL A   1      36.739  21.011  25.414  1.00  0.00    -0.374 OA
BRANCH  24  25
ATOM     25  C   UNL A   1      38.110  21.225  25.084  1.00  0.00     0.202 C 
BRANCH  25  26
ATOM     26  C   UNL A   1      39.159  20.561  25.979  1.00  0.00     0.261 C 
BRANCH  26  27
ATOM     27  O   UNL A   1      40.299  20.123  25.228  1.00  0.00    -0.460 OA
BRANCH  27  28
ATOM     28  C   UNL A   1      41.376  19.818  25.980  1.00  0.00     0.338 C 
ATOM     29  O   UNL A   1      41.890  18.718  26.144  1.00  0.00    -0.246 OA
BRANCH  28  30
ATOM     30  C   UNL A   1      41.986  21.057  26.480  1.00  0.00     0.060 A 
ATOM     31  C   UNL A   1      41.982  21.269  27.864  1.00  0.00     0.016 A 
ATOM     32  C   UNL A   1      42.500  22.021  25.608  1.00  0.00     0.016 A 
ATOM     33  C   UNL A   1      42.429  22.478  28.381  1.00  0.00     0.010 A 
ATOM     34  C   UNL A   1      42.946  23.235  26.127  1.00  0.00     0.010 A 
ATOM     35  C   UNL A   1      42.867  23.483  27.509  1.00  0.00    -0.014 A 
BRANCH  35  36
ATOM     36  C   UNL A   1      43.069  24.854  28.022  1.00  0.00     0.031 A 
ATOM     37  C   UNL A   1      44.459  25.281  28.401  1.00  0.00     0.074 A 
ATOM     38  C   UNL A   1      42.035  25.704  28.129  1.00  0.00     0.049 A 
ATOM     39  N   UNL A   1      44.869  26.413  28.911  1.00  0.00    -0.248 NA
ATOM     40  C   UNL A   1      45.530  24.294  28.179  1.00  0.00     0.031 C 
ATOM     41  C   UNL A   1      40.654  25.412  27.746  1.00  0.00     0.029 A 
ATOM     42  N   UNL A   1      41.992  26.991  28.598  1.00  0.00    -0.354 N 
ATOM     43  C   UNL A   1      46.240  26.269  29.082  1.00  0.00     0.074 A 
ATOM     44  C   UNL A   1      46.587  24.932  28.657  1.00  0.00     0.031 C 
ATOM     45  C   UNL A   1      39.896  26.492  27.999  1.00  0.00     0.029 A 
ATOM     46  C   UNL A   1      40.732  27.533  28.594  1.00  0.00     0.049 A 
ATOM     47  H   UNL A   1      42.788  27.480  28.908  1.00  0.00     0.167 HD
ATOM     48  C   UNL A   1      47.132  27.175  29.549  1.00  0.00     0.031 A 
ATOM     49  C   UNL A   1      40.302  28.729  29.040  1.00  0.00     0.031 A 
ATOM     50  C   UNL A   1      46.775  28.497  29.986  1.00  0.00     0.049 A 
ATOM     51  C   UNL A   1      41.299  29.690  29.630  1.00  0.00     0.074 A 
ATOM     52  C   UNL A   1      47.598  29.500  30.467  1.00  0.00     0.029 A 
ATOM     53  N   UNL A   1      45.481  28.995  30.004  1.00  0.00    -0.354 N 
ATOM     54  N   UNL A   1      42.597  29.554  29.769  1.00  0.00    -0.248 NA
ATOM     55  C   UNL A   1      40.772  30.972  30.115  1.00  0.00     0.031 C 
ATOM     56  C   UNL A   1      46.794  30.583  30.831  1.00  0.00     0.029 A 
ATOM     57  C   UNL A   1      45.478  30.282  30.514  1.00  0.00     0.049 A 
ATOM     58  H   UNL A   1      44.683  28.506  29.699  1.00  0.00     0.167 HD
ATOM     59  C   UNL A   1      43.046  30.745  30.327  1.00  0.00     0.074 A 
ATOM     60  C   UNL A   1      41.882  31.593  30.491  1.00  0.00     0.031 C 
ATOM     61  C   UNL A   1      44.307  31.108  30.668  1.00  0.00     0.031 A 
BRANCH  48  62
ATOM     62  C   UNL A   1      48.569  26.739  29.644  1.00  0.00    -0.014 A 
ATOM     63  C   UNL A   1      49.066  26.093  30.788  1.00  0.00     0.009 A 
ATOM     64  C   UNL A   1      49.439  26.975  28.568  1.00  0.00     0.009 A 
ATOM     65  C   UNL A   1      50.414  25.734  30.869  1.00  0.00     0.001 A 
ATOM     66  C   UNL A   1      50.777  26.586  28.639  1.00  0.00     0.001 A 
ATOM     67  C   UNL A   1      51.267  25.977  29.793  1.00  0.00     0.000 A 
ENDBRANCH  48  62
BRANCH  49  68
ATOM     68  C   UNL A   1      38.862  29.080  28.950  1.00  0.00    -0.014 A 
ATOM     69  C   UNL A   1      38.021  28.938  30.064  1.00  0.00     0.009 A 
ATOM     70  C   UNL A   1      38.319  29.562  27.748  1.00  0.00     0.009 A 
ATOM     71  C   UNL A   1      36.663  29.252  29.971  1.00  0.00     0.001 A 
ATOM     72  C   UNL A   1      36.967  29.903  27.667  1.00  0.00     0.001 A 
ATOM     73  C   UNL A   1      36.139  29.739  28.776  1.00  0.00     0.000 A 
ENDBRANCH  49  68
BRANCH  61  74
ATOM     74  C   UNL A   1      44.502  32.498  31.207  1.00  0.00    -0.014 A 
ATOM     75  C   UNL A   1      44.476  32.759  32.585  1.00  0.00     0.009 A 
ATOM     76  C   UNL A   1      44.768  33.551  30.319  1.00  0.00     0.009 A 
ATOM     77  C   UNL A   1      44.681  34.057  33.060  1.00  0.00     0.001 A 
ATOM     78  C   UNL A   1      45.004  34.840  30.797  1.00  0.00     0.001 A 
ATOM     79  C   UNL A   1      44.951  35.093  32.167  1.00  0.00     0.000 A 
ENDBRANCH  61  74
ENDBRANCH  35  36
ENDBRANCH  28  30
ENDBRANCH  27  28
ENDBRANCH  26  27
ENDBRANCH  25  26
ENDBRANCH  24  25
ENDBRANCH  23  24
ENDBRANCH   1  23
TORSDOF 20
ENDMDL
MODEL 2
REMARK VINA RESULT:      -9.2      4.336      8.963
REMARK SMILES CCOc1ccc(SCC(=O)N2CSC[C@@H]2C(=O)OCCOCCOC(=O)c2ccc(-c3c4nc(c(-c5ccccc5)c5ccc([nH]5)c(-c5ccccc5)c5nc(c(-c6ccccc6)c6ccc3[nH]6)C=C5)C=C4)cc2)cc1
REMARK SMILES IDX 20 1 19 2 17 3 18 4 16 5 12 6 13 7 14 8 15 9 10 10 11 11
REMARK SMILES IDX 9 12 8 13 7 14 4 15 5 16 77 17 6 18 76 19 3 20 2 21 1 22
REMARK SMILES IDX 21 23 22 24 23 25 24 26 25 27 26 28 27 29 28 30 29 31 75 32
REMARK SMILES IDX 30 33 74 34 31 35 32 36 33 37 68 38 34 39 73 40 67 41 69 42
REMARK SMILES IDX 35 43 72 44 66 45 65 46 36 48 58 49 43 50 57 51 44 52 47 53
REMARK SMILES IDX 56 54 70 55 45 56 46 57 55 59 71 60 48 61 37 62 38 63 42 64
REMARK SMILES IDX 39 65 41 66 40 67 59 68 60 69 64 70 61 71 63 72 62 73 49 74
REMARK SMILES IDX 50 75 54 76 51 77 53 78 52 79
REMARK H PARENT 69 47 47 58
REMARK Flexibility Score: inf
ROOT
ATOM      1  C   UNL A   1      34.347  28.390  26.629  1.00  0.00     0.261 C 
ENDROOT
BRANCH   1   2
ATOM      2  O   UNL A   1      33.010  28.532  26.112  1.00  0.00    -0.462 OA
BRANCH   2   3
ATOM      3  C   UNL A   1      32.830  28.181  24.804  1.00  0.00     0.329 C 
ATOM      4  O   UNL A   1      33.719  28.133  23.963  1.00  0.00    -0.250 OA
BRANCH   3   5
ATOM      5  C   UNL A   1      31.358  27.813  24.543  1.00  0.00     0.205 C 
ATOM      6  N   UNL A   1      31.292  26.812  23.467  1.00  0.00    -0.318 N 
ATOM      7  C   UNL A   1      30.861  27.309  22.183  1.00  0.00     0.190 C 
ATOM      8  S   UNL A   1      30.604  29.087  22.335  1.00  0.00    -0.138 SA
ATOM      9  C   UNL A   1      30.592  29.062  24.144  1.00  0.00     0.108 C 
BRANCH   6  10
ATOM     10  C   UNL A   1      31.530  25.480  23.731  1.00  0.00     0.234 C 
ATOM     11  O   UNL A   1      31.238  24.991  24.827  1.00  0.00    -0.274 OA
BRANCH  10  12
ATOM     12  C   UNL A   1      32.381  24.688  22.746  1.00  0.00     0.175 C 
BRANCH  12  13
ATOM     13  S   UNL A   1      34.004  24.170  23.351  1.00  0.00    -0.116 SA
BRANCH  13  14
ATOM     14  C   UNL A   1      33.780  22.455  23.769  1.00  0.00     0.008 A 
ATOM     15  C   UNL A   1      33.604  19.767  24.534  1.00  0.00     0.119 A 
ATOM     16  C   UNL A   1      34.733  20.506  24.869  1.00  0.00     0.047 A 
ATOM     17  C   UNL A   1      32.543  20.374  23.869  1.00  0.00     0.047 A 
ATOM     18  C   UNL A   1      34.819  21.845  24.485  1.00  0.00     0.019 A 
ATOM     19  C   UNL A   1      32.633  21.713  23.481  1.00  0.00     0.019 A 
BRANCH  15  20
ATOM     20  O   UNL A   1      33.508  18.482  24.987  1.00  0.00    -0.494 OA
BRANCH  20  21
ATOM     21  C   UNL A   1      32.911  17.599  24.029  1.00  0.00     0.226 C 
ATOM     22  C   UNL A   1      33.964  16.880  23.199  1.00  0.00     0.049 C 
ENDBRANCH  20  21
ENDBRANCH  15  20
ENDBRANCH  13  14
ENDBRANCH  12  13
ENDBRANCH  10  12
ENDBRANCH   6  10
ENDBRANCH   3   5
ENDBRANCH   2   3
ENDBRANCH   1   2
BRANCH   1  23
ATOM     23  C   UNL A   1      34.815  29.642  27.385  1.00  0.00     0.202 C 
BRANCH  23  24
ATOM     24  O   UNL A   1      33.797  30.519  27.870  1.00  0.00    -0.374 OA
BRANCH  24  25
ATOM     25  C   UNL A   1      33.887  31.883  27.463  1.00  0.00     0.202 C 
BRANCH  25  26
ATOM     26  C   UNL A   1      32.757  32.821  27.897  1.00  0.00     0.261 C 
BRANCH  26  27
ATOM     27  O   UNL A   1      33.020  34.179  27.522  1.00  0.00    -0.460 OA
BRANCH  27  28
ATOM     28  C   UNL A   1      33.179  35.021  28.564  1.00  0.00     0.338 C 
ATOM     29  O   UNL A   1      32.438  35.933  28.911  1.00  0.00    -0.246 OA
BRANCH  28  30
ATOM     30  C   UNL A   1      34.329  34.587  29.367  1.00  0.00     0.060 A 
ATOM     31  C   UNL A   1      35.600  34.686  28.786  1.00  0.00     0.016 A 
ATOM     32  C   UNL A   1      34.163  34.040  30.643  1.00  0.00     0.016 A 
ATOM     33  C   UNL A   1      36.706  34.173  29.451  1.00  0.00     0.010 A 
ATOM     34  C   UNL A   1      35.275  33.522  31.307  1.00  0.00     0.010 A 
ATOM     35  C   UNL A   1      36.538  33.546  30.692  1.00  0.00    -0.014 A 
BRANCH  35  36
ATOM     36  C   UNL A   1      37.648  32.753  31.263  1.00  0.00     0.031 A 
ATOM     37  C   UNL A   1      38.238  33.188  32.575  1.00  0.00     0.074 A 
ATOM     38  C   UNL A   1      38.104  31.660  30.631  1.00  0.00     0.049 A 
ATOM     39  N   UNL A   1      39.240  32.678  33.242  1.00  0.00    -0.248 NA
ATOM     40  C   UNL A   1      37.618  34.360  33.215  1.00  0.00     0.031 C 
ATOM     41  C   UNL A   1      37.574  31.120  29.380  1.00  0.00     0.029 A 
ATOM     42  N   UNL A   1      39.125  30.808  30.963  1.00  0.00    -0.354 N 
ATOM     43  C   UNL A   1      39.377  33.473  34.374  1.00  0.00     0.074 A 
ATOM     44  C   UNL A   1      38.382  34.518  34.284  1.00  0.00     0.031 C 
ATOM     45  C   UNL A   1      38.279  30.026  29.046  1.00  0.00     0.029 A 
ATOM     46  C   UNL A   1      39.328  29.813  30.040  1.00  0.00     0.049 A 
ATOM     47  H   UNL A   1      39.661  30.900  31.783  1.00  0.00     0.167 HD
ATOM     48  C   UNL A   1      40.252  33.340  35.398  1.00  0.00     0.031 A 
ATOM     49  C   UNL A   1      40.271  28.852  29.996  1.00  0.00     0.031 A 
ATOM     50  C   UNL A   1      41.250  32.307  35.469  1.00  0.00     0.049 A 
ATOM     51  C   UNL A   1      41.285  28.772  31.106  1.00  0.00     0.074 A 
ATOM     52  C   UNL A   1      42.180  32.072  36.465  1.00  0.00     0.029 A 
ATOM     53  N   UNL A   1      41.450  31.341  34.495  1.00  0.00    -0.354 N 
ATOM     54  N   UNL A   1      41.394  29.515  32.182  1.00  0.00    -0.248 NA
ATOM     55  C   UNL A   1      42.298  27.715  30.998  1.00  0.00     0.031 C 
ATOM     56  C   UNL A   1      42.982  30.999  36.064  1.00  0.00     0.029 A 
ATOM     57  C   UNL A   1      42.509  30.524  34.851  1.00  0.00     0.049 A 
ATOM     58  H   UNL A   1      40.919  31.250  33.671  1.00  0.00     0.167 HD
ATOM     59  C   UNL A   1      42.467  28.995  32.895  1.00  0.00     0.074 A 
ATOM     60  C   UNL A   1      42.967  27.868  32.133  1.00  0.00     0.031 C 
ATOM     61  C   UNL A   1      42.989  29.408  34.077  1.00  0.00     0.031 A 
BRANCH  48  62
ATOM     62  C   UNL A   1      40.187  34.366  36.496  1.00  0.00    -0.014 A 
ATOM     63  C   UNL A   1      39.392  34.170  37.638  1.00  0.00     0.009 A 
ATOM     64  C   UNL A   1      40.938  35.547  36.389  1.00  0.00     0.009 A 
ATOM     65  C   UNL A   1      39.316  35.156  38.625  1.00  0.00     0.001 A 
ATOM     66  C   UNL A   1      40.886  36.515  37.393  1.00  0.00     0.001 A 
ATOM     67  C   UNL A   1      40.066  36.324  38.504  1.00  0.00     0.000 A 
ENDBRANCH  48  62
BRANCH  49  68
ATOM     68  C   UNL A   1      40.301  27.894  28.862  1.00  0.00    -0.014 A 
ATOM     69  C   UNL A   1      39.652  26.654  28.956  1.00  0.00     0.009 A 
ATOM     70  C   UNL A   1      40.978  28.216  27.674  1.00  0.00     0.009 A 
ATOM     71  C   UNL A   1      39.698  25.748  27.894  1.00  0.00     0.001 A 
ATOM     72  C   UNL A   1      40.997  27.320  26.603  1.00  0.00     0.001 A 
ATOM     73  C   UNL A   1      40.364  26.084  26.717  1.00  0.00     0.000 A 
ENDBRANCH  49  68
BRANCH  61  74
ATOM     74  C   UNL A   1      44.130  28.608  34.642  1.00  0.00    -0.014 A 
ATOM     75  C   UNL A   1      43.908  27.499  35.471  1.00  0.00     0.009 A 
ATOM     76  C   UNL A   1      45.447  28.945  34.292  1.00  0.00     0.009 A 
ATOM     77  C   UNL A   1      44.986  26.761  35.965  1.00  0.00     0.001 A 
ATOM     78  C   UNL A   1      46.521  28.188  34.762  1.00  0.00     0.001 A 
ATOM     79  C   UNL A   1      46.290  27.103  35.605  1.00  0.00     0.000 A 
ENDBRANCH  61  74
ENDBRANCH  35  36
ENDBRANCH  28  30
ENDBRANCH  27  28
ENDBRANCH  26  27
ENDBRANCH  25  26
ENDBRANCH  24  25
ENDBRANCH  23  24
ENDBRANCH   1  23
TORSDOF 20
ENDMDL
MODEL 3
REMARK VINA RESULT:      -9.0      3.924      6.734
REMARK SMILES CCOc1ccc(SCC(=O)N2CSC[C@@H]2C(=O)OCCOCCOC(=O)c2ccc(-c3c4nc(c(-c5ccccc5)c5ccc([nH]5)c(-c5ccccc5)c5nc(c(-c6ccccc6)c6ccc3[nH]6)C=C5)C=C4)cc2)cc1
REMARK SMILES IDX 20 1 19 2 17 3 18 4 16 5 12 6 13 7 14 8 15 9 10 10 11 11
REMARK SMILES IDX 9 12 8 13 7 14 4 15 5 16 77 17 6 18 76 19 3 20 2 21 1 22
REMARK SMILES IDX 21 23 22 24 23 25 24 26 25 27 26 28 27 29 28 30 29 31 75 32
REMARK SMILES IDX 30 33 74 34 31 35 32 36 33 37 68 38 34 39 73 40 67 41 69 42
REMARK SMILES IDX 35 43 72 44 66 45 65 46 36 48 58 49 43 50 57 51 44 52 47 53
REMARK SMILES IDX 56 54 70 55 45 56 46 57 55 59 71 60 48 61 37 62 38 63 42 64
REMARK SMILES IDX 39 65 41 66 40 67 59 68 60 69 64 70 61 71 63 72 62 73 49 74
REMARK SMILES IDX 50 75 54 76 51 77 53 78 52 79
REMARK H PARENT 69 47 47 58
REMARK Flexibility Score: inf
ROOT
ATOM      1  C   UNL A   1      36.443  23.447  24.782  1.00  0.00     0.261 C 
ENDROOT
BRANCH   1   2
ATOM      2  O   UNL A   1      35.619  23.477  25.963  1.00  0.00    -0.462 OA
BRANCH   2   3
ATOM      3  C   UNL A   1      34.374  24.021  25.814  1.00  0.00     0.329 C 
ATOM      4  O   UNL A   1      34.094  25.196  26.018  1.00  0.00    -0.250 OA
BRANCH   3   5
ATOM      5  C   UNL A   1      33.378  22.959  25.314  1.00  0.00     0.205 C 
ATOM      6  N   UNL A   1      32.497  23.561  24.301  1.00  0.00    -0.318 N 
ATOM      7  C   UNL A   1      31.158  23.866  24.746  1.00  0.00     0.190 C 
ATOM      8  S   UNL A   1      31.046  23.444  26.495  1.00  0.00    -0.138 SA
ATOM      9  C   UNL A   1      32.558  22.450  26.486  1.00  0.00     0.108 C 
BRANCH   6  10
ATOM     10  C   UNL A   1      32.922  23.710  22.998  1.00  0.00     0.234 C 
ATOM     11  O   UNL A   1      33.116  22.723  22.281  1.00  0.00    -0.274 OA
BRANCH  10  12
ATOM     12  C   UNL A   1      33.384  25.087  22.541  1.00  0.00     0.175 C 
BRANCH  12  13
ATOM     13  S   UNL A   1      32.079  26.203  21.973  1.00  0.00    -0.116 SA
BRANCH  13  14
ATOM     14  C   UNL A   1      32.059  27.498  23.194  1.00  0.00     0.008 A 
ATOM     15  C   UNL A   1      32.235  29.520  25.123  1.00  0.00     0.119 A 
ATOM     16  C   UNL A   1      33.381  28.833  24.740  1.00  0.00     0.047 A 
ATOM     17  C   UNL A   1      31.015  29.242  24.513  1.00  0.00     0.047 A 
ATOM     18  C   UNL A   1      33.290  27.824  23.779  1.00  0.00     0.019 A 
ATOM     19  C   UNL A   1      30.926  28.229  23.556  1.00  0.00     0.019 A 
BRANCH  15  20
ATOM     20  O   UNL A   1      32.359  30.554  26.007  1.00  0.00    -0.494 OA
BRANCH  20  21
ATOM     21  C   UNL A   1      33.024  30.172  27.218  1.00  0.00     0.226 C 
ATOM     22  C   UNL A   1      34.128  31.153  27.582  1.00  0.00     0.049 C 
ENDBRANCH  20  21
ENDBRANCH  15  20
ENDBRANCH  13  14
ENDBRANCH  12  13
ENDBRANCH  10  12
ENDBRANCH   6  10
ENDBRANCH   3   5
ENDBRANCH   2   3
ENDBRANCH   1   2
BRANCH   1  23
ATOM     23  C   UNL A   1      37.873  22.975  25.083  1.00  0.00     0.202 C 
BRANCH  23  24
ATOM     24  O   UNL A   1      38.023  21.984  26.100  1.00  0.00    -0.374 OA
BRANCH  24  25
ATOM     25  C   UNL A   1      39.316  21.396  26.230  1.00  0.00     0.202 C 
BRANCH  25  26
ATOM     26  C   UNL A   1      40.526  22.296  25.967  1.00  0.00     0.261 C 
BRANCH  26  27
ATOM     27  O   UNL A   1      40.657  23.315  26.967  1.00  0.00    -0.460 OA
BRANCH  27  28
ATOM     28  C   UNL A   1      41.337  24.407  26.560  1.00  0.00     0.338 C 
ATOM     29  O   UNL A   1      42.087  24.508  25.597  1.00  0.00    -0.246 OA
BRANCH  28  30
ATOM     30  C   UNL A   1      40.921  25.565  27.363  1.00  0.00     0.060 A 
ATOM     31  C   UNL A   1      41.644  26.754  27.208  1.00  0.00     0.016 A 
ATOM     32  C   UNL A   1      39.879  25.473  28.290  1.00  0.00     0.016 A 
ATOM     33  C   UNL A   1      41.376  27.839  28.032  1.00  0.00     0.010 A 
ATOM     34  C   UNL A   1      39.613  26.563  29.118  1.00  0.00     0.010 A 
ATOM     35  C   UNL A   1      40.391  27.729  29.022  1.00  0.00    -0.014 A 
BRANCH  35  36
ATOM     36  C   UNL A   1      40.300  28.762  30.076  1.00  0.00     0.031 A 
ATOM     37  C   UNL A   1      41.258  28.694  31.231  1.00  0.00     0.074 A 
ATOM     38  C   UNL A   1      39.392  29.748  29.992  1.00  0.00     0.049 A 
ATOM     39  N   UNL A   1      41.338  29.460  32.288  1.00  0.00    -0.248 NA
ATOM     40  C   UNL A   1      42.258  27.613  31.190  1.00  0.00     0.031 C 
ATOM     41  C   UNL A   1      38.446  29.937  28.893  1.00  0.00     0.029 A 
ATOM     42  N   UNL A   1      39.120  30.776  30.856  1.00  0.00    -0.354 N 
ATOM     43  C   UNL A   1      42.386  28.945  33.042  1.00  0.00     0.074 A 
ATOM     44  C   UNL A   1      42.887  27.784  32.342  1.00  0.00     0.031 C 
ATOM     45  C   UNL A   1      37.692  31.019  29.151  1.00  0.00     0.029 A 
ATOM     46  C   UNL A   1      38.079  31.572  30.447  1.00  0.00     0.049 A 
ATOM     47  H   UNL A   1      39.621  30.929  31.688  1.00  0.00     0.167 HD
ATOM     48  C   UNL A   1      42.889  29.405  34.213  1.00  0.00     0.031 A 
ATOM     49  C   UNL A   1      37.495  32.617  31.064  1.00  0.00     0.031 A 
ATOM     50  C   UNL A   1      42.372  30.550  34.910  1.00  0.00     0.049 A 
ATOM     51  C   UNL A   1      38.018  33.060  32.404  1.00  0.00     0.074 A 
ATOM     52  C   UNL A   1      42.811  31.110  36.097  1.00  0.00     0.029 A 
ATOM     53  N   UNL A   1      41.290  31.307  34.485  1.00  0.00    -0.354 N 
ATOM     54  N   UNL A   1      39.022  32.581  33.100  1.00  0.00    -0.248 NA
ATOM     55  C   UNL A   1      37.332  34.193  33.037  1.00  0.00     0.031 C 
ATOM     56  C   UNL A   1      41.957  32.169  36.419  1.00  0.00     0.029 A 
ATOM     57  C   UNL A   1      41.028  32.312  35.399  1.00  0.00     0.049 A 
ATOM     58  H   UNL A   1      40.784  31.152  33.655  1.00  0.00     0.167 HD
ATOM     59  C   UNL A   1      39.110  33.375  34.237  1.00  0.00     0.074 A 
ATOM     60  C   UNL A   1      38.062  34.371  34.130  1.00  0.00     0.031 C 
ATOM     61  C   UNL A   1      39.981  33.293  35.273  1.00  0.00     0.031 A 
BRANCH  48  62
ATOM     62  C   UNL A   1      44.028  28.634  34.821  1.00  0.00    -0.014 A 
ATOM     63  C   UNL A   1      45.366  28.948  34.531  1.00  0.00     0.009 A 
ATOM     64  C   UNL A   1      43.757  27.577  35.706  1.00  0.00     0.009 A 
ATOM     65  C   UNL A   1      46.405  28.191  35.078  1.00  0.00     0.001 A 
ATOM     66  C   UNL A   1      44.799  26.845  36.276  1.00  0.00     0.001 A 
ATOM     67  C   UNL A   1      46.121  27.144  35.952  1.00  0.00     0.000 A 
ENDBRANCH  48  62
BRANCH  49  68
ATOM     68  C   UNL A   1      36.348  33.310  30.423  1.00  0.00    -0.014 A 
ATOM     69  C   UNL A   1      36.480  33.880  29.148  1.00  0.00     0.009 A 
ATOM     70  C   UNL A   1      35.112  33.402  31.082  1.00  0.00     0.009 A 
ATOM     71  C   UNL A   1      35.405  34.546  28.556  1.00  0.00     0.001 A 
ATOM     72  C   UNL A   1      34.030  34.044  30.475  1.00  0.00     0.001 A 
ATOM     73  C   UNL A   1      34.180  34.622  29.216  1.00  0.00     0.000 A 
ENDBRANCH  49  68
BRANCH  61  74
ATOM     74  C   UNL A   1      39.869  34.335  36.351  1.00  0.00    -0.014 A 
ATOM     75  C   UNL A   1      40.438  35.608  36.201  1.00  0.00     0.009 A 
ATOM     76  C   UNL A   1      39.135  34.050  37.512  1.00  0.00     0.009 A 
ATOM     77  C   UNL A   1      40.302  36.565  37.210  1.00  0.00     0.001 A 
ATOM     78  C   UNL A   1      38.973  35.017  38.505  1.00  0.00     0.001 A 
ATOM     79  C   UNL A   1      39.565  36.270  38.356  1.00  0.00     0.000 A 
ENDBRANCH  61  74
ENDBRANCH  35  36
ENDBRANCH  28  30
ENDBRANCH  27  28
ENDBRANCH  26  27
ENDBRANCH  25  26
ENDBRANCH  24  25
ENDBRANCH  23  24
ENDBRANCH   1  23
TORSDOF 20
ENDMDL
