MODEL 1
REMARK VINA RESULT:     -10.5      0.000      0.000
REMARK SMILES O=C(OCCOCCOC(=O)[C@@H]1[C@@H](C(=O)NCCCn2ccnc2)[C@@H]2C=C[C@H]1C2)c1ccc(-c2c3nc(c(-c4ccccc4)c4ccc([nH]4)c(-c4ccccc4)c4nc(c(-c5ccccc5)c5ccc2[nH]5)C=C4)C=C3)cc1
REMARK SMILES IDX 7 1 6 2 5 3 4 4 3 5 2 6 1 7 30 8 31 9 77 10 32 11 76 12
REMARK SMILES IDX 33 13 34 14 35 15 70 16 36 17 75 18 69 19 71 20 37 21 74 22
REMARK SMILES IDX 68 23 67 24 38 26 60 27 45 28 59 29 46 30 49 31 58 32 72 33
REMARK SMILES IDX 47 34 48 35 57 37 73 38 50 39 39 40 40 41 44 42 41 43 43 44
REMARK SMILES IDX 42 45 61 46 62 47 66 48 63 49 65 50 64 51 51 52 52 53 56 54
REMARK SMILES IDX 53 55 55 56 54 57 8 58 9 59 10 60 11 61 12 62 13 63 28 64
REMARK SMILES IDX 25 65 27 66 29 67 26 68 14 69 15 70 16 71 17 73 18 74 19 75
REMARK SMILES IDX 20 76 21 77 24 78 22 79 23 80
REMARK H PARENT 71 25 49 36 16 72
REMARK Flexibility Score: inf
ROOT
ATOM      1  C   UNL A   1      34.601  32.411  28.336  1.00  0.00     0.202 C 
ENDROOT
BRANCH   1   2
ATOM      2  O   UNL A   1      33.603  33.402  28.602  1.00  0.00    -0.374 OA
BRANCH   2   3
ATOM      3  C   UNL A   1      34.006  34.763  28.680  1.00  0.00     0.202 C 
BRANCH   3   4
ATOM      4  C   UNL A   1      33.180  35.746  29.528  1.00  0.00     0.261 C 
BRANCH   4   5
ATOM      5  O   UNL A   1      33.617  35.860  30.886  1.00  0.00    -0.460 OA
BRANCH   5   6
ATOM      6  C   UNL A   1      33.708  34.898  31.827  1.00  0.00     0.338 C 
ATOM      7  O   UNL A   1      32.713  34.668  32.522  1.00  0.00    -0.246 OA
BRANCH   6   8
ATOM      8  C   UNL A   1      34.940  34.097  32.105  1.00  0.00     0.060 A 
ATOM      9  C   UNL A   1      36.213  34.601  32.368  1.00  0.00     0.016 A 
ATOM     10  C   UNL A   1      34.790  32.699  32.033  1.00  0.00     0.016 A 
ATOM     11  C   UNL A   1      37.325  33.781  32.304  1.00  0.00     0.010 A 
ATOM     12  C   UNL A   1      35.896  31.859  32.047  1.00  0.00     0.010 A 
ATOM     13  C   UNL A   1      37.166  32.420  32.071  1.00  0.00    -0.014 A 
BRANCH  13  14
ATOM     14  C   UNL A   1      38.385  31.667  31.821  1.00  0.00     0.031 A 
ATOM     15  C   UNL A   1      39.286  31.443  32.986  1.00  0.00     0.074 A 
ATOM     16  C   UNL A   1      38.702  31.200  30.601  1.00  0.00     0.049 A 
ATOM     17  N   UNL A   1      40.525  31.793  33.123  1.00  0.00    -0.248 NA
ATOM     18  C   UNL A   1      38.699  30.807  34.174  1.00  0.00     0.031 C 
ATOM     19  C   UNL A   1      37.853  31.112  29.410  1.00  0.00     0.029 A 
ATOM     20  N   UNL A   1      39.855  30.591  30.213  1.00  0.00    -0.354 N 
ATOM     21  C   UNL A   1      40.926  31.302  34.363  1.00  0.00     0.074 A 
ATOM     22  C   UNL A   1      39.742  30.779  35.002  1.00  0.00     0.031 C 
ATOM     23  C   UNL A   1      38.423  30.262  28.529  1.00  0.00     0.029 A 
ATOM     24  C   UNL A   1      39.730  29.881  29.032  1.00  0.00     0.049 A 
ATOM     25  H   UNL A   1      40.695  30.650  30.722  1.00  0.00     0.167 HD
ATOM     26  C   UNL A   1      42.230  31.207  34.738  1.00  0.00     0.031 A 
ATOM     27  C   UNL A   1      40.606  28.973  28.547  1.00  0.00     0.031 A 
ATOM     28  C   UNL A   1      43.100  32.044  33.963  1.00  0.00     0.049 A 
ATOM     29  C   UNL A   1      41.918  29.203  29.188  1.00  0.00     0.074 A 
ATOM     30  C   UNL A   1      43.234  33.405  33.781  1.00  0.00     0.029 A 
ATOM     31  N   UNL A   1      43.843  31.460  32.969  1.00  0.00    -0.354 N 
ATOM     32  N   UNL A   1      42.661  30.249  28.961  1.00  0.00    -0.248 NA
ATOM     33  C   UNL A   1      42.250  28.458  30.392  1.00  0.00     0.031 C 
ATOM     34  C   UNL A   1      43.647  33.559  32.425  1.00  0.00     0.029 A 
ATOM     35  C   UNL A   1      43.754  32.280  31.873  1.00  0.00     0.049 A 
ATOM     36  H   UNL A   1      44.344  30.614  33.029  1.00  0.00     0.167 HD
ATOM     37  C   UNL A   1      43.265  30.531  30.177  1.00  0.00     0.074 A 
ATOM     38  C   UNL A   1      43.076  29.327  30.979  1.00  0.00     0.031 C 
ATOM     39  C   UNL A   1      43.618  31.807  30.513  1.00  0.00     0.031 A 
BRANCH  26  40
ATOM     40  C   UNL A   1      42.746  30.108  35.625  1.00  0.00    -0.014 A 
ATOM     41  C   UNL A   1      43.659  30.408  36.650  1.00  0.00     0.009 A 
ATOM     42  C   UNL A   1      42.560  28.745  35.316  1.00  0.00     0.009 A 
ATOM     43  C   UNL A   1      44.368  29.396  37.310  1.00  0.00     0.001 A 
ATOM     44  C   UNL A   1      43.235  27.732  36.000  1.00  0.00     0.001 A 
ATOM     45  C   UNL A   1      44.156  28.059  36.984  1.00  0.00     0.000 A 
ENDBRANCH  26  40
BRANCH  27  46
ATOM     46  C   UNL A   1      40.275  27.750  27.793  1.00  0.00    -0.014 A 
ATOM     47  C   UNL A   1      40.907  27.458  26.579  1.00  0.00     0.009 A 
ATOM     48  C   UNL A   1      39.497  26.742  28.394  1.00  0.00     0.009 A 
ATOM     49  C   UNL A   1      40.778  26.191  25.997  1.00  0.00     0.001 A 
ATOM     50  C   UNL A   1      39.362  25.481  27.811  1.00  0.00     0.001 A 
ATOM     51  C   UNL A   1      40.014  25.202  26.616  1.00  0.00     0.000 A 
ENDBRANCH  27  46
BRANCH  39  52
ATOM     52  C   UNL A   1      43.541  32.865  29.438  1.00  0.00    -0.014 A 
ATOM     53  C   UNL A   1      42.546  33.860  29.434  1.00  0.00     0.009 A 
ATOM     54  C   UNL A   1      44.579  32.961  28.500  1.00  0.00     0.009 A 
ATOM     55  C   UNL A   1      42.567  34.895  28.495  1.00  0.00     0.001 A 
ATOM     56  C   UNL A   1      44.612  34.009  27.574  1.00  0.00     0.001 A 
ATOM     57  C   UNL A   1      43.603  34.971  27.567  1.00  0.00     0.000 A 
ENDBRANCH  39  52
ENDBRANCH  13  14
ENDBRANCH   6   8
ENDBRANCH   5   6
ENDBRANCH   4   5
ENDBRANCH   3   4
ENDBRANCH   2   3
ENDBRANCH   1   2
BRANCH   1  58
ATOM     58  C   UNL A   1      34.313  31.247  27.376  1.00  0.00     0.261 C 
BRANCH  58  59
ATOM     59  O   UNL A   1      32.986  30.694  27.500  1.00  0.00    -0.463 OA
BRANCH  59  60
ATOM     60  C   UNL A   1      32.438  30.305  26.319  1.00  0.00     0.310 C 
ATOM     61  O   UNL A   1      31.510  30.897  25.773  1.00  0.00    -0.252 OA
BRANCH  60  62
ATOM     62  C   UNL A   1      33.029  29.030  25.734  1.00  0.00     0.119 C 
ATOM     63  C   UNL A   1      32.273  28.261  24.613  1.00  0.00     0.100 C 
ATOM     64  C   UNL A   1      33.008  27.968  26.887  1.00  0.00     0.027 C 
ATOM     65  C   UNL A   1      32.152  26.818  25.176  1.00  0.00     0.025 C 
ATOM     66  C   UNL A   1      31.576  27.610  27.254  1.00  0.00    -0.027 C 
ATOM     67  C   UNL A   1      33.343  26.692  26.129  1.00  0.00     0.017 C 
ATOM     68  C   UNL A   1      31.069  26.895  26.238  1.00  0.00    -0.027 C 
BRANCH  63  69
ATOM     69  C   UNL A   1      32.724  28.363  23.165  1.00  0.00     0.224 C 
ATOM     70  O   UNL A   1      33.794  27.846  22.828  1.00  0.00    -0.275 OA
ATOM     71  N   UNL A   1      32.080  29.025  22.184  1.00  0.00    -0.356 N 
ATOM     72  H   UNL A   1      32.522  28.977  21.305  1.00  0.00     0.163 HD
BRANCH  71  73
ATOM     73  C   UNL A   1      30.860  29.789  22.193  1.00  0.00     0.117 C 
BRANCH  73  74
ATOM     74  C   UNL A   1      29.618  28.934  22.426  1.00  0.00     0.043 C 
BRANCH  74  75
ATOM     75  C   UNL A   1      28.404  29.689  22.967  1.00  0.00     0.125 C 
BRANCH  75  76
ATOM     76  N   UNL A   1      28.437  31.114  22.723  1.00  0.00    -0.337 N 
ATOM     77  C   UNL A   1      28.857  32.076  23.599  1.00  0.00     0.107 A 
ATOM     78  C   UNL A   1      27.989  31.743  21.598  1.00  0.00     0.199 A 
ATOM     79  C   UNL A   1      28.661  33.266  22.936  1.00  0.00     0.130 A 
ATOM     80  N   UNL A   1      28.129  33.046  21.691  1.00  0.00    -0.245 NA
ENDBRANCH  75  76
ENDBRANCH  74  75
ENDBRANCH  73  74
ENDBRANCH  71  73
ENDBRANCH  63  69
ENDBRANCH  60  62
ENDBRANCH  59  60
ENDBRANCH  58  59
ENDBRANCH   1  58
TORSDOF 19
ENDMDL
MODEL 2
REMARK VINA RESULT:     -10.4      3.074      5.021
REMARK SMILES O=C(OCCOCCOC(=O)[C@@H]1[C@@H](C(=O)NCCCn2ccnc2)[C@@H]2C=C[C@H]1C2)c1ccc(-c2c3nc(c(-c4ccccc4)c4ccc([nH]4)c(-c4ccccc4)c4nc(c(-c5ccccc5)c5ccc2[nH]5)C=C4)C=C3)cc1
REMARK SMILES IDX 7 1 6 2 5 3 4 4 3 5 2 6 1 7 30 8 31 9 77 10 32 11 76 12
REMARK SMILES IDX 33 13 34 14 35 15 70 16 36 17 75 18 69 19 71 20 37 21 74 22
REMARK SMILES IDX 68 23 67 24 38 26 60 27 45 28 59 29 46 30 49 31 58 32 72 33
REMARK SMILES IDX 47 34 48 35 57 37 73 38 50 39 39 40 40 41 44 42 41 43 43 44
REMARK SMILES IDX 42 45 61 46 62 47 66 48 63 49 65 50 64 51 51 52 52 53 56 54
REMARK SMILES IDX 53 55 55 56 54 57 8 58 9 59 10 60 11 61 12 62 13 63 28 64
REMARK SMILES IDX 25 65 27 66 29 67 26 68 14 69 15 70 16 71 17 73 18 74 19 75
REMARK SMILES IDX 20 76 21 77 24 78 22 79 23 80
REMARK H PARENT 71 25 49 36 16 72
REMARK Flexibility Score: inf
ROOT
ATOM      1  C   UNL A   1      33.528  27.091  26.124  1.00  0.00     0.202 C 
ENDROOT
BRANCH   1   2
ATOM      2  O   UNL A   1      32.561  28.147  26.124  1.00  0.00    -0.374 OA
BRANCH   2   3
ATOM      3  C   UNL A   1      32.490  28.997  27.262  1.00  0.00     0.202 C 
BRANCH   3   4
ATOM      4  C   UNL A   1      32.657  30.516  27.078  1.00  0.00     0.261 C 
BRANCH   4   5
ATOM      5  O   UNL A   1      34.013  30.942  26.923  1.00  0.00    -0.460 OA
BRANCH   5   6
ATOM      6  C   UNL A   1      34.780  31.645  27.782  1.00  0.00     0.338 C 
ATOM      7  O   UNL A   1      34.483  32.824  27.996  1.00  0.00    -0.246 OA
BRANCH   6   8
ATOM      8  C   UNL A   1      35.984  31.101  28.485  1.00  0.00     0.060 A 
ATOM      9  C   UNL A   1      37.128  31.814  28.839  1.00  0.00     0.016 A 
ATOM     10  C   UNL A   1      35.962  29.720  28.754  1.00  0.00     0.016 A 
ATOM     11  C   UNL A   1      38.288  31.154  29.200  1.00  0.00     0.010 A 
ATOM     12  C   UNL A   1      37.101  29.058  29.193  1.00  0.00     0.010 A 
ATOM     13  C   UNL A   1      38.290  29.769  29.306  1.00  0.00    -0.014 A 
BRANCH  13  14
ATOM     14  C   UNL A   1      39.589  29.142  29.494  1.00  0.00     0.031 A 
ATOM     15  C   UNL A   1      40.026  28.913  30.898  1.00  0.00     0.074 A 
ATOM     16  C   UNL A   1      40.372  28.792  28.459  1.00  0.00     0.049 A 
ATOM     17  N   UNL A   1      41.088  29.357  31.492  1.00  0.00    -0.248 NA
ATOM     18  C   UNL A   1      39.121  28.146  31.766  1.00  0.00     0.031 C 
ATOM     19  C   UNL A   1      40.025  28.717  27.037  1.00  0.00     0.029 A 
ATOM     20  N   UNL A   1      41.645  28.312  28.498  1.00  0.00    -0.354 N 
ATOM     21  C   UNL A   1      41.064  28.815  32.774  1.00  0.00     0.074 A 
ATOM     22  C   UNL A   1      39.792  28.149  32.917  1.00  0.00     0.031 C 
ATOM     23  C   UNL A   1      40.961  27.983  26.397  1.00  0.00     0.029 A 
ATOM     24  C   UNL A   1      42.030  27.680  27.330  1.00  0.00     0.049 A 
ATOM     25  H   UNL A   1      42.233  28.406  29.281  1.00  0.00     0.167 HD
ATOM     26  C   UNL A   1      42.147  28.805  33.598  1.00  0.00     0.031 A 
ATOM     27  C   UNL A   1      43.113  26.888  27.167  1.00  0.00     0.031 A 
ATOM     28  C   UNL A   1      43.144  29.766  33.225  1.00  0.00     0.049 A 
ATOM     29  C   UNL A   1      44.073  27.183  28.253  1.00  0.00     0.074 A 
ATOM     30  C   UNL A   1      43.191  31.143  33.153  1.00  0.00     0.029 A 
ATOM     31  N   UNL A   1      44.254  29.320  32.552  1.00  0.00    -0.354 N 
ATOM     32  N   UNL A   1      44.733  28.301  28.350  1.00  0.00    -0.248 NA
ATOM     33  C   UNL A   1      44.024  26.384  29.467  1.00  0.00     0.031 C 
ATOM     34  C   UNL A   1      44.047  31.428  32.049  1.00  0.00     0.029 A 
ATOM     35  C   UNL A   1      44.480  30.206  31.530  1.00  0.00     0.049 A 
ATOM     36  H   UNL A   1      44.785  28.518  32.762  1.00  0.00     0.167 HD
ATOM     37  C   UNL A   1      44.824  28.546  29.712  1.00  0.00     0.074 A 
ATOM     38  C   UNL A   1      44.486  27.277  30.347  1.00  0.00     0.031 C 
ATOM     39  C   UNL A   1      44.895  29.821  30.199  1.00  0.00     0.031 A 
BRANCH  26  40
ATOM     40  C   UNL A   1      42.421  27.693  34.573  1.00  0.00    -0.014 A 
ATOM     41  C   UNL A   1      42.958  26.479  34.115  1.00  0.00     0.009 A 
ATOM     42  C   UNL A   1      41.923  27.713  35.892  1.00  0.00     0.009 A 
ATOM     43  C   UNL A   1      42.969  25.337  34.927  1.00  0.00     0.001 A 
ATOM     44  C   UNL A   1      41.970  26.588  36.718  1.00  0.00     0.001 A 
ATOM     45  C   UNL A   1      42.475  25.393  36.228  1.00  0.00     0.000 A 
ENDBRANCH  26  40
BRANCH  27  46
ATOM     46  C   UNL A   1      43.207  25.698  26.302  1.00  0.00    -0.014 A 
ATOM     47  C   UNL A   1      44.288  25.524  25.430  1.00  0.00     0.009 A 
ATOM     48  C   UNL A   1      42.341  24.607  26.509  1.00  0.00     0.009 A 
ATOM     49  C   UNL A   1      44.504  24.292  24.801  1.00  0.00     0.001 A 
ATOM     50  C   UNL A   1      42.551  23.380  25.876  1.00  0.00     0.001 A 
ATOM     51  C   UNL A   1      43.641  23.220  25.030  1.00  0.00     0.000 A 
ENDBRANCH  27  46
BRANCH  39  52
ATOM     52  C   UNL A   1      45.100  30.942  29.209  1.00  0.00    -0.014 A 
ATOM     53  C   UNL A   1      44.041  31.485  28.459  1.00  0.00     0.009 A 
ATOM     54  C   UNL A   1      46.352  31.572  29.141  1.00  0.00     0.009 A 
ATOM     55  C   UNL A   1      44.237  32.598  27.637  1.00  0.00     0.001 A 
ATOM     56  C   UNL A   1      46.542  32.699  28.335  1.00  0.00     0.001 A 
ATOM     57  C   UNL A   1      45.488  33.208  27.579  1.00  0.00     0.000 A 
ENDBRANCH  39  52
ENDBRANCH  13  14
ENDBRANCH   6   8
ENDBRANCH   5   6
ENDBRANCH   4   5
ENDBRANCH   3   4
ENDBRANCH   2   3
ENDBRANCH   1   2
BRANCH   1  58
ATOM     58  C   UNL A   1      33.873  26.344  24.827  1.00  0.00     0.261 C 
BRANCH  58  59
ATOM     59  O   UNL A   1      34.018  24.917  24.988  1.00  0.00    -0.463 OA
BRANCH  59  60
ATOM     60  C   UNL A   1      34.372  24.267  23.849  1.00  0.00     0.310 C 
ATOM     61  O   UNL A   1      34.262  24.753  22.726  1.00  0.00    -0.252 OA
BRANCH  60  62
ATOM     62  C   UNL A   1      34.872  22.844  24.060  1.00  0.00     0.119 C 
ATOM     63  C   UNL A   1      34.880  22.221  25.484  1.00  0.00     0.100 C 
ATOM     64  C   UNL A   1      36.407  22.867  23.738  1.00  0.00     0.027 C 
ATOM     65  C   UNL A   1      36.349  21.755  25.673  1.00  0.00     0.025 C 
ATOM     66  C   UNL A   1      37.152  23.706  24.765  1.00  0.00    -0.027 C 
ATOM     67  C   UNL A   1      36.842  21.501  24.246  1.00  0.00     0.017 C 
ATOM     68  C   UNL A   1      37.142  23.026  25.922  1.00  0.00    -0.027 C 
BRANCH  63  69
ATOM     69  C   UNL A   1      33.816  21.217  25.896  1.00  0.00     0.224 C 
ATOM     70  O   UNL A   1      33.875  20.062  25.460  1.00  0.00    -0.275 OA
ATOM     71  N   UNL A   1      32.747  21.474  26.675  1.00  0.00    -0.356 N 
ATOM     72  H   UNL A   1      32.167  20.695  26.839  1.00  0.00     0.163 HD
BRANCH  71  73
ATOM     73  C   UNL A   1      32.305  22.687  27.313  1.00  0.00     0.117 C 
BRANCH  73  74
ATOM     74  C   UNL A   1      30.995  23.223  26.742  1.00  0.00     0.043 C 
BRANCH  74  75
ATOM     75  C   UNL A   1      30.919  23.254  25.216  1.00  0.00     0.125 C 
BRANCH  75  76
ATOM     76  N   UNL A   1      30.638  24.561  24.664  1.00  0.00    -0.337 N 
ATOM     77  C   UNL A   1      30.150  25.640  25.345  1.00  0.00     0.107 A 
ATOM     78  C   UNL A   1      30.752  24.914  23.351  1.00  0.00     0.199 A 
ATOM     79  C   UNL A   1      30.012  26.624  24.394  1.00  0.00     0.130 A 
ATOM     80  N   UNL A   1      30.397  26.164  23.160  1.00  0.00    -0.245 NA
ENDBRANCH  75  76
ENDBRANCH  74  75
ENDBRANCH  73  74
ENDBRANCH  71  73
ENDBRANCH  63  69
ENDBRANCH  60  62
ENDBRANCH  59  60
ENDBRANCH  58  59
ENDBRANCH   1  58
TORSDOF 19
ENDMDL
MODEL 3
REMARK VINA RESULT:     -10.4      4.459      9.263
REMARK SMILES O=C(OCCOCCOC(=O)[C@@H]1[C@@H](C(=O)NCCCn2ccnc2)[C@@H]2C=C[C@H]1C2)c1ccc(-c2c3nc(c(-c4ccccc4)c4ccc([nH]4)c(-c4ccccc4)c4nc(c(-c5ccccc5)c5ccc2[nH]5)C=C4)C=C3)cc1
REMARK SMILES IDX 7 1 6 2 5 3 4 4 3 5 2 6 1 7 30 8 31 9 77 10 32 11 76 12
REMARK SMILES IDX 33 13 34 14 35 15 70 16 36 17 75 18 69 19 71 20 37 21 74 22
REMARK SMILES IDX 68 23 67 24 38 26 60 27 45 28 59 29 46 30 49 31 58 32 72 33
REMARK SMILES IDX 47 34 48 35 57 37 73 38 50 39 39 40 40 41 44 42 41 43 43 44
REMARK SMILES IDX 42 45 61 46 62 47 66 48 63 49 65 50 64 51 51 52 52 53 56 54
REMARK SMILES IDX 53 55 55 56 54 57 8 58 9 59 10 60 11 61 12 62 13 63 28 64
REMARK SMILES IDX 25 65 27 66 29 67 26 68 14 69 15 70 16 71 17 73 18 74 19 75
REMARK SMILES IDX 20 76 21 77 24 78 22 79 23 80
REMARK H PARENT 71 25 49 36 16 72
REMARK Flexibility Score: inf
ROOT
ATOM      1  C   UNL A   1      37.905  22.026  25.556  1.00  0.00     0.202 C 
ENDROOT
BRANCH   1   2
ATOM      2  O   UNL A   1      39.083  22.135  26.364  1.00  0.00    -0.374 OA
BRANCH   2   3
ATOM      3  C   UNL A   1      39.967  21.023  26.421  1.00  0.00     0.202 C 
BRANCH   3   4
ATOM      4  C   UNL A   1      41.441  21.213  26.019  1.00  0.00     0.261 C 
BRANCH   4   5
ATOM      5  O   UNL A   1      42.078  22.334  26.640  1.00  0.00    -0.460 OA
BRANCH   5   6
ATOM      6  C   UNL A   1      42.225  23.589  26.169  1.00  0.00     0.338 C 
ATOM      7  O   UNL A   1      42.899  23.751  25.148  1.00  0.00    -0.246 OA
BRANCH   6   8
ATOM      8  C   UNL A   1      41.642  24.809  26.809  1.00  0.00     0.060 A 
ATOM      9  C   UNL A   1      40.776  25.724  26.212  1.00  0.00     0.016 A 
ATOM     10  C   UNL A   1      42.067  25.071  28.125  1.00  0.00     0.016 A 
ATOM     11  C   UNL A   1      40.550  26.961  26.786  1.00  0.00     0.010 A 
ATOM     12  C   UNL A   1      41.779  26.281  28.742  1.00  0.00     0.010 A 
ATOM     13  C   UNL A   1      41.113  27.263  28.020  1.00  0.00    -0.014 A 
BRANCH  13  14
ATOM     14  C   UNL A   1      40.993  28.645  28.458  1.00  0.00     0.031 A 
ATOM     15  C   UNL A   1      42.148  29.541  28.175  1.00  0.00     0.074 A 
ATOM     16  C   UNL A   1      39.904  29.101  29.100  1.00  0.00     0.049 A 
ATOM     17  N   UNL A   1      42.868  30.214  29.014  1.00  0.00    -0.248 NA
ATOM     18  C   UNL A   1      42.594  29.638  26.778  1.00  0.00     0.031 C 
ATOM     19  C   UNL A   1      38.599  28.453  29.255  1.00  0.00     0.029 A 
ATOM     20  N   UNL A   1      39.716  30.326  29.662  1.00  0.00    -0.354 N 
ATOM     21  C   UNL A   1      43.778  30.935  28.245  1.00  0.00     0.074 A 
ATOM     22  C   UNL A   1      43.622  30.478  26.885  1.00  0.00     0.031 C 
ATOM     23  C   UNL A   1      37.692  29.381  29.631  1.00  0.00     0.029 A 
ATOM     24  C   UNL A   1      38.386  30.630  29.887  1.00  0.00     0.049 A 
ATOM     25  H   UNL A   1      40.455  30.936  29.887  1.00  0.00     0.167 HD
ATOM     26  C   UNL A   1      44.504  31.977  28.734  1.00  0.00     0.031 A 
ATOM     27  C   UNL A   1      37.881  31.849  30.177  1.00  0.00     0.031 A 
ATOM     28  C   UNL A   1      44.586  31.981  30.166  1.00  0.00     0.049 A 
ATOM     29  C   UNL A   1      38.977  32.696  30.696  1.00  0.00     0.074 A 
ATOM     30  C   UNL A   1      45.131  31.137  31.112  1.00  0.00     0.029 A 
ATOM     31  N   UNL A   1      43.777  32.844  30.859  1.00  0.00    -0.354 N 
ATOM     32  N   UNL A   1      39.553  32.506  31.848  1.00  0.00    -0.248 NA
ATOM     33  C   UNL A   1      39.713  33.537  29.765  1.00  0.00     0.031 C 
ATOM     34  C   UNL A   1      44.260  31.230  32.238  1.00  0.00     0.029 A 
ATOM     35  C   UNL A   1      43.250  32.137  31.910  1.00  0.00     0.049 A 
ATOM     36  H   UNL A   1      43.606  33.790  30.644  1.00  0.00     0.167 HD
ATOM     37  C   UNL A   1      40.883  32.846  31.644  1.00  0.00     0.074 A 
ATOM     38  C   UNL A   1      40.893  33.590  30.389  1.00  0.00     0.031 C 
ATOM     39  C   UNL A   1      41.883  32.257  32.366  1.00  0.00     0.031 A 
BRANCH  26  40
ATOM     40  C   UNL A   1      44.884  33.169  27.900  1.00  0.00    -0.014 A 
ATOM     41  C   UNL A   1      43.900  34.094  27.514  1.00  0.00     0.009 A 
ATOM     42  C   UNL A   1      46.138  33.270  27.264  1.00  0.00     0.009 A 
ATOM     43  C   UNL A   1      44.151  35.051  26.523  1.00  0.00     0.001 A 
ATOM     44  C   UNL A   1      46.405  34.249  26.304  1.00  0.00     0.001 A 
ATOM     45  C   UNL A   1      45.404  35.128  25.919  1.00  0.00     0.000 A 
ENDBRANCH  26  40
BRANCH  27  46
ATOM     46  C   UNL A   1      36.578  32.385  29.744  1.00  0.00    -0.014 A 
ATOM     47  C   UNL A   1      35.627  32.812  30.677  1.00  0.00     0.009 A 
ATOM     48  C   UNL A   1      36.361  32.697  28.387  1.00  0.00     0.009 A 
ATOM     49  C   UNL A   1      34.506  33.544  30.268  1.00  0.00     0.001 A 
ATOM     50  C   UNL A   1      35.240  33.421  27.976  1.00  0.00     0.001 A 
ATOM     51  C   UNL A   1      34.317  33.855  28.921  1.00  0.00     0.000 A 
ENDBRANCH  27  46
BRANCH  39  52
ATOM     52  C   UNL A   1      41.489  31.400  33.544  1.00  0.00    -0.014 A 
ATOM     53  C   UNL A   1      41.100  30.056  33.397  1.00  0.00     0.009 A 
ATOM     54  C   UNL A   1      41.663  31.901  34.842  1.00  0.00     0.009 A 
ATOM     55  C   UNL A   1      40.853  29.251  34.513  1.00  0.00     0.001 A 
ATOM     56  C   UNL A   1      41.438  31.090  35.959  1.00  0.00     0.001 A 
ATOM     57  C   UNL A   1      41.027  29.768  35.794  1.00  0.00     0.000 A 
ENDBRANCH  39  52
ENDBRANCH  13  14
ENDBRANCH   6   8
ENDBRANCH   5   6
ENDBRANCH   4   5
ENDBRANCH   3   4
ENDBRANCH   2   3
ENDBRANCH   1   2
BRANCH   1  58
ATOM     58  C   UNL A   1      36.705  22.956  25.790  1.00  0.00     0.261 C 
BRANCH  58  59
ATOM     59  O   UNL A   1      36.357  23.769  24.650  1.00  0.00    -0.463 OA
BRANCH  59  60
ATOM     60  C   UNL A   1      35.027  23.792  24.374  1.00  0.00     0.310 C 
ATOM     61  O   UNL A   1      34.547  23.421  23.306  1.00  0.00    -0.252 OA
BRANCH  60  62
ATOM     62  C   UNL A   1      34.159  24.371  25.483  1.00  0.00     0.119 C 
ATOM     63  C   UNL A   1      32.615  24.194  25.441  1.00  0.00     0.100 C 
ATOM     64  C   UNL A   1      34.281  25.930  25.367  1.00  0.00     0.027 C 
ATOM     65  C   UNL A   1      32.076  25.645  25.557  1.00  0.00     0.025 C 
ATOM     66  C   UNL A   1      33.648  26.417  24.072  1.00  0.00    -0.027 C 
ATOM     67  C   UNL A   1      33.181  26.390  26.310  1.00  0.00     0.017 C 
ATOM     68  C   UNL A   1      32.320  26.272  24.196  1.00  0.00    -0.027 C 
BRANCH  63  69
ATOM     69  C   UNL A   1      31.929  23.167  26.327  1.00  0.00     0.224 C 
ATOM     70  O   UNL A   1      31.463  23.523  27.414  1.00  0.00    -0.275 OA
ATOM     71  N   UNL A   1      31.814  21.850  26.065  1.00  0.00    -0.356 N 
ATOM     72  H   UNL A   1      31.331  21.340  26.755  1.00  0.00     0.163 HD
BRANCH  71  73
ATOM     73  C   UNL A   1      32.272  21.057  24.953  1.00  0.00     0.117 C 
BRANCH  73  74
ATOM     74  C   UNL A   1      32.972  19.770  25.381  1.00  0.00     0.043 C 
BRANCH  74  75
ATOM     75  C   UNL A   1      33.254  18.780  24.252  1.00  0.00     0.125 C 
BRANCH  75  76
ATOM     76  N   UNL A   1      33.278  17.396  24.671  1.00  0.00    -0.337 N 
ATOM     77  C   UNL A   1      32.374  16.782  25.491  1.00  0.00     0.107 A 
ATOM     78  C   UNL A   1      34.251  16.487  24.371  1.00  0.00     0.199 A 
ATOM     79  C   UNL A   1      32.840  15.495  25.629  1.00  0.00     0.130 A 
ATOM     80  N   UNL A   1      34.003  15.322  24.923  1.00  0.00    -0.245 NA
ENDBRANCH  75  76
ENDBRANCH  74  75
ENDBRANCH  73  74
ENDBRANCH  71  73
ENDBRANCH  63  69
ENDBRANCH  60  62
ENDBRANCH  59  60
ENDBRANCH  58  59
ENDBRANCH   1  58
TORSDOF 19
ENDMDL
