MODEL 1
REMARK VINA RESULT:     -11.0      0.000      0.000
REMARK SMILES CCOc1ccccc1-c1cc(C(=O)OCCOCCOC(=O)c2ccc(-c3c4nc(c(-c5ccccc5)c5ccc([nH]5)c(-c5ccccc5)c5nc(c(-c6ccccc6)c6ccc3[nH]6)C=C5)C=C4)cc2)c2cc(C)cc(C)c2n1
REMARK SMILES IDX 17 1 16 2 15 3 13 4 14 5 12 6 10 7 11 8 80 9 79 10 72 11
REMARK SMILES IDX 77 12 73 13 76 14 78 15 74 16 75 17 9 18 4 19 5 20 6 21 8 22
REMARK SMILES IDX 7 23 3 24 2 25 1 26 18 27 19 28 20 29 21 30 22 31 23 32
REMARK SMILES IDX 24 33 25 34 71 35 26 36 70 37 27 38 28 39 29 40 64 41 30 42
REMARK SMILES IDX 69 43 63 44 65 45 31 46 68 47 62 48 61 49 32 51 54 52 39 53
REMARK SMILES IDX 53 54 40 55 43 56 52 57 66 58 41 59 42 60 51 62 67 63 44 64
REMARK SMILES IDX 33 65 34 66 38 67 35 68 37 69 36 70 55 71 56 72 60 73 57 74
REMARK SMILES IDX 59 75 58 76 45 77 46 78 50 79 47 80 49 81 48 82
REMARK H PARENT 65 50 43 61
REMARK Flexibility Score: inf
ROOT
ATOM      1  C   UNL A   1      34.832  30.188  27.595  1.00  0.00     0.202 C 
ENDROOT
BRANCH   1   2
ATOM      2  C   UNL A   1      34.281  29.160  26.610  1.00  0.00     0.261 C 
BRANCH   2   3
ATOM      3  O   UNL A   1      33.609  28.082  27.287  1.00  0.00    -0.460 OA
BRANCH   3   4
ATOM      4  C   UNL A   1      32.265  28.092  27.116  1.00  0.00     0.338 C 
ATOM      5  O   UNL A   1      31.433  28.133  28.010  1.00  0.00    -0.246 OA
BRANCH   4   6
ATOM      6  C   UNL A   1      31.869  28.034  25.693  1.00  0.00     0.071 A 
ATOM      7  C   UNL A   1      31.064  28.898  23.666  1.00  0.00     0.076 A 
ATOM      8  C   UNL A   1      31.280  29.102  25.014  1.00  0.00     0.045 A 
ATOM      9  N   UNL A   1      31.912  28.071  23.018  1.00  0.00    -0.247 NA
ATOM     10  C   UNL A   1      32.103  26.894  23.614  1.00  0.00     0.075 A 
ATOM     11  C   UNL A   1      32.011  26.810  25.006  1.00  0.00     0.015 A 
ATOM     12  C   UNL A   1      32.196  25.733  22.848  1.00  0.00    -0.024 A 
ATOM     13  C   UNL A   1      31.854  25.545  25.609  1.00  0.00     0.014 A 
ATOM     14  C   UNL A   1      31.956  24.490  23.450  1.00  0.00     0.009 A 
ATOM     15  C   UNL A   1      32.357  25.800  21.355  1.00  0.00     0.047 C 
ATOM     16  C   UNL A   1      31.722  24.398  24.824  1.00  0.00    -0.050 A 
ATOM     17  C   UNL A   1      31.154  23.148  25.426  1.00  0.00     0.044 C 
BRANCH   7  18
ATOM     18  C   UNL A   1      29.700  28.685  23.068  1.00  0.00     0.042 A 
ATOM     19  C   UNL A   1      28.937  29.784  22.604  1.00  0.00     0.128 A 
ATOM     20  C   UNL A   1      27.547  29.817  22.775  1.00  0.00     0.047 A 
ATOM     21  C   UNL A   1      26.879  28.708  23.281  1.00  0.00     0.004 A 
ATOM     22  C   UNL A   1      28.987  27.532  23.458  1.00  0.00     0.014 A 
ATOM     23  C   UNL A   1      27.592  27.547  23.569  1.00  0.00     0.001 A 
BRANCH  19  24
ATOM     24  O   UNL A   1      29.554  30.937  22.176  1.00  0.00    -0.493 OA
BRANCH  24  25
ATOM     25  C   UNL A   1      28.605  31.982  21.933  1.00  0.00     0.226 C 
ATOM     26  C   UNL A   1      28.858  33.143  22.878  1.00  0.00     0.049 C 
ENDBRANCH  24  25
ENDBRANCH  19  24
ENDBRANCH   7  18
ENDBRANCH   4   6
ENDBRANCH   3   4
ENDBRANCH   2   3
ENDBRANCH   1   2
BRANCH   1  27
ATOM     27  O   UNL A   1      34.395  31.526  27.365  1.00  0.00    -0.374 OA
BRANCH  27  28
ATOM     28  C   UNL A   1      33.012  31.770  27.641  1.00  0.00     0.202 C 
BRANCH  28  29
ATOM     29  C   UNL A   1      32.590  33.228  27.410  1.00  0.00     0.261 C 
BRANCH  29  30
ATOM     30  O   UNL A   1      33.631  34.128  27.840  1.00  0.00    -0.460 OA
BRANCH  30  31
ATOM     31  C   UNL A   1      33.608  34.439  29.160  1.00  0.00     0.338 C 
ATOM     32  O   UNL A   1      32.693  34.946  29.783  1.00  0.00    -0.246 OA
BRANCH  31  33
ATOM     33  C   UNL A   1      34.811  33.894  29.823  1.00  0.00     0.060 A 
ATOM     34  C   UNL A   1      36.053  34.245  29.278  1.00  0.00     0.016 A 
ATOM     35  C   UNL A   1      34.738  33.025  30.913  1.00  0.00     0.016 A 
ATOM     36  C   UNL A   1      37.223  33.681  29.781  1.00  0.00     0.010 A 
ATOM     37  C   UNL A   1      35.916  32.452  31.414  1.00  0.00     0.010 A 
ATOM     38  C   UNL A   1      37.159  32.749  30.824  1.00  0.00    -0.014 A 
BRANCH  38  39
ATOM     39  C   UNL A   1      38.373  31.973  31.178  1.00  0.00     0.031 A 
ATOM     40  C   UNL A   1      39.177  32.386  32.382  1.00  0.00     0.074 A 
ATOM     41  C   UNL A   1      38.731  30.883  30.475  1.00  0.00     0.049 A 
ATOM     42  N   UNL A   1      40.263  31.849  32.878  1.00  0.00    -0.248 NA
ATOM     43  C   UNL A   1      38.690  33.559  33.126  1.00  0.00     0.031 C 
ATOM     44  C   UNL A   1      38.011  30.347  29.321  1.00  0.00     0.029 A 
ATOM     45  N   UNL A   1      39.793  30.029  30.638  1.00  0.00    -0.354 N 
ATOM     46  C   UNL A   1      40.591  32.621  33.987  1.00  0.00     0.074 A 
ATOM     47  C   UNL A   1      39.608  33.679  34.074  1.00  0.00     0.031 C 
ATOM     48  C   UNL A   1      38.655  29.252  28.877  1.00  0.00     0.029 A 
ATOM     49  C   UNL A   1      39.845  29.030  29.698  1.00  0.00     0.049 A 
ATOM     50  H   UNL A   1      40.454  30.124  31.360  1.00  0.00     0.167 HD
ATOM     51  C   UNL A   1      41.615  32.461  34.859  1.00  0.00     0.031 A 
ATOM     52  C   UNL A   1      40.756  28.057  29.509  1.00  0.00     0.031 A 
ATOM     53  C   UNL A   1      42.600  31.417  34.773  1.00  0.00     0.049 A 
ATOM     54  C   UNL A   1      41.930  27.948  30.445  1.00  0.00     0.074 A 
ATOM     55  C   UNL A   1      43.665  31.165  35.620  1.00  0.00     0.029 A 
ATOM     56  N   UNL A   1      42.645  30.458  33.775  1.00  0.00    -0.354 N 
ATOM     57  N   UNL A   1      42.215  28.669  31.503  1.00  0.00    -0.248 NA
ATOM     58  C   UNL A   1      42.907  26.885  30.162  1.00  0.00     0.031 C 
ATOM     59  C   UNL A   1      44.387  30.085  35.103  1.00  0.00     0.029 A 
ATOM     60  C   UNL A   1      43.737  29.630  33.967  1.00  0.00     0.049 A 
ATOM     61  H   UNL A   1      41.996  30.376  33.039  1.00  0.00     0.167 HD
ATOM     62  C   UNL A   1      43.385  28.131  32.026  1.00  0.00     0.074 A 
ATOM     63  C   UNL A   1      43.750  27.017  31.177  1.00  0.00     0.031 C 
ATOM     64  C   UNL A   1      44.091  28.525  33.114  1.00  0.00     0.031 A 
BRANCH  51  65
ATOM     65  C   UNL A   1      41.739  33.467  35.969  1.00  0.00    -0.014 A 
ATOM     66  C   UNL A   1      41.125  33.261  37.214  1.00  0.00     0.009 A 
ATOM     67  C   UNL A   1      42.510  34.624  35.774  1.00  0.00     0.009 A 
ATOM     68  C   UNL A   1      41.255  34.209  38.232  1.00  0.00     0.001 A 
ATOM     69  C   UNL A   1      42.661  35.557  36.801  1.00  0.00     0.001 A 
ATOM     70  C   UNL A   1      42.026  35.353  38.026  1.00  0.00     0.000 A 
ENDBRANCH  51  65
BRANCH  52  71
ATOM     71  C   UNL A   1      40.612  27.112  28.370  1.00  0.00    -0.014 A 
ATOM     72  C   UNL A   1      41.214  27.383  27.132  1.00  0.00     0.009 A 
ATOM     73  C   UNL A   1      39.852  25.941  28.513  1.00  0.00     0.009 A 
ATOM     74  C   UNL A   1      41.038  26.510  26.055  1.00  0.00     0.001 A 
ATOM     75  C   UNL A   1      39.701  25.056  27.443  1.00  0.00     0.001 A 
ATOM     76  C   UNL A   1      40.287  25.347  26.212  1.00  0.00     0.000 A 
ENDBRANCH  52  71
BRANCH  64  77
ATOM     77  C   UNL A   1      45.313  27.726  33.470  1.00  0.00    -0.014 A 
ATOM     78  C   UNL A   1      45.210  26.485  34.117  1.00  0.00     0.009 A 
ATOM     79  C   UNL A   1      46.584  28.203  33.111  1.00  0.00     0.009 A 
ATOM     80  C   UNL A   1      46.358  25.751  34.423  1.00  0.00     0.001 A 
ATOM     81  C   UNL A   1      47.728  27.455  33.393  1.00  0.00     0.001 A 
ATOM     82  C   UNL A   1      47.615  26.234  34.056  1.00  0.00     0.000 A 
ENDBRANCH  64  77
ENDBRANCH  38  39
ENDBRANCH  31  33
ENDBRANCH  30  31
ENDBRANCH  29  30
ENDBRANCH  28  29
ENDBRANCH  27  28
ENDBRANCH   1  27
TORSDOF 17
ENDMDL
MODEL 2
REMARK VINA RESULT:     -10.9      1.600      2.223
REMARK SMILES CCOc1ccccc1-c1cc(C(=O)OCCOCCOC(=O)c2ccc(-c3c4nc(c(-c5ccccc5)c5ccc([nH]5)c(-c5ccccc5)c5nc(c(-c6ccccc6)c6ccc3[nH]6)C=C5)C=C4)cc2)c2cc(C)cc(C)c2n1
REMARK SMILES IDX 17 1 16 2 15 3 13 4 14 5 12 6 10 7 11 8 80 9 79 10 72 11
REMARK SMILES IDX 77 12 73 13 76 14 78 15 74 16 75 17 9 18 4 19 5 20 6 21 8 22
REMARK SMILES IDX 7 23 3 24 2 25 1 26 18 27 19 28 20 29 21 30 22 31 23 32
REMARK SMILES IDX 24 33 25 34 71 35 26 36 70 37 27 38 28 39 29 40 64 41 30 42
REMARK SMILES IDX 69 43 63 44 65 45 31 46 68 47 62 48 61 49 32 51 54 52 39 53
REMARK SMILES IDX 53 54 40 55 43 56 52 57 66 58 41 59 42 60 51 62 67 63 44 64
REMARK SMILES IDX 33 65 34 66 38 67 35 68 37 69 36 70 55 71 56 72 60 73 57 74
REMARK SMILES IDX 59 75 58 76 45 77 46 78 50 79 47 80 49 81 48 82
REMARK H PARENT 65 50 43 61
REMARK Flexibility Score: inf
ROOT
ATOM      1  C   UNL A   1      34.477  32.237  28.078  1.00  0.00     0.202 C 
ENDROOT
BRANCH   1   2
ATOM      2  C   UNL A   1      33.311  31.361  27.626  1.00  0.00     0.261 C 
BRANCH   2   3
ATOM      3  O   UNL A   1      33.769  30.146  27.005  1.00  0.00    -0.460 OA
BRANCH   3   4
ATOM      4  C   UNL A   1      32.838  29.161  26.995  1.00  0.00     0.338 C 
ATOM      5  O   UNL A   1      32.389  28.597  27.981  1.00  0.00    -0.246 OA
BRANCH   4   6
ATOM      6  C   UNL A   1      32.401  28.800  25.631  1.00  0.00     0.071 A 
ATOM      7  C   UNL A   1      31.245  29.102  23.611  1.00  0.00     0.076 A 
ATOM      8  C   UNL A   1      31.461  29.533  24.904  1.00  0.00     0.045 A 
ATOM      9  N   UNL A   1      32.276  28.506  22.974  1.00  0.00    -0.247 NA
ATOM     10  C   UNL A   1      32.871  27.535  23.667  1.00  0.00     0.075 A 
ATOM     11  C   UNL A   1      32.890  27.605  25.063  1.00  0.00     0.015 A 
ATOM     12  C   UNL A   1      33.288  26.373  23.019  1.00  0.00    -0.024 A 
ATOM     13  C   UNL A   1      33.184  26.442  25.805  1.00  0.00     0.014 A 
ATOM     14  C   UNL A   1      33.497  25.205  23.767  1.00  0.00     0.009 A 
ATOM     15  C   UNL A   1      33.333  26.295  21.519  1.00  0.00     0.047 C 
ATOM     16  C   UNL A   1      33.385  25.222  25.159  1.00  0.00    -0.050 A 
ATOM     17  C   UNL A   1      33.286  23.944  25.938  1.00  0.00     0.044 C 
BRANCH   7  18
ATOM     18  C   UNL A   1      29.991  28.397  23.171  1.00  0.00     0.042 A 
ATOM     19  C   UNL A   1      28.866  29.136  22.732  1.00  0.00     0.128 A 
ATOM     20  C   UNL A   1      27.565  28.718  23.047  1.00  0.00     0.047 A 
ATOM     21  C   UNL A   1      27.356  27.498  23.677  1.00  0.00     0.004 A 
ATOM     22  C   UNL A   1      29.746  27.110  23.693  1.00  0.00     0.014 A 
ATOM     23  C   UNL A   1      28.442  26.669  23.949  1.00  0.00     0.001 A 
BRANCH  19  24
ATOM     24  O   UNL A   1      29.018  30.387  22.182  1.00  0.00    -0.493 OA
BRANCH  24  25
ATOM     25  C   UNL A   1      28.073  30.618  21.130  1.00  0.00     0.226 C 
ATOM     26  C   UNL A   1      28.068  32.087  20.750  1.00  0.00     0.049 C 
ENDBRANCH  24  25
ENDBRANCH  19  24
ENDBRANCH   7  18
ENDBRANCH   4   6
ENDBRANCH   3   4
ENDBRANCH   2   3
ENDBRANCH   1   2
BRANCH   1  27
ATOM     27  O   UNL A   1      34.113  33.313  28.942  1.00  0.00    -0.374 OA
BRANCH  27  28
ATOM     28  C   UNL A   1      33.723  34.520  28.280  1.00  0.00     0.202 C 
BRANCH  28  29
ATOM     29  C   UNL A   1      33.165  35.587  29.232  1.00  0.00     0.261 C 
BRANCH  29  30
ATOM     30  O   UNL A   1      32.531  34.966  30.369  1.00  0.00    -0.460 OA
BRANCH  30  31
ATOM     31  C   UNL A   1      32.821  35.534  31.565  1.00  0.00     0.338 C 
ATOM     32  O   UNL A   1      32.172  36.375  32.160  1.00  0.00    -0.246 OA
BRANCH  31  33
ATOM     33  C   UNL A   1      33.973  34.843  32.180  1.00  0.00     0.060 A 
ATOM     34  C   UNL A   1      35.213  35.490  32.113  1.00  0.00     0.016 A 
ATOM     35  C   UNL A   1      33.867  33.578  32.763  1.00  0.00     0.016 A 
ATOM     36  C   UNL A   1      36.363  34.850  32.572  1.00  0.00     0.010 A 
ATOM     37  C   UNL A   1      35.025  32.932  33.217  1.00  0.00     0.010 A 
ATOM     38  C   UNL A   1      36.283  33.551  33.087  1.00  0.00    -0.014 A 
BRANCH  38  39
ATOM     39  C   UNL A   1      37.533  32.791  33.336  1.00  0.00     0.031 A 
ATOM     40  C   UNL A   1      38.279  33.015  34.624  1.00  0.00     0.074 A 
ATOM     41  C   UNL A   1      37.975  31.874  32.456  1.00  0.00     0.049 A 
ATOM     42  N   UNL A   1      39.383  32.456  35.051  1.00  0.00    -0.248 NA
ATOM     43  C   UNL A   1      37.702  33.999  35.554  1.00  0.00     0.031 C 
ATOM     44  C   UNL A   1      37.319  31.525  31.197  1.00  0.00     0.029 A 
ATOM     45  N   UNL A   1      39.083  31.065  32.496  1.00  0.00    -0.354 N 
ATOM     46  C   UNL A   1      39.635  33.023  36.295  1.00  0.00     0.074 A 
ATOM     47  C   UNL A   1      38.586  33.989  36.541  1.00  0.00     0.031 C 
ATOM     48  C   UNL A   1      38.040  30.570  30.582  1.00  0.00     0.029 A 
ATOM     49  C   UNL A   1      39.220  30.264  31.389  1.00  0.00     0.049 A 
ATOM     50  H   UNL A   1      39.718  31.059  33.247  1.00  0.00     0.167 HD
ATOM     51  C   UNL A   1      40.643  32.760  37.159  1.00  0.00     0.031 A 
ATOM     52  C   UNL A   1      40.194  29.396  31.057  1.00  0.00     0.031 A 
ATOM     53  C   UNL A   1      41.693  31.806  36.917  1.00  0.00     0.049 A 
ATOM     54  C   UNL A   1      41.348  29.179  31.998  1.00  0.00     0.074 A 
ATOM     55  C   UNL A   1      42.750  31.459  37.741  1.00  0.00     0.029 A 
ATOM     56  N   UNL A   1      41.822  31.055  35.760  1.00  0.00    -0.354 N 
ATOM     57  N   UNL A   1      41.561  29.704  33.181  1.00  0.00    -0.248 NA
ATOM     58  C   UNL A   1      42.395  28.244  31.559  1.00  0.00     0.031 C 
ATOM     59  C   UNL A   1      43.549  30.537  37.059  1.00  0.00     0.029 A 
ATOM     60  C   UNL A   1      42.958  30.268  35.835  1.00  0.00     0.049 A 
ATOM     61  H   UNL A   1      41.199  31.077  34.999  1.00  0.00     0.167 HD
ATOM     62  C   UNL A   1      42.748  29.143  33.638  1.00  0.00     0.074 A 
ATOM     63  C   UNL A   1      43.202  28.229  32.611  1.00  0.00     0.031 C 
ATOM     64  C   UNL A   1      43.400  29.364  34.805  1.00  0.00     0.031 A 
BRANCH  51  65
ATOM     65  C   UNL A   1      40.678  33.544  38.440  1.00  0.00    -0.014 A 
ATOM     66  C   UNL A   1      40.030  33.084  39.597  1.00  0.00     0.009 A 
ATOM     67  C   UNL A   1      41.396  34.749  38.498  1.00  0.00     0.009 A 
ATOM     68  C   UNL A   1      40.076  33.830  40.778  1.00  0.00     0.001 A 
ATOM     69  C   UNL A   1      41.463  35.479  39.685  1.00  0.00     0.001 A 
ATOM     70  C   UNL A   1      40.795  35.024  40.821  1.00  0.00     0.000 A 
ENDBRANCH  51  65
BRANCH  52  71
ATOM     71  C   UNL A   1      40.137  28.675  29.758  1.00  0.00    -0.014 A 
ATOM     72  C   UNL A   1      40.676  29.246  28.596  1.00  0.00     0.009 A 
ATOM     73  C   UNL A   1      39.522  27.416  29.672  1.00  0.00     0.009 A 
ATOM     74  C   UNL A   1      40.582  28.580  27.370  1.00  0.00     0.001 A 
ATOM     75  C   UNL A   1      39.454  26.740  28.452  1.00  0.00     0.001 A 
ATOM     76  C   UNL A   1      39.975  27.327  27.301  1.00  0.00     0.000 A 
ENDBRANCH  52  71
BRANCH  64  77
ATOM     77  C   UNL A   1      44.659  28.582  35.051  1.00  0.00    -0.014 A 
ATOM     78  C   UNL A   1      45.913  29.074  34.658  1.00  0.00     0.009 A 
ATOM     79  C   UNL A   1      44.593  27.355  35.731  1.00  0.00     0.009 A 
ATOM     80  C   UNL A   1      47.072  28.338  34.912  1.00  0.00     0.001 A 
ATOM     81  C   UNL A   1      45.756  26.634  36.009  1.00  0.00     0.001 A 
ATOM     82  C   UNL A   1      46.993  27.122  35.593  1.00  0.00     0.000 A 
ENDBRANCH  64  77
ENDBRANCH  38  39
ENDBRANCH  31  33
ENDBRANCH  30  31
ENDBRANCH  29  30
ENDBRANCH  28  29
ENDBRANCH  27  28
ENDBRANCH   1  27
TORSDOF 17
ENDMDL
MODEL 3
REMARK VINA RESULT:     -10.8      0.917      5.798
REMARK SMILES CCOc1ccccc1-c1cc(C(=O)OCCOCCOC(=O)c2ccc(-c3c4nc(c(-c5ccccc5)c5ccc([nH]5)c(-c5ccccc5)c5nc(c(-c6ccccc6)c6ccc3[nH]6)C=C5)C=C4)cc2)c2cc(C)cc(C)c2n1
REMARK SMILES IDX 17 1 16 2 15 3 13 4 14 5 12 6 10 7 11 8 80 9 79 10 72 11
REMARK SMILES IDX 77 12 73 13 76 14 78 15 74 16 75 17 9 18 4 19 5 20 6 21 8 22
REMARK SMILES IDX 7 23 3 24 2 25 1 26 18 27 19 28 20 29 21 30 22 31 23 32
REMARK SMILES IDX 24 33 25 34 71 35 26 36 70 37 27 38 28 39 29 40 64 41 30 42
REMARK SMILES IDX 69 43 63 44 65 45 31 46 68 47 62 48 61 49 32 51 54 52 39 53
REMARK SMILES IDX 53 54 40 55 43 56 52 57 66 58 41 59 42 60 51 62 67 63 44 64
REMARK SMILES IDX 33 65 34 66 38 67 35 68 37 69 36 70 55 71 56 72 60 73 57 74
REMARK SMILES IDX 59 75 58 76 45 77 46 78 50 79 47 80 49 81 48 82
REMARK H PARENT 65 50 43 61
REMARK Flexibility Score: inf
ROOT
ATOM      1  C   UNL A   1      34.873  29.937  27.557  1.00  0.00     0.202 C 
ENDROOT
BRANCH   1   2
ATOM      2  C   UNL A   1      34.382  28.976  26.476  1.00  0.00     0.261 C 
BRANCH   2   3
ATOM      3  O   UNL A   1      33.731  27.825  27.045  1.00  0.00    -0.460 OA
BRANCH   3   4
ATOM      4  C   UNL A   1      32.380  27.869  26.953  1.00  0.00     0.338 C 
ATOM      5  O   UNL A   1      31.604  27.929  27.895  1.00  0.00    -0.246 OA
BRANCH   4   6
ATOM      6  C   UNL A   1      31.900  27.825  25.557  1.00  0.00     0.071 A 
ATOM      7  C   UNL A   1      30.932  28.696  23.605  1.00  0.00     0.076 A 
ATOM      8  C   UNL A   1      31.222  28.880  24.941  1.00  0.00     0.045 A 
ATOM      9  N   UNL A   1      31.774  27.925  22.885  1.00  0.00    -0.247 NA
ATOM     10  C   UNL A   1      32.055  26.745  23.439  1.00  0.00     0.075 A 
ATOM     11  C   UNL A   1      32.053  26.625  24.831  1.00  0.00     0.015 A 
ATOM     12  C   UNL A   1      32.152  25.607  22.639  1.00  0.00    -0.024 A 
ATOM     13  C   UNL A   1      31.991  25.341  25.410  1.00  0.00     0.014 A 
ATOM     14  C   UNL A   1      32.007  24.340  23.224  1.00  0.00     0.009 A 
ATOM     15  C   UNL A   1      32.217  25.714  21.141  1.00  0.00     0.047 C 
ATOM     16  C   UNL A   1      31.863  24.207  24.606  1.00  0.00    -0.050 A 
ATOM     17  C   UNL A   1      31.390  22.918  25.210  1.00  0.00     0.044 C 
BRANCH   7  18
ATOM     18  C   UNL A   1      29.545  28.433  23.086  1.00  0.00     0.042 A 
ATOM     19  C   UNL A   1      28.718  29.503  22.665  1.00  0.00     0.128 A 
ATOM     20  C   UNL A   1      27.339  29.487  22.916  1.00  0.00     0.047 A 
ATOM     21  C   UNL A   1      26.741  28.357  23.460  1.00  0.00     0.004 A 
ATOM     22  C   UNL A   1      28.896  27.257  23.517  1.00  0.00     0.014 A 
ATOM     23  C   UNL A   1      27.510  27.223  23.707  1.00  0.00     0.001 A 
BRANCH  19  24
ATOM     24  O   UNL A   1      29.268  30.676  22.202  1.00  0.00    -0.493 OA
BRANCH  24  25
ATOM     25  C   UNL A   1      28.454  31.807  22.536  1.00  0.00     0.226 C 
ATOM     26  C   UNL A   1      28.137  32.606  21.285  1.00  0.00     0.049 C 
ENDBRANCH  24  25
ENDBRANCH  19  24
ENDBRANCH   7  18
ENDBRANCH   4   6
ENDBRANCH   3   4
ENDBRANCH   2   3
ENDBRANCH   1   2
BRANCH   1  27
ATOM     27  O   UNL A   1      34.344  31.258  27.462  1.00  0.00    -0.374 OA
BRANCH  27  28
ATOM     28  C   UNL A   1      32.917  31.339  27.392  1.00  0.00     0.202 C 
BRANCH  28  29
ATOM     29  C   UNL A   1      32.390  32.776  27.282  1.00  0.00     0.261 C 
BRANCH  29  30
ATOM     30  O   UNL A   1      33.467  33.721  27.445  1.00  0.00    -0.460 OA
BRANCH  30  31
ATOM     31  C   UNL A   1      33.440  34.423  28.605  1.00  0.00     0.338 C 
ATOM     32  O   UNL A   1      32.583  35.205  28.976  1.00  0.00    -0.246 OA
BRANCH  31  33
ATOM     33  C   UNL A   1      34.530  33.965  29.492  1.00  0.00     0.060 A 
ATOM     34  C   UNL A   1      35.837  34.312  29.126  1.00  0.00     0.016 A 
ATOM     35  C   UNL A   1      34.298  33.176  30.621  1.00  0.00     0.016 A 
ATOM     36  C   UNL A   1      36.920  33.822  29.851  1.00  0.00     0.010 A 
ATOM     37  C   UNL A   1      35.389  32.678  31.345  1.00  0.00     0.010 A 
ATOM     38  C   UNL A   1      36.706  32.967  30.939  1.00  0.00    -0.014 A 
BRANCH  38  39
ATOM     39  C   UNL A   1      37.861  32.257  31.542  1.00  0.00     0.031 A 
ATOM     40  C   UNL A   1      38.536  31.165  30.756  1.00  0.00     0.074 A 
ATOM     41  C   UNL A   1      38.340  32.610  32.749  1.00  0.00     0.049 A 
ATOM     42  N   UNL A   1      39.563  30.422  31.083  1.00  0.00    -0.248 NA
ATOM     43  C   UNL A   1      37.981  30.875  29.425  1.00  0.00     0.031 C 
ATOM     44  C   UNL A   1      37.810  33.682  33.589  1.00  0.00     0.029 A 
ATOM     45  N   UNL A   1      39.389  32.100  33.472  1.00  0.00    -0.354 N 
ATOM     46  C   UNL A   1      39.774  29.574  30.002  1.00  0.00     0.074 A 
ATOM     47  C   UNL A   1      38.751  29.874  29.022  1.00  0.00     0.031 C 
ATOM     48  C   UNL A   1      38.539  33.750  34.718  1.00  0.00     0.029 A 
ATOM     49  C   UNL A   1      39.564  32.708  34.690  1.00  0.00     0.049 A 
ATOM     50  H   UNL A   1      39.961  31.368  33.148  1.00  0.00     0.167 HD
ATOM     51  C   UNL A   1      40.734  28.635  29.834  1.00  0.00     0.031 A 
ATOM     52  C   UNL A   1      40.441  32.445  35.678  1.00  0.00     0.031 A 
ATOM     53  C   UNL A   1      41.747  28.326  30.807  1.00  0.00     0.049 A 
ATOM     54  C   UNL A   1      41.449  31.341  35.501  1.00  0.00     0.074 A 
ATOM     55  C   UNL A   1      42.773  27.401  30.720  1.00  0.00     0.029 A 
ATOM     56  N   UNL A   1      41.856  28.930  32.049  1.00  0.00    -0.354 N 
ATOM     57  N   UNL A   1      41.652  30.564  34.464  1.00  0.00    -0.248 NA
ATOM     58  C   UNL A   1      42.354  31.082  36.632  1.00  0.00     0.031 C 
ATOM     59  C   UNL A   1      43.470  27.408  31.932  1.00  0.00     0.029 A 
ATOM     60  C   UNL A   1      42.913  28.377  32.750  1.00  0.00     0.049 A 
ATOM     61  H   UNL A   1      41.270  29.647  32.382  1.00  0.00     0.167 HD
ATOM     62  C   UNL A   1      42.721  29.745  34.807  1.00  0.00     0.074 A 
ATOM     63  C   UNL A   1      43.133  30.128  36.141  1.00  0.00     0.031 C 
ATOM     64  C   UNL A   1      43.311  28.766  34.079  1.00  0.00     0.031 A 
BRANCH  51  65
ATOM     65  C   UNL A   1      40.711  27.844  28.556  1.00  0.00    -0.014 A 
ATOM     66  C   UNL A   1      41.396  28.284  27.413  1.00  0.00     0.009 A 
ATOM     67  C   UNL A   1      40.019  26.624  28.507  1.00  0.00     0.009 A 
ATOM     68  C   UNL A   1      41.361  27.532  26.235  1.00  0.00     0.001 A 
ATOM     69  C   UNL A   1      40.008  25.862  27.338  1.00  0.00     0.001 A 
ATOM     70  C   UNL A   1      40.671  26.321  26.200  1.00  0.00     0.000 A 
ENDBRANCH  51  65
BRANCH  52  71
ATOM     71  C   UNL A   1      40.396  33.227  36.942  1.00  0.00    -0.014 A 
ATOM     72  C   UNL A   1      39.528  32.861  37.981  1.00  0.00     0.009 A 
ATOM     73  C   UNL A   1      41.210  34.358  37.105  1.00  0.00     0.009 A 
ATOM     74  C   UNL A   1      39.461  33.626  39.150  1.00  0.00     0.001 A 
ATOM     75  C   UNL A   1      41.162  35.105  38.284  1.00  0.00     0.001 A 
ATOM     76  C   UNL A   1      40.281  34.743  39.301  1.00  0.00     0.000 A 
ENDBRANCH  52  71
BRANCH  64  77
ATOM     77  C   UNL A   1      44.487  28.060  34.693  1.00  0.00    -0.014 A 
ATOM     78  C   UNL A   1      45.781  28.595  34.615  1.00  0.00     0.009 A 
ATOM     79  C   UNL A   1      44.286  26.865  35.402  1.00  0.00     0.009 A 
ATOM     80  C   UNL A   1      46.856  27.932  35.209  1.00  0.00     0.001 A 
ATOM     81  C   UNL A   1      45.358  26.217  36.019  1.00  0.00     0.001 A 
ATOM     82  C   UNL A   1      46.643  26.746  35.915  1.00  0.00     0.000 A 
ENDBRANCH  64  77
ENDBRANCH  38  39
ENDBRANCH  31  33
ENDBRANCH  30  31
ENDBRANCH  29  30
ENDBRANCH  28  29
ENDBRANCH  27  28
ENDBRANCH   1  27
TORSDOF 17
ENDMDL
