MODEL 1
REMARK VINA RESULT:     -12.4      0.000      0.000
REMARK SMILES CC(=O)O[C@@H]1CC[C@@]23C(=O)O[C@]4(CC[C@]2(O)C1)[C@H]3CC[C@]1(C)[C@H](C(=O)OCCOCCOC(=O)c2ccc(-c3c5nc(c(-c6ccccc6)c6ccc([nH]6)c(-c6ccccc6)c6nc(c(-c7ccccc7)c7ccc3[nH]7)C=C6)C=C5)cc2)CC[C@@H]14
REMARK SMILES IDX 29 1 28 2 27 3 26 4 24 5 25 6 23 7 5 8 6 9 17 10 7 11 15 12
REMARK SMILES IDX 8 13 14 14 9 15 18 16 13 17 10 18 11 19 12 20 19 21 85 22
REMARK SMILES IDX 20 23 21 24 84 25 22 26 83 27 4 28 2 29 1 30 3 31 16 32
REMARK SMILES IDX 30 34 31 35 32 36 33 37 34 38 35 39 36 40 82 41 37 42 81 43
REMARK SMILES IDX 38 44 39 45 40 46 75 47 41 48 80 49 74 50 76 51 42 52 79 53
REMARK SMILES IDX 73 54 72 55 43 57 65 58 50 59 64 60 51 61 54 62 63 63 77 64
REMARK SMILES IDX 52 65 53 66 62 68 78 69 55 70 44 71 45 72 49 73 46 74 48 75
REMARK SMILES IDX 47 76 66 77 67 78 71 79 68 80 70 81 69 82 56 83 57 84 61 85
REMARK SMILES IDX 58 86 60 87 59 88
REMARK H PARENT 16 33 76 56 54 67
REMARK Flexibility Score: inf
ROOT
ATOM      1  O   UNL A   1      30.019  30.651  24.391  1.00  0.00    -0.374 OA
ENDROOT
BRANCH   1   2
ATOM      2  C   UNL A   1      29.835  29.877  23.210  1.00  0.00     0.202 C 
BRANCH   2   3
ATOM      3  C   UNL A   1      29.463  28.398  23.359  1.00  0.00     0.261 C 
BRANCH   3   4
ATOM      4  O   UNL A   1      30.311  27.534  22.588  1.00  0.00    -0.463 OA
BRANCH   4   5
ATOM      5  C   UNL A   1      31.602  27.517  22.992  1.00  0.00     0.309 C 
ATOM      6  O   UNL A   1      32.531  28.006  22.351  1.00  0.00    -0.252 OA
BRANCH   5   7
ATOM      7  C   UNL A   1      31.828  26.962  24.389  1.00  0.00     0.105 C 
ATOM      8  C   UNL A   1      37.377  21.430  24.706  1.00  0.00     0.179 C 
ATOM      9  C   UNL A   1      36.991  22.429  23.642  1.00  0.00     0.047 C 
ATOM     10  C   UNL A   1      36.158  20.494  24.859  1.00  0.00     0.081 C 
ATOM     11  C   UNL A   1      35.810  23.215  24.160  1.00  0.00     0.026 C 
ATOM     12  C   UNL A   1      34.770  21.178  25.098  1.00  0.00     0.085 C 
ATOM     13  C   UNL A   1      34.381  22.297  24.176  1.00  0.00     0.103 C 
ATOM     14  C   UNL A   1      34.720  21.847  26.535  1.00  0.00     0.041 C 
ATOM     15  C   UNL A   1      33.872  23.216  23.178  1.00  0.00     0.316 C 
ATOM     16  C   UNL A   1      32.804  22.695  24.925  1.00  0.00     0.054 C 
ATOM     17  C   UNL A   1      34.270  23.389  26.586  1.00  0.00     0.052 C 
ATOM     18  O   UNL A   1      33.815  23.159  21.971  1.00  0.00    -0.251 OA
ATOM     19  O   UNL A   1      33.754  24.358  24.021  1.00  0.00    -0.458 OA
ATOM     20  C   UNL A   1      33.359  23.955  25.393  1.00  0.00     0.120 C 
ATOM     21  C   UNL A   1      31.438  22.962  24.191  1.00  0.00     0.009 C 
ATOM     22  C   UNL A   1      32.542  25.123  25.884  1.00  0.00     0.040 C 
ATOM     23  C   UNL A   1      31.086  24.445  23.834  1.00  0.00     0.008 C 
ATOM     24  C   UNL A   1      31.391  25.536  24.915  1.00  0.00    -0.013 C 
ATOM     25  C   UNL A   1      33.488  26.344  25.975  1.00  0.00     0.009 C 
ATOM     26  C   UNL A   1      30.143  25.716  25.813  1.00  0.00     0.013 C 
ATOM     27  C   UNL A   1      33.329  27.065  24.658  1.00  0.00     0.016 C 
BRANCH   8  28
ATOM     28  O   UNL A   1      37.710  21.982  26.015  1.00  0.00    -0.462 OA
BRANCH  28  29
ATOM     29  C   UNL A   1      38.911  22.561  26.300  1.00  0.00     0.302 C 
ATOM     30  C   UNL A   1      38.745  24.021  26.610  1.00  0.00     0.139 C 
ATOM     31  O   UNL A   1      40.005  22.017  26.278  1.00  0.00    -0.253 OA
ENDBRANCH  28  29
ENDBRANCH   8  28
BRANCH  12  32
ATOM     32  O   UNL A   1      33.794  20.132  25.025  1.00  0.00    -0.389 OA
ATOM     33  H   UNL A   1      34.099  19.447  24.409  1.00  0.00     0.211 HD
ENDBRANCH  12  32
ENDBRANCH   5   7
ENDBRANCH   4   5
ENDBRANCH   3   4
ENDBRANCH   2   3
ENDBRANCH   1   2
BRANCH   1  34
ATOM     34  C   UNL A   1      31.176  30.411  25.189  1.00  0.00     0.202 C 
BRANCH  34  35
ATOM     35  C   UNL A   1      31.525  31.426  26.286  1.00  0.00     0.261 C 
BRANCH  35  36
ATOM     36  O   UNL A   1      32.630  31.011  27.108  1.00  0.00    -0.460 OA
BRANCH  36  37
ATOM     37  C   UNL A   1      33.418  32.029  27.531  1.00  0.00     0.338 C 
ATOM     38  O   UNL A   1      33.081  33.174  27.782  1.00  0.00    -0.246 OA
BRANCH  37  39
ATOM     39  C   UNL A   1      34.769  31.535  27.843  1.00  0.00     0.060 A 
ATOM     40  C   UNL A   1      34.918  30.157  28.051  1.00  0.00     0.016 A 
ATOM     41  C   UNL A   1      35.837  32.409  28.053  1.00  0.00     0.016 A 
ATOM     42  C   UNL A   1      36.122  29.652  28.525  1.00  0.00     0.010 A 
ATOM     43  C   UNL A   1      37.044  31.901  28.541  1.00  0.00     0.010 A 
ATOM     44  C   UNL A   1      37.176  30.527  28.817  1.00  0.00    -0.014 A 
BRANCH  44  45
ATOM     45  C   UNL A   1      38.347  30.016  29.565  1.00  0.00     0.031 A 
ATOM     46  C   UNL A   1      38.521  30.411  31.005  1.00  0.00     0.074 A 
ATOM     47  C   UNL A   1      39.211  29.166  28.984  1.00  0.00     0.049 A 
ATOM     48  N   UNL A   1      39.457  30.070  31.853  1.00  0.00    -0.248 NA
ATOM     49  C   UNL A   1      37.497  31.307  31.567  1.00  0.00     0.031 C 
ATOM     50  C   UNL A   1      39.113  28.668  27.613  1.00  0.00     0.029 A 
ATOM     51  N   UNL A   1      40.338  28.567  29.484  1.00  0.00    -0.354 N 
ATOM     52  C   UNL A   1      39.138  30.710  33.044  1.00  0.00     0.074 A 
ATOM     53  C   UNL A   1      37.942  31.487  32.801  1.00  0.00     0.031 C 
ATOM     54  C   UNL A   1      40.138  27.829  27.382  1.00  0.00     0.029 A 
ATOM     55  C   UNL A   1      40.977  27.761  28.576  1.00  0.00     0.049 A 
ATOM     56  H   UNL A   1      40.658  28.702  30.405  1.00  0.00     0.167 HD
ATOM     57  C   UNL A   1      39.779  30.651  34.236  1.00  0.00     0.031 A 
ATOM     58  C   UNL A   1      42.121  27.059  28.694  1.00  0.00     0.031 A 
ATOM     59  C   UNL A   1      40.980  29.896  34.467  1.00  0.00     0.049 A 
ATOM     60  C   UNL A   1      42.873  27.095  29.996  1.00  0.00     0.074 A 
ATOM     61  C   UNL A   1      41.708  29.765  35.637  1.00  0.00     0.029 A 
ATOM     62  N   UNL A   1      41.640  29.151  33.501  1.00  0.00    -0.354 N 
ATOM     63  N   UNL A   1      42.552  27.687  31.122  1.00  0.00    -0.248 NA
ATOM     64  C   UNL A   1      44.145  26.361  30.044  1.00  0.00     0.031 C 
ATOM     65  C   UNL A   1      42.839  28.988  35.362  1.00  0.00     0.029 A 
ATOM     66  C   UNL A   1      42.784  28.585  34.037  1.00  0.00     0.049 A 
ATOM     67  H   UNL A   1      41.339  29.041  32.569  1.00  0.00     0.167 HD
ATOM     68  C   UNL A   1      43.567  27.377  32.017  1.00  0.00     0.074 A 
ATOM     69  C   UNL A   1      44.507  26.533  31.308  1.00  0.00     0.031 C 
ATOM     70  C   UNL A   1      43.710  27.754  33.313  1.00  0.00     0.031 A 
BRANCH  57  71
ATOM     71  C   UNL A   1      39.205  31.461  35.365  1.00  0.00    -0.014 A 
ATOM     72  C   UNL A   1      38.347  30.885  36.316  1.00  0.00     0.009 A 
ATOM     73  C   UNL A   1      39.532  32.821  35.482  1.00  0.00     0.009 A 
ATOM     74  C   UNL A   1      37.796  31.665  37.336  1.00  0.00     0.001 A 
ATOM     75  C   UNL A   1      39.001  33.591  36.519  1.00  0.00     0.001 A 
ATOM     76  C   UNL A   1      38.126  33.015  37.439  1.00  0.00     0.000 A 
ENDBRANCH  57  71
BRANCH  58  77
ATOM     77  C   UNL A   1      42.633  26.271  27.543  1.00  0.00    -0.014 A 
ATOM     78  C   UNL A   1      43.434  26.877  26.564  1.00  0.00     0.009 A 
ATOM     79  C   UNL A   1      42.315  24.910  27.413  1.00  0.00     0.009 A 
ATOM     80  C   UNL A   1      43.889  26.141  25.466  1.00  0.00     0.001 A 
ATOM     81  C   UNL A   1      42.794  24.170  26.329  1.00  0.00     0.001 A 
ATOM     82  C   UNL A   1      43.574  24.788  25.354  1.00  0.00     0.000 A 
ENDBRANCH  58  77
BRANCH  70  83
ATOM     83  C   UNL A   1      44.910  27.231  34.051  1.00  0.00    -0.014 A 
ATOM     84  C   UNL A   1      46.109  27.958  34.099  1.00  0.00     0.009 A 
ATOM     85  C   UNL A   1      44.824  26.012  34.742  1.00  0.00     0.009 A 
ATOM     86  C   UNL A   1      47.210  27.457  34.797  1.00  0.00     0.001 A 
ATOM     87  C   UNL A   1      45.915  25.528  35.464  1.00  0.00     0.001 A 
ATOM     88  C   UNL A   1      47.110  26.246  35.482  1.00  0.00     0.000 A 
ENDBRANCH  70  83
ENDBRANCH  44  45
ENDBRANCH  37  39
ENDBRANCH  36  37
ENDBRANCH  35  36
ENDBRANCH  34  35
ENDBRANCH   1  34
TORSDOF 17
ENDMDL
MODEL 2
REMARK VINA RESULT:     -12.3      3.163      8.894
REMARK SMILES CC(=O)O[C@@H]1CC[C@@]23C(=O)O[C@]4(CC[C@]2(O)C1)[C@H]3CC[C@]1(C)[C@H](C(=O)OCCOCCOC(=O)c2ccc(-c3c5nc(c(-c6ccccc6)c6ccc([nH]6)c(-c6ccccc6)c6nc(c(-c7ccccc7)c7ccc3[nH]7)C=C6)C=C5)cc2)CC[C@@H]14
REMARK SMILES IDX 29 1 28 2 27 3 26 4 24 5 25 6 23 7 5 8 6 9 17 10 7 11 15 12
REMARK SMILES IDX 8 13 14 14 9 15 18 16 13 17 10 18 11 19 12 20 19 21 85 22
REMARK SMILES IDX 20 23 21 24 84 25 22 26 83 27 4 28 2 29 1 30 3 31 16 32
REMARK SMILES IDX 30 34 31 35 32 36 33 37 34 38 35 39 36 40 82 41 37 42 81 43
REMARK SMILES IDX 38 44 39 45 40 46 75 47 41 48 80 49 74 50 76 51 42 52 79 53
REMARK SMILES IDX 73 54 72 55 43 57 65 58 50 59 64 60 51 61 54 62 63 63 77 64
REMARK SMILES IDX 52 65 53 66 62 68 78 69 55 70 44 71 45 72 49 73 46 74 48 75
REMARK SMILES IDX 47 76 66 77 67 78 71 79 68 80 70 81 69 82 56 83 57 84 61 85
REMARK SMILES IDX 58 86 60 87 59 88
REMARK H PARENT 16 33 76 56 54 67
REMARK Flexibility Score: inf
ROOT
ATOM      1  O   UNL A   1      35.256  19.830  24.715  1.00  0.00    -0.374 OA
ENDROOT
BRANCH   1   2
ATOM      2  C   UNL A   1      34.145  18.944  24.626  1.00  0.00     0.202 C 
BRANCH   2   3
ATOM      3  C   UNL A   1      32.795  19.410  25.178  1.00  0.00     0.261 C 
BRANCH   3   4
ATOM      4  O   UNL A   1      32.316  20.601  24.536  1.00  0.00    -0.463 OA
BRANCH   4   5
ATOM      5  C   UNL A   1      32.557  21.740  25.226  1.00  0.00     0.309 C 
ATOM      6  O   UNL A   1      32.242  21.914  26.401  1.00  0.00    -0.252 OA
BRANCH   5   7
ATOM      7  C   UNL A   1      33.388  22.774  24.483  1.00  0.00     0.105 C 
ATOM      8  C   UNL A   1      32.169  30.123  26.931  1.00  0.00     0.179 C 
ATOM      9  C   UNL A   1      31.798  28.780  27.509  1.00  0.00     0.047 C 
ATOM     10  C   UNL A   1      31.396  30.230  25.597  1.00  0.00     0.081 C 
ATOM     11  C   UNL A   1      32.287  27.719  26.553  1.00  0.00     0.026 C 
ATOM     12  C   UNL A   1      31.552  29.037  24.595  1.00  0.00     0.085 C 
ATOM     13  C   UNL A   1      31.356  27.649  25.134  1.00  0.00     0.103 C 
ATOM     14  C   UNL A   1      33.021  29.000  23.999  1.00  0.00     0.041 C 
ATOM     15  C   UNL A   1      30.953  26.323  25.556  1.00  0.00     0.316 C 
ATOM     16  C   UNL A   1      31.687  26.750  23.621  1.00  0.00     0.054 C 
ATOM     17  C   UNL A   1      33.795  27.596  24.103  1.00  0.00     0.052 C 
ATOM     18  O   UNL A   1      29.975  25.915  26.138  1.00  0.00    -0.251 OA
ATOM     19  O   UNL A   1      32.211  25.681  25.372  1.00  0.00    -0.458 OA
ATOM     20  C   UNL A   1      32.923  26.253  24.203  1.00  0.00     0.120 C 
ATOM     21  C   UNL A   1      30.865  25.548  23.024  1.00  0.00     0.009 C 
ATOM     22  C   UNL A   1      33.716  25.088  23.667  1.00  0.00     0.040 C 
ATOM     23  C   UNL A   1      31.320  24.100  23.405  1.00  0.00     0.008 C 
ATOM     24  C   UNL A   1      32.860  23.809  23.410  1.00  0.00    -0.013 C 
ATOM     25  C   UNL A   1      34.756  24.700  24.745  1.00  0.00     0.009 C 
ATOM     26  C   UNL A   1      33.280  23.307  22.008  1.00  0.00     0.013 C 
ATOM     27  C   UNL A   1      34.101  23.604  25.549  1.00  0.00     0.016 C 
BRANCH   8  28
ATOM     28  O   UNL A   1      33.588  30.339  26.666  1.00  0.00    -0.462 OA
BRANCH  28  29
ATOM     29  C   UNL A   1      34.472  30.753  27.618  1.00  0.00     0.302 C 
ATOM     30  C   UNL A   1      35.518  29.706  27.873  1.00  0.00     0.139 C 
ATOM     31  O   UNL A   1      34.435  31.805  28.237  1.00  0.00    -0.253 OA
ENDBRANCH  28  29
ENDBRANCH   8  28
BRANCH  12  32
ATOM     32  O   UNL A   1      30.615  29.281  23.539  1.00  0.00    -0.389 OA
ATOM     33  H   UNL A   1      31.080  29.650  22.772  1.00  0.00     0.211 HD
ENDBRANCH  12  32
ENDBRANCH   5   7
ENDBRANCH   4   5
ENDBRANCH   3   4
ENDBRANCH   2   3
ENDBRANCH   1   2
BRANCH   1  34
ATOM     34  C   UNL A   1      36.542  19.283  25.001  1.00  0.00     0.202 C 
BRANCH  34  35
ATOM     35  C   UNL A   1      37.781  20.107  24.623  1.00  0.00     0.261 C 
BRANCH  35  36
ATOM     36  O   UNL A   1      38.073  21.152  25.567  1.00  0.00    -0.460 OA
BRANCH  36  37
ATOM     37  C   UNL A   1      39.304  21.062  26.128  1.00  0.00     0.338 C 
ATOM     38  O   UNL A   1      40.110  20.155  26.007  1.00  0.00    -0.246 OA
BRANCH  37  39
ATOM     39  C   UNL A   1      39.657  22.327  26.793  1.00  0.00     0.060 A 
ATOM     40  C   UNL A   1      38.964  23.478  26.394  1.00  0.00     0.016 A 
ATOM     41  C   UNL A   1      40.724  22.409  27.688  1.00  0.00     0.016 A 
ATOM     42  C   UNL A   1      39.371  24.727  26.849  1.00  0.00     0.010 A 
ATOM     43  C   UNL A   1      41.140  23.667  28.135  1.00  0.00     0.010 A 
ATOM     44  C   UNL A   1      40.491  24.831  27.683  1.00  0.00    -0.014 A 
BRANCH  44  45
ATOM     45  C   UNL A   1      41.072  26.168  27.942  1.00  0.00     0.031 A 
ATOM     46  C   UNL A   1      42.413  26.506  27.351  1.00  0.00     0.074 A 
ATOM     47  C   UNL A   1      40.387  27.086  28.645  1.00  0.00     0.049 A 
ATOM     48  N   UNL A   1      43.099  27.617  27.434  1.00  0.00    -0.248 NA
ATOM     49  C   UNL A   1      43.064  25.451  26.558  1.00  0.00     0.031 C 
ATOM     50  C   UNL A   1      39.055  26.892  29.216  1.00  0.00     0.029 A 
ATOM     51  N   UNL A   1      40.720  28.371  28.987  1.00  0.00    -0.354 N 
ATOM     52  C   UNL A   1      44.262  27.394  26.706  1.00  0.00     0.074 A 
ATOM     53  C   UNL A   1      44.204  26.033  26.219  1.00  0.00     0.031 C 
ATOM     54  C   UNL A   1      38.679  28.024  29.834  1.00  0.00     0.029 A 
ATOM     55  C   UNL A   1      39.757  29.006  29.730  1.00  0.00     0.049 A 
ATOM     56  H   UNL A   1      41.568  28.797  28.725  1.00  0.00     0.167 HD
ATOM     57  C   UNL A   1      45.283  28.249  26.459  1.00  0.00     0.031 A 
ATOM     58  C   UNL A   1      39.754  30.237  30.277  1.00  0.00     0.031 A 
ATOM     59  C   UNL A   1      45.348  29.594  26.964  1.00  0.00     0.049 A 
ATOM     60  C   UNL A   1      40.948  31.130  30.077  1.00  0.00     0.074 A 
ATOM     61  C   UNL A   1      46.336  30.544  26.770  1.00  0.00     0.029 A 
ATOM     62  N   UNL A   1      44.387  30.176  27.776  1.00  0.00    -0.354 N 
ATOM     63  N   UNL A   1      42.033  30.918  29.371  1.00  0.00    -0.248 NA
ATOM     64  C   UNL A   1      40.914  32.436  30.750  1.00  0.00     0.031 C 
ATOM     65  C   UNL A   1      45.999  31.680  27.514  1.00  0.00     0.029 A 
ATOM     66  C   UNL A   1      44.772  31.460  28.121  1.00  0.00     0.049 A 
ATOM     67  H   UNL A   1      43.552  29.740  28.066  1.00  0.00     0.167 HD
ATOM     68  C   UNL A   1      42.798  32.070  29.494  1.00  0.00     0.074 A 
ATOM     69  C   UNL A   1      42.046  32.984  30.329  1.00  0.00     0.031 C 
ATOM     70  C   UNL A   1      44.013  32.351  28.960  1.00  0.00     0.031 A 
BRANCH  57  71
ATOM     71  C   UNL A   1      46.430  27.730  25.635  1.00  0.00    -0.014 A 
ATOM     72  C   UNL A   1      46.507  27.973  24.254  1.00  0.00     0.009 A 
ATOM     73  C   UNL A   1      47.450  26.989  26.251  1.00  0.00     0.009 A 
ATOM     74  C   UNL A   1      47.562  27.451  23.502  1.00  0.00     0.001 A 
ATOM     75  C   UNL A   1      48.517  26.491  25.501  1.00  0.00     0.001 A 
ATOM     76  C   UNL A   1      48.566  26.714  24.125  1.00  0.00     0.000 A 
ENDBRANCH  57  71
BRANCH  58  77
ATOM     77  C   UNL A   1      38.588  30.695  31.075  1.00  0.00    -0.014 A 
ATOM     78  C   UNL A   1      38.515  30.429  32.450  1.00  0.00     0.009 A 
ATOM     79  C   UNL A   1      37.535  31.394  30.462  1.00  0.00     0.009 A 
ATOM     80  C   UNL A   1      37.403  30.835  33.192  1.00  0.00     0.001 A 
ATOM     81  C   UNL A   1      36.437  31.822  31.212  1.00  0.00     0.001 A 
ATOM     82  C   UNL A   1      36.369  31.535  32.574  1.00  0.00     0.000 A 
ENDBRANCH  58  77
BRANCH  70  83
ATOM     83  C   UNL A   1      44.589  33.710  29.242  1.00  0.00    -0.014 A 
ATOM     84  C   UNL A   1      45.382  33.946  30.375  1.00  0.00     0.009 A 
ATOM     85  C   UNL A   1      44.366  34.761  28.336  1.00  0.00     0.009 A 
ATOM     86  C   UNL A   1      45.913  35.215  30.612  1.00  0.00     0.001 A 
ATOM     87  C   UNL A   1      44.922  36.020  28.561  1.00  0.00     0.001 A 
ATOM     88  C   UNL A   1      45.686  36.248  29.704  1.00  0.00     0.000 A 
ENDBRANCH  70  83
ENDBRANCH  44  45
ENDBRANCH  37  39
ENDBRANCH  36  37
ENDBRANCH  35  36
ENDBRANCH  34  35
ENDBRANCH   1  34
TORSDOF 17
ENDMDL
MODEL 3
REMARK VINA RESULT:     -12.3      3.289      7.338
REMARK SMILES CC(=O)O[C@@H]1CC[C@@]23C(=O)O[C@]4(CC[C@]2(O)C1)[C@H]3CC[C@]1(C)[C@H](C(=O)OCCOCCOC(=O)c2ccc(-c3c5nc(c(-c6ccccc6)c6ccc([nH]6)c(-c6ccccc6)c6nc(c(-c7ccccc7)c7ccc3[nH]7)C=C6)C=C5)cc2)CC[C@@H]14
REMARK SMILES IDX 29 1 28 2 27 3 26 4 24 5 25 6 23 7 5 8 6 9 17 10 7 11 15 12
REMARK SMILES IDX 8 13 14 14 9 15 18 16 13 17 10 18 11 19 12 20 19 21 85 22
REMARK SMILES IDX 20 23 21 24 84 25 22 26 83 27 4 28 2 29 1 30 3 31 16 32
REMARK SMILES IDX 30 34 31 35 32 36 33 37 34 38 35 39 36 40 82 41 37 42 81 43
REMARK SMILES IDX 38 44 39 45 40 46 75 47 41 48 80 49 74 50 76 51 42 52 79 53
REMARK SMILES IDX 73 54 72 55 43 57 65 58 50 59 64 60 51 61 54 62 63 63 77 64
REMARK SMILES IDX 52 65 53 66 62 68 78 69 55 70 44 71 45 72 49 73 46 74 48 75
REMARK SMILES IDX 47 76 66 77 67 78 71 79 68 80 70 81 69 82 56 83 57 84 61 85
REMARK SMILES IDX 58 86 60 87 59 88
REMARK H PARENT 16 33 76 56 54 67
REMARK Flexibility Score: inf
ROOT
ATOM      1  O   UNL A   1      35.162  19.327  25.250  1.00  0.00    -0.374 OA
ENDROOT
BRANCH   1   2
ATOM      2  C   UNL A   1      34.005  18.995  24.490  1.00  0.00     0.202 C 
BRANCH   2   3
ATOM      3  C   UNL A   1      32.631  19.384  25.045  1.00  0.00     0.261 C 
BRANCH   3   4
ATOM      4  O   UNL A   1      32.175  20.654  24.555  1.00  0.00    -0.463 OA
BRANCH   4   5
ATOM      5  C   UNL A   1      32.596  21.714  25.282  1.00  0.00     0.309 C 
ATOM      6  O   UNL A   1      32.456  21.814  26.500  1.00  0.00    -0.252 OA
BRANCH   5   7
ATOM      7  C   UNL A   1      33.399  22.745  24.505  1.00  0.00     0.105 C 
ATOM      8  C   UNL A   1      32.314  30.097  27.007  1.00  0.00     0.179 C 
ATOM      9  C   UNL A   1      31.963  28.755  27.600  1.00  0.00     0.047 C 
ATOM     10  C   UNL A   1      31.485  30.208  25.708  1.00  0.00     0.081 C 
ATOM     11  C   UNL A   1      32.407  27.693  26.623  1.00  0.00     0.026 C 
ATOM     12  C   UNL A   1      31.593  29.015  24.700  1.00  0.00     0.085 C 
ATOM     13  C   UNL A   1      31.415  27.628  25.245  1.00  0.00     0.103 C 
ATOM     14  C   UNL A   1      33.035  28.973  24.041  1.00  0.00     0.041 C 
ATOM     15  C   UNL A   1      31.026  26.303  25.684  1.00  0.00     0.316 C 
ATOM     16  C   UNL A   1      31.678  26.728  23.720  1.00  0.00     0.054 C 
ATOM     17  C   UNL A   1      33.808  27.565  24.111  1.00  0.00     0.052 C 
ATOM     18  O   UNL A   1      30.071  25.898  26.307  1.00  0.00    -0.251 OA
ATOM     19  O   UNL A   1      32.272  25.656  25.446  1.00  0.00    -0.458 OA
ATOM     20  C   UNL A   1      32.936  26.226  24.248  1.00  0.00     0.120 C 
ATOM     21  C   UNL A   1      30.826  25.531  23.157  1.00  0.00     0.009 C 
ATOM     22  C   UNL A   1      33.701  25.058  23.677  1.00  0.00     0.040 C 
ATOM     23  C   UNL A   1      31.291  24.080  23.517  1.00  0.00     0.008 C 
ATOM     24  C   UNL A   1      32.828  23.783  23.456  1.00  0.00    -0.013 C 
ATOM     25  C   UNL A   1      34.784  24.666  24.709  1.00  0.00     0.009 C 
ATOM     26  C   UNL A   1      33.187  23.280  22.037  1.00  0.00     0.013 C 
ATOM     27  C   UNL A   1      34.160  23.571  25.540  1.00  0.00     0.016 C 
BRANCH   8  28
ATOM     28  O   UNL A   1      33.721  30.307  26.682  1.00  0.00    -0.462 OA
BRANCH  28  29
ATOM     29  C   UNL A   1      34.649  30.710  27.597  1.00  0.00     0.302 C 
ATOM     30  C   UNL A   1      35.863  29.826  27.558  1.00  0.00     0.139 C 
ATOM     31  O   UNL A   1      34.536  31.631  28.391  1.00  0.00    -0.253 OA
ENDBRANCH  28  29
ENDBRANCH   8  28
BRANCH  12  32
ATOM     32  O   UNL A   1      30.613  29.263  23.685  1.00  0.00    -0.389 OA
ATOM     33  H   UNL A   1      30.238  28.420  23.383  1.00  0.00     0.211 HD
ENDBRANCH  12  32
ENDBRANCH   5   7
ENDBRANCH   4   5
ENDBRANCH   3   4
ENDBRANCH   2   3
ENDBRANCH   1   2
BRANCH   1  34
ATOM     34  C   UNL A   1      36.060  20.306  24.731  1.00  0.00     0.202 C 
BRANCH  34  35
ATOM     35  C   UNL A   1      37.567  20.077  24.913  1.00  0.00     0.261 C 
BRANCH  35  36
ATOM     36  O   UNL A   1      38.281  21.274  25.267  1.00  0.00    -0.460 OA
BRANCH  36  37
ATOM     37  C   UNL A   1      39.308  21.071  26.127  1.00  0.00     0.338 C 
ATOM     38  O   UNL A   1      39.926  20.037  26.314  1.00  0.00    -0.246 OA
BRANCH  37  39
ATOM     39  C   UNL A   1      39.742  22.348  26.717  1.00  0.00     0.060 A 
ATOM     40  C   UNL A   1      39.143  23.518  26.230  1.00  0.00     0.016 A 
ATOM     41  C   UNL A   1      40.796  22.412  27.630  1.00  0.00     0.016 A 
ATOM     42  C   UNL A   1      39.633  24.761  26.612  1.00  0.00     0.010 A 
ATOM     43  C   UNL A   1      41.295  23.662  28.004  1.00  0.00     0.010 A 
ATOM     44  C   UNL A   1      40.742  24.838  27.464  1.00  0.00    -0.014 A 
BRANCH  44  45
ATOM     45  C   UNL A   1      41.415  26.144  27.649  1.00  0.00     0.031 A 
ATOM     46  C   UNL A   1      40.757  27.186  28.510  1.00  0.00     0.074 A 
ATOM     47  C   UNL A   1      42.622  26.374  27.105  1.00  0.00     0.049 A 
ATOM     48  N   UNL A   1      41.172  28.387  28.823  1.00  0.00    -0.248 NA
ATOM     49  C   UNL A   1      39.459  26.823  29.101  1.00  0.00     0.031 C 
ATOM     50  C   UNL A   1      43.382  25.418  26.300  1.00  0.00     0.029 A 
ATOM     51  N   UNL A   1      43.422  27.486  27.158  1.00  0.00    -0.354 N 
ATOM     52  C   UNL A   1      40.188  28.923  29.643  1.00  0.00     0.074 A 
ATOM     53  C   UNL A   1      39.139  27.932  29.752  1.00  0.00     0.031 C 
ATOM     54  C   UNL A   1      44.546  25.985  25.940  1.00  0.00     0.029 A 
ATOM     55  C   UNL A   1      44.595  27.350  26.458  1.00  0.00     0.049 A 
ATOM     56  H   UNL A   1      43.179  28.303  27.650  1.00  0.00     0.167 HD
ATOM     57  C   UNL A   1      40.161  30.130  30.258  1.00  0.00     0.031 A 
ATOM     58  C   UNL A   1      45.588  28.235  26.250  1.00  0.00     0.031 A 
ATOM     59  C   UNL A   1      41.194  31.122  30.129  1.00  0.00     0.049 A 
ATOM     60  C   UNL A   1      45.486  29.608  26.856  1.00  0.00     0.074 A 
ATOM     61  C   UNL A   1      41.268  32.375  30.711  1.00  0.00     0.029 A 
ATOM     62  N   UNL A   1      42.332  30.975  29.350  1.00  0.00    -0.354 N 
ATOM     63  N   UNL A   1      44.560  30.098  27.647  1.00  0.00    -0.248 NA
ATOM     64  C   UNL A   1      46.568  30.551  26.542  1.00  0.00     0.031 C 
ATOM     65  C   UNL A   1      42.422  33.009  30.238  1.00  0.00     0.029 A 
ATOM     66  C   UNL A   1      43.098  32.127  29.410  1.00  0.00     0.049 A 
ATOM     67  H   UNL A   1      42.563  30.170  28.832  1.00  0.00     0.167 HD
ATOM     68  C   UNL A   1      44.961  31.394  27.944  1.00  0.00     0.074 A 
ATOM     69  C   UNL A   1      46.220  31.609  27.261  1.00  0.00     0.031 C 
ATOM     70  C   UNL A   1      44.345  32.324  28.716  1.00  0.00     0.031 A 
BRANCH  57  71
ATOM     71  C   UNL A   1      38.952  30.450  31.092  1.00  0.00    -0.014 A 
ATOM     72  C   UNL A   1      38.913  30.159  32.465  1.00  0.00     0.009 A 
ATOM     73  C   UNL A   1      37.835  31.056  30.496  1.00  0.00     0.009 A 
ATOM     74  C   UNL A   1      37.765  30.431  33.214  1.00  0.00     0.001 A 
ATOM     75  C   UNL A   1      36.700  31.352  31.253  1.00  0.00     0.001 A 
ATOM     76  C   UNL A   1      36.662  31.029  32.609  1.00  0.00     0.000 A 
ENDBRANCH  57  71
BRANCH  58  77
ATOM     77  C   UNL A   1      46.762  27.856  25.422  1.00  0.00    -0.014 A 
ATOM     78  C   UNL A   1      47.916  27.329  26.020  1.00  0.00     0.009 A 
ATOM     79  C   UNL A   1      46.737  28.028  24.029  1.00  0.00     0.009 A 
ATOM     80  C   UNL A   1      49.030  27.002  25.242  1.00  0.00     0.001 A 
ATOM     81  C   UNL A   1      47.842  27.674  23.251  1.00  0.00     0.001 A 
ATOM     82  C   UNL A   1      48.989  27.169  23.859  1.00  0.00     0.000 A 
ENDBRANCH  58  77
BRANCH  70  83
ATOM     83  C   UNL A   1      45.040  33.645  28.884  1.00  0.00    -0.014 A 
ATOM     84  C   UNL A   1      45.997  33.844  29.891  1.00  0.00     0.009 A 
ATOM     85  C   UNL A   1      44.762  34.695  27.994  1.00  0.00     0.009 A 
ATOM     86  C   UNL A   1      46.636  35.078  30.023  1.00  0.00     0.001 A 
ATOM     87  C   UNL A   1      45.424  35.917  28.110  1.00  0.00     0.001 A 
ATOM     88  C   UNL A   1      46.353  36.111  29.130  1.00  0.00     0.000 A 
ENDBRANCH  70  83
ENDBRANCH  44  45
ENDBRANCH  37  39
ENDBRANCH  36  37
ENDBRANCH  35  36
ENDBRANCH  34  35
ENDBRANCH   1  34
TORSDOF 17
ENDMDL
