MODEL 1
REMARK VINA RESULT:      -9.8      0.000      0.000
REMARK SMILES C[C@@H](C(=O)OCCOCCOC(=O)c1ccc(-c2c3nc(c(-c4ccccc4)c4ccc([nH]4)c(-c4ccccc4)c4nc(c(-c5ccccc5)c5ccc2[nH]5)C=C4)C=C3)cc1)N1C(=O)/C(=C\c2ccc(OCc3ccccc3Cl)cc2)SC1=S
REMARK SMILES IDX 6 1 5 2 3 3 4 4 2 5 1 6 62 7 63 8 83 9 64 10 65 11 82 12
REMARK SMILES IDX 84 13 66 14 67 15 68 16 81 17 69 18 80 19 70 20 71 21 72 22
REMARK SMILES IDX 73 23 74 24 78 25 75 26 77 27 79 28 76 29 7 30 8 31 9 32
REMARK SMILES IDX 10 33 11 34 12 35 13 36 14 37 15 38 61 39 16 40 60 41 17 42
REMARK SMILES IDX 18 43 19 44 54 45 20 46 59 47 53 48 55 49 21 50 58 51 52 52
REMARK SMILES IDX 51 53 22 55 44 56 29 57 43 58 30 59 33 60 42 61 56 62 31 63
REMARK SMILES IDX 32 64 41 66 57 67 34 68 23 69 24 70 28 71 25 72 27 73 26 74
REMARK SMILES IDX 45 75 46 76 50 77 47 78 49 79 48 80 35 81 36 82 40 83 37 84
REMARK SMILES IDX 39 85 38 86
REMARK H PARENT 55 54 33 65
REMARK Flexibility Score: inf
ROOT
ATOM      1  C   UNL A   1      37.835  24.007  26.485  1.00  0.00     0.261 C 
ENDROOT
BRANCH   1   2
ATOM      2  O   UNL A   1      37.401  23.577  25.182  1.00  0.00    -0.462 OA
BRANCH   2   3
ATOM      3  C   UNL A   1      37.010  22.273  25.125  1.00  0.00     0.329 C 
ATOM      4  O   UNL A   1      37.517  21.384  25.800  1.00  0.00    -0.250 OA
BRANCH   3   5
ATOM      5  C   UNL A   1      35.883  22.035  24.096  1.00  0.00     0.199 C 
ATOM      6  C   UNL A   1      35.581  23.269  23.246  1.00  0.00     0.044 C 
BRANCH   5   7
ATOM      7  N   UNL A   1      34.755  21.426  24.855  1.00  0.00    -0.279 N 
ATOM      8  C   UNL A   1      33.817  22.346  25.332  1.00  0.00     0.266 C 
ATOM      9  C   UNL A   1      34.408  20.101  25.028  1.00  0.00     0.149 C 
ATOM     10  O   UNL A   1      34.010  23.548  25.461  1.00  0.00    -0.268 OA
ATOM     11  C   UNL A   1      32.546  21.653  25.670  1.00  0.00     0.081 C 
ATOM     12  S   UNL A   1      32.887  19.989  25.926  1.00  0.00    -0.054 SA
ATOM     13  S   UNL A   1      35.174  18.704  24.537  1.00  0.00    -0.052 S 
ATOM     14  C   UNL A   1      31.298  22.137  25.598  1.00  0.00     0.029 C 
BRANCH  14  15
ATOM     15  C   UNL A   1      30.963  23.445  25.032  1.00  0.00    -0.024 A 
ATOM     16  C   UNL A   1      30.909  23.651  23.655  1.00  0.00     0.012 A 
ATOM     17  C   UNL A   1      30.646  24.498  25.900  1.00  0.00     0.012 A 
ATOM     18  C   UNL A   1      30.474  24.881  23.157  1.00  0.00     0.047 A 
ATOM     19  C   UNL A   1      30.216  25.730  25.400  1.00  0.00     0.047 A 
ATOM     20  C   UNL A   1      30.076  25.903  24.024  1.00  0.00     0.119 A 
BRANCH  20  21
ATOM     21  O   UNL A   1      29.475  26.964  23.408  1.00  0.00    -0.489 OA
BRANCH  21  22
ATOM     22  C   UNL A   1      30.286  28.016  22.867  1.00  0.00     0.267 C 
BRANCH  22  23
ATOM     23  C   UNL A   1      31.404  28.551  23.755  1.00  0.00     0.008 A 
ATOM     24  C   UNL A   1      31.158  29.441  24.816  1.00  0.00     0.009 A 
ATOM     25  C   UNL A   1      32.730  28.108  23.584  1.00  0.00     0.047 A 
ATOM     26  C   UNL A   1      32.178  29.861  25.675  1.00  0.00     0.001 A 
ATOM     27  C   UNL A   1      33.755  28.540  24.437  1.00  0.00     0.021 A 
ATOM     28  Cl  UNL A   1      33.172  27.003  22.327  1.00  0.00    -0.084 Cl
ATOM     29  C   UNL A   1      33.477  29.410  25.488  1.00  0.00     0.002 A 
ENDBRANCH  22  23
ENDBRANCH  21  22
ENDBRANCH  20  21
ENDBRANCH  14  15
ENDBRANCH   5   7
ENDBRANCH   3   5
ENDBRANCH   2   3
ENDBRANCH   1   2
BRANCH   1  30
ATOM     30  C   UNL A   1      39.346  24.242  26.570  1.00  0.00     0.202 C 
BRANCH  30  31
ATOM     31  O   UNL A   1      40.041  23.584  27.626  1.00  0.00    -0.374 OA
BRANCH  31  32
ATOM     32  C   UNL A   1      40.335  22.197  27.457  1.00  0.00     0.202 C 
BRANCH  32  33
ATOM     33  C   UNL A   1      41.102  21.814  26.190  1.00  0.00     0.261 C 
BRANCH  33  34
ATOM     34  O   UNL A   1      42.495  21.584  26.477  1.00  0.00    -0.460 OA
BRANCH  34  35
ATOM     35  C   UNL A   1      43.352  22.104  25.569  1.00  0.00     0.338 C 
ATOM     36  O   UNL A   1      43.642  21.642  24.473  1.00  0.00    -0.246 OA
BRANCH  35  37
ATOM     37  C   UNL A   1      43.778  23.452  25.987  1.00  0.00     0.060 A 
ATOM     38  C   UNL A   1      44.136  23.622  27.331  1.00  0.00     0.016 A 
ATOM     39  C   UNL A   1      43.764  24.542  25.114  1.00  0.00     0.016 A 
ATOM     40  C   UNL A   1      44.407  24.894  27.826  1.00  0.00     0.010 A 
ATOM     41  C   UNL A   1      44.029  25.821  25.614  1.00  0.00     0.010 A 
ATOM     42  C   UNL A   1      44.308  26.006  26.981  1.00  0.00    -0.014 A 
BRANCH  42  43
ATOM     43  C   UNL A   1      44.319  27.366  27.572  1.00  0.00     0.031 A 
ATOM     44  C   UNL A   1      43.021  27.959  28.051  1.00  0.00     0.074 A 
ATOM     45  C   UNL A   1      45.468  28.044  27.728  1.00  0.00     0.049 A 
ATOM     46  N   UNL A   1      42.794  29.128  28.593  1.00  0.00    -0.248 NA
ATOM     47  C   UNL A   1      41.820  27.120  27.901  1.00  0.00     0.031 C 
ATOM     48  C   UNL A   1      46.796  27.559  27.353  1.00  0.00     0.029 A 
ATOM     49  N   UNL A   1      45.697  29.293  28.248  1.00  0.00    -0.354 N 
ATOM     50  C   UNL A   1      41.428  29.166  28.844  1.00  0.00     0.074 A 
ATOM     51  C   UNL A   1      40.873  27.918  28.368  1.00  0.00     0.031 C 
ATOM     52  C   UNL A   1      47.702  28.506  27.650  1.00  0.00     0.029 A 
ATOM     53  C   UNL A   1      47.017  29.670  28.205  1.00  0.00     0.049 A 
ATOM     54  H   UNL A   1      44.985  29.863  28.615  1.00  0.00     0.167 HD
ATOM     55  C   UNL A   1      40.700  30.149  29.426  1.00  0.00     0.031 A 
ATOM     56  C   UNL A   1      47.600  30.833  28.557  1.00  0.00     0.031 A 
ATOM     57  C   UNL A   1      41.245  31.397  29.886  1.00  0.00     0.049 A 
ATOM     58  C   UNL A   1      46.758  31.943  29.125  1.00  0.00     0.074 A 
ATOM     59  C   UNL A   1      40.589  32.453  30.492  1.00  0.00     0.029 A 
ATOM     60  N   UNL A   1      42.579  31.758  29.783  1.00  0.00    -0.354 N 
ATOM     61  N   UNL A   1      45.470  31.960  29.373  1.00  0.00    -0.248 NA
ATOM     62  C   UNL A   1      47.453  33.192  29.470  1.00  0.00     0.031 C 
ATOM     63  C   UNL A   1      41.518  33.477  30.710  1.00  0.00     0.029 A 
ATOM     64  C   UNL A   1      42.761  33.034  30.290  1.00  0.00     0.049 A 
ATOM     65  H   UNL A   1      43.290  31.193  29.405  1.00  0.00     0.167 HD
ATOM     66  C   UNL A   1      45.206  33.208  29.924  1.00  0.00     0.074 A 
ATOM     67  C   UNL A   1      46.469  33.914  29.988  1.00  0.00     0.031 C 
ATOM     68  C   UNL A   1      44.025  33.724  30.343  1.00  0.00     0.031 A 
BRANCH  55  69
ATOM     69  C   UNL A   1      39.220  29.920  29.563  1.00  0.00    -0.014 A 
ATOM     70  C   UNL A   1      38.333  30.245  28.524  1.00  0.00     0.009 A 
ATOM     71  C   UNL A   1      38.711  29.350  30.739  1.00  0.00     0.009 A 
ATOM     72  C   UNL A   1      36.961  30.035  28.675  1.00  0.00     0.001 A 
ATOM     73  C   UNL A   1      37.342  29.116  30.877  1.00  0.00     0.001 A 
ATOM     74  C   UNL A   1      36.468  29.467  29.849  1.00  0.00     0.000 A 
ENDBRANCH  55  69
BRANCH  56  75
ATOM     75  C   UNL A   1      49.061  31.018  28.359  1.00  0.00    -0.014 A 
ATOM     76  C   UNL A   1      49.563  31.534  27.155  1.00  0.00     0.009 A 
ATOM     77  C   UNL A   1      49.963  30.664  29.375  1.00  0.00     0.009 A 
ATOM     78  C   UNL A   1      50.941  31.670  26.964  1.00  0.00     0.001 A 
ATOM     79  C   UNL A   1      51.337  30.827  29.193  1.00  0.00     0.001 A 
ATOM     80  C   UNL A   1      51.825  31.321  27.985  1.00  0.00     0.000 A 
ENDBRANCH  56  75
BRANCH  68  81
ATOM     81  C   UNL A   1      44.046  35.104  30.937  1.00  0.00    -0.014 A 
ATOM     82  C   UNL A   1      43.902  36.246  30.134  1.00  0.00     0.009 A 
ATOM     83  C   UNL A   1      44.167  35.259  32.327  1.00  0.00     0.009 A 
ATOM     84  C   UNL A   1      43.912  37.518  30.710  1.00  0.00     0.001 A 
ATOM     85  C   UNL A   1      44.149  36.531  32.902  1.00  0.00     0.001 A 
ATOM     86  C   UNL A   1      44.031  37.659  32.092  1.00  0.00     0.000 A 
ENDBRANCH  68  81
ENDBRANCH  42  43
ENDBRANCH  35  37
ENDBRANCH  34  35
ENDBRANCH  33  34
ENDBRANCH  32  33
ENDBRANCH  31  32
ENDBRANCH  30  31
ENDBRANCH   1  30
TORSDOF 19
ENDMDL
MODEL 2
REMARK VINA RESULT:      -9.6      0.831      5.677
REMARK SMILES C[C@@H](C(=O)OCCOCCOC(=O)c1ccc(-c2c3nc(c(-c4ccccc4)c4ccc([nH]4)c(-c4ccccc4)c4nc(c(-c5ccccc5)c5ccc2[nH]5)C=C4)C=C3)cc1)N1C(=O)/C(=C\c2ccc(OCc3ccccc3Cl)cc2)SC1=S
REMARK SMILES IDX 6 1 5 2 3 3 4 4 2 5 1 6 62 7 63 8 83 9 64 10 65 11 82 12
REMARK SMILES IDX 84 13 66 14 67 15 68 16 81 17 69 18 80 19 70 20 71 21 72 22
REMARK SMILES IDX 73 23 74 24 78 25 75 26 77 27 79 28 76 29 7 30 8 31 9 32
REMARK SMILES IDX 10 33 11 34 12 35 13 36 14 37 15 38 61 39 16 40 60 41 17 42
REMARK SMILES IDX 18 43 19 44 54 45 20 46 59 47 53 48 55 49 21 50 58 51 52 52
REMARK SMILES IDX 51 53 22 55 44 56 29 57 43 58 30 59 33 60 42 61 56 62 31 63
REMARK SMILES IDX 32 64 41 66 57 67 34 68 23 69 24 70 28 71 25 72 27 73 26 74
REMARK SMILES IDX 45 75 46 76 50 77 47 78 49 79 48 80 35 81 36 82 40 83 37 84
REMARK SMILES IDX 39 85 38 86
REMARK H PARENT 55 54 33 65
REMARK Flexibility Score: inf
ROOT
ATOM      1  C   UNL A   1      38.133  23.794  26.436  1.00  0.00     0.261 C 
ENDROOT
BRANCH   1   2
ATOM      2  O   UNL A   1      37.549  23.459  25.164  1.00  0.00    -0.462 OA
BRANCH   2   3
ATOM      3  C   UNL A   1      37.085  22.181  25.082  1.00  0.00     0.329 C 
ATOM      4  O   UNL A   1      37.569  21.242  25.705  1.00  0.00    -0.250 OA
BRANCH   3   5
ATOM      5  C   UNL A   1      35.907  22.038  24.093  1.00  0.00     0.199 C 
ATOM      6  C   UNL A   1      35.592  23.336  23.349  1.00  0.00     0.044 C 
BRANCH   5   7
ATOM      7  N   UNL A   1      34.802  21.396  24.859  1.00  0.00    -0.279 N 
ATOM      8  C   UNL A   1      33.861  22.292  25.374  1.00  0.00     0.266 C 
ATOM      9  C   UNL A   1      34.478  20.063  25.010  1.00  0.00     0.149 C 
ATOM     10  O   UNL A   1      34.039  23.493  25.526  1.00  0.00    -0.268 OA
ATOM     11  C   UNL A   1      32.606  21.573  25.721  1.00  0.00     0.081 C 
ATOM     12  S   UNL A   1      32.975  19.909  25.933  1.00  0.00    -0.054 SA
ATOM     13  S   UNL A   1      35.254  18.688  24.474  1.00  0.00    -0.052 S 
ATOM     14  C   UNL A   1      31.350  22.040  25.683  1.00  0.00     0.029 C 
BRANCH  14  15
ATOM     15  C   UNL A   1      30.986  23.355  25.152  1.00  0.00    -0.024 A 
ATOM     16  C   UNL A   1      30.870  23.581  23.783  1.00  0.00     0.012 A 
ATOM     17  C   UNL A   1      30.703  24.393  26.050  1.00  0.00     0.012 A 
ATOM     18  C   UNL A   1      30.409  24.817  23.323  1.00  0.00     0.047 A 
ATOM     19  C   UNL A   1      30.247  25.631  25.587  1.00  0.00     0.047 A 
ATOM     20  C   UNL A   1      30.046  25.824  24.222  1.00  0.00     0.119 A 
BRANCH  20  21
ATOM     21  O   UNL A   1      29.414  26.891  23.649  1.00  0.00    -0.489 OA
BRANCH  21  22
ATOM     22  C   UNL A   1      30.016  28.192  23.729  1.00  0.00     0.267 C 
BRANCH  22  23
ATOM     23  C   UNL A   1      31.534  28.258  23.610  1.00  0.00     0.008 A 
ATOM     24  C   UNL A   1      32.205  27.974  22.407  1.00  0.00     0.009 A 
ATOM     25  C   UNL A   1      32.321  28.682  24.698  1.00  0.00     0.047 A 
ATOM     26  C   UNL A   1      33.590  28.117  22.286  1.00  0.00     0.001 A 
ATOM     27  C   UNL A   1      33.712  28.812  24.581  1.00  0.00     0.021 A 
ATOM     28  Cl  UNL A   1      31.625  29.077  26.233  1.00  0.00    -0.084 Cl
ATOM     29  C   UNL A   1      34.345  28.537  23.372  1.00  0.00     0.002 A 
ENDBRANCH  22  23
ENDBRANCH  21  22
ENDBRANCH  20  21
ENDBRANCH  14  15
ENDBRANCH   5   7
ENDBRANCH   3   5
ENDBRANCH   2   3
ENDBRANCH   1   2
BRANCH   1  30
ATOM     30  C   UNL A   1      39.660  23.676  26.447  1.00  0.00     0.202 C 
BRANCH  30  31
ATOM     31  O   UNL A   1      40.252  23.087  27.602  1.00  0.00    -0.374 OA
BRANCH  31  32
ATOM     32  C   UNL A   1      40.548  21.692  27.551  1.00  0.00     0.202 C 
BRANCH  32  33
ATOM     33  C   UNL A   1      41.203  21.183  26.265  1.00  0.00     0.261 C 
BRANCH  33  34
ATOM     34  O   UNL A   1      42.587  20.845  26.486  1.00  0.00    -0.460 OA
BRANCH  34  35
ATOM     35  C   UNL A   1      43.450  21.392  25.600  1.00  0.00     0.338 C 
ATOM     36  O   UNL A   1      43.808  20.922  24.527  1.00  0.00    -0.246 OA
BRANCH  35  37
ATOM     37  C   UNL A   1      43.785  22.770  26.000  1.00  0.00     0.060 A 
ATOM     38  C   UNL A   1      44.166  22.975  27.332  1.00  0.00     0.016 A 
ATOM     39  C   UNL A   1      43.662  23.852  25.123  1.00  0.00     0.016 A 
ATOM     40  C   UNL A   1      44.355  24.266  27.815  1.00  0.00     0.010 A 
ATOM     41  C   UNL A   1      43.844  25.150  25.611  1.00  0.00     0.010 A 
ATOM     42  C   UNL A   1      44.147  25.363  26.969  1.00  0.00    -0.014 A 
BRANCH  42  43
ATOM     43  C   UNL A   1      44.073  26.723  27.555  1.00  0.00     0.031 A 
ATOM     44  C   UNL A   1      45.348  27.503  27.741  1.00  0.00     0.074 A 
ATOM     45  C   UNL A   1      42.891  27.278  27.870  1.00  0.00     0.049 A 
ATOM     46  N   UNL A   1      45.521  28.701  28.237  1.00  0.00    -0.248 NA
ATOM     47  C   UNL A   1      46.590  26.843  27.307  1.00  0.00     0.031 C 
ATOM     48  C   UNL A   1      41.584  26.648  27.690  1.00  0.00     0.029 A 
ATOM     49  N   UNL A   1      42.604  28.506  28.411  1.00  0.00    -0.354 N 
ATOM     50  C   UNL A   1      46.889  28.937  28.178  1.00  0.00     0.074 A 
ATOM     51  C   UNL A   1      47.503  27.747  27.629  1.00  0.00     0.031 C 
ATOM     52  C   UNL A   1      40.632  27.494  28.121  1.00  0.00     0.029 A 
ATOM     53  C   UNL A   1      41.264  28.707  28.633  1.00  0.00     0.049 A 
ATOM     54  H   UNL A   1      43.293  29.177  28.620  1.00  0.00     0.167 HD
ATOM     55  C   UNL A   1      47.575  30.046  28.542  1.00  0.00     0.031 A 
ATOM     56  C   UNL A   1      40.624  29.747  29.203  1.00  0.00     0.031 A 
ATOM     57  C   UNL A   1      46.970  31.224  29.103  1.00  0.00     0.049 A 
ATOM     58  C   UNL A   1      41.416  30.936  29.676  1.00  0.00     0.074 A 
ATOM     59  C   UNL A   1      47.581  32.401  29.499  1.00  0.00     0.029 A 
ATOM     60  N   UNL A   1      45.616  31.370  29.354  1.00  0.00    -0.354 N 
ATOM     61  N   UNL A   1      42.707  31.153  29.599  1.00  0.00    -0.248 NA
ATOM     62  C   UNL A   1      40.659  32.027  30.307  1.00  0.00     0.031 C 
ATOM     63  C   UNL A   1      46.600  33.241  30.039  1.00  0.00     0.029 A 
ATOM     64  C   UNL A   1      45.373  32.608  29.925  1.00  0.00     0.049 A 
ATOM     65  H   UNL A   1      44.928  30.695  29.155  1.00  0.00     0.167 HD
ATOM     66  C   UNL A   1      42.913  32.413  30.148  1.00  0.00     0.074 A 
ATOM     67  C   UNL A   1      41.613  32.918  30.541  1.00  0.00     0.031 C 
ATOM     68  C   UNL A   1      44.073  33.094  30.312  1.00  0.00     0.031 A 
BRANCH  55  69
ATOM     69  C   UNL A   1      49.068  30.018  28.375  1.00  0.00    -0.014 A 
ATOM     70  C   UNL A   1      49.680  30.500  27.206  1.00  0.00     0.009 A 
ATOM     71  C   UNL A   1      49.875  29.524  29.411  1.00  0.00     0.009 A 
ATOM     72  C   UNL A   1      51.068  30.455  27.066  1.00  0.00     0.001 A 
ATOM     73  C   UNL A   1      51.265  29.505  29.279  1.00  0.00     0.001 A 
ATOM     74  C   UNL A   1      51.859  29.962  28.103  1.00  0.00     0.000 A 
ENDBRANCH  55  69
BRANCH  56  75
ATOM     75  C   UNL A   1      39.150  29.701  29.382  1.00  0.00    -0.014 A 
ATOM     76  C   UNL A   1      38.586  29.262  30.589  1.00  0.00     0.009 A 
ATOM     77  C   UNL A   1      38.298  30.086  28.334  1.00  0.00     0.009 A 
ATOM     78  C   UNL A   1      37.198  29.187  30.735  1.00  0.00     0.001 A 
ATOM     79  C   UNL A   1      36.912  30.036  28.492  1.00  0.00     0.001 A 
ATOM     80  C   UNL A   1      36.363  29.579  29.688  1.00  0.00     0.000 A 
ENDBRANCH  56  75
BRANCH  68  81
ATOM     81  C   UNL A   1      43.988  34.470  30.910  1.00  0.00    -0.014 A 
ATOM     82  C   UNL A   1      44.034  34.665  32.299  1.00  0.00     0.009 A 
ATOM     83  C   UNL A   1      43.906  35.589  30.067  1.00  0.00     0.009 A 
ATOM     84  C   UNL A   1      43.966  35.954  32.832  1.00  0.00     0.001 A 
ATOM     85  C   UNL A   1      43.866  36.878  30.602  1.00  0.00     0.001 A 
ATOM     86  C   UNL A   1      43.888  37.058  31.984  1.00  0.00     0.000 A 
ENDBRANCH  68  81
ENDBRANCH  42  43
ENDBRANCH  35  37
ENDBRANCH  34  35
ENDBRANCH  33  34
ENDBRANCH  32  33
ENDBRANCH  31  32
ENDBRANCH  30  31
ENDBRANCH   1  30
TORSDOF 19
ENDMDL
MODEL 3
REMARK VINA RESULT:      -9.2      5.739     10.601
REMARK SMILES C[C@@H](C(=O)OCCOCCOC(=O)c1ccc(-c2c3nc(c(-c4ccccc4)c4ccc([nH]4)c(-c4ccccc4)c4nc(c(-c5ccccc5)c5ccc2[nH]5)C=C4)C=C3)cc1)N1C(=O)/C(=C\c2ccc(OCc3ccccc3Cl)cc2)SC1=S
REMARK SMILES IDX 6 1 5 2 3 3 4 4 2 5 1 6 62 7 63 8 83 9 64 10 65 11 82 12
REMARK SMILES IDX 84 13 66 14 67 15 68 16 81 17 69 18 80 19 70 20 71 21 72 22
REMARK SMILES IDX 73 23 74 24 78 25 75 26 77 27 79 28 76 29 7 30 8 31 9 32
REMARK SMILES IDX 10 33 11 34 12 35 13 36 14 37 15 38 61 39 16 40 60 41 17 42
REMARK SMILES IDX 18 43 19 44 54 45 20 46 59 47 53 48 55 49 21 50 58 51 52 52
REMARK SMILES IDX 51 53 22 55 44 56 29 57 43 58 30 59 33 60 42 61 56 62 31 63
REMARK SMILES IDX 32 64 41 66 57 67 34 68 23 69 24 70 28 71 25 72 27 73 26 74
REMARK SMILES IDX 45 75 46 76 50 77 47 78 49 79 48 80 35 81 36 82 40 83 37 84
REMARK SMILES IDX 39 85 38 86
REMARK H PARENT 55 54 33 65
REMARK Flexibility Score: inf
ROOT
ATOM      1  C   UNL A   1      50.044  26.865  29.539  1.00  0.00     0.261 C 
ENDROOT
BRANCH   1   2
ATOM      2  O   UNL A   1      49.178  26.266  28.558  1.00  0.00    -0.462 OA
BRANCH   2   3
ATOM      3  C   UNL A   1      49.665  25.118  28.010  1.00  0.00     0.329 C 
ATOM      4  O   UNL A   1      49.820  24.078  28.641  1.00  0.00    -0.250 OA
BRANCH   3   5
ATOM      5  C   UNL A   1      50.031  25.280  26.518  1.00  0.00     0.199 C 
ATOM      6  C   UNL A   1      51.503  25.631  26.298  1.00  0.00     0.044 C 
BRANCH   5   7
ATOM      7  N   UNL A   1      49.009  26.198  25.941  1.00  0.00    -0.279 N 
ATOM      8  C   UNL A   1      47.778  25.593  25.671  1.00  0.00     0.266 C 
ATOM      9  C   UNL A   1      49.033  27.568  25.775  1.00  0.00     0.149 C 
ATOM     10  O   UNL A   1      47.592  24.389  25.561  1.00  0.00    -0.268 OA
ATOM     11  C   UNL A   1      46.720  26.629  25.528  1.00  0.00     0.081 C 
ATOM     12  S   UNL A   1      47.474  28.125  25.148  1.00  0.00    -0.054 SA
ATOM     13  S   UNL A   1      50.241  28.677  26.067  1.00  0.00    -0.052 S 
ATOM     14  C   UNL A   1      45.419  26.527  25.834  1.00  0.00     0.029 C 
BRANCH  14  15
ATOM     15  C   UNL A   1      44.828  25.367  26.504  1.00  0.00    -0.024 A 
ATOM     16  C   UNL A   1      44.519  25.389  27.862  1.00  0.00     0.012 A 
ATOM     17  C   UNL A   1      44.528  24.228  25.746  1.00  0.00     0.012 A 
ATOM     18  C   UNL A   1      43.852  24.305  28.436  1.00  0.00     0.047 A 
ATOM     19  C   UNL A   1      43.865  23.141  26.324  1.00  0.00     0.047 A 
ATOM     20  C   UNL A   1      43.476  23.204  27.660  1.00  0.00     0.119 A 
BRANCH  20  21
ATOM     21  O   UNL A   1      42.649  22.322  28.296  1.00  0.00    -0.489 OA
BRANCH  21  22
ATOM     22  C   UNL A   1      41.850  21.420  27.517  1.00  0.00     0.267 C 
BRANCH  22  23
ATOM     23  C   UNL A   1      40.487  21.926  27.059  1.00  0.00     0.008 A 
ATOM     24  C   UNL A   1      40.020  23.215  27.375  1.00  0.00     0.009 A 
ATOM     25  C   UNL A   1      39.669  21.135  26.230  1.00  0.00     0.047 A 
ATOM     26  C   UNL A   1      38.805  23.699  26.882  1.00  0.00     0.001 A 
ATOM     27  C   UNL A   1      38.444  21.615  25.747  1.00  0.00     0.021 A 
ATOM     28  Cl  UNL A   1      40.126  19.535  25.751  1.00  0.00    -0.084 Cl
ATOM     29  C   UNL A   1      38.016  22.901  26.066  1.00  0.00     0.002 A 
ENDBRANCH  22  23
ENDBRANCH  21  22
ENDBRANCH  20  21
ENDBRANCH  14  15
ENDBRANCH   5   7
ENDBRANCH   3   5
ENDBRANCH   2   3
ENDBRANCH   1   2
BRANCH   1  30
ATOM     30  C   UNL A   1      49.553  26.670  30.976  1.00  0.00     0.202 C 
BRANCH  30  31
ATOM     31  O   UNL A   1      48.571  25.660  31.189  1.00  0.00    -0.374 OA
BRANCH  31  32
ATOM     32  C   UNL A   1      47.602  25.890  32.212  1.00  0.00     0.202 C 
BRANCH  32  33
ATOM     33  C   UNL A   1      47.804  25.128  33.524  1.00  0.00     0.261 C 
BRANCH  33  34
ATOM     34  O   UNL A   1      47.980  26.036  34.629  1.00  0.00    -0.460 OA
BRANCH  34  35
ATOM     35  C   UNL A   1      47.023  25.958  35.582  1.00  0.00     0.338 C 
ATOM     36  O   UNL A   1      47.112  25.427  36.681  1.00  0.00    -0.246 OA
BRANCH  35  37
ATOM     37  C   UNL A   1      45.864  26.789  35.207  1.00  0.00     0.060 A 
ATOM     38  C   UNL A   1      44.608  26.168  35.201  1.00  0.00     0.016 A 
ATOM     39  C   UNL A   1      46.001  28.119  34.801  1.00  0.00     0.016 A 
ATOM     40  C   UNL A   1      43.495  26.850  34.719  1.00  0.00     0.010 A 
ATOM     41  C   UNL A   1      44.882  28.800  34.309  1.00  0.00     0.010 A 
ATOM     42  C   UNL A   1      43.635  28.153  34.225  1.00  0.00    -0.014 A 
BRANCH  42  43
ATOM     43  C   UNL A   1      42.519  28.760  33.462  1.00  0.00     0.031 A 
ATOM     44  C   UNL A   1      41.557  29.666  34.183  1.00  0.00     0.074 A 
ATOM     45  C   UNL A   1      42.389  28.552  32.141  1.00  0.00     0.049 A 
ATOM     46  N   UNL A   1      40.509  30.299  33.720  1.00  0.00    -0.248 NA
ATOM     47  C   UNL A   1      41.813  29.890  35.615  1.00  0.00     0.031 C 
ATOM     48  C   UNL A   1      43.283  27.739  31.319  1.00  0.00     0.029 A 
ATOM     49  N   UNL A   1      41.445  29.015  31.259  1.00  0.00    -0.354 N 
ATOM     50  C   UNL A   1      39.980  30.990  34.802  1.00  0.00     0.074 A 
ATOM     51  C   UNL A   1      40.802  30.677  35.951  1.00  0.00     0.031 C 
ATOM     52  C   UNL A   1      42.839  27.755  30.050  1.00  0.00     0.029 A 
ATOM     53  C   UNL A   1      41.617  28.552  29.978  1.00  0.00     0.049 A 
ATOM     54  H   UNL A   1      40.715  29.621  31.520  1.00  0.00     0.167 HD
ATOM     55  C   UNL A   1      38.910  31.820  34.838  1.00  0.00     0.031 A 
ATOM     56  C   UNL A   1      40.862  28.736  28.878  1.00  0.00     0.031 A 
ATOM     57  C   UNL A   1      38.082  32.122  33.702  1.00  0.00     0.049 A 
ATOM     58  C   UNL A   1      39.630  29.595  28.960  1.00  0.00     0.074 A 
ATOM     59  C   UNL A   1      36.977  32.954  33.638  1.00  0.00     0.029 A 
ATOM     60  N   UNL A   1      38.263  31.596  32.434  1.00  0.00    -0.354 N 
ATOM     61  N   UNL A   1      39.150  30.258  29.986  1.00  0.00    -0.248 NA
ATOM     62  C   UNL A   1      38.839  29.739  27.729  1.00  0.00     0.031 C 
ATOM     63  C   UNL A   1      36.459  32.891  32.339  1.00  0.00     0.029 A 
ATOM     64  C   UNL A   1      37.275  32.065  31.584  1.00  0.00     0.049 A 
ATOM     65  H   UNL A   1      38.987  30.981  32.175  1.00  0.00     0.167 HD
ATOM     66  C   UNL A   1      38.018  30.914  29.519  1.00  0.00     0.074 A 
ATOM     67  C   UNL A   1      37.891  30.583  28.114  1.00  0.00     0.031 C 
ATOM     68  C   UNL A   1      37.162  31.722  30.189  1.00  0.00     0.031 A 
BRANCH  55  69
ATOM     69  C   UNL A   1      38.557  32.431  36.165  1.00  0.00    -0.014 A 
ATOM     70  C   UNL A   1      37.681  31.787  37.054  1.00  0.00     0.009 A 
ATOM     71  C   UNL A   1      39.126  33.658  36.539  1.00  0.00     0.009 A 
ATOM     72  C   UNL A   1      37.358  32.377  38.278  1.00  0.00     0.001 A 
ATOM     73  C   UNL A   1      38.821  34.232  37.774  1.00  0.00     0.001 A 
ATOM     74  C   UNL A   1      37.931  33.596  38.638  1.00  0.00     0.000 A 
ENDBRANCH  55  69
BRANCH  56  75
ATOM     75  C   UNL A   1      41.236  28.072  27.603  1.00  0.00    -0.014 A 
ATOM     76  C   UNL A   1      41.974  28.757  26.626  1.00  0.00     0.009 A 
ATOM     77  C   UNL A   1      40.842  26.748  27.352  1.00  0.00     0.009 A 
ATOM     78  C   UNL A   1      42.289  28.136  25.414  1.00  0.00     0.001 A 
ATOM     79  C   UNL A   1      41.181  26.121  26.153  1.00  0.00     0.001 A 
ATOM     80  C   UNL A   1      41.897  26.817  25.181  1.00  0.00     0.000 A 
ENDBRANCH  56  75
BRANCH  68  81
ATOM     81  C   UNL A   1      36.031  32.330  29.408  1.00  0.00    -0.014 A 
ATOM     82  C   UNL A   1      34.882  31.588  29.091  1.00  0.00     0.009 A 
ATOM     83  C   UNL A   1      36.099  33.678  29.023  1.00  0.00     0.009 A 
ATOM     84  C   UNL A   1      33.838  32.179  28.375  1.00  0.00     0.001 A 
ATOM     85  C   UNL A   1      35.042  34.272  28.331  1.00  0.00     0.001 A 
ATOM     86  C   UNL A   1      33.917  33.519  28.001  1.00  0.00     0.000 A 
ENDBRANCH  68  81
ENDBRANCH  42  43
ENDBRANCH  35  37
ENDBRANCH  34  35
ENDBRANCH  33  34
ENDBRANCH  32  33
ENDBRANCH  31  32
ENDBRANCH  30  31
ENDBRANCH   1  30
TORSDOF 19
ENDMDL
