MODEL 1
REMARK VINA RESULT:     -10.5      0.000      0.000
REMARK SMILES CCn1nc(C(C)C)cc1C(=O)N1CCCC[C@@H]1C(=O)OCCOCCOC(=O)c1ccc(-c2c3nc(c(-c4ccccc4)c4ccc([nH]4)c(-c4ccccc4)c4nc(c(-c5ccccc5)c5ccc2[nH]5)C=C4)C=C3)cc1
REMARK SMILES IDX 23 1 22 2 21 3 19 4 20 5 18 6 13 7 14 8 15 9 17 10 16 11
REMARK SMILES IDX 11 12 12 13 10 14 3 15 4 16 5 17 9 18 2 19 1 20 6 21 7 22
REMARK SMILES IDX 8 23 24 24 25 25 26 26 27 27 28 28 29 29 30 30 31 31 77 32
REMARK SMILES IDX 32 33 76 34 33 35 34 36 35 37 70 38 36 39 75 40 69 41 71 42
REMARK SMILES IDX 37 43 74 44 68 45 67 46 38 48 60 49 45 50 59 51 46 52 49 53
REMARK SMILES IDX 58 54 72 55 47 56 48 57 57 59 73 60 50 61 39 62 40 63 44 64
REMARK SMILES IDX 41 65 43 66 42 67 61 68 62 69 66 70 63 71 65 72 64 73 51 74
REMARK SMILES IDX 52 75 56 76 53 77 55 78 54 79
REMARK H PARENT 71 47 49 58
REMARK Flexibility Score: inf
ROOT
ATOM      1  C   UNL A   1      39.612  21.843  26.278  1.00  0.00     0.202 C 
ENDROOT
BRANCH   1   2
ATOM      2  C   UNL A   1      38.341  21.312  25.615  1.00  0.00     0.261 C 
BRANCH   2   3
ATOM      3  O   UNL A   1      37.633  22.301  24.860  1.00  0.00    -0.462 OA
BRANCH   3   4
ATOM      4  C   UNL A   1      36.766  23.044  25.600  1.00  0.00     0.328 C 
ATOM      5  O   UNL A   1      37.027  24.123  26.122  1.00  0.00    -0.250 OA
BRANCH   4   6
ATOM      6  C   UNL A   1      35.399  22.375  25.710  1.00  0.00     0.195 C 
ATOM      7  N   UNL A   1      34.439  22.602  24.611  1.00  0.00    -0.323 N 
ATOM      8  C   UNL A   1      33.192  21.859  24.729  1.00  0.00     0.121 C 
ATOM      9  C   UNL A   1      32.520  22.074  26.082  1.00  0.00     0.022 C 
ATOM     10  C   UNL A   1      34.754  22.579  27.096  1.00  0.00     0.037 C 
ATOM     11  C   UNL A   1      33.477  21.748  27.225  1.00  0.00     0.005 C 
BRANCH   7  12
ATOM     12  C   UNL A   1      34.446  23.756  23.815  1.00  0.00     0.272 C 
ATOM     13  O   UNL A   1      35.143  23.815  22.805  1.00  0.00    -0.267 OA
BRANCH  12  14
ATOM     14  C   UNL A   1      33.706  24.887  24.341  1.00  0.00     0.126 A 
ATOM     15  N   UNL A   1      32.382  25.224  24.164  1.00  0.00    -0.260 N 
ATOM     16  N   UNL A   1      31.985  26.238  24.980  1.00  0.00    -0.177 NA
ATOM     17  C   UNL A   1      33.105  26.661  25.570  1.00  0.00     0.066 A 
ATOM     18  C   UNL A   1      34.213  25.931  25.104  1.00  0.00     0.059 A 
BRANCH  15  19
ATOM     19  C   UNL A   1      31.391  24.756  23.212  1.00  0.00     0.142 C 
ATOM     20  C   UNL A   1      29.924  25.018  23.497  1.00  0.00     0.029 C 
ENDBRANCH  15  19
BRANCH  17  21
ATOM     21  C   UNL A   1      33.120  27.751  26.606  1.00  0.00     0.034 C 
ATOM     22  C   UNL A   1      34.404  28.574  26.531  1.00  0.00     0.014 C 
ATOM     23  C   UNL A   1      31.891  28.661  26.552  1.00  0.00     0.014 C 
ENDBRANCH  17  21
ENDBRANCH  12  14
ENDBRANCH   7  12
ENDBRANCH   4   6
ENDBRANCH   3   4
ENDBRANCH   2   3
ENDBRANCH   1   2
BRANCH   1  24
ATOM     24  O   UNL A   1      40.876  21.249  25.984  1.00  0.00    -0.374 OA
BRANCH  24  25
ATOM     25  C   UNL A   1      41.115  19.852  26.126  1.00  0.00     0.202 C 
BRANCH  25  26
ATOM     26  C   UNL A   1      42.521  19.313  25.933  1.00  0.00     0.261 C 
BRANCH  26  27
ATOM     27  O   UNL A   1      43.410  20.391  25.699  1.00  0.00    -0.460 OA
BRANCH  27  28
ATOM     28  C   UNL A   1      44.164  20.240  24.593  1.00  0.00     0.338 C 
ATOM     29  O   UNL A   1      44.284  19.222  23.913  1.00  0.00    -0.246 OA
BRANCH  28  30
ATOM     30  C   UNL A   1      44.911  21.489  24.351  1.00  0.00     0.060 A 
ATOM     31  C   UNL A   1      45.961  21.642  25.254  1.00  0.00     0.016 A 
ATOM     32  C   UNL A   1      44.149  22.572  23.904  1.00  0.00     0.016 A 
ATOM     33  C   UNL A   1      45.888  22.720  26.098  1.00  0.00     0.010 A 
ATOM     34  C   UNL A   1      44.056  23.635  24.756  1.00  0.00     0.010 A 
ATOM     35  C   UNL A   1      44.841  23.626  25.909  1.00  0.00    -0.014 A 
BRANCH  35  36
ATOM     36  C   UNL A   1      44.682  24.715  26.839  1.00  0.00     0.031 A 
ATOM     37  C   UNL A   1      45.830  25.639  26.711  1.00  0.00     0.074 A 
ATOM     38  C   UNL A   1      43.569  24.882  27.577  1.00  0.00     0.049 A 
ATOM     39  N   UNL A   1      46.843  25.709  27.510  1.00  0.00    -0.248 NA
ATOM     40  C   UNL A   1      46.045  26.308  25.411  1.00  0.00     0.031 C 
ATOM     41  C   UNL A   1      42.331  24.098  27.594  1.00  0.00     0.029 A 
ATOM     42  N   UNL A   1      43.275  25.895  28.429  1.00  0.00    -0.354 N 
ATOM     43  C   UNL A   1      47.691  26.636  26.919  1.00  0.00     0.074 A 
ATOM     44  C   UNL A   1      47.314  26.696  25.536  1.00  0.00     0.031 C 
ATOM     45  C   UNL A   1      41.354  24.814  28.206  1.00  0.00     0.029 A 
ATOM     46  C   UNL A   1      41.923  26.050  28.714  1.00  0.00     0.049 A 
ATOM     47  H   UNL A   1      43.968  26.477  28.817  1.00  0.00     0.167 HD
ATOM     48  C   UNL A   1      48.332  27.565  27.679  1.00  0.00     0.031 A 
ATOM     49  C   UNL A   1      41.344  27.163  29.246  1.00  0.00     0.031 A 
ATOM     50  C   UNL A   1      48.291  27.202  29.075  1.00  0.00     0.049 A 
ATOM     51  C   UNL A   1      42.434  27.963  29.868  1.00  0.00     0.074 A 
ATOM     52  C   UNL A   1      48.736  26.121  29.808  1.00  0.00     0.029 A 
ATOM     53  N   UNL A   1      47.318  27.816  29.832  1.00  0.00    -0.354 N 
ATOM     54  N   UNL A   1      43.074  27.560  30.930  1.00  0.00    -0.248 NA
ATOM     55  C   UNL A   1      43.167  28.891  29.013  1.00  0.00     0.031 C 
ATOM     56  C   UNL A   1      47.703  25.872  30.757  1.00  0.00     0.029 A 
ATOM     57  C   UNL A   1      46.736  26.872  30.635  1.00  0.00     0.049 A 
ATOM     58  H   UNL A   1      47.081  28.771  29.801  1.00  0.00     0.167 HD
ATOM     59  C   UNL A   1      44.413  27.789  30.640  1.00  0.00     0.074 A 
ATOM     60  C   UNL A   1      44.406  28.680  29.475  1.00  0.00     0.031 C 
ATOM     61  C   UNL A   1      45.387  26.975  31.144  1.00  0.00     0.031 A 
BRANCH  48  62
ATOM     62  C   UNL A   1      48.507  29.002  27.242  1.00  0.00    -0.014 A 
ATOM     63  C   UNL A   1      49.807  29.530  27.249  1.00  0.00     0.009 A 
ATOM     64  C   UNL A   1      47.452  29.929  27.118  1.00  0.00     0.009 A 
ATOM     65  C   UNL A   1      50.031  30.911  27.250  1.00  0.00     0.001 A 
ATOM     66  C   UNL A   1      47.672  31.306  27.079  1.00  0.00     0.001 A 
ATOM     67  C   UNL A   1      48.961  31.798  27.181  1.00  0.00     0.000 A 
ENDBRANCH  48  62
BRANCH  49  68
ATOM     68  C   UNL A   1      40.003  27.737  28.964  1.00  0.00    -0.014 A 
ATOM     69  C   UNL A   1      38.998  27.785  29.948  1.00  0.00     0.009 A 
ATOM     70  C   UNL A   1      39.790  28.490  27.794  1.00  0.00     0.009 A 
ATOM     71  C   UNL A   1      37.849  28.577  29.776  1.00  0.00     0.001 A 
ATOM     72  C   UNL A   1      38.647  29.279  27.622  1.00  0.00     0.001 A 
ATOM     73  C   UNL A   1      37.680  29.334  28.619  1.00  0.00     0.000 A 
ENDBRANCH  49  68
BRANCH  61  74
ATOM     74  C   UNL A   1      44.991  25.940  32.170  1.00  0.00    -0.014 A 
ATOM     75  C   UNL A   1      44.736  26.239  33.523  1.00  0.00     0.009 A 
ATOM     76  C   UNL A   1      44.685  24.656  31.704  1.00  0.00     0.009 A 
ATOM     77  C   UNL A   1      44.212  25.266  34.383  1.00  0.00     0.001 A 
ATOM     78  C   UNL A   1      44.142  23.694  32.556  1.00  0.00     0.001 A 
ATOM     79  C   UNL A   1      43.911  23.996  33.896  1.00  0.00     0.000 A 
ENDBRANCH  61  74
ENDBRANCH  35  36
ENDBRANCH  28  30
ENDBRANCH  27  28
ENDBRANCH  26  27
ENDBRANCH  25  26
ENDBRANCH  24  25
ENDBRANCH   1  24
TORSDOF 18
ENDMDL
MODEL 2
REMARK VINA RESULT:      -9.5      3.627      5.583
REMARK SMILES CCn1nc(C(C)C)cc1C(=O)N1CCCC[C@@H]1C(=O)OCCOCCOC(=O)c1ccc(-c2c3nc(c(-c4ccccc4)c4ccc([nH]4)c(-c4ccccc4)c4nc(c(-c5ccccc5)c5ccc2[nH]5)C=C4)C=C3)cc1
REMARK SMILES IDX 23 1 22 2 21 3 19 4 20 5 18 6 13 7 14 8 15 9 17 10 16 11
REMARK SMILES IDX 11 12 12 13 10 14 3 15 4 16 5 17 9 18 2 19 1 20 6 21 7 22
REMARK SMILES IDX 8 23 24 24 25 25 26 26 27 27 28 28 29 29 30 30 31 31 77 32
REMARK SMILES IDX 32 33 76 34 33 35 34 36 35 37 70 38 36 39 75 40 69 41 71 42
REMARK SMILES IDX 37 43 74 44 68 45 67 46 38 48 60 49 45 50 59 51 46 52 49 53
REMARK SMILES IDX 58 54 72 55 47 56 48 57 57 59 73 60 50 61 39 62 40 63 44 64
REMARK SMILES IDX 41 65 43 66 42 67 61 68 62 69 66 70 63 71 65 72 64 73 51 74
REMARK SMILES IDX 52 75 56 76 53 77 55 78 54 79
REMARK H PARENT 71 47 49 58
REMARK Flexibility Score: inf
ROOT
ATOM      1  C   UNL A   1      37.726  22.800  25.232  1.00  0.00     0.202 C 
ENDROOT
BRANCH   1   2
ATOM      2  C   UNL A   1      36.800  22.428  24.074  1.00  0.00     0.261 C 
BRANCH   2   3
ATOM      3  O   UNL A   1      35.965  23.506  23.640  1.00  0.00    -0.462 OA
BRANCH   3   4
ATOM      4  C   UNL A   1      35.093  23.946  24.588  1.00  0.00     0.328 C 
ATOM      5  O   UNL A   1      35.397  24.606  25.576  1.00  0.00    -0.250 OA
BRANCH   4   6
ATOM      6  C   UNL A   1      33.660  23.520  24.280  1.00  0.00     0.195 C 
ATOM      7  N   UNL A   1      32.953  24.237  23.200  1.00  0.00    -0.323 N 
ATOM      8  C   UNL A   1      31.628  23.719  22.891  1.00  0.00     0.121 C 
ATOM      9  C   UNL A   1      30.747  23.615  24.133  1.00  0.00     0.022 C 
ATOM     10  C   UNL A   1      32.798  23.391  25.552  1.00  0.00     0.037 C 
ATOM     11  C   UNL A   1      31.432  22.792  25.221  1.00  0.00     0.005 C 
BRANCH   7  12
ATOM     12  C   UNL A   1      33.243  25.562  22.844  1.00  0.00     0.272 C 
ATOM     13  O   UNL A   1      33.969  25.808  21.885  1.00  0.00    -0.267 OA
BRANCH  12  14
ATOM     14  C   UNL A   1      32.756  26.579  23.758  1.00  0.00     0.126 A 
ATOM     15  N   UNL A   1      31.538  27.221  23.780  1.00  0.00    -0.260 N 
ATOM     16  N   UNL A   1      31.356  27.962  24.907  1.00  0.00    -0.177 NA
ATOM     17  C   UNL A   1      32.532  27.920  25.538  1.00  0.00     0.066 A 
ATOM     18  C   UNL A   1      33.464  27.177  24.792  1.00  0.00     0.059 A 
BRANCH  15  19
ATOM     19  C   UNL A   1      30.483  27.317  22.787  1.00  0.00     0.142 C 
ATOM     20  C   UNL A   1      29.643  28.579  22.733  1.00  0.00     0.029 C 
ENDBRANCH  15  19
BRANCH  17  21
ATOM     21  C   UNL A   1      32.766  28.571  26.873  1.00  0.00     0.034 C 
ATOM     22  C   UNL A   1      34.252  28.823  27.118  1.00  0.00     0.014 C 
ATOM     23  C   UNL A   1      31.960  29.857  27.074  1.00  0.00     0.014 C 
ENDBRANCH  17  21
ENDBRANCH  12  14
ENDBRANCH   7  12
ENDBRANCH   4   6
ENDBRANCH   3   4
ENDBRANCH   2   3
ENDBRANCH   1   2
BRANCH   1  24
ATOM     24  O   UNL A   1      38.222  21.789  26.108  1.00  0.00    -0.374 OA
BRANCH  24  25
ATOM     25  C   UNL A   1      39.610  21.489  26.219  1.00  0.00     0.202 C 
BRANCH  25  26
ATOM     26  C   UNL A   1      40.616  22.626  26.269  1.00  0.00     0.261 C 
BRANCH  26  27
ATOM     27  O   UNL A   1      40.688  23.132  27.590  1.00  0.00    -0.460 OA
BRANCH  27  28
ATOM     28  C   UNL A   1      40.118  24.344  27.736  1.00  0.00     0.338 C 
ATOM     29  O   UNL A   1      38.937  24.581  27.987  1.00  0.00    -0.246 OA
BRANCH  28  30
ATOM     30  C   UNL A   1      41.131  25.382  27.466  1.00  0.00     0.060 A 
ATOM     31  C   UNL A   1      41.881  25.676  28.604  1.00  0.00     0.016 A 
ATOM     32  C   UNL A   1      40.758  26.366  26.546  1.00  0.00     0.016 A 
ATOM     33  C   UNL A   1      41.775  26.952  29.092  1.00  0.00     0.010 A 
ATOM     34  C   UNL A   1      40.628  27.633  27.039  1.00  0.00     0.010 A 
ATOM     35  C   UNL A   1      41.025  27.872  28.355  1.00  0.00    -0.014 A 
BRANCH  35  36
ATOM     36  C   UNL A   1      40.816  29.193  28.890  1.00  0.00     0.031 A 
ATOM     37  C   UNL A   1      42.063  29.978  28.758  1.00  0.00     0.074 A 
ATOM     38  C   UNL A   1      39.609  29.628  29.298  1.00  0.00     0.049 A 
ATOM     39  N   UNL A   1      42.909  30.227  29.702  1.00  0.00    -0.248 NA
ATOM     40  C   UNL A   1      42.593  30.222  27.401  1.00  0.00     0.031 C 
ATOM     41  C   UNL A   1      38.311  28.949  29.268  1.00  0.00     0.029 A 
ATOM     42  N   UNL A   1      39.274  30.861  29.753  1.00  0.00    -0.354 N 
ATOM     43  C   UNL A   1      43.950  30.894  29.072  1.00  0.00     0.074 A 
ATOM     44  C   UNL A   1      43.850  30.564  27.680  1.00  0.00     0.031 C 
ATOM     45  C   UNL A   1      37.322  29.863  29.435  1.00  0.00     0.029 A 
ATOM     46  C   UNL A   1      37.919  31.162  29.689  1.00  0.00     0.049 A 
ATOM     47  H   UNL A   1      39.942  31.494  30.102  1.00  0.00     0.167 HD
ATOM     48  C   UNL A   1      44.536  31.970  29.663  1.00  0.00     0.031 A 
ATOM     49  C   UNL A   1      37.378  32.411  29.756  1.00  0.00     0.031 A 
ATOM     50  C   UNL A   1      44.192  32.037  31.063  1.00  0.00     0.049 A 
ATOM     51  C   UNL A   1      38.413  33.302  30.348  1.00  0.00     0.074 A 
ATOM     52  C   UNL A   1      44.368  31.198  32.144  1.00  0.00     0.029 A 
ATOM     53  N   UNL A   1      43.168  32.896  31.395  1.00  0.00    -0.354 N 
ATOM     54  N   UNL A   1      38.792  33.196  31.591  1.00  0.00    -0.248 NA
ATOM     55  C   UNL A   1      39.392  33.897  29.446  1.00  0.00     0.031 C 
ATOM     56  C   UNL A   1      43.153  31.294  32.882  1.00  0.00     0.029 A 
ATOM     57  C   UNL A   1      42.344  32.262  32.285  1.00  0.00     0.049 A 
ATOM     58  H   UNL A   1      43.049  33.810  31.051  1.00  0.00     0.167 HD
ATOM     59  C   UNL A   1      40.178  33.259  31.541  1.00  0.00     0.074 A 
ATOM     60  C   UNL A   1      40.490  33.767  30.201  1.00  0.00     0.031 C 
ATOM     61  C   UNL A   1      40.943  32.581  32.446  1.00  0.00     0.031 A 
BRANCH  48  62
ATOM     62  C   UNL A   1      44.949  33.204  28.892  1.00  0.00    -0.014 A 
ATOM     63  C   UNL A   1      43.930  34.004  28.351  1.00  0.00     0.009 A 
ATOM     64  C   UNL A   1      46.255  33.450  28.425  1.00  0.00     0.009 A 
ATOM     65  C   UNL A   1      44.189  34.912  27.320  1.00  0.00     0.001 A 
ATOM     66  C   UNL A   1      46.525  34.383  27.423  1.00  0.00     0.001 A 
ATOM     67  C   UNL A   1      45.485  35.089  26.846  1.00  0.00     0.000 A 
ENDBRANCH  48  62
BRANCH  49  68
ATOM     68  C   UNL A   1      36.186  32.946  29.047  1.00  0.00    -0.014 A 
ATOM     69  C   UNL A   1      35.446  32.158  28.147  1.00  0.00     0.009 A 
ATOM     70  C   UNL A   1      35.608  34.162  29.459  1.00  0.00     0.009 A 
ATOM     71  C   UNL A   1      34.172  32.558  27.706  1.00  0.00     0.001 A 
ATOM     72  C   UNL A   1      34.339  34.561  29.022  1.00  0.00     0.001 A 
ATOM     73  C   UNL A   1      33.614  33.753  28.154  1.00  0.00     0.000 A 
ENDBRANCH  49  68
BRANCH  61  74
ATOM     74  C   UNL A   1      40.248  31.916  33.610  1.00  0.00    -0.014 A 
ATOM     75  C   UNL A   1      40.171  32.478  34.899  1.00  0.00     0.009 A 
ATOM     76  C   UNL A   1      39.487  30.772  33.338  1.00  0.00     0.009 A 
ATOM     77  C   UNL A   1      39.372  31.892  35.889  1.00  0.00     0.001 A 
ATOM     78  C   UNL A   1      38.674  30.202  34.317  1.00  0.00     0.001 A 
ATOM     79  C   UNL A   1      38.620  30.757  35.593  1.00  0.00     0.000 A 
ENDBRANCH  61  74
ENDBRANCH  35  36
ENDBRANCH  28  30
ENDBRANCH  27  28
ENDBRANCH  26  27
ENDBRANCH  25  26
ENDBRANCH  24  25
ENDBRANCH   1  24
TORSDOF 18
ENDMDL
MODEL 3
REMARK VINA RESULT:      -9.5      4.960      9.528
REMARK SMILES CCn1nc(C(C)C)cc1C(=O)N1CCCC[C@@H]1C(=O)OCCOCCOC(=O)c1ccc(-c2c3nc(c(-c4ccccc4)c4ccc([nH]4)c(-c4ccccc4)c4nc(c(-c5ccccc5)c5ccc2[nH]5)C=C4)C=C3)cc1
REMARK SMILES IDX 23 1 22 2 21 3 19 4 20 5 18 6 13 7 14 8 15 9 17 10 16 11
REMARK SMILES IDX 11 12 12 13 10 14 3 15 4 16 5 17 9 18 2 19 1 20 6 21 7 22
REMARK SMILES IDX 8 23 24 24 25 25 26 26 27 27 28 28 29 29 30 30 31 31 77 32
REMARK SMILES IDX 32 33 76 34 33 35 34 36 35 37 70 38 36 39 75 40 69 41 71 42
REMARK SMILES IDX 37 43 74 44 68 45 67 46 38 48 60 49 45 50 59 51 46 52 49 53
REMARK SMILES IDX 58 54 72 55 47 56 48 57 57 59 73 60 50 61 39 62 40 63 44 64
REMARK SMILES IDX 41 65 43 66 42 67 61 68 62 69 66 70 63 71 65 72 64 73 51 74
REMARK SMILES IDX 52 75 56 76 53 77 55 78 54 79
REMARK H PARENT 71 47 49 58
REMARK Flexibility Score: inf
ROOT
ATOM      1  C   UNL A   1      39.389  30.872  35.119  1.00  0.00     0.202 C 
ENDROOT
BRANCH   1   2
ATOM      2  C   UNL A   1      38.490  30.575  33.919  1.00  0.00     0.261 C 
BRANCH   2   3
ATOM      3  O   UNL A   1      37.873  31.740  33.363  1.00  0.00    -0.462 OA
BRANCH   3   4
ATOM      4  C   UNL A   1      36.627  31.519  32.861  1.00  0.00     0.328 C 
ATOM      5  O   UNL A   1      36.291  30.532  32.215  1.00  0.00    -0.250 OA
BRANCH   4   6
ATOM      6  C   UNL A   1      35.672  32.659  33.198  1.00  0.00     0.195 C 
ATOM      7  N   UNL A   1      35.120  33.442  32.073  1.00  0.00    -0.323 N 
ATOM      8  C   UNL A   1      34.142  34.450  32.455  1.00  0.00     0.121 C 
ATOM      9  C   UNL A   1      34.667  35.377  33.548  1.00  0.00     0.022 C 
ATOM     10  C   UNL A   1      36.209  33.564  34.326  1.00  0.00     0.037 C 
ATOM     11  C   UNL A   1      35.150  34.579  34.756  1.00  0.00     0.005 C 
BRANCH   7  12
ATOM     12  C   UNL A   1      35.789  33.602  30.852  1.00  0.00     0.272 C 
ATOM     13  O   UNL A   1      36.858  34.205  30.799  1.00  0.00    -0.267 OA
BRANCH  12  14
ATOM     14  C   UNL A   1      35.071  33.146  29.677  1.00  0.00     0.126 A 
ATOM     15  N   UNL A   1      34.473  33.883  28.679  1.00  0.00    -0.260 N 
ATOM     16  N   UNL A   1      34.076  33.116  27.627  1.00  0.00    -0.177 NA
ATOM     17  C   UNL A   1      34.277  31.858  28.025  1.00  0.00     0.066 A 
ATOM     18  C   UNL A   1      34.775  31.832  29.340  1.00  0.00     0.059 A 
BRANCH  15  19
ATOM     19  C   UNL A   1      34.118  35.289  28.603  1.00  0.00     0.142 C 
ATOM     20  C   UNL A   1      32.905  35.778  29.371  1.00  0.00     0.029 C 
ENDBRANCH  15  19
BRANCH  17  21
ATOM     21  C   UNL A   1      34.020  30.670  27.139  1.00  0.00     0.034 C 
ATOM     22  C   UNL A   1      34.773  29.436  27.629  1.00  0.00     0.014 C 
ATOM     23  C   UNL A   1      32.532  30.359  26.955  1.00  0.00     0.014 C 
ENDBRANCH  17  21
ENDBRANCH  12  14
ENDBRANCH   7  12
ENDBRANCH   4   6
ENDBRANCH   3   4
ENDBRANCH   2   3
ENDBRANCH   1   2
BRANCH   1  24
ATOM     24  O   UNL A   1      39.961  29.803  35.871  1.00  0.00    -0.374 OA
BRANCH  24  25
ATOM     25  C   UNL A   1      41.129  29.110  35.443  1.00  0.00     0.202 C 
BRANCH  25  26
ATOM     26  C   UNL A   1      41.631  27.925  36.251  1.00  0.00     0.261 C 
BRANCH  26  27
ATOM     27  O   UNL A   1      43.040  28.004  36.373  1.00  0.00    -0.460 OA
BRANCH  27  28
ATOM     28  C   UNL A   1      43.599  26.895  36.894  1.00  0.00     0.338 C 
ATOM     29  O   UNL A   1      43.575  26.536  38.071  1.00  0.00    -0.246 OA
BRANCH  28  30
ATOM     30  C   UNL A   1      44.338  26.188  35.830  1.00  0.00     0.060 A 
ATOM     31  C   UNL A   1      45.304  27.006  35.246  1.00  0.00     0.016 A 
ATOM     32  C   UNL A   1      43.595  25.265  35.088  1.00  0.00     0.016 A 
ATOM     33  C   UNL A   1      45.136  27.294  33.916  1.00  0.00     0.010 A 
ATOM     34  C   UNL A   1      43.407  25.566  33.769  1.00  0.00     0.010 A 
ATOM     35  C   UNL A   1      44.090  26.661  33.239  1.00  0.00    -0.014 A 
BRANCH  35  36
ATOM     36  C   UNL A   1      43.829  27.015  31.867  1.00  0.00     0.031 A 
ATOM     37  C   UNL A   1      42.993  28.235  31.828  1.00  0.00     0.074 A 
ATOM     38  C   UNL A   1      44.406  26.379  30.831  1.00  0.00     0.049 A 
ATOM     39  N   UNL A   1      41.722  28.279  31.602  1.00  0.00    -0.248 NA
ATOM     40  C   UNL A   1      43.539  29.474  32.419  1.00  0.00     0.031 C 
ATOM     41  C   UNL A   1      45.387  25.290  30.831  1.00  0.00     0.029 A 
ATOM     42  N   UNL A   1      44.294  26.660  29.509  1.00  0.00    -0.354 N 
ATOM     43  C   UNL A   1      41.382  29.615  31.773  1.00  0.00     0.074 A 
ATOM     44  C   UNL A   1      42.427  30.192  32.570  1.00  0.00     0.031 C 
ATOM     45  C   UNL A   1      45.957  25.200  29.603  1.00  0.00     0.029 A 
ATOM     46  C   UNL A   1      45.308  26.144  28.711  1.00  0.00     0.049 A 
ATOM     47  H   UNL A   1      43.550  27.190  29.144  1.00  0.00     0.167 HD
ATOM     48  C   UNL A   1      40.516  30.220  30.917  1.00  0.00     0.031 A 
ATOM     49  C   UNL A   1      45.612  26.554  27.448  1.00  0.00     0.031 A 
ATOM     50  C   UNL A   1      39.797  29.242  30.138  1.00  0.00     0.049 A 
ATOM     51  C   UNL A   1      44.426  27.291  26.933  1.00  0.00     0.074 A 
ATOM     52  C   UNL A   1      38.950  28.195  30.442  1.00  0.00     0.029 A 
ATOM     53  N   UNL A   1      40.280  29.001  28.871  1.00  0.00    -0.354 N 
ATOM     54  N   UNL A   1      43.298  26.695  26.668  1.00  0.00    -0.248 NA
ATOM     55  C   UNL A   1      44.322  28.712  27.248  1.00  0.00     0.031 C 
ATOM     56  C   UNL A   1      39.316  27.156  29.539  1.00  0.00     0.029 A 
ATOM     57  C   UNL A   1      40.281  27.649  28.659  1.00  0.00     0.049 A 
ATOM     58  H   UNL A   1      40.574  29.685  28.227  1.00  0.00     0.167 HD
ATOM     59  C   UNL A   1      42.328  27.512  27.234  1.00  0.00     0.074 A 
ATOM     60  C   UNL A   1      43.011  28.780  27.513  1.00  0.00     0.031 C 
ATOM     61  C   UNL A   1      41.173  26.984  27.735  1.00  0.00     0.031 A 
BRANCH  48  62
ATOM     62  C   UNL A   1      40.710  31.635  30.421  1.00  0.00    -0.014 A 
ATOM     63  C   UNL A   1      41.963  31.971  29.885  1.00  0.00     0.009 A 
ATOM     64  C   UNL A   1      39.848  32.709  30.723  1.00  0.00     0.009 A 
ATOM     65  C   UNL A   1      42.371  33.304  29.769  1.00  0.00     0.001 A 
ATOM     66  C   UNL A   1      40.236  34.041  30.573  1.00  0.00     0.001 A 
ATOM     67  C   UNL A   1      41.512  34.337  30.129  1.00  0.00     0.000 A 
ENDBRANCH  48  62
BRANCH  49  68
ATOM     68  C   UNL A   1      46.946  26.649  26.798  1.00  0.00    -0.014 A 
ATOM     69  C   UNL A   1      47.927  27.549  27.252  1.00  0.00     0.009 A 
ATOM     70  C   UNL A   1      47.358  25.657  25.888  1.00  0.00     0.009 A 
ATOM     71  C   UNL A   1      49.265  27.438  26.835  1.00  0.00     0.001 A 
ATOM     72  C   UNL A   1      48.690  25.544  25.473  1.00  0.00     0.001 A 
ATOM     73  C   UNL A   1      49.649  26.428  25.956  1.00  0.00     0.000 A 
ENDBRANCH  49  68
BRANCH  61  74
ATOM     74  C   UNL A   1      40.893  25.521  27.490  1.00  0.00    -0.014 A 
ATOM     75  C   UNL A   1      41.564  24.475  28.153  1.00  0.00     0.009 A 
ATOM     76  C   UNL A   1      39.782  25.201  26.700  1.00  0.00     0.009 A 
ATOM     77  C   UNL A   1      41.144  23.148  28.005  1.00  0.00     0.001 A 
ATOM     78  C   UNL A   1      39.349  23.881  26.571  1.00  0.00     0.001 A 
ATOM     79  C   UNL A   1      40.033  22.854  27.217  1.00  0.00     0.000 A 
ENDBRANCH  61  74
ENDBRANCH  35  36
ENDBRANCH  28  30
ENDBRANCH  27  28
ENDBRANCH  26  27
ENDBRANCH  25  26
ENDBRANCH  24  25
ENDBRANCH   1  24
TORSDOF 18
ENDMDL
