MODEL 1
REMARK VINA RESULT:     -11.4      0.000      0.000
REMARK SMILES C[C@H]1CC[C@H]([NH2+]Cc2c(C(=O)OCCOCCOC(=O)c3ccc(-c4c5nc(c(-c6ccccc6)c6ccc([nH]6)c(-c6ccccc6)c6nc(c(-c7ccccc7)c7ccc4[nH]7)C=C6)C=C5)cc3)n(Cc3ccccc3F)c3ccccc23)CC1
REMARK SMILES IDX 14 1 13 2 12 3 10 4 11 5 9 6 8 7 83 8 69 9 78 10 82 11 79 12
REMARK SMILES IDX 81 13 80 14 7 15 6 16 5 19 1 20 2 21 3 22 85 23 4 24 84 25
REMARK SMILES IDX 70 26 71 27 72 28 76 29 73 30 75 31 77 32 74 33 15 34 16 35
REMARK SMILES IDX 17 36 18 37 19 38 20 39 21 40 22 41 68 42 23 43 67 44 24 45
REMARK SMILES IDX 25 46 26 47 61 48 27 49 66 50 60 51 62 52 28 53 65 54 59 55
REMARK SMILES IDX 58 56 29 58 51 59 36 60 50 61 37 62 40 63 49 64 63 65 38 66
REMARK SMILES IDX 39 67 48 69 64 70 41 71 30 72 31 73 35 74 32 75 34 76 33 77
REMARK SMILES IDX 52 78 53 79 57 80 54 81 56 82 55 83 42 84 43 85 47 86 44 87
REMARK SMILES IDX 46 88 45 89
REMARK H PARENT 6 17 6 18 62 57 40 68
REMARK Flexibility Score: inf
ROOT
ATOM      1  C   UNL A   1      34.017  28.797  26.158  1.00  0.00     0.202 C 
ENDROOT
BRANCH   1   2
ATOM      2  C   UNL A   1      34.487  28.041  24.909  1.00  0.00     0.261 C 
BRANCH   2   3
ATOM      3  O   UNL A   1      33.648  28.179  23.749  1.00  0.00    -0.459 OA
BRANCH   3   4
ATOM      4  C   UNL A   1      33.425  27.014  23.074  1.00  0.00     0.355 C 
ATOM      5  O   UNL A   1      33.665  26.871  21.875  1.00  0.00    -0.244 OA
BRANCH   4   6
ATOM      6  C   UNL A   1      32.840  25.973  23.913  1.00  0.00     0.137 A 
ATOM      7  C   UNL A   1      31.680  25.971  24.717  1.00  0.00     0.047 A 
ATOM      8  C   UNL A   1      31.499  24.623  25.196  1.00  0.00     0.009 A 
ATOM      9  N   UNL A   1      33.311  24.657  23.898  1.00  0.00    -0.330 N 
ATOM     10  C   UNL A   1      32.432  23.817  24.561  1.00  0.00     0.050 A 
ATOM     11  C   UNL A   1      30.546  24.013  26.045  1.00  0.00     0.011 A 
ATOM     12  C   UNL A   1      32.379  22.414  24.656  1.00  0.00     0.027 A 
ATOM     13  C   UNL A   1      30.527  22.623  26.196  1.00  0.00     0.001 A 
ATOM     14  C   UNL A   1      31.420  21.833  25.486  1.00  0.00     0.002 A 
BRANCH   7  15
ATOM     15  C   UNL A   1      30.641  27.024  25.029  1.00  0.00     0.300 C 
BRANCH  15  16
ATOM     16  N   UNL A   1      29.371  26.873  24.350  1.00  0.00    -0.340 N 
ATOM     17  H   UNL A   1      29.290  25.890  24.092  1.00  0.00     0.346 HD
ATOM     18  H   UNL A   1      28.698  27.236  25.025  1.00  0.00     0.346 HD
BRANCH  16  19
ATOM     19  C   UNL A   1      29.094  27.659  23.132  1.00  0.00     0.182 C 
ATOM     20  C   UNL A   1      28.281  32.005  23.290  1.00  0.00     0.007 C 
ATOM     21  C   UNL A   1      28.582  30.515  23.338  1.00  0.00    -0.014 C 
ATOM     22  C   UNL A   1      29.713  30.105  22.403  1.00  0.00     0.009 C 
ATOM     23  C   UNL A   1      27.386  29.650  22.971  1.00  0.00     0.009 C 
ATOM     24  C   UNL A   1      30.175  28.691  22.736  1.00  0.00     0.065 C 
ATOM     25  C   UNL A   1      27.657  28.202  23.341  1.00  0.00     0.065 C 
ENDBRANCH  16  19
ENDBRANCH  15  16
ENDBRANCH   7  15
BRANCH   9  26
ATOM     26  C   UNL A   1      34.506  24.164  23.206  1.00  0.00     0.161 C 
BRANCH  26  27
ATOM     27  C   UNL A   1      35.628  23.796  24.143  1.00  0.00     0.008 A 
ATOM     28  C   UNL A   1      35.656  24.245  25.472  1.00  0.00     0.008 A 
ATOM     29  C   UNL A   1      36.652  22.943  23.724  1.00  0.00     0.128 A 
ATOM     30  C   UNL A   1      36.669  23.846  26.348  1.00  0.00     0.001 A 
ATOM     31  C   UNL A   1      37.662  22.531  24.592  1.00  0.00     0.039 A 
ATOM     32  F   UNL A   1      36.661  22.479  22.468  1.00  0.00    -0.207 F 
ATOM     33  C   UNL A   1      37.670  22.982  25.910  1.00  0.00     0.003 A 
ENDBRANCH  26  27
ENDBRANCH   9  26
ENDBRANCH   4   6
ENDBRANCH   3   4
ENDBRANCH   2   3
ENDBRANCH   1   2
BRANCH   1  34
ATOM     34  O   UNL A   1      32.746  29.427  26.134  1.00  0.00    -0.374 OA
BRANCH  34  35
ATOM     35  C   UNL A   1      32.471  30.430  27.117  1.00  0.00     0.202 C 
BRANCH  35  36
ATOM     36  C   UNL A   1      33.506  31.551  27.303  1.00  0.00     0.261 C 
BRANCH  36  37
ATOM     37  O   UNL A   1      34.355  31.296  28.433  1.00  0.00    -0.460 OA
BRANCH  37  38
ATOM     38  C   UNL A   1      35.490  32.036  28.477  1.00  0.00     0.338 C 
ATOM     39  O   UNL A   1      35.590  33.255  28.444  1.00  0.00    -0.246 OA
BRANCH  38  40
ATOM     40  C   UNL A   1      36.568  31.132  28.911  1.00  0.00     0.060 A 
ATOM     41  C   UNL A   1      37.897  31.544  28.902  1.00  0.00     0.016 A 
ATOM     42  C   UNL A   1      36.232  29.792  29.163  1.00  0.00     0.016 A 
ATOM     43  C   UNL A   1      38.892  30.594  29.111  1.00  0.00     0.010 A 
ATOM     44  C   UNL A   1      37.237  28.838  29.318  1.00  0.00     0.010 A 
ATOM     45  C   UNL A   1      38.574  29.231  29.263  1.00  0.00    -0.014 A 
BRANCH  45  46
ATOM     46  C   UNL A   1      39.694  28.301  29.467  1.00  0.00     0.031 A 
ATOM     47  C   UNL A   1      40.217  28.217  30.858  1.00  0.00     0.074 A 
ATOM     48  C   UNL A   1      40.196  27.417  28.580  1.00  0.00     0.049 A 
ATOM     49  N   UNL A   1      41.433  28.375  31.275  1.00  0.00    -0.248 NA
ATOM     50  C   UNL A   1      39.241  27.917  31.916  1.00  0.00     0.031 C 
ATOM     51  C   UNL A   1      39.631  27.008  27.294  1.00  0.00     0.029 A 
ATOM     52  N   UNL A   1      41.298  26.607  28.717  1.00  0.00    -0.354 N 
ATOM     53  C   UNL A   1      41.404  28.086  32.636  1.00  0.00     0.074 A 
ATOM     54  C   UNL A   1      40.023  27.872  32.992  1.00  0.00     0.031 C 
ATOM     55  C   UNL A   1      40.261  25.885  26.878  1.00  0.00     0.029 A 
ATOM     56  C   UNL A   1      41.354  25.582  27.791  1.00  0.00     0.049 A 
ATOM     57  H   UNL A   1      41.983  26.744  29.411  1.00  0.00     0.167 HD
ATOM     58  C   UNL A   1      42.521  27.897  33.385  1.00  0.00     0.031 A 
ATOM     59  C   UNL A   1      42.189  24.517  27.794  1.00  0.00     0.031 A 
ATOM     60  C   UNL A   1      43.725  28.342  32.751  1.00  0.00     0.049 A 
ATOM     61  C   UNL A   1      43.366  24.783  28.652  1.00  0.00     0.074 A 
ATOM     62  C   UNL A   1      44.272  29.560  32.418  1.00  0.00     0.029 A 
ATOM     63  N   UNL A   1      44.487  27.382  32.141  1.00  0.00    -0.354 N 
ATOM     64  N   UNL A   1      44.319  25.623  28.368  1.00  0.00    -0.248 NA
ATOM     65  C   UNL A   1      43.426  24.205  29.988  1.00  0.00     0.031 C 
ATOM     66  C   UNL A   1      45.175  29.303  31.350  1.00  0.00     0.029 A 
ATOM     67  C   UNL A   1      45.121  27.939  31.058  1.00  0.00     0.049 A 
ATOM     68  H   UNL A   1      44.567  26.444  32.432  1.00  0.00     0.167 HD
ATOM     69  C   UNL A   1      44.863  25.971  29.592  1.00  0.00     0.074 A 
ATOM     70  C   UNL A   1      44.403  24.946  30.514  1.00  0.00     0.031 C 
ATOM     71  C   UNL A   1      45.366  27.218  29.819  1.00  0.00     0.031 A 
BRANCH  58  72
ATOM     72  C   UNL A   1      42.552  27.045  34.620  1.00  0.00    -0.014 A 
ATOM     73  C   UNL A   1      42.213  27.555  35.888  1.00  0.00     0.009 A 
ATOM     74  C   UNL A   1      42.689  25.652  34.501  1.00  0.00     0.009 A 
ATOM     75  C   UNL A   1      42.064  26.720  36.999  1.00  0.00     0.001 A 
ATOM     76  C   UNL A   1      42.503  24.810  35.604  1.00  0.00     0.001 A 
ATOM     77  C   UNL A   1      42.198  25.346  36.853  1.00  0.00     0.000 A 
ENDBRANCH  58  72
BRANCH  59  78
ATOM     78  C   UNL A   1      41.940  23.165  27.248  1.00  0.00    -0.014 A 
ATOM     79  C   UNL A   1      41.058  22.289  27.904  1.00  0.00     0.009 A 
ATOM     80  C   UNL A   1      42.752  22.639  26.230  1.00  0.00     0.009 A 
ATOM     81  C   UNL A   1      40.999  20.933  27.572  1.00  0.00     0.001 A 
ATOM     82  C   UNL A   1      42.700  21.279  25.902  1.00  0.00     0.001 A 
ATOM     83  C   UNL A   1      41.830  20.425  26.579  1.00  0.00     0.000 A 
ENDBRANCH  59  78
BRANCH  71  84
ATOM     84  C   UNL A   1      45.892  28.014  28.651  1.00  0.00    -0.014 A 
ATOM     85  C   UNL A   1      47.228  27.816  28.256  1.00  0.00     0.009 A 
ATOM     86  C   UNL A   1      45.161  29.019  28.004  1.00  0.00     0.009 A 
ATOM     87  C   UNL A   1      47.816  28.603  27.262  1.00  0.00     0.001 A 
ATOM     88  C   UNL A   1      45.739  29.774  26.979  1.00  0.00     0.001 A 
ATOM     89  C   UNL A   1      47.068  29.581  26.619  1.00  0.00     0.000 A 
ENDBRANCH  71  84
ENDBRANCH  45  46
ENDBRANCH  38  40
ENDBRANCH  37  38
ENDBRANCH  36  37
ENDBRANCH  35  36
ENDBRANCH  34  35
ENDBRANCH   1  34
TORSDOF 19
ENDMDL
MODEL 2
REMARK VINA RESULT:     -11.4      3.435      8.570
REMARK SMILES C[C@H]1CC[C@H]([NH2+]Cc2c(C(=O)OCCOCCOC(=O)c3ccc(-c4c5nc(c(-c6ccccc6)c6ccc([nH]6)c(-c6ccccc6)c6nc(c(-c7ccccc7)c7ccc4[nH]7)C=C6)C=C5)cc3)n(Cc3ccccc3F)c3ccccc23)CC1
REMARK SMILES IDX 14 1 13 2 12 3 10 4 11 5 9 6 8 7 83 8 69 9 78 10 82 11 79 12
REMARK SMILES IDX 81 13 80 14 7 15 6 16 5 19 1 20 2 21 3 22 85 23 4 24 84 25
REMARK SMILES IDX 70 26 71 27 72 28 76 29 73 30 75 31 77 32 74 33 15 34 16 35
REMARK SMILES IDX 17 36 18 37 19 38 20 39 21 40 22 41 68 42 23 43 67 44 24 45
REMARK SMILES IDX 25 46 26 47 61 48 27 49 66 50 60 51 62 52 28 53 65 54 59 55
REMARK SMILES IDX 58 56 29 58 51 59 36 60 50 61 37 62 40 63 49 64 63 65 38 66
REMARK SMILES IDX 39 67 48 69 64 70 41 71 30 72 31 73 35 74 32 75 34 76 33 77
REMARK SMILES IDX 52 78 53 79 57 80 54 81 56 82 55 83 42 84 43 85 47 86 44 87
REMARK SMILES IDX 46 88 45 89
REMARK H PARENT 6 17 6 18 62 57 40 68
REMARK Flexibility Score: inf
ROOT
ATOM      1  C   UNL A   1      35.774  23.148  25.695  1.00  0.00     0.202 C 
ENDROOT
BRANCH   1   2
ATOM      2  C   UNL A   1      34.680  23.390  26.742  1.00  0.00     0.261 C 
BRANCH   2   3
ATOM      3  O   UNL A   1      33.493  22.593  26.591  1.00  0.00    -0.459 OA
BRANCH   3   4
ATOM      4  C   UNL A   1      32.331  23.309  26.585  1.00  0.00     0.355 C 
ATOM      5  O   UNL A   1      31.467  23.204  27.456  1.00  0.00    -0.244 OA
BRANCH   4   6
ATOM      6  C   UNL A   1      32.208  24.182  25.421  1.00  0.00     0.137 A 
ATOM      7  C   UNL A   1      32.265  23.900  24.039  1.00  0.00     0.047 A 
ATOM      8  C   UNL A   1      31.919  25.116  23.345  1.00  0.00     0.009 A 
ATOM      9  N   UNL A   1      31.812  25.517  25.535  1.00  0.00    -0.330 N 
ATOM     10  C   UNL A   1      31.510  26.045  24.290  1.00  0.00     0.050 A 
ATOM     11  C   UNL A   1      31.829  25.461  21.975  1.00  0.00     0.011 A 
ATOM     12  C   UNL A   1      30.910  27.261  23.916  1.00  0.00     0.027 A 
ATOM     13  C   UNL A   1      31.293  26.696  21.597  1.00  0.00     0.001 A 
ATOM     14  C   UNL A   1      30.816  27.574  22.559  1.00  0.00     0.002 A 
BRANCH   7  15
ATOM     15  C   UNL A   1      32.495  22.628  23.256  1.00  0.00     0.300 C 
BRANCH  15  16
ATOM     16  N   UNL A   1      33.103  21.540  23.992  1.00  0.00    -0.340 N 
ATOM     17  H   UNL A   1      33.953  21.282  23.491  1.00  0.00     0.346 HD
ATOM     18  H   UNL A   1      33.214  21.923  24.931  1.00  0.00     0.346 HD
BRANCH  16  19
ATOM     19  C   UNL A   1      32.346  20.294  24.218  1.00  0.00     0.182 C 
ATOM     20  C   UNL A   1      34.111  16.312  23.439  1.00  0.00     0.007 C 
ATOM     21  C   UNL A   1      33.598  17.722  23.686  1.00  0.00    -0.014 C 
ATOM     22  C   UNL A   1      33.038  17.915  25.090  1.00  0.00     0.009 C 
ATOM     23  C   UNL A   1      32.497  18.138  22.723  1.00  0.00     0.009 C 
ATOM     24  C   UNL A   1      32.849  19.401  25.376  1.00  0.00     0.065 C 
ATOM     25  C   UNL A   1      32.259  19.635  22.818  1.00  0.00     0.065 C 
ENDBRANCH  16  19
ENDBRANCH  15  16
ENDBRANCH   7  15
BRANCH   9  26
ATOM     26  C   UNL A   1      31.628  26.272  26.779  1.00  0.00     0.161 C 
BRANCH  26  27
ATOM     27  C   UNL A   1      32.345  27.598  26.784  1.00  0.00     0.008 A 
ATOM     28  C   UNL A   1      31.704  28.781  27.183  1.00  0.00     0.008 A 
ATOM     29  C   UNL A   1      33.696  27.675  26.439  1.00  0.00     0.128 A 
ATOM     30  C   UNL A   1      32.397  29.992  27.242  1.00  0.00     0.001 A 
ATOM     31  C   UNL A   1      34.399  28.878  26.503  1.00  0.00     0.039 A 
ATOM     32  F   UNL A   1      34.353  26.571  26.063  1.00  0.00    -0.207 F 
ATOM     33  C   UNL A   1      33.748  30.041  26.908  1.00  0.00     0.003 A 
ENDBRANCH  26  27
ENDBRANCH   9  26
ENDBRANCH   4   6
ENDBRANCH   3   4
ENDBRANCH   2   3
ENDBRANCH   1   2
BRANCH   1  34
ATOM     34  O   UNL A   1      36.792  22.202  25.979  1.00  0.00    -0.374 OA
BRANCH  34  35
ATOM     35  C   UNL A   1      38.138  22.528  25.618  1.00  0.00     0.202 C 
BRANCH  35  36
ATOM     36  C   UNL A   1      39.268  21.694  26.241  1.00  0.00     0.261 C 
BRANCH  36  37
ATOM     37  O   UNL A   1      39.897  22.393  27.325  1.00  0.00    -0.460 OA
BRANCH  37  38
ATOM     38  C   UNL A   1      41.006  23.097  26.988  1.00  0.00     0.338 C 
ATOM     39  O   UNL A   1      41.846  22.812  26.145  1.00  0.00    -0.246 OA
BRANCH  38  40
ATOM     40  C   UNL A   1      40.850  24.438  27.577  1.00  0.00     0.060 A 
ATOM     41  C   UNL A   1      39.755  25.236  27.262  1.00  0.00     0.016 A 
ATOM     42  C   UNL A   1      41.924  24.952  28.321  1.00  0.00     0.016 A 
ATOM     43  C   UNL A   1      39.760  26.567  27.669  1.00  0.00     0.010 A 
ATOM     44  C   UNL A   1      41.946  26.299  28.678  1.00  0.00     0.010 A 
ATOM     45  C   UNL A   1      40.875  27.121  28.326  1.00  0.00    -0.014 A 
BRANCH  45  46
ATOM     46  C   UNL A   1      40.793  28.539  28.705  1.00  0.00     0.031 A 
ATOM     47  C   UNL A   1      41.955  29.380  28.307  1.00  0.00     0.074 A 
ATOM     48  C   UNL A   1      39.734  29.186  29.232  1.00  0.00     0.049 A 
ATOM     49  N   UNL A   1      42.695  30.141  29.050  1.00  0.00    -0.248 NA
ATOM     50  C   UNL A   1      42.332  29.360  26.886  1.00  0.00     0.031 C 
ATOM     51  C   UNL A   1      38.356  28.712  29.357  1.00  0.00     0.029 A 
ATOM     52  N   UNL A   1      39.666  30.485  29.679  1.00  0.00    -0.354 N 
ATOM     53  C   UNL A   1      43.565  30.786  28.178  1.00  0.00     0.074 A 
ATOM     54  C   UNL A   1      43.344  30.223  26.868  1.00  0.00     0.031 C 
ATOM     55  C   UNL A   1      37.554  29.765  29.634  1.00  0.00     0.029 A 
ATOM     56  C   UNL A   1      38.374  30.951  29.841  1.00  0.00     0.049 A 
ATOM     57  H   UNL A   1      40.463  31.031  29.866  1.00  0.00     0.167 HD
ATOM     58  C   UNL A   1      44.333  31.849  28.535  1.00  0.00     0.031 A 
ATOM     59  C   UNL A   1      37.984  32.227  30.065  1.00  0.00     0.031 A 
ATOM     60  C   UNL A   1      44.427  32.043  29.950  1.00  0.00     0.049 A 
ATOM     61  C   UNL A   1      39.115  33.033  30.579  1.00  0.00     0.074 A 
ATOM     62  C   UNL A   1      45.024  31.383  30.999  1.00  0.00     0.029 A 
ATOM     63  N   UNL A   1      43.606  32.995  30.493  1.00  0.00    -0.354 N 
ATOM     64  N   UNL A   1      39.639  32.907  31.763  1.00  0.00    -0.248 NA
ATOM     65  C   UNL A   1      39.823  33.932  29.678  1.00  0.00     0.031 C 
ATOM     66  C   UNL A   1      44.296  31.760  32.162  1.00  0.00     0.029 A 
ATOM     67  C   UNL A   1      43.266  32.615  31.768  1.00  0.00     0.049 A 
ATOM     68  H   UNL A   1      43.308  33.818  30.042  1.00  0.00     0.167 HD
ATOM     69  C   UNL A   1      40.928  33.393  31.635  1.00  0.00     0.074 A 
ATOM     70  C   UNL A   1      40.920  34.163  30.402  1.00  0.00     0.031 C 
ATOM     71  C   UNL A   1      41.962  32.872  32.356  1.00  0.00     0.031 A 
BRANCH  58  72
ATOM     72  C   UNL A   1      44.796  32.895  27.565  1.00  0.00    -0.014 A 
ATOM     73  C   UNL A   1      44.106  34.109  27.388  1.00  0.00     0.009 A 
ATOM     74  C   UNL A   1      46.069  32.787  26.981  1.00  0.00     0.009 A 
ATOM     75  C   UNL A   1      44.639  35.152  26.626  1.00  0.00     0.001 A 
ATOM     76  C   UNL A   1      46.621  33.844  26.248  1.00  0.00     0.001 A 
ATOM     77  C   UNL A   1      45.902  35.022  26.065  1.00  0.00     0.000 A 
ENDBRANCH  58  72
BRANCH  59  78
ATOM     78  C   UNL A   1      36.713  32.871  29.668  1.00  0.00    -0.014 A 
ATOM     79  C   UNL A   1      35.707  33.098  30.624  1.00  0.00     0.009 A 
ATOM     80  C   UNL A   1      36.380  33.035  28.314  1.00  0.00     0.009 A 
ATOM     81  C   UNL A   1      34.411  33.458  30.245  1.00  0.00     0.001 A 
ATOM     82  C   UNL A   1      35.080  33.387  27.932  1.00  0.00     0.001 A 
ATOM     83  C   UNL A   1      34.094  33.589  28.896  1.00  0.00     0.000 A 
ENDBRANCH  59  78
BRANCH  71  84
ATOM     84  C   UNL A   1      41.666  32.225  33.687  1.00  0.00    -0.014 A 
ATOM     85  C   UNL A   1      41.973  32.941  34.858  1.00  0.00     0.009 A 
ATOM     86  C   UNL A   1      41.205  30.910  33.825  1.00  0.00     0.009 A 
ATOM     87  C   UNL A   1      41.837  32.357  36.122  1.00  0.00     0.001 A 
ATOM     88  C   UNL A   1      41.028  30.345  35.092  1.00  0.00     0.001 A 
ATOM     89  C   UNL A   1      41.360  31.058  36.238  1.00  0.00     0.000 A 
ENDBRANCH  71  84
ENDBRANCH  45  46
ENDBRANCH  38  40
ENDBRANCH  37  38
ENDBRANCH  36  37
ENDBRANCH  35  36
ENDBRANCH  34  35
ENDBRANCH   1  34
TORSDOF 19
ENDMDL
MODEL 3
REMARK VINA RESULT:     -11.2      3.161      8.043
REMARK SMILES C[C@H]1CC[C@H]([NH2+]Cc2c(C(=O)OCCOCCOC(=O)c3ccc(-c4c5nc(c(-c6ccccc6)c6ccc([nH]6)c(-c6ccccc6)c6nc(c(-c7ccccc7)c7ccc4[nH]7)C=C6)C=C5)cc3)n(Cc3ccccc3F)c3ccccc23)CC1
REMARK SMILES IDX 14 1 13 2 12 3 10 4 11 5 9 6 8 7 83 8 69 9 78 10 82 11 79 12
REMARK SMILES IDX 81 13 80 14 7 15 6 16 5 19 1 20 2 21 3 22 85 23 4 24 84 25
REMARK SMILES IDX 70 26 71 27 72 28 76 29 73 30 75 31 77 32 74 33 15 34 16 35
REMARK SMILES IDX 17 36 18 37 19 38 20 39 21 40 22 41 68 42 23 43 67 44 24 45
REMARK SMILES IDX 25 46 26 47 61 48 27 49 66 50 60 51 62 52 28 53 65 54 59 55
REMARK SMILES IDX 58 56 29 58 51 59 36 60 50 61 37 62 40 63 49 64 63 65 38 66
REMARK SMILES IDX 39 67 48 69 64 70 41 71 30 72 31 73 35 74 32 75 34 76 33 77
REMARK SMILES IDX 52 78 53 79 57 80 54 81 56 82 55 83 42 84 43 85 47 86 44 87
REMARK SMILES IDX 46 88 45 89
REMARK H PARENT 6 17 6 18 62 57 40 68
REMARK Flexibility Score: inf
ROOT
ATOM      1  C   UNL A   1      37.224  21.181  25.351  1.00  0.00     0.202 C 
ENDROOT
BRANCH   1   2
ATOM      2  C   UNL A   1      37.585  22.566  24.800  1.00  0.00     0.261 C 
BRANCH   2   3
ATOM      3  O   UNL A   1      36.510  23.521  24.772  1.00  0.00    -0.459 OA
BRANCH   3   4
ATOM      4  C   UNL A   1      35.579  23.292  23.802  1.00  0.00     0.355 C 
ATOM      5  O   UNL A   1      35.858  23.189  22.607  1.00  0.00    -0.244 OA
BRANCH   4   6
ATOM      6  C   UNL A   1      34.218  23.219  24.325  1.00  0.00     0.137 A 
ATOM      7  C   UNL A   1      33.407  22.112  24.654  1.00  0.00     0.047 A 
ATOM      8  C   UNL A   1      32.215  22.630  25.277  1.00  0.00     0.009 A 
ATOM      9  N   UNL A   1      33.533  24.354  24.767  1.00  0.00    -0.330 N 
ATOM     10  C   UNL A   1      32.388  23.994  25.458  1.00  0.00     0.050 A 
ATOM     11  C   UNL A   1      31.044  22.023  25.790  1.00  0.00     0.011 A 
ATOM     12  C   UNL A   1      31.489  24.754  26.230  1.00  0.00     0.027 A 
ATOM     13  C   UNL A   1      30.113  22.786  26.503  1.00  0.00     0.001 A 
ATOM     14  C   UNL A   1      30.349  24.132  26.740  1.00  0.00     0.002 A 
BRANCH   7  15
ATOM     15  C   UNL A   1      33.622  20.617  24.571  1.00  0.00     0.300 C 
BRANCH  15  16
ATOM     16  N   UNL A   1      32.736  19.906  23.672  1.00  0.00    -0.340 N 
ATOM     17  H   UNL A   1      31.850  20.411  23.670  1.00  0.00     0.346 HD
ATOM     18  H   UNL A   1      33.260  19.879  22.797  1.00  0.00     0.346 HD
BRANCH  16  19
ATOM     19  C   UNL A   1      32.419  18.488  23.926  1.00  0.00     0.182 C 
ATOM     20  C   UNL A   1      35.494  15.613  25.288  1.00  0.00     0.007 C 
ATOM     21  C   UNL A   1      34.508  16.677  24.831  1.00  0.00    -0.014 C 
ATOM     22  C   UNL A   1      33.268  16.758  25.711  1.00  0.00     0.009 C 
ATOM     23  C   UNL A   1      34.013  16.464  23.408  1.00  0.00     0.009 C 
ATOM     24  C   UNL A   1      32.494  18.035  25.403  1.00  0.00     0.065 C 
ATOM     25  C   UNL A   1      33.297  17.708  22.914  1.00  0.00     0.065 C 
ENDBRANCH  16  19
ENDBRANCH  15  16
ENDBRANCH   7  15
BRANCH   9  26
ATOM     26  C   UNL A   1      33.970  25.748  24.633  1.00  0.00     0.161 C 
BRANCH  26  27
ATOM     27  C   UNL A   1      32.937  26.639  23.993  1.00  0.00     0.008 A 
ATOM     28  C   UNL A   1      32.491  27.816  24.615  1.00  0.00     0.008 A 
ATOM     29  C   UNL A   1      32.430  26.341  22.725  1.00  0.00     0.128 A 
ATOM     30  C   UNL A   1      31.578  28.664  23.982  1.00  0.00     0.001 A 
ATOM     31  C   UNL A   1      31.526  27.186  22.083  1.00  0.00     0.039 A 
ATOM     32  F   UNL A   1      32.835  25.235  22.088  1.00  0.00    -0.207 F 
ATOM     33  C   UNL A   1      31.100  28.353  22.712  1.00  0.00     0.003 A 
ENDBRANCH  26  27
ENDBRANCH   9  26
ENDBRANCH   4   6
ENDBRANCH   3   4
ENDBRANCH   2   3
ENDBRANCH   1   2
BRANCH   1  34
ATOM     34  O   UNL A   1      37.752  20.033  24.707  1.00  0.00    -0.374 OA
BRANCH  34  35
ATOM     35  C   UNL A   1      38.741  19.265  25.401  1.00  0.00     0.202 C 
BRANCH  35  36
ATOM     36  C   UNL A   1      40.070  19.955  25.747  1.00  0.00     0.261 C 
BRANCH  36  37
ATOM     37  O   UNL A   1      41.131  18.999  25.897  1.00  0.00    -0.460 OA
BRANCH  37  38
ATOM     38  C   UNL A   1      42.368  19.462  25.592  1.00  0.00     0.338 C 
ATOM     39  O   UNL A   1      43.057  19.175  24.622  1.00  0.00    -0.246 OA
BRANCH  38  40
ATOM     40  C   UNL A   1      42.607  20.630  26.456  1.00  0.00     0.060 A 
ATOM     41  C   UNL A   1      42.001  20.734  27.704  1.00  0.00     0.016 A 
ATOM     42  C   UNL A   1      43.318  21.711  25.910  1.00  0.00     0.016 A 
ATOM     43  C   UNL A   1      42.082  21.944  28.387  1.00  0.00     0.010 A 
ATOM     44  C   UNL A   1      43.349  22.935  26.576  1.00  0.00     0.010 A 
ATOM     45  C   UNL A   1      42.704  23.065  27.806  1.00  0.00    -0.014 A 
BRANCH  45  46
ATOM     46  C   UNL A   1      42.729  24.303  28.598  1.00  0.00     0.031 A 
ATOM     47  C   UNL A   1      41.672  25.299  28.271  1.00  0.00     0.074 A 
ATOM     48  C   UNL A   1      43.497  24.572  29.674  1.00  0.00     0.049 A 
ATOM     49  N   UNL A   1      41.807  26.548  27.955  1.00  0.00    -0.248 NA
ATOM     50  C   UNL A   1      40.281  24.823  28.303  1.00  0.00     0.031 C 
ATOM     51  C   UNL A   1      44.325  23.646  30.447  1.00  0.00     0.029 A 
ATOM     52  N   UNL A   1      43.603  25.753  30.371  1.00  0.00    -0.354 N 
ATOM     53  C   UNL A   1      40.515  27.053  27.856  1.00  0.00     0.074 A 
ATOM     54  C   UNL A   1      39.613  25.938  28.015  1.00  0.00     0.031 C 
ATOM     55  C   UNL A   1      44.666  24.236  31.616  1.00  0.00     0.029 A 
ATOM     56  C   UNL A   1      44.201  25.617  31.610  1.00  0.00     0.049 A 
ATOM     57  H   UNL A   1      43.283  26.615  30.018  1.00  0.00     0.167 HD
ATOM     58  C   UNL A   1      40.233  28.379  27.784  1.00  0.00     0.031 A 
ATOM     59  C   UNL A   1      44.261  26.539  32.598  1.00  0.00     0.031 A 
ATOM     60  C   UNL A   1      41.369  29.197  27.486  1.00  0.00     0.049 A 
ATOM     61  C   UNL A   1      44.016  27.895  32.057  1.00  0.00     0.074 A 
ATOM     62  C   UNL A   1      42.172  29.408  26.389  1.00  0.00     0.029 A 
ATOM     63  N   UNL A   1      41.973  29.816  28.548  1.00  0.00    -0.354 N 
ATOM     64  N   UNL A   1      44.840  28.552  31.293  1.00  0.00    -0.248 NA
ATOM     65  C   UNL A   1      42.709  28.514  32.237  1.00  0.00     0.031 C 
ATOM     66  C   UNL A   1      43.409  29.893  26.898  1.00  0.00     0.029 A 
ATOM     67  C   UNL A   1      43.317  29.931  28.291  1.00  0.00     0.049 A 
ATOM     68  H   UNL A   1      41.517  30.128  29.363  1.00  0.00     0.167 HD
ATOM     69  C   UNL A   1      44.045  29.445  30.598  1.00  0.00     0.074 A 
ATOM     70  C   UNL A   1      42.798  29.499  31.342  1.00  0.00     0.031 C 
ATOM     71  C   UNL A   1      44.338  29.813  29.318  1.00  0.00     0.031 A 
BRANCH  58  72
ATOM     72  C   UNL A   1      38.938  28.974  28.257  1.00  0.00    -0.014 A 
ATOM     73  C   UNL A   1      37.959  29.442  27.359  1.00  0.00     0.009 A 
ATOM     74  C   UNL A   1      38.571  28.857  29.607  1.00  0.00     0.009 A 
ATOM     75  C   UNL A   1      36.687  29.821  27.794  1.00  0.00     0.001 A 
ATOM     76  C   UNL A   1      37.284  29.201  30.039  1.00  0.00     0.001 A 
ATOM     77  C   UNL A   1      36.347  29.690  29.133  1.00  0.00     0.000 A 
ENDBRANCH  58  72
BRANCH  59  78
ATOM     78  C   UNL A   1      44.323  26.305  34.057  1.00  0.00    -0.014 A 
ATOM     79  C   UNL A   1      45.556  26.035  34.677  1.00  0.00     0.009 A 
ATOM     80  C   UNL A   1      43.153  26.093  34.803  1.00  0.00     0.009 A 
ATOM     81  C   UNL A   1      45.621  25.556  35.989  1.00  0.00     0.001 A 
ATOM     82  C   UNL A   1      43.216  25.605  36.114  1.00  0.00     0.001 A 
ATOM     83  C   UNL A   1      44.449  25.328  36.703  1.00  0.00     0.000 A 
ENDBRANCH  59  78
BRANCH  71  84
ATOM     84  C   UNL A   1      45.775  29.764  28.858  1.00  0.00    -0.014 A 
ATOM     85  C   UNL A   1      46.615  30.846  29.181  1.00  0.00     0.009 A 
ATOM     86  C   UNL A   1      46.293  28.755  28.038  1.00  0.00     0.009 A 
ATOM     87  C   UNL A   1      47.921  30.922  28.687  1.00  0.00     0.001 A 
ATOM     88  C   UNL A   1      47.614  28.812  27.582  1.00  0.00     0.001 A 
ATOM     89  C   UNL A   1      48.422  29.901  27.890  1.00  0.00     0.000 A 
ENDBRANCH  71  84
ENDBRANCH  45  46
ENDBRANCH  38  40
ENDBRANCH  37  38
ENDBRANCH  36  37
ENDBRANCH  35  36
ENDBRANCH  34  35
ENDBRANCH   1  34
TORSDOF 19
ENDMDL
