MODEL 1
REMARK VINA RESULT:     -13.9      0.000      0.000
REMARK SMILES O=C(OCCOCCOC(=O)[C@H]1Cc2[nH]cnc2CN1C(=O)NCc1nc[nH]n1)c1ccc(-c2c3nc(c(-c4ccccc4)c4ccc([nH]4)c(-c4ccccc4)c4nc(c(-c5ccccc5)c5ccc2[nH]5)C=C4)C=C3)cc1
REMARK SMILES IDX 7 1 6 2 5 3 4 4 3 5 2 6 1 7 30 8 31 9 77 10 32 11 76 12
REMARK SMILES IDX 33 13 34 14 35 15 70 16 36 17 75 18 69 19 71 20 37 21 74 22
REMARK SMILES IDX 68 23 67 24 38 26 60 27 45 28 59 29 46 30 49 31 58 32 72 33
REMARK SMILES IDX 47 34 48 35 57 37 73 38 50 39 39 40 40 41 44 42 41 43 43 44
REMARK SMILES IDX 42 45 61 46 62 47 66 48 63 49 65 50 64 51 51 52 52 53 56 54
REMARK SMILES IDX 53 55 55 56 54 57 8 58 9 59 10 60 11 61 12 62 13 63 20 64
REMARK SMILES IDX 14 65 19 66 15 67 18 68 16 69 17 71 21 72 22 73 23 74 24 76
REMARK SMILES IDX 25 77 26 78 29 79 27 80 28 81
REMARK H PARENT 71 25 49 36 15 70 23 75 28 82
REMARK Flexibility Score: inf
ROOT
ATOM      1  C   UNL A   1      40.014  21.292  26.130  1.00  0.00     0.202 C 
ENDROOT
BRANCH   1   2
ATOM      2  O   UNL A   1      40.684  19.901  26.748  1.00  0.00    -0.374 OA
BRANCH   2   3
ATOM      3  C   UNL A   1      42.086  19.765  27.141  1.00  0.00     0.202 C 
BRANCH   3   4
ATOM      4  C   UNL A   1      42.955  18.915  26.243  1.00  0.00     0.261 C 
BRANCH   4   5
ATOM      5  O   UNL A   1      43.075  19.522  24.946  1.00  0.00    -0.460 OA
BRANCH   5   6
ATOM      6  C   UNL A   1      44.359  19.742  24.569  1.00  0.00     0.338 C 
ATOM      7  O   UNL A   1      45.069  18.982  23.922  1.00  0.00    -0.246 OA
BRANCH   6   8
ATOM      8  C   UNL A   1      44.710  21.139  24.805  1.00  0.00     0.060 A 
ATOM      9  C   UNL A   1      45.770  21.546  25.620  1.00  0.00     0.016 A 
ATOM     10  C   UNL A   1      43.799  22.048  24.294  1.00  0.00     0.016 A 
ATOM     11  C   UNL A   1      45.632  22.728  26.291  1.00  0.00     0.010 A 
ATOM     12  C   UNL A   1      43.755  23.281  24.865  1.00  0.00     0.010 A 
ATOM     13  C   UNL A   1      44.498  23.492  26.016  1.00  0.00    -0.014 A 
BRANCH  13  14
ATOM     14  C   UNL A   1      44.240  24.712  26.742  1.00  0.00     0.031 A 
ATOM     15  C   UNL A   1      45.366  25.627  26.429  1.00  0.00     0.074 A 
ATOM     16  C   UNL A   1      43.137  24.897  27.512  1.00  0.00     0.049 A 
ATOM     17  N   UNL A   1      46.444  25.702  27.135  1.00  0.00    -0.248 NA
ATOM     18  C   UNL A   1      45.543  26.169  25.063  1.00  0.00     0.031 C 
ATOM     19  C   UNL A   1      41.962  24.040  27.739  1.00  0.00     0.029 A 
ATOM     20  N   UNL A   1      42.825  25.982  28.285  1.00  0.00    -0.354 N 
ATOM     21  C   UNL A   1      47.247  26.622  26.484  1.00  0.00     0.074 A 
ATOM     22  C   UNL A   1      46.795  26.636  25.122  1.00  0.00     0.031 C 
ATOM     23  C   UNL A   1      40.973  24.748  28.353  1.00  0.00     0.029 A 
ATOM     24  C   UNL A   1      41.484  26.055  28.718  1.00  0.00     0.049 A 
ATOM     25  H   UNL A   1      43.491  26.666  28.524  1.00  0.00     0.167 HD
ATOM     26  C   UNL A   1      47.856  27.576  27.241  1.00  0.00     0.031 A 
ATOM     27  C   UNL A   1      40.907  27.121  29.360  1.00  0.00     0.031 A 
ATOM     28  C   UNL A   1      47.871  27.157  28.628  1.00  0.00     0.049 A 
ATOM     29  C   UNL A   1      42.026  27.903  29.957  1.00  0.00     0.074 A 
ATOM     30  C   UNL A   1      48.382  26.069  29.310  1.00  0.00     0.029 A 
ATOM     31  N   UNL A   1      46.827  27.640  29.383  1.00  0.00    -0.354 N 
ATOM     32  N   UNL A   1      42.756  27.423  30.925  1.00  0.00    -0.248 NA
ATOM     33  C   UNL A   1      42.677  28.863  29.075  1.00  0.00     0.031 C 
ATOM     34  C   UNL A   1      47.360  25.695  30.234  1.00  0.00     0.029 A 
ATOM     35  C   UNL A   1      46.350  26.658  30.207  1.00  0.00     0.049 A 
ATOM     36  H   UNL A   1      46.476  28.558  29.336  1.00  0.00     0.167 HD
ATOM     37  C   UNL A   1      44.058  27.606  30.484  1.00  0.00     0.074 A 
ATOM     38  C   UNL A   1      43.944  28.518  29.334  1.00  0.00     0.031 C 
ATOM     39  C   UNL A   1      45.050  26.732  30.834  1.00  0.00     0.031 A 
BRANCH  26  40
ATOM     40  C   UNL A   1      47.830  29.042  26.864  1.00  0.00    -0.014 A 
ATOM     41  C   UNL A   1      48.953  29.818  27.201  1.00  0.00     0.009 A 
ATOM     42  C   UNL A   1      46.669  29.748  26.491  1.00  0.00     0.009 A 
ATOM     43  C   UNL A   1      48.891  31.215  27.246  1.00  0.00     0.001 A 
ATOM     44  C   UNL A   1      46.611  31.145  26.505  1.00  0.00     0.001 A 
ATOM     45  C   UNL A   1      47.717  31.878  26.905  1.00  0.00     0.000 A 
ENDBRANCH  26  40
BRANCH  27  46
ATOM     46  C   UNL A   1      39.567  27.758  29.167  1.00  0.00    -0.014 A 
ATOM     47  C   UNL A   1      38.687  28.016  30.244  1.00  0.00     0.009 A 
ATOM     48  C   UNL A   1      39.293  28.416  27.958  1.00  0.00     0.009 A 
ATOM     49  C   UNL A   1      37.608  28.916  30.115  1.00  0.00     0.001 A 
ATOM     50  C   UNL A   1      38.227  29.322  27.833  1.00  0.00     0.001 A 
ATOM     51  C   UNL A   1      37.391  29.583  28.913  1.00  0.00     0.000 A 
ENDBRANCH  27  46
BRANCH  39  52
ATOM     52  C   UNL A   1      44.764  25.705  31.903  1.00  0.00    -0.014 A 
ATOM     53  C   UNL A   1      44.665  25.959  33.286  1.00  0.00     0.009 A 
ATOM     54  C   UNL A   1      44.445  24.422  31.443  1.00  0.00     0.009 A 
ATOM     55  C   UNL A   1      44.304  24.932  34.172  1.00  0.00     0.001 A 
ATOM     56  C   UNL A   1      44.067  23.408  32.320  1.00  0.00     0.001 A 
ATOM     57  C   UNL A   1      44.012  23.657  33.687  1.00  0.00     0.000 A 
ENDBRANCH  39  52
ENDBRANCH  13  14
ENDBRANCH   6   8
ENDBRANCH   5   6
ENDBRANCH   4   5
ENDBRANCH   3   4
ENDBRANCH   2   3
ENDBRANCH   1   2
BRANCH   1  58
ATOM     58  C   UNL A   1      37.912  21.690  25.369  1.00  0.00     0.261 C 
BRANCH  58  59
ATOM     59  O   UNL A   1      37.383  23.202  24.879  1.00  0.00    -0.462 OA
BRANCH  59  60
ATOM     60  C   UNL A   1      36.399  23.232  23.947  1.00  0.00     0.329 C 
ATOM     61  O   UNL A   1      36.638  22.943  22.775  1.00  0.00    -0.250 OA
BRANCH  60  62
ATOM     62  C   UNL A   1      34.957  23.565  24.459  1.00  0.00     0.203 C 
ATOM     63  C   UNL A   1      34.013  22.807  23.481  1.00  0.00     0.093 C 
ATOM     64  N   UNL A   1      34.290  23.432  25.828  1.00  0.00    -0.305 N 
ATOM     65  C   UNL A   1      32.648  23.342  23.664  1.00  0.00     0.042 A 
ATOM     66  C   UNL A   1      33.068  24.305  25.969  1.00  0.00     0.180 C 
ATOM     67  N   UNL A   1      31.610  23.285  22.795  1.00  0.00    -0.348 N 
ATOM     68  C   UNL A   1      32.199  24.027  24.771  1.00  0.00     0.081 A 
ATOM     69  C   UNL A   1      30.587  23.987  23.373  1.00  0.00     0.197 A 
ATOM     70  H   UNL A   1      31.594  22.829  21.922  1.00  0.00     0.167 HD
ATOM     71  N   UNL A   1      30.910  24.445  24.568  1.00  0.00    -0.240 NA
BRANCH  64  72
ATOM     72  C   UNL A   1      34.230  22.324  26.633  1.00  0.00     0.318 C 
ATOM     73  O   UNL A   1      34.206  22.393  27.869  1.00  0.00    -0.249 OA
ATOM     74  N   UNL A   1      34.349  21.072  26.180  1.00  0.00    -0.331 N 
ATOM     75  H   UNL A   1      34.435  20.430  26.922  1.00  0.00     0.165 HD
BRANCH  74  76
ATOM     76  C   UNL A   1      34.387  20.410  24.908  1.00  0.00     0.197 C 
BRANCH  76  77
ATOM     77  C   UNL A   1      33.803  19.048  24.872  1.00  0.00     0.169 A 
ATOM     78  N   UNL A   1      34.688  17.590  24.065  1.00  0.00    -0.218 NA
ATOM     79  N   UNL A   1      32.225  18.436  25.322  1.00  0.00    -0.157 NA
ATOM     80  C   UNL A   1      33.763  16.273  23.993  1.00  0.00     0.216 A 
ATOM     81  N   UNL A   1      32.138  16.664  24.758  1.00  0.00    -0.266 N 
ATOM     82  H   UNL A   1      31.371  16.055  24.852  1.00  0.00     0.191 HD
ENDBRANCH  76  77
ENDBRANCH  74  76
ENDBRANCH  64  72
ENDBRANCH  60  62
ENDBRANCH  59  60
ENDBRANCH  58  59
ENDBRANCH   1  58
TORSDOF 17
ENDMDL
MODEL 2
REMARK VINA RESULT:     -13.3      1.160      3.160
REMARK SMILES O=C(OCCOCCOC(=O)[C@H]1Cc2[nH]cnc2CN1C(=O)NCc1nc[nH]n1)c1ccc(-c2c3nc(c(-c4ccccc4)c4ccc([nH]4)c(-c4ccccc4)c4nc(c(-c5ccccc5)c5ccc2[nH]5)C=C4)C=C3)cc1
REMARK SMILES IDX 7 1 6 2 5 3 4 4 3 5 2 6 1 7 30 8 31 9 77 10 32 11 76 12
REMARK SMILES IDX 33 13 34 14 35 15 70 16 36 17 75 18 69 19 71 20 37 21 74 22
REMARK SMILES IDX 68 23 67 24 38 26 60 27 45 28 59 29 46 30 49 31 58 32 72 33
REMARK SMILES IDX 47 34 48 35 57 37 73 38 50 39 39 40 40 41 44 42 41 43 43 44
REMARK SMILES IDX 42 45 61 46 62 47 66 48 63 49 65 50 64 51 51 52 52 53 56 54
REMARK SMILES IDX 53 55 55 56 54 57 8 58 9 59 10 60 11 61 12 62 13 63 20 64
REMARK SMILES IDX 14 65 19 66 15 67 18 68 16 69 17 71 21 72 22 73 23 74 24 76
REMARK SMILES IDX 25 77 26 78 29 79 27 80 28 81
REMARK H PARENT 71 25 49 36 15 70 23 75 28 82
REMARK Flexibility Score: inf
ROOT
ATOM      1  C   UNL A   1      39.431  21.675  26.445  1.00  0.00     0.202 C 
ENDROOT
BRANCH   1   2
ATOM      2  O   UNL A   1      40.522  20.511  25.974  1.00  0.00    -0.374 OA
BRANCH   2   3
ATOM      3  C   UNL A   1      41.807  20.272  26.629  1.00  0.00     0.202 C 
BRANCH   3   4
ATOM      4  C   UNL A   1      42.695  19.221  26.002  1.00  0.00     0.261 C 
BRANCH   4   5
ATOM      5  O   UNL A   1      43.123  19.646  24.697  1.00  0.00    -0.460 OA
BRANCH   5   6
ATOM      6  C   UNL A   1      44.467  19.799  24.594  1.00  0.00     0.338 C 
ATOM      7  O   UNL A   1      45.262  18.978  24.154  1.00  0.00    -0.246 OA
BRANCH   6   8
ATOM      8  C   UNL A   1      44.824  21.196  24.826  1.00  0.00     0.060 A 
ATOM      9  C   UNL A   1      45.877  21.600  25.651  1.00  0.00     0.016 A 
ATOM     10  C   UNL A   1      43.924  22.107  24.301  1.00  0.00     0.016 A 
ATOM     11  C   UNL A   1      45.739  22.786  26.315  1.00  0.00     0.010 A 
ATOM     12  C   UNL A   1      43.881  23.344  24.865  1.00  0.00     0.010 A 
ATOM     13  C   UNL A   1      44.612  23.556  26.023  1.00  0.00    -0.014 A 
BRANCH  13  14
ATOM     14  C   UNL A   1      44.354  24.781  26.740  1.00  0.00     0.031 A 
ATOM     15  C   UNL A   1      45.497  25.681  26.449  1.00  0.00     0.074 A 
ATOM     16  C   UNL A   1      43.237  24.981  27.486  1.00  0.00     0.049 A 
ATOM     17  N   UNL A   1      46.561  25.745  27.177  1.00  0.00    -0.248 NA
ATOM     18  C   UNL A   1      45.710  26.216  25.086  1.00  0.00     0.031 C 
ATOM     19  C   UNL A   1      42.047  24.139  27.690  1.00  0.00     0.029 A 
ATOM     20  N   UNL A   1      42.922  26.073  28.249  1.00  0.00    -0.354 N 
ATOM     21  C   UNL A   1      47.388  26.654  26.542  1.00  0.00     0.074 A 
ATOM     22  C   UNL A   1      46.965  26.669  25.170  1.00  0.00     0.031 C 
ATOM     23  C   UNL A   1      41.054  24.861  28.281  1.00  0.00     0.029 A 
ATOM     24  C   UNL A   1      41.573  26.162  28.654  1.00  0.00     0.049 A 
ATOM     25  H   UNL A   1      43.591  26.749  28.501  1.00  0.00     0.167 HD
ATOM     26  C   UNL A   1      47.993  27.603  27.308  1.00  0.00     0.031 A 
ATOM     27  C   UNL A   1      40.995  27.237  29.280  1.00  0.00     0.031 A 
ATOM     28  C   UNL A   1      47.973  27.187  28.697  1.00  0.00     0.049 A 
ATOM     29  C   UNL A   1      42.111  28.008  29.898  1.00  0.00     0.074 A 
ATOM     30  C   UNL A   1      48.457  26.096  29.392  1.00  0.00     0.029 A 
ATOM     31  N   UNL A   1      46.920  27.685  29.427  1.00  0.00    -0.354 N 
ATOM     32  N   UNL A   1      42.814  27.522  30.883  1.00  0.00    -0.248 NA
ATOM     33  C   UNL A   1      42.792  28.957  29.028  1.00  0.00     0.031 C 
ATOM     34  C   UNL A   1      47.410  25.737  30.296  1.00  0.00     0.029 A 
ATOM     35  C   UNL A   1      46.414  26.712  30.244  1.00  0.00     0.049 A 
ATOM     36  H   UNL A   1      46.580  28.607  29.371  1.00  0.00     0.167 HD
ATOM     37  C   UNL A   1      44.127  27.688  30.469  1.00  0.00     0.074 A 
ATOM     38  C   UNL A   1      44.049  28.598  29.315  1.00  0.00     0.031 C 
ATOM     39  C   UNL A   1      45.101  26.803  30.843  1.00  0.00     0.031 A 
BRANCH  26  40
ATOM     40  C   UNL A   1      47.993  29.068  26.927  1.00  0.00    -0.014 A 
ATOM     41  C   UNL A   1      49.143  29.817  27.231  1.00  0.00     0.009 A 
ATOM     42  C   UNL A   1      46.840  29.801  26.582  1.00  0.00     0.009 A 
ATOM     43  C   UNL A   1      49.116  31.215  27.273  1.00  0.00     0.001 A 
ATOM     44  C   UNL A   1      46.817  31.198  26.592  1.00  0.00     0.001 A 
ATOM     45  C   UNL A   1      47.950  31.905  26.961  1.00  0.00     0.000 A 
ENDBRANCH  26  40
BRANCH  27  46
ATOM     46  C   UNL A   1      39.667  27.890  29.057  1.00  0.00    -0.014 A 
ATOM     47  C   UNL A   1      38.743  28.109  30.105  1.00  0.00     0.009 A 
ATOM     48  C   UNL A   1      39.449  28.600  27.866  1.00  0.00     0.009 A 
ATOM     49  C   UNL A   1      37.674  29.019  29.968  1.00  0.00     0.001 A 
ATOM     50  C   UNL A   1      38.393  29.517  27.734  1.00  0.00     0.001 A 
ATOM     51  C   UNL A   1      37.512  29.737  28.786  1.00  0.00     0.000 A 
ENDBRANCH  27  46
BRANCH  39  52
ATOM     52  C   UNL A   1      44.780  25.783  31.909  1.00  0.00    -0.014 A 
ATOM     53  C   UNL A   1      44.361  24.457  31.682  1.00  0.00     0.009 A 
ATOM     54  C   UNL A   1      45.055  26.173  33.226  1.00  0.00     0.009 A 
ATOM     55  C   UNL A   1      44.180  23.576  32.760  1.00  0.00     0.001 A 
ATOM     56  C   UNL A   1      44.894  25.293  34.293  1.00  0.00     0.001 A 
ATOM     57  C   UNL A   1      44.441  23.999  34.063  1.00  0.00     0.000 A 
ENDBRANCH  39  52
ENDBRANCH  13  14
ENDBRANCH   6   8
ENDBRANCH   5   6
ENDBRANCH   4   5
ENDBRANCH   3   4
ENDBRANCH   2   3
ENDBRANCH   1   2
BRANCH   1  58
ATOM     58  C   UNL A   1      37.843  22.763  25.241  1.00  0.00     0.261 C 
BRANCH  58  59
ATOM     59  O   UNL A   1      36.211  22.716  25.619  1.00  0.00    -0.462 OA
BRANCH  59  60
ATOM     60  C   UNL A   1      35.347  23.044  24.628  1.00  0.00     0.329 C 
ATOM     61  O   UNL A   1      35.471  24.103  24.014  1.00  0.00    -0.250 OA
BRANCH  60  62
ATOM     62  C   UNL A   1      34.257  21.979  24.265  1.00  0.00     0.203 C 
ATOM     63  C   UNL A   1      34.428  20.867  25.341  1.00  0.00     0.093 C 
ATOM     64  N   UNL A   1      32.749  22.079  24.041  1.00  0.00    -0.305 N 
ATOM     65  C   UNL A   1      33.695  19.672  24.876  1.00  0.00     0.042 A 
ATOM     66  C   UNL A   1      32.197  20.916  23.256  1.00  0.00     0.180 C 
ATOM     67  N   UNL A   1      33.878  18.384  25.258  1.00  0.00    -0.348 N 
ATOM     68  C   UNL A   1      32.692  19.665  23.932  1.00  0.00     0.081 A 
ATOM     69  C   UNL A   1      33.026  17.634  24.493  1.00  0.00     0.197 A 
ATOM     70  H   UNL A   1      34.498  18.056  25.948  1.00  0.00     0.167 HD
ATOM     71  N   UNL A   1      32.294  18.377  23.685  1.00  0.00    -0.240 NA
BRANCH  64  72
ATOM     72  C   UNL A   1      31.808  22.637  24.869  1.00  0.00     0.318 C 
ATOM     73  O   UNL A   1      31.691  22.322  26.060  1.00  0.00    -0.249 OA
ATOM     74  N   UNL A   1      30.835  23.448  24.443  1.00  0.00    -0.331 N 
ATOM     75  H   UNL A   1      30.174  23.618  25.153  1.00  0.00     0.165 HD
BRANCH  74  76
ATOM     76  C   UNL A   1      30.491  24.137  23.232  1.00  0.00     0.197 C 
BRANCH  76  77
ATOM     77  C   UNL A   1      31.247  25.383  22.962  1.00  0.00     0.169 A 
ATOM     78  N   UNL A   1      32.744  25.899  23.989  1.00  0.00    -0.218 NA
ATOM     79  N   UNL A   1      30.947  26.727  21.881  1.00  0.00    -0.157 NA
ATOM     80  C   UNL A   1      33.266  27.377  23.616  1.00  0.00     0.216 A 
ATOM     81  N   UNL A   1      32.201  28.046  22.275  1.00  0.00    -0.266 N 
ATOM     82  H   UNL A   1      32.279  28.929  21.849  1.00  0.00     0.191 HD
ENDBRANCH  76  77
ENDBRANCH  74  76
ENDBRANCH  64  72
ENDBRANCH  60  62
ENDBRANCH  59  60
ENDBRANCH  58  59
ENDBRANCH   1  58
TORSDOF 17
ENDMDL
MODEL 3
REMARK VINA RESULT:     -13.0      3.510      8.698
REMARK SMILES O=C(OCCOCCOC(=O)[C@H]1Cc2[nH]cnc2CN1C(=O)NCc1nc[nH]n1)c1ccc(-c2c3nc(c(-c4ccccc4)c4ccc([nH]4)c(-c4ccccc4)c4nc(c(-c5ccccc5)c5ccc2[nH]5)C=C4)C=C3)cc1
REMARK SMILES IDX 7 1 6 2 5 3 4 4 3 5 2 6 1 7 30 8 31 9 77 10 32 11 76 12
REMARK SMILES IDX 33 13 34 14 35 15 70 16 36 17 75 18 69 19 71 20 37 21 74 22
REMARK SMILES IDX 68 23 67 24 38 26 60 27 45 28 59 29 46 30 49 31 58 32 72 33
REMARK SMILES IDX 47 34 48 35 57 37 73 38 50 39 39 40 40 41 44 42 41 43 43 44
REMARK SMILES IDX 42 45 61 46 62 47 66 48 63 49 65 50 64 51 51 52 52 53 56 54
REMARK SMILES IDX 53 55 55 56 54 57 8 58 9 59 10 60 11 61 12 62 13 63 20 64
REMARK SMILES IDX 14 65 19 66 15 67 18 68 16 69 17 71 21 72 22 73 23 74 24 76
REMARK SMILES IDX 25 77 26 78 29 79 27 80 28 81
REMARK H PARENT 71 25 49 36 15 70 23 75 28 82
REMARK Flexibility Score: inf
ROOT
ATOM      1  C   UNL A   1      31.719  28.354  27.537  1.00  0.00     0.202 C 
ENDROOT
BRANCH   1   2
ATOM      2  O   UNL A   1      31.927  29.876  26.898  1.00  0.00    -0.374 OA
BRANCH   2   3
ATOM      3  C   UNL A   1      33.217  30.555  26.789  1.00  0.00     0.202 C 
BRANCH   3   4
ATOM      4  C   UNL A   1      33.377  31.824  27.595  1.00  0.00     0.261 C 
BRANCH   4   5
ATOM      5  O   UNL A   1      34.355  31.637  28.630  1.00  0.00    -0.460 OA
BRANCH   5   6
ATOM      6  C   UNL A   1      35.605  32.022  28.268  1.00  0.00     0.338 C 
ATOM      7  O   UNL A   1      35.895  32.974  27.554  1.00  0.00    -0.246 OA
BRANCH   6   8
ATOM      8  C   UNL A   1      36.593  31.309  29.072  1.00  0.00     0.060 A 
ATOM      9  C   UNL A   1      37.689  31.927  29.681  1.00  0.00     0.016 A 
ATOM     10  C   UNL A   1      36.462  29.932  29.042  1.00  0.00     0.016 A 
ATOM     11  C   UNL A   1      38.833  31.194  29.814  1.00  0.00     0.010 A 
ATOM     12  C   UNL A   1      37.568  29.190  29.316  1.00  0.00     0.010 A 
ATOM     13  C   UNL A   1      38.780  29.851  29.440  1.00  0.00    -0.014 A 
BRANCH  13  14
ATOM     14  C   UNL A   1      39.967  29.031  29.475  1.00  0.00     0.031 A 
ATOM     15  C   UNL A   1      40.248  28.766  30.908  1.00  0.00     0.074 A 
ATOM     16  C   UNL A   1      40.612  28.613  28.355  1.00  0.00     0.049 A 
ATOM     17  N   UNL A   1      41.013  29.508  31.636  1.00  0.00    -0.248 NA
ATOM     18  C   UNL A   1      39.331  27.932  31.716  1.00  0.00     0.031 C 
ATOM     19  C   UNL A   1      40.279  28.777  26.930  1.00  0.00     0.029 A 
ATOM     20  N   UNL A   1      41.770  27.889  28.273  1.00  0.00    -0.354 N 
ATOM     21  C   UNL A   1      40.967  28.953  32.902  1.00  0.00     0.074 A 
ATOM     22  C   UNL A   1      39.736  28.216  32.958  1.00  0.00     0.031 C 
ATOM     23  C   UNL A   1      41.047  27.949  26.168  1.00  0.00     0.029 A 
ATOM     24  C   UNL A   1      42.042  27.317  27.012  1.00  0.00     0.049 A 
ATOM     25  H   UNL A   1      42.374  27.776  29.042  1.00  0.00     0.167 HD
ATOM     26  C   UNL A   1      42.145  28.789  33.564  1.00  0.00     0.031 A 
ATOM     27  C   UNL A   1      43.048  26.426  26.738  1.00  0.00     0.031 A 
ATOM     28  C   UNL A   1      43.159  29.632  32.963  1.00  0.00     0.049 A 
ATOM     29  C   UNL A   1      44.059  26.594  27.820  1.00  0.00     0.074 A 
ATOM     30  C   UNL A   1      43.291  30.990  32.746  1.00  0.00     0.029 A 
ATOM     31  N   UNL A   1      43.938  29.005  32.019  1.00  0.00    -0.354 N 
ATOM     32  N   UNL A   1      44.753  27.692  27.942  1.00  0.00    -0.248 NA
ATOM     33  C   UNL A   1      43.814  25.848  29.047  1.00  0.00     0.031 C 
ATOM     34  C   UNL A   1      43.813  31.107  31.422  1.00  0.00     0.029 A 
ATOM     35  C   UNL A   1      44.141  29.835  30.951  1.00  0.00     0.049 A 
ATOM     36  H   UNL A   1      44.297  28.092  32.099  1.00  0.00     0.167 HD
ATOM     37  C   UNL A   1      44.592  28.042  29.275  1.00  0.00     0.074 A 
ATOM     38  C   UNL A   1      44.010  26.850  29.912  1.00  0.00     0.031 C 
ATOM     39  C   UNL A   1      44.587  29.353  29.663  1.00  0.00     0.031 A 
BRANCH  26  40
ATOM     40  C   UNL A   1      42.510  27.490  34.250  1.00  0.00    -0.014 A 
ATOM     41  C   UNL A   1      43.618  26.781  33.751  1.00  0.00     0.009 A 
ATOM     42  C   UNL A   1      41.663  26.789  35.132  1.00  0.00     0.009 A 
ATOM     43  C   UNL A   1      43.815  25.429  34.046  1.00  0.00     0.001 A 
ATOM     44  C   UNL A   1      41.874  25.445  35.454  1.00  0.00     0.001 A 
ATOM     45  C   UNL A   1      42.938  24.758  34.892  1.00  0.00     0.000 A 
ENDBRANCH  26  40
BRANCH  27  46
ATOM     46  C   UNL A   1      43.042  25.183  25.905  1.00  0.00    -0.014 A 
ATOM     47  C   UNL A   1      44.104  24.847  25.034  1.00  0.00     0.009 A 
ATOM     48  C   UNL A   1      42.137  24.158  26.220  1.00  0.00     0.009 A 
ATOM     49  C   UNL A   1      44.261  23.537  24.534  1.00  0.00     0.001 A 
ATOM     50  C   UNL A   1      42.300  22.850  25.733  1.00  0.00     0.001 A 
ATOM     51  C   UNL A   1      43.367  22.535  24.899  1.00  0.00     0.000 A 
ENDBRANCH  27  46
BRANCH  39  52
ATOM     52  C   UNL A   1      45.002  30.405  28.663  1.00  0.00    -0.014 A 
ATOM     53  C   UNL A   1      46.317  30.862  28.445  1.00  0.00     0.009 A 
ATOM     54  C   UNL A   1      43.995  30.854  27.799  1.00  0.00     0.009 A 
ATOM     55  C   UNL A   1      46.587  31.782  27.419  1.00  0.00     0.001 A 
ATOM     56  C   UNL A   1      44.266  31.750  26.769  1.00  0.00     0.001 A 
ATOM     57  C   UNL A   1      45.560  32.228  26.588  1.00  0.00     0.000 A 
ENDBRANCH  39  52
ENDBRANCH  13  14
ENDBRANCH   6   8
ENDBRANCH   5   6
ENDBRANCH   4   5
ENDBRANCH   3   4
ENDBRANCH   2   3
ENDBRANCH   1   2
BRANCH   1  58
ATOM     58  C   UNL A   1      31.848  26.319  26.539  1.00  0.00     0.261 C 
BRANCH  58  59
ATOM     59  O   UNL A   1      30.514  25.341  26.272  1.00  0.00    -0.462 OA
BRANCH  59  60
ATOM     60  C   UNL A   1      30.664  24.020  26.538  1.00  0.00     0.329 C 
ATOM     61  O   UNL A   1      29.883  23.440  27.292  1.00  0.00    -0.250 OA
BRANCH  60  62
ATOM     62  C   UNL A   1      31.815  23.277  25.779  1.00  0.00     0.203 C 
ATOM     63  C   UNL A   1      31.356  21.791  25.737  1.00  0.00     0.093 C 
ATOM     64  N   UNL A   1      32.485  23.518  24.427  1.00  0.00    -0.305 N 
ATOM     65  C   UNL A   1      32.524  20.967  25.363  1.00  0.00     0.042 A 
ATOM     66  C   UNL A   1      33.840  22.864  24.321  1.00  0.00     0.180 C 
ATOM     67  N   UNL A   1      32.711  19.642  25.581  1.00  0.00    -0.348 N 
ATOM     68  C   UNL A   1      33.658  21.427  24.731  1.00  0.00     0.081 A 
ATOM     69  C   UNL A   1      33.972  19.355  25.134  1.00  0.00     0.197 A 
ATOM     70  H   UNL A   1      32.068  19.013  25.981  1.00  0.00     0.167 HD
ATOM     71  N   UNL A   1      34.569  20.410  24.612  1.00  0.00    -0.240 NA
BRANCH  64  72
ATOM     72  C   UNL A   1      31.885  23.665  23.202  1.00  0.00     0.318 C 
ATOM     73  O   UNL A   1      31.121  22.817  22.724  1.00  0.00    -0.249 OA
ATOM     74  N   UNL A   1      32.182  24.646  22.345  1.00  0.00    -0.331 N 
ATOM     75  H   UNL A   1      31.763  24.493  21.467  1.00  0.00     0.165 HD
BRANCH  74  76
ATOM     76  C   UNL A   1      32.945  25.861  22.356  1.00  0.00     0.197 C 
BRANCH  76  77
ATOM     77  C   UNL A   1      32.218  27.075  22.797  1.00  0.00     0.169 A 
ATOM     78  N   UNL A   1      30.587  27.615  22.017  1.00  0.00    -0.218 NA
ATOM     79  N   UNL A   1      32.648  28.364  23.902  1.00  0.00    -0.157 NA
ATOM     80  C   UNL A   1      30.103  29.060  22.542  1.00  0.00     0.216 A 
ATOM     81  N   UNL A   1      31.335  29.676  23.759  1.00  0.00    -0.266 N 
ATOM     82  H   UNL A   1      31.305  30.533  24.242  1.00  0.00     0.191 HD
ENDBRANCH  76  77
ENDBRANCH  74  76
ENDBRANCH  64  72
ENDBRANCH  60  62
ENDBRANCH  59  60
ENDBRANCH  58  59
ENDBRANCH   1  58
TORSDOF 17
ENDMDL
