MODEL 1
REMARK VINA RESULT:      -9.5      0.000      0.000
REMARK SMILES C[C@H](CC(=O)OCCOCCOC(=O)c1ccc(-c2c3nc(c(-c4ccccc4)c4ccc([nH]4)c(-c4ccccc4)c4nc(c(-c5ccccc5)c5ccc2[nH]5)C=C4)C=C3)cc1)NC(=O)[C@H]1CC(=O)N(C2CC2)C1
REMARK SMILES IDX 8 1 7 2 6 3 4 4 5 5 3 6 2 7 1 8 63 9 64 10 65 12 66 13 67 14
REMARK SMILES IDX 74 15 68 16 70 17 69 18 71 19 72 20 73 21 9 22 10 23 11 24
REMARK SMILES IDX 12 25 13 26 14 27 15 28 16 29 62 30 17 31 61 32 18 33 19 34
REMARK SMILES IDX 20 35 55 36 21 37 60 38 54 39 56 40 22 41 59 42 53 43 52 44
REMARK SMILES IDX 23 46 45 47 30 48 44 49 31 50 34 51 43 52 57 53 32 54 33 55
REMARK SMILES IDX 42 57 58 58 35 59 24 60 25 61 29 62 26 63 28 64 27 65 46 66
REMARK SMILES IDX 47 67 51 68 48 69 50 70 49 71 36 72 37 73 41 74 38 75 40 76
REMARK SMILES IDX 39 77
REMARK H PARENT 63 11 56 45 34 56
REMARK Flexibility Score: inf
ROOT
ATOM      1  C   UNL A   1      41.945  20.486  26.817  1.00  0.00     0.202 C 
ENDROOT
BRANCH   1   2
ATOM      2  C   UNL A   1      40.556  20.978  27.231  1.00  0.00     0.261 C 
BRANCH   2   3
ATOM      3  O   UNL A   1      40.278  22.295  26.719  1.00  0.00    -0.463 OA
BRANCH   3   4
ATOM      4  C   UNL A   1      39.068  22.479  26.126  1.00  0.00     0.307 C 
ATOM      5  O   UNL A   1      38.379  23.485  26.227  1.00  0.00    -0.252 OA
BRANCH   4   6
ATOM      6  C   UNL A   1      38.617  21.248  25.375  1.00  0.00     0.147 C 
BRANCH   6   7
ATOM      7  C   UNL A   1      37.117  21.081  25.096  1.00  0.00     0.090 C 
ATOM      8  C   UNL A   1      36.658  19.629  24.947  1.00  0.00     0.031 C 
BRANCH   7   9
ATOM      9  N   UNL A   1      36.255  21.807  26.026  1.00  0.00    -0.353 N 
ATOM     10  C   UNL A   1      35.183  22.612  25.766  1.00  0.00     0.225 C 
ATOM     11  H   UNL A   1      36.479  21.701  26.978  1.00  0.00     0.163 HD
ATOM     12  O   UNL A   1      34.621  23.179  26.699  1.00  0.00    -0.275 OA
BRANCH  10  13
ATOM     13  C   UNL A   1      34.739  22.765  24.336  1.00  0.00     0.107 C 
ATOM     14  C   UNL A   1      33.585  21.831  23.985  1.00  0.00     0.115 C 
ATOM     15  C   UNL A   1      34.151  24.132  24.045  1.00  0.00     0.133 C 
ATOM     16  C   UNL A   1      32.921  22.548  22.838  1.00  0.00     0.223 C 
ATOM     17  N   UNL A   1      33.324  23.882  22.890  1.00  0.00    -0.339 N 
ATOM     18  O   UNL A   1      32.164  22.007  22.048  1.00  0.00    -0.275 OA
BRANCH  17  19
ATOM     19  C   UNL A   1      32.956  24.943  22.008  1.00  0.00     0.085 C 
ATOM     20  C   UNL A   1      31.757  25.827  22.210  1.00  0.00     0.027 C 
ATOM     21  C   UNL A   1      33.141  26.381  22.403  1.00  0.00     0.027 C 
ENDBRANCH  17  19
ENDBRANCH  10  13
ENDBRANCH   7   9
ENDBRANCH   6   7
ENDBRANCH   4   6
ENDBRANCH   3   4
ENDBRANCH   2   3
ENDBRANCH   1   2
BRANCH   1  22
ATOM     22  O   UNL A   1      42.475  21.042  25.615  1.00  0.00    -0.374 OA
BRANCH  22  23
ATOM     23  C   UNL A   1      43.714  21.741  25.715  1.00  0.00     0.202 C 
BRANCH  23  24
ATOM     24  C   UNL A   1      44.106  22.597  24.506  1.00  0.00     0.261 C 
BRANCH  24  25
ATOM     25  O   UNL A   1      43.494  23.900  24.560  1.00  0.00    -0.460 OA
BRANCH  25  26
ATOM     26  C   UNL A   1      44.280  24.873  25.080  1.00  0.00     0.338 C 
ATOM     27  O   UNL A   1      45.372  25.246  24.662  1.00  0.00    -0.246 OA
BRANCH  26  28
ATOM     28  C   UNL A   1      43.568  25.598  26.146  1.00  0.00     0.060 A 
ATOM     29  C   UNL A   1      43.978  26.908  26.425  1.00  0.00     0.016 A 
ATOM     30  C   UNL A   1      42.562  24.995  26.901  1.00  0.00     0.016 A 
ATOM     31  C   UNL A   1      43.395  27.614  27.478  1.00  0.00     0.010 A 
ATOM     32  C   UNL A   1      41.985  25.703  27.962  1.00  0.00     0.010 A 
ATOM     33  C   UNL A   1      42.411  27.007  28.269  1.00  0.00    -0.014 A 
BRANCH  33  34
ATOM     34  C   UNL A   1      41.881  27.713  29.461  1.00  0.00     0.031 A 
ATOM     35  C   UNL A   1      40.615  28.514  29.351  1.00  0.00     0.074 A 
ATOM     36  C   UNL A   1      42.519  27.625  30.643  1.00  0.00     0.049 A 
ATOM     37  N   UNL A   1      40.005  29.227  30.264  1.00  0.00    -0.248 NA
ATOM     38  C   UNL A   1      39.946  28.511  28.041  1.00  0.00     0.031 C 
ATOM     39  C   UNL A   1      43.732  26.848  30.893  1.00  0.00     0.029 A 
ATOM     40  N   UNL A   1      42.233  28.203  31.854  1.00  0.00    -0.354 N 
ATOM     41  C   UNL A   1      38.884  29.760  29.640  1.00  0.00     0.074 A 
ATOM     42  C   UNL A   1      38.912  29.309  28.265  1.00  0.00     0.031 C 
ATOM     43  C   UNL A   1      44.088  27.000  32.179  1.00  0.00     0.029 A 
ATOM     44  C   UNL A   1      43.155  27.917  32.830  1.00  0.00     0.049 A 
ATOM     45  H   UNL A   1      41.442  28.768  32.009  1.00  0.00     0.167 HD
ATOM     46  C   UNL A   1      37.917  30.551  30.165  1.00  0.00     0.031 A 
ATOM     47  C   UNL A   1      43.253  28.365  34.097  1.00  0.00     0.031 A 
ATOM     48  C   UNL A   1      37.898  31.018  31.527  1.00  0.00     0.049 A 
ATOM     49  C   UNL A   1      42.222  29.325  34.626  1.00  0.00     0.074 A 
ATOM     50  C   UNL A   1      36.947  31.805  32.155  1.00  0.00     0.029 A 
ATOM     51  N   UNL A   1      38.883  30.756  32.466  1.00  0.00    -0.354 N 
ATOM     52  N   UNL A   1      41.150  29.794  34.036  1.00  0.00    -0.248 NA
ATOM     53  C   UNL A   1      42.420  29.820  35.996  1.00  0.00     0.031 C 
ATOM     54  C   UNL A   1      37.390  32.071  33.455  1.00  0.00     0.029 A 
ATOM     55  C   UNL A   1      38.586  31.400  33.656  1.00  0.00     0.049 A 
ATOM     56  H   UNL A   1      39.677  30.195  32.310  1.00  0.00     0.167 HD
ATOM     57  C   UNL A   1      40.535  30.622  34.968  1.00  0.00     0.074 A 
ATOM     58  C   UNL A   1      41.344  30.576  36.169  1.00  0.00     0.031 C 
ATOM     59  C   UNL A   1      39.405  31.358  34.839  1.00  0.00     0.031 A 
BRANCH  46  60
ATOM     60  C   UNL A   1      36.813  30.997  29.248  1.00  0.00    -0.014 A 
ATOM     61  C   UNL A   1      35.781  30.125  28.868  1.00  0.00     0.009 A 
ATOM     62  C   UNL A   1      36.782  32.325  28.792  1.00  0.00     0.009 A 
ATOM     63  C   UNL A   1      34.758  30.565  28.025  1.00  0.00     0.001 A 
ATOM     64  C   UNL A   1      35.744  32.769  27.971  1.00  0.00     0.001 A 
ATOM     65  C   UNL A   1      34.738  31.887  27.581  1.00  0.00     0.000 A 
ENDBRANCH  46  60
BRANCH  47  66
ATOM     66  C   UNL A   1      44.396  27.942  34.948  1.00  0.00    -0.014 A 
ATOM     67  C   UNL A   1      45.595  28.670  34.953  1.00  0.00     0.009 A 
ATOM     68  C   UNL A   1      44.298  26.791  35.746  1.00  0.00     0.009 A 
ATOM     69  C   UNL A   1      46.680  28.242  35.722  1.00  0.00     0.001 A 
ATOM     70  C   UNL A   1      45.373  26.382  36.538  1.00  0.00     0.001 A 
ATOM     71  C   UNL A   1      46.566  27.102  36.517  1.00  0.00     0.000 A 
ENDBRANCH  47  66
BRANCH  59  72
ATOM     72  C   UNL A   1      38.966  32.162  36.031  1.00  0.00    -0.014 A 
ATOM     73  C   UNL A   1      39.392  33.487  36.211  1.00  0.00     0.009 A 
ATOM     74  C   UNL A   1      38.080  31.601  36.966  1.00  0.00     0.009 A 
ATOM     75  C   UNL A   1      38.965  34.223  37.318  1.00  0.00     0.001 A 
ATOM     76  C   UNL A   1      37.632  32.348  38.056  1.00  0.00     0.001 A 
ATOM     77  C   UNL A   1      38.082  33.655  38.236  1.00  0.00     0.000 A 
ENDBRANCH  59  72
ENDBRANCH  33  34
ENDBRANCH  26  28
ENDBRANCH  25  26
ENDBRANCH  24  25
ENDBRANCH  23  24
ENDBRANCH  22  23
ENDBRANCH   1  22
TORSDOF 18
ENDMDL
MODEL 2
REMARK VINA RESULT:      -9.4      1.204      6.162
REMARK SMILES C[C@H](CC(=O)OCCOCCOC(=O)c1ccc(-c2c3nc(c(-c4ccccc4)c4ccc([nH]4)c(-c4ccccc4)c4nc(c(-c5ccccc5)c5ccc2[nH]5)C=C4)C=C3)cc1)NC(=O)[C@H]1CC(=O)N(C2CC2)C1
REMARK SMILES IDX 8 1 7 2 6 3 4 4 5 5 3 6 2 7 1 8 63 9 64 10 65 12 66 13 67 14
REMARK SMILES IDX 74 15 68 16 70 17 69 18 71 19 72 20 73 21 9 22 10 23 11 24
REMARK SMILES IDX 12 25 13 26 14 27 15 28 16 29 62 30 17 31 61 32 18 33 19 34
REMARK SMILES IDX 20 35 55 36 21 37 60 38 54 39 56 40 22 41 59 42 53 43 52 44
REMARK SMILES IDX 23 46 45 47 30 48 44 49 31 50 34 51 43 52 57 53 32 54 33 55
REMARK SMILES IDX 42 57 58 58 35 59 24 60 25 61 29 62 26 63 28 64 27 65 46 66
REMARK SMILES IDX 47 67 51 68 48 69 50 70 49 71 36 72 37 73 41 74 38 75 40 76
REMARK SMILES IDX 39 77
REMARK H PARENT 63 11 56 45 34 56
REMARK Flexibility Score: inf
ROOT
ATOM      1  C   UNL A   1      40.488  20.564  26.493  1.00  0.00     0.202 C 
ENDROOT
BRANCH   1   2
ATOM      2  C   UNL A   1      39.798  21.754  25.822  1.00  0.00     0.261 C 
BRANCH   2   3
ATOM      3  O   UNL A   1      38.431  21.895  26.252  1.00  0.00    -0.463 OA
BRANCH   3   4
ATOM      4  C   UNL A   1      37.470  21.472  25.387  1.00  0.00     0.307 C 
ATOM      5  O   UNL A   1      37.582  20.532  24.613  1.00  0.00    -0.252 OA
BRANCH   4   6
ATOM      6  C   UNL A   1      36.247  22.361  25.428  1.00  0.00     0.147 C 
BRANCH   6   7
ATOM      7  C   UNL A   1      34.982  21.817  26.105  1.00  0.00     0.090 C 
ATOM      8  C   UNL A   1      34.324  22.785  27.090  1.00  0.00     0.031 C 
BRANCH   7   9
ATOM      9  N   UNL A   1      33.997  21.271  25.174  1.00  0.00    -0.353 N 
ATOM     10  C   UNL A   1      33.239  21.915  24.238  1.00  0.00     0.225 C 
ATOM     11  H   UNL A   1      33.860  20.298  25.229  1.00  0.00     0.163 HD
ATOM     12  O   UNL A   1      32.421  21.271  23.585  1.00  0.00    -0.275 OA
BRANCH  10  13
ATOM     13  C   UNL A   1      33.447  23.393  24.049  1.00  0.00     0.107 C 
ATOM     14  C   UNL A   1      33.743  23.756  22.597  1.00  0.00     0.115 C 
ATOM     15  C   UNL A   1      32.199  24.205  24.339  1.00  0.00     0.133 C 
ATOM     16  C   UNL A   1      33.293  25.192  22.521  1.00  0.00     0.223 C 
ATOM     17  N   UNL A   1      32.428  25.417  23.592  1.00  0.00    -0.339 N 
ATOM     18  O   UNL A   1      33.644  25.966  21.645  1.00  0.00    -0.275 OA
BRANCH  17  19
ATOM     19  C   UNL A   1      31.754  26.628  23.933  1.00  0.00     0.085 C 
ATOM     20  C   UNL A   1      30.485  27.099  23.278  1.00  0.00     0.027 C 
ATOM     21  C   UNL A   1      30.461  26.608  24.698  1.00  0.00     0.027 C 
ENDBRANCH  17  19
ENDBRANCH  10  13
ENDBRANCH   7   9
ENDBRANCH   6   7
ENDBRANCH   4   6
ENDBRANCH   3   4
ENDBRANCH   2   3
ENDBRANCH   1   2
BRANCH   1  22
ATOM     22  O   UNL A   1      41.681  20.096  25.866  1.00  0.00    -0.374 OA
BRANCH  22  23
ATOM     23  C   UNL A   1      42.903  20.719  26.252  1.00  0.00     0.202 C 
BRANCH  23  24
ATOM     24  C   UNL A   1      43.683  21.426  25.137  1.00  0.00     0.261 C 
BRANCH  24  25
ATOM     25  O   UNL A   1      43.039  22.652  24.738  1.00  0.00    -0.460 OA
BRANCH  25  26
ATOM     26  C   UNL A   1      43.789  23.767  24.911  1.00  0.00     0.338 C 
ATOM     27  O   UNL A   1      44.763  24.114  24.251  1.00  0.00    -0.246 OA
BRANCH  26  28
ATOM     28  C   UNL A   1      43.169  24.656  25.908  1.00  0.00     0.060 A 
ATOM     29  C   UNL A   1      43.676  25.958  26.019  1.00  0.00     0.016 A 
ATOM     30  C   UNL A   1      42.157  24.215  26.760  1.00  0.00     0.016 A 
ATOM     31  C   UNL A   1      43.183  26.818  27.001  1.00  0.00     0.010 A 
ATOM     32  C   UNL A   1      41.671  25.078  27.750  1.00  0.00     0.010 A 
ATOM     33  C   UNL A   1      42.194  26.375  27.889  1.00  0.00    -0.014 A 
BRANCH  33  34
ATOM     34  C   UNL A   1      41.760  27.248  29.008  1.00  0.00     0.031 A 
ATOM     35  C   UNL A   1      42.501  27.208  30.313  1.00  0.00     0.074 A 
ATOM     36  C   UNL A   1      40.719  28.086  28.852  1.00  0.00     0.049 A 
ATOM     37  N   UNL A   1      42.264  27.866  31.420  1.00  0.00    -0.248 NA
ATOM     38  C   UNL A   1      43.665  26.310  30.383  1.00  0.00     0.031 C 
ATOM     39  C   UNL A   1      39.943  28.251  27.624  1.00  0.00     0.029 A 
ATOM     40  N   UNL A   1      40.134  28.953  29.741  1.00  0.00    -0.354 N 
ATOM     41  C   UNL A   1      43.244  27.461  32.318  1.00  0.00     0.074 A 
ATOM     42  C   UNL A   1      44.063  26.481  31.636  1.00  0.00     0.031 C 
ATOM     43  C   UNL A   1      38.979  29.164  27.839  1.00  0.00     0.029 A 
ATOM     44  C   UNL A   1      39.045  29.614  29.227  1.00  0.00     0.049 A 
ATOM     45  H   UNL A   1      40.464  29.090  30.658  1.00  0.00     0.167 HD
ATOM     46  C   UNL A   1      43.446  27.869  33.594  1.00  0.00     0.031 A 
ATOM     47  C   UNL A   1      38.182  30.463  29.816  1.00  0.00     0.031 A 
ATOM     48  C   UNL A   1      42.620  28.827  34.282  1.00  0.00     0.049 A 
ATOM     49  C   UNL A   1      38.367  30.822  31.266  1.00  0.00     0.074 A 
ATOM     50  C   UNL A   1      42.761  29.319  35.569  1.00  0.00     0.029 A 
ATOM     51  N   UNL A   1      41.491  29.426  33.747  1.00  0.00    -0.354 N 
ATOM     52  N   UNL A   1      39.317  30.458  32.093  1.00  0.00    -0.248 NA
ATOM     53  C   UNL A   1      37.357  31.708  31.863  1.00  0.00     0.031 C 
ATOM     54  C   UNL A   1      41.680  30.167  35.833  1.00  0.00     0.029 A 
ATOM     55  C   UNL A   1      40.900  30.250  34.691  1.00  0.00     0.049 A 
ATOM     56  H   UNL A   1      41.158  29.286  32.831  1.00  0.00     0.167 HD
ATOM     57  C   UNL A   1      39.029  31.084  33.300  1.00  0.00     0.074 A 
ATOM     58  C   UNL A   1      37.829  31.867  33.092  1.00  0.00     0.031 C 
ATOM     59  C   UNL A   1      39.698  31.013  34.477  1.00  0.00     0.031 A 
BRANCH  46  60
ATOM     60  C   UNL A   1      44.588  27.247  34.348  1.00  0.00    -0.014 A 
ATOM     61  C   UNL A   1      45.850  27.859  34.399  1.00  0.00     0.009 A 
ATOM     62  C   UNL A   1      44.384  26.051  35.055  1.00  0.00     0.009 A 
ATOM     63  C   UNL A   1      46.893  27.270  35.116  1.00  0.00     0.001 A 
ATOM     64  C   UNL A   1      45.422  25.478  35.793  1.00  0.00     0.001 A 
ATOM     65  C   UNL A   1      46.676  26.083  35.816  1.00  0.00     0.000 A 
ENDBRANCH  46  60
BRANCH  47  66
ATOM     66  C   UNL A   1      37.032  31.007  29.047  1.00  0.00    -0.014 A 
ATOM     67  C   UNL A   1      36.988  32.362  28.685  1.00  0.00     0.009 A 
ATOM     68  C   UNL A   1      35.960  30.174  28.690  1.00  0.00     0.009 A 
ATOM     69  C   UNL A   1      35.883  32.875  28.000  1.00  0.00     0.001 A 
ATOM     70  C   UNL A   1      34.871  30.683  27.979  1.00  0.00     0.001 A 
ATOM     71  C   UNL A   1      34.830  32.035  27.644  1.00  0.00     0.000 A 
ENDBRANCH  47  66
BRANCH  59  72
ATOM     72  C   UNL A   1      39.156  31.815  35.627  1.00  0.00    -0.014 A 
ATOM     73  C   UNL A   1      38.266  31.248  36.552  1.00  0.00     0.009 A 
ATOM     74  C   UNL A   1      39.575  33.143  35.813  1.00  0.00     0.009 A 
ATOM     75  C   UNL A   1      37.781  32.005  37.622  1.00  0.00     0.001 A 
ATOM     76  C   UNL A   1      39.112  33.887  36.899  1.00  0.00     0.001 A 
ATOM     77  C   UNL A   1      38.208  33.321  37.797  1.00  0.00     0.000 A 
ENDBRANCH  59  72
ENDBRANCH  33  34
ENDBRANCH  26  28
ENDBRANCH  25  26
ENDBRANCH  24  25
ENDBRANCH  23  24
ENDBRANCH  22  23
ENDBRANCH   1  22
TORSDOF 18
ENDMDL
MODEL 3
REMARK VINA RESULT:      -9.3      3.288      8.814
REMARK SMILES C[C@H](CC(=O)OCCOCCOC(=O)c1ccc(-c2c3nc(c(-c4ccccc4)c4ccc([nH]4)c(-c4ccccc4)c4nc(c(-c5ccccc5)c5ccc2[nH]5)C=C4)C=C3)cc1)NC(=O)[C@H]1CC(=O)N(C2CC2)C1
REMARK SMILES IDX 8 1 7 2 6 3 4 4 5 5 3 6 2 7 1 8 63 9 64 10 65 12 66 13 67 14
REMARK SMILES IDX 74 15 68 16 70 17 69 18 71 19 72 20 73 21 9 22 10 23 11 24
REMARK SMILES IDX 12 25 13 26 14 27 15 28 16 29 62 30 17 31 61 32 18 33 19 34
REMARK SMILES IDX 20 35 55 36 21 37 60 38 54 39 56 40 22 41 59 42 53 43 52 44
REMARK SMILES IDX 23 46 45 47 30 48 44 49 31 50 34 51 43 52 57 53 32 54 33 55
REMARK SMILES IDX 42 57 58 58 35 59 24 60 25 61 29 62 26 63 28 64 27 65 46 66
REMARK SMILES IDX 47 67 51 68 48 69 50 70 49 71 36 72 37 73 41 74 38 75 40 76
REMARK SMILES IDX 39 77
REMARK H PARENT 63 11 56 45 34 56
REMARK Flexibility Score: inf
ROOT
ATOM      1  C   UNL A   1      32.725  30.380  27.147  1.00  0.00     0.202 C 
ENDROOT
BRANCH   1   2
ATOM      2  C   UNL A   1      33.581  29.490  26.242  1.00  0.00     0.261 C 
BRANCH   2   3
ATOM      3  O   UNL A   1      33.227  29.638  24.854  1.00  0.00    -0.463 OA
BRANCH   3   4
ATOM      4  C   UNL A   1      33.482  28.577  24.041  1.00  0.00     0.307 C 
ATOM      5  O   UNL A   1      33.833  28.654  22.872  1.00  0.00    -0.252 OA
BRANCH   4   6
ATOM      6  C   UNL A   1      33.201  27.261  24.730  1.00  0.00     0.147 C 
BRANCH   6   7
ATOM      7  C   UNL A   1      32.155  26.328  24.104  1.00  0.00     0.090 C 
ATOM      8  C   UNL A   1      30.741  26.909  24.047  1.00  0.00     0.031 C 
BRANCH   7   9
ATOM      9  N   UNL A   1      32.546  25.781  22.807  1.00  0.00    -0.353 N 
ATOM     10  C   UNL A   1      32.935  24.513  22.482  1.00  0.00     0.225 C 
ATOM     11  H   UNL A   1      32.526  26.419  22.058  1.00  0.00     0.163 HD
ATOM     12  O   UNL A   1      33.279  24.269  21.328  1.00  0.00    -0.275 OA
BRANCH  10  13
ATOM     13  C   UNL A   1      32.921  23.466  23.564  1.00  0.00     0.107 C 
ATOM     14  C   UNL A   1      32.263  22.168  23.106  1.00  0.00     0.115 C 
ATOM     15  C   UNL A   1      34.312  23.005  23.956  1.00  0.00     0.133 C 
ATOM     16  C   UNL A   1      32.894  21.144  24.013  1.00  0.00     0.223 C 
ATOM     17  N   UNL A   1      34.066  21.702  24.523  1.00  0.00    -0.339 N 
ATOM     18  O   UNL A   1      32.425  20.035  24.213  1.00  0.00    -0.275 OA
BRANCH  17  19
ATOM     19  C   UNL A   1      34.998  21.109  25.427  1.00  0.00     0.085 C 
ATOM     20  C   UNL A   1      36.208  20.327  24.996  1.00  0.00     0.027 C 
ATOM     21  C   UNL A   1      36.373  21.686  25.615  1.00  0.00     0.027 C 
ENDBRANCH  17  19
ENDBRANCH  10  13
ENDBRANCH   7   9
ENDBRANCH   6   7
ENDBRANCH   4   6
ENDBRANCH   3   4
ENDBRANCH   2   3
ENDBRANCH   1   2
BRANCH   1  22
ATOM     22  O   UNL A   1      31.557  30.942  26.551  1.00  0.00    -0.374 OA
BRANCH  22  23
ATOM     23  C   UNL A   1      31.415  32.359  26.612  1.00  0.00     0.202 C 
BRANCH  23  24
ATOM     24  C   UNL A   1      32.600  33.132  27.201  1.00  0.00     0.261 C 
BRANCH  24  25
ATOM     25  O   UNL A   1      32.181  34.019  28.256  1.00  0.00    -0.460 OA
BRANCH  25  26
ATOM     26  C   UNL A   1      33.087  34.969  28.591  1.00  0.00     0.338 C 
ATOM     27  O   UNL A   1      32.967  36.183  28.464  1.00  0.00    -0.246 OA
BRANCH  26  28
ATOM     28  C   UNL A   1      34.213  34.372  29.328  1.00  0.00     0.060 A 
ATOM     29  C   UNL A   1      35.484  34.453  28.746  1.00  0.00     0.016 A 
ATOM     30  C   UNL A   1      34.028  33.694  30.533  1.00  0.00     0.016 A 
ATOM     31  C   UNL A   1      36.575  33.835  29.359  1.00  0.00     0.010 A 
ATOM     32  C   UNL A   1      35.122  33.068  31.142  1.00  0.00     0.010 A 
ATOM     33  C   UNL A   1      36.396  33.118  30.550  1.00  0.00    -0.014 A 
BRANCH  33  34
ATOM     34  C   UNL A   1      37.529  32.360  31.134  1.00  0.00     0.031 A 
ATOM     35  C   UNL A   1      38.124  32.798  32.442  1.00  0.00     0.074 A 
ATOM     36  C   UNL A   1      38.015  31.272  30.506  1.00  0.00     0.049 A 
ATOM     37  N   UNL A   1      39.134  32.292  33.103  1.00  0.00    -0.248 NA
ATOM     38  C   UNL A   1      37.497  33.958  33.093  1.00  0.00     0.031 C 
ATOM     39  C   UNL A   1      37.502  30.718  29.255  1.00  0.00     0.029 A 
ATOM     40  N   UNL A   1      39.057  30.443  30.840  1.00  0.00    -0.354 N 
ATOM     41  C   UNL A   1      39.267  33.072  34.244  1.00  0.00     0.074 A 
ATOM     42  C   UNL A   1      38.251  34.101  34.174  1.00  0.00     0.031 C 
ATOM     43  C   UNL A   1      38.233  29.641  28.924  1.00  0.00     0.029 A 
ATOM     44  C   UNL A   1      39.290  29.455  29.916  1.00  0.00     0.049 A 
ATOM     45  H   UNL A   1      39.586  30.547  31.664  1.00  0.00     0.167 HD
ATOM     46  C   UNL A   1      40.153  32.942  35.262  1.00  0.00     0.031 A 
ATOM     47  C   UNL A   1      40.262  28.525  29.859  1.00  0.00     0.031 A 
ATOM     48  C   UNL A   1      41.178  31.933  35.324  1.00  0.00     0.049 A 
ATOM     49  C   UNL A   1      41.298  28.466  30.950  1.00  0.00     0.074 A 
ATOM     50  C   UNL A   1      42.108  31.710  36.326  1.00  0.00     0.029 A 
ATOM     51  N   UNL A   1      41.419  30.990  34.338  1.00  0.00    -0.354 N 
ATOM     52  N   UNL A   1      41.391  29.188  32.040  1.00  0.00    -0.248 NA
ATOM     53  C   UNL A   1      42.363  27.465  30.798  1.00  0.00     0.031 C 
ATOM     54  C   UNL A   1      42.952  30.673  35.915  1.00  0.00     0.029 A 
ATOM     55  C   UNL A   1      42.510  30.210  34.686  1.00  0.00     0.049 A 
ATOM     56  H   UNL A   1      40.894  30.890  33.511  1.00  0.00     0.167 HD
ATOM     57  C   UNL A   1      42.513  28.716  32.712  1.00  0.00     0.074 A 
ATOM     58  C   UNL A   1      43.054  27.633  31.918  1.00  0.00     0.031 C 
ATOM     59  C   UNL A   1      43.048  29.145  33.881  1.00  0.00     0.031 A 
BRANCH  46  60
ATOM     60  C   UNL A   1      40.078  33.947  36.378  1.00  0.00    -0.014 A 
ATOM     61  C   UNL A   1      39.276  33.725  37.508  1.00  0.00     0.009 A 
ATOM     62  C   UNL A   1      40.858  35.113  36.316  1.00  0.00     0.009 A 
ATOM     63  C   UNL A   1      39.233  34.666  38.539  1.00  0.00     0.001 A 
ATOM     64  C   UNL A   1      40.832  36.039  37.360  1.00  0.00     0.001 A 
ATOM     65  C   UNL A   1      40.013  35.819  38.466  1.00  0.00     0.000 A 
ENDBRANCH  46  60
BRANCH  47  66
ATOM     66  C   UNL A   1      40.330  27.591  28.705  1.00  0.00    -0.014 A 
ATOM     67  C   UNL A   1      41.043  27.933  27.546  1.00  0.00     0.009 A 
ATOM     68  C   UNL A   1      39.662  26.357  28.751  1.00  0.00     0.009 A 
ATOM     69  C   UNL A   1      41.065  27.068  26.449  1.00  0.00     0.001 A 
ATOM     70  C   UNL A   1      39.712  25.481  27.665  1.00  0.00     0.001 A 
ATOM     71  C   UNL A   1      40.405  25.842  26.511  1.00  0.00     0.000 A 
ENDBRANCH  47  66
BRANCH  59  72
ATOM     72  C   UNL A   1      44.274  28.432  34.380  1.00  0.00    -0.014 A 
ATOM     73  C   UNL A   1      45.562  28.899  34.073  1.00  0.00     0.009 A 
ATOM     74  C   UNL A   1      44.140  27.302  35.204  1.00  0.00     0.009 A 
ATOM     75  C   UNL A   1      46.689  28.230  34.555  1.00  0.00     0.001 A 
ATOM     76  C   UNL A   1      45.268  26.653  35.708  1.00  0.00     0.001 A 
ATOM     77  C   UNL A   1      46.542  27.112  35.376  1.00  0.00     0.000 A 
ENDBRANCH  59  72
ENDBRANCH  33  34
ENDBRANCH  26  28
ENDBRANCH  25  26
ENDBRANCH  24  25
ENDBRANCH  23  24
ENDBRANCH  22  23
ENDBRANCH   1  22
TORSDOF 18
ENDMDL
