MODEL 1
REMARK VINA RESULT:     -11.7      0.000      0.000
REMARK SMILES Cc1ccnc(C(=O)c2[nH]c3cc(Cl)c(F)cc3c2CC(=O)OCCOCCOC(=O)c2ccc(-c3c4nc(c(-c5ccccc5)c5ccc([nH]5)c(-c5ccccc5)c5nc(c(-c6ccccc6)c6ccc3[nH]6)C=C5)C=C4)cc2)c1
REMARK SMILES IDX 25 1 24 2 23 3 21 4 22 5 20 6 19 7 9 8 10 9 11 10 18 12
REMARK SMILES IDX 12 13 17 14 13 15 15 16 14 17 16 18 7 19 8 20 6 21 1 22 2 23
REMARK SMILES IDX 3 24 80 25 4 26 5 27 26 28 27 29 28 30 29 31 30 32 31 33
REMARK SMILES IDX 32 34 33 35 79 36 34 37 78 38 35 39 36 40 37 41 72 42 38 43
REMARK SMILES IDX 77 44 71 45 73 46 39 47 76 48 70 49 69 50 40 52 62 53 47 54
REMARK SMILES IDX 61 55 48 56 51 57 60 58 74 59 49 60 50 61 59 63 75 64 52 65
REMARK SMILES IDX 41 66 42 67 46 68 43 69 45 70 44 71 63 72 64 73 68 74 65 75
REMARK SMILES IDX 67 76 66 77 53 78 54 79 58 80 55 81 57 82 56 83
REMARK H PARENT 10 11 73 51 51 62
REMARK Flexibility Score: inf
ROOT
ATOM      1  C   UNL A   1      36.544  23.084  23.682  1.00  0.00     0.202 C 
ENDROOT
BRANCH   1   2
ATOM      2  C   UNL A   1      35.134  23.661  23.853  1.00  0.00     0.261 C 
BRANCH   2   3
ATOM      3  O   UNL A   1      34.379  23.586  22.604  1.00  0.00    -0.463 OA
BRANCH   3   4
ATOM      4  C   UNL A   1      33.128  24.114  22.644  1.00  0.00     0.310 C 
ATOM      5  O   UNL A   1      32.914  25.302  22.411  1.00  0.00    -0.252 OA
BRANCH   4   6
ATOM      6  C   UNL A   1      31.982  23.131  22.909  1.00  0.00     0.161 C 
BRANCH   6   7
ATOM      7  C   UNL A   1      31.955  22.194  24.123  1.00  0.00     0.000 A 
ATOM      8  C   UNL A   1      31.936  22.455  25.527  1.00  0.00     0.093 A 
ATOM      9  N   UNL A   1      32.332  21.262  26.119  1.00  0.00    -0.351 N 
ATOM     10  C   UNL A   1      32.442  20.236  25.218  1.00  0.00     0.048 A 
ATOM     11  H   UNL A   1      32.516  21.165  27.082  1.00  0.00     0.167 HD
ATOM     12  C   UNL A   1      32.165  20.765  23.963  1.00  0.00     0.007 A 
ATOM     13  C   UNL A   1      32.805  18.895  25.426  1.00  0.00     0.050 A 
ATOM     14  C   UNL A   1      32.219  19.890  22.851  1.00  0.00     0.051 A 
ATOM     15  C   UNL A   1      32.847  18.053  24.311  1.00  0.00     0.078 A 
ATOM     16  C   UNL A   1      32.546  18.544  23.047  1.00  0.00     0.142 A 
ATOM     17  Cl  UNL A   1      33.288  16.401  24.528  1.00  0.00    -0.081 Cl
ATOM     18  F   UNL A   1      32.576  17.733  21.977  1.00  0.00    -0.205 F 
BRANCH   8  19
ATOM     19  C   UNL A   1      31.885  23.648  26.414  1.00  0.00     0.227 C 
ATOM     20  O   UNL A   1      31.591  23.473  27.598  1.00  0.00    -0.285 OA
BRANCH  19  21
ATOM     21  C   UNL A   1      32.028  25.119  25.972  1.00  0.00     0.113 A 
ATOM     22  C   UNL A   1      33.864  28.348  26.729  1.00  0.00     0.044 C 
ATOM     23  C   UNL A   1      32.973  27.356  26.020  1.00  0.00    -0.047 A 
ATOM     24  C   UNL A   1      31.793  27.851  25.480  1.00  0.00     0.023 A 
ATOM     25  C   UNL A   1      33.151  25.946  26.118  1.00  0.00     0.036 A 
ATOM     26  C   UNL A   1      30.811  26.943  25.157  1.00  0.00     0.112 A 
ATOM     27  N   UNL A   1      30.880  25.619  25.435  1.00  0.00    -0.253 NA
ENDBRANCH  19  21
ENDBRANCH   8  19
ENDBRANCH   6   7
ENDBRANCH   4   6
ENDBRANCH   3   4
ENDBRANCH   2   3
ENDBRANCH   1   2
BRANCH   1  28
ATOM     28  O   UNL A   1      37.410  23.729  24.608  1.00  0.00    -0.374 OA
BRANCH  28  29
ATOM     29  C   UNL A   1      37.694  22.905  25.731  1.00  0.00     0.202 C 
BRANCH  29  30
ATOM     30  C   UNL A   1      38.132  21.485  25.360  1.00  0.00     0.261 C 
BRANCH  30  31
ATOM     31  O   UNL A   1      39.346  21.242  26.023  1.00  0.00    -0.460 OA
BRANCH  31  32
ATOM     32  C   UNL A   1      40.083  20.128  25.862  1.00  0.00     0.338 C 
ATOM     33  O   UNL A   1      39.777  19.038  25.430  1.00  0.00    -0.246 OA
BRANCH  32  34
ATOM     34  C   UNL A   1      41.371  20.679  26.332  1.00  0.00     0.060 A 
ATOM     35  C   UNL A   1      41.449  20.606  27.732  1.00  0.00     0.016 A 
ATOM     36  C   UNL A   1      41.744  21.845  25.637  1.00  0.00     0.016 A 
ATOM     37  C   UNL A   1      41.537  21.798  28.423  1.00  0.00     0.010 A 
ATOM     38  C   UNL A   1      41.882  23.034  26.344  1.00  0.00     0.010 A 
ATOM     39  C   UNL A   1      41.712  23.015  27.729  1.00  0.00    -0.014 A 
BRANCH  39  40
ATOM     40  C   UNL A   1      42.112  24.126  28.578  1.00  0.00     0.031 A 
ATOM     41  C   UNL A   1      41.152  25.241  28.394  1.00  0.00     0.074 A 
ATOM     42  C   UNL A   1      43.129  24.266  29.442  1.00  0.00     0.049 A 
ATOM     43  N   UNL A   1      41.349  26.337  27.741  1.00  0.00    -0.248 NA
ATOM     44  C   UNL A   1      39.755  24.978  28.771  1.00  0.00     0.031 C 
ATOM     45  C   UNL A   1      44.014  23.277  30.045  1.00  0.00     0.029 A 
ATOM     46  N   UNL A   1      43.522  25.436  30.020  1.00  0.00    -0.354 N 
ATOM     47  C   UNL A   1      40.112  26.960  27.695  1.00  0.00     0.074 A 
ATOM     48  C   UNL A   1      39.148  26.013  28.197  1.00  0.00     0.031 C 
ATOM     49  C   UNL A   1      44.688  23.863  31.069  1.00  0.00     0.029 A 
ATOM     50  C   UNL A   1      44.389  25.289  31.085  1.00  0.00     0.049 A 
ATOM     51  H   UNL A   1      43.213  26.315  29.703  1.00  0.00     0.167 HD
ATOM     52  C   UNL A   1      39.969  28.275  27.399  1.00  0.00     0.031 A 
ATOM     53  C   UNL A   1      44.740  26.276  31.945  1.00  0.00     0.031 A 
ATOM     54  C   UNL A   1      41.136  28.828  26.772  1.00  0.00     0.049 A 
ATOM     55  C   UNL A   1      44.478  27.580  31.284  1.00  0.00     0.074 A 
ATOM     56  C   UNL A   1      41.778  28.616  25.568  1.00  0.00     0.029 A 
ATOM     57  N   UNL A   1      42.038  29.486  27.573  1.00  0.00    -0.354 N 
ATOM     58  N   UNL A   1      45.154  28.028  30.266  1.00  0.00    -0.248 NA
ATOM     59  C   UNL A   1      43.198  28.231  31.515  1.00  0.00     0.031 C 
ATOM     60  C   UNL A   1      43.167  28.749  25.859  1.00  0.00     0.029 A 
ATOM     61  C   UNL A   1      43.291  29.058  27.216  1.00  0.00     0.049 A 
ATOM     62  H   UNL A   1      41.824  30.144  28.274  1.00  0.00     0.167 HD
ATOM     63  C   UNL A   1      44.228  28.718  29.495  1.00  0.00     0.074 A 
ATOM     64  C   UNL A   1      43.069  28.894  30.363  1.00  0.00     0.031 C 
ATOM     65  C   UNL A   1      44.382  28.845  28.144  1.00  0.00     0.031 A 
BRANCH  52  66
ATOM     66  C   UNL A   1      38.871  29.108  27.992  1.00  0.00    -0.014 A 
ATOM     67  C   UNL A   1      37.875  29.727  27.209  1.00  0.00     0.009 A 
ATOM     68  C   UNL A   1      38.673  29.095  29.379  1.00  0.00     0.009 A 
ATOM     69  C   UNL A   1      36.749  30.324  27.773  1.00  0.00     0.001 A 
ATOM     70  C   UNL A   1      37.519  29.650  29.945  1.00  0.00     0.001 A 
ATOM     71  C   UNL A   1      36.561  30.265  29.144  1.00  0.00     0.000 A 
ENDBRANCH  52  66
BRANCH  53  72
ATOM     72  C   UNL A   1      44.909  26.182  33.412  1.00  0.00    -0.014 A 
ATOM     73  C   UNL A   1      43.850  25.714  34.211  1.00  0.00     0.009 A 
ATOM     74  C   UNL A   1      45.976  26.831  34.053  1.00  0.00     0.009 A 
ATOM     75  C   UNL A   1      43.835  25.927  35.593  1.00  0.00     0.001 A 
ATOM     76  C   UNL A   1      45.961  27.046  35.438  1.00  0.00     0.001 A 
ATOM     77  C   UNL A   1      44.882  26.608  36.204  1.00  0.00     0.000 A 
ENDBRANCH  53  72
BRANCH  65  78
ATOM     78  C   UNL A   1      45.702  28.439  27.529  1.00  0.00    -0.014 A 
ATOM     79  C   UNL A   1      45.958  27.071  27.347  1.00  0.00     0.009 A 
ATOM     80  C   UNL A   1      46.755  29.347  27.323  1.00  0.00     0.009 A 
ATOM     81  C   UNL A   1      47.232  26.620  26.994  1.00  0.00     0.001 A 
ATOM     82  C   UNL A   1      48.024  28.898  26.942  1.00  0.00     0.001 A 
ATOM     83  C   UNL A   1      48.265  27.533  26.793  1.00  0.00     0.000 A 
ENDBRANCH  65  78
ENDBRANCH  39  40
ENDBRANCH  32  34
ENDBRANCH  31  32
ENDBRANCH  30  31
ENDBRANCH  29  30
ENDBRANCH  28  29
ENDBRANCH   1  28
TORSDOF 17
ENDMDL
MODEL 2
REMARK VINA RESULT:     -11.4      4.539      8.890
REMARK SMILES Cc1ccnc(C(=O)c2[nH]c3cc(Cl)c(F)cc3c2CC(=O)OCCOCCOC(=O)c2ccc(-c3c4nc(c(-c5ccccc5)c5ccc([nH]5)c(-c5ccccc5)c5nc(c(-c6ccccc6)c6ccc3[nH]6)C=C5)C=C4)cc2)c1
REMARK SMILES IDX 25 1 24 2 23 3 21 4 22 5 20 6 19 7 9 8 10 9 11 10 18 12
REMARK SMILES IDX 12 13 17 14 13 15 15 16 14 17 16 18 7 19 8 20 6 21 1 22 2 23
REMARK SMILES IDX 3 24 80 25 4 26 5 27 26 28 27 29 28 30 29 31 30 32 31 33
REMARK SMILES IDX 32 34 33 35 79 36 34 37 78 38 35 39 36 40 37 41 72 42 38 43
REMARK SMILES IDX 77 44 71 45 73 46 39 47 76 48 70 49 69 50 40 52 62 53 47 54
REMARK SMILES IDX 61 55 48 56 51 57 60 58 74 59 49 60 50 61 59 63 75 64 52 65
REMARK SMILES IDX 41 66 42 67 46 68 43 69 45 70 44 71 63 72 64 73 68 74 65 75
REMARK SMILES IDX 67 76 66 77 53 78 54 79 58 80 55 81 57 82 56 83
REMARK H PARENT 10 11 73 51 51 62
REMARK Flexibility Score: inf
ROOT
ATOM      1  C   UNL A   1      32.047  28.659  26.313  1.00  0.00     0.202 C 
ENDROOT
BRANCH   1   2
ATOM      2  C   UNL A   1      31.150  27.481  26.707  1.00  0.00     0.261 C 
BRANCH   2   3
ATOM      3  O   UNL A   1      31.575  26.249  26.044  1.00  0.00    -0.463 OA
BRANCH   3   4
ATOM      4  C   UNL A   1      30.580  25.376  25.741  1.00  0.00     0.310 C 
ATOM      5  O   UNL A   1      29.925  24.806  26.611  1.00  0.00    -0.252 OA
BRANCH   4   6
ATOM      6  C   UNL A   1      30.255  25.203  24.252  1.00  0.00     0.161 C 
BRANCH   6   7
ATOM      7  C   UNL A   1      30.621  26.251  23.195  1.00  0.00     0.000 A 
ATOM      8  C   UNL A   1      31.793  26.431  22.398  1.00  0.00     0.093 A 
ATOM      9  N   UNL A   1      31.724  27.745  21.950  1.00  0.00    -0.351 N 
ATOM     10  C   UNL A   1      30.535  28.349  22.265  1.00  0.00     0.048 A 
ATOM     11  H   UNL A   1      32.451  28.193  21.461  1.00  0.00     0.167 HD
ATOM     12  C   UNL A   1      29.795  27.431  23.001  1.00  0.00     0.007 A 
ATOM     13  C   UNL A   1      30.088  29.650  21.984  1.00  0.00     0.050 A 
ATOM     14  C   UNL A   1      28.513  27.827  23.453  1.00  0.00     0.051 A 
ATOM     15  C   UNL A   1      28.817  30.013  22.439  1.00  0.00     0.078 A 
ATOM     16  C   UNL A   1      28.040  29.109  23.151  1.00  0.00     0.142 A 
ATOM     17  Cl  UNL A   1      28.236  31.603  22.112  1.00  0.00    -0.081 Cl
ATOM     18  F   UNL A   1      26.815  29.454  23.580  1.00  0.00    -0.205 F 
BRANCH   8  19
ATOM     19  C   UNL A   1      33.086  25.728  22.186  1.00  0.00     0.227 C 
ATOM     20  O   UNL A   1      33.513  25.642  21.033  1.00  0.00    -0.285 OA
BRANCH  19  21
ATOM     21  C   UNL A   1      33.894  24.963  23.255  1.00  0.00     0.113 A 
ATOM     22  C   UNL A   1      34.545  21.505  24.663  1.00  0.00     0.044 C 
ATOM     23  C   UNL A   1      34.682  22.991  24.433  1.00  0.00    -0.047 A 
ATOM     24  C   UNL A   1      34.935  23.776  25.550  1.00  0.00     0.023 A 
ATOM     25  C   UNL A   1      34.306  23.623  23.213  1.00  0.00     0.036 A 
ATOM     26  C   UNL A   1      34.709  25.129  25.441  1.00  0.00     0.112 A 
ATOM     27  N   UNL A   1      34.154  25.720  24.356  1.00  0.00    -0.253 NA
ENDBRANCH  19  21
ENDBRANCH   8  19
ENDBRANCH   6   7
ENDBRANCH   4   6
ENDBRANCH   3   4
ENDBRANCH   2   3
ENDBRANCH   1   2
BRANCH   1  28
ATOM     28  O   UNL A   1      33.229  28.609  27.101  1.00  0.00    -0.374 OA
BRANCH  28  29
ATOM     29  C   UNL A   1      33.929  29.846  27.089  1.00  0.00     0.202 C 
BRANCH  29  30
ATOM     30  C   UNL A   1      33.013  31.074  27.054  1.00  0.00     0.261 C 
BRANCH  30  31
ATOM     31  O   UNL A   1      33.522  31.993  27.986  1.00  0.00    -0.460 OA
BRANCH  31  32
ATOM     32  C   UNL A   1      33.088  33.260  28.109  1.00  0.00     0.338 C 
ATOM     33  O   UNL A   1      32.104  33.802  27.653  1.00  0.00    -0.246 OA
BRANCH  32  34
ATOM     34  C   UNL A   1      34.160  33.746  29.001  1.00  0.00     0.060 A 
ATOM     35  C   UNL A   1      35.184  34.346  28.251  1.00  0.00     0.016 A 
ATOM     36  C   UNL A   1      34.447  32.841  30.040  1.00  0.00     0.016 A 
ATOM     37  C   UNL A   1      36.431  33.758  28.299  1.00  0.00     0.010 A 
ATOM     38  C   UNL A   1      35.721  32.289  30.117  1.00  0.00     0.010 A 
ATOM     39  C   UNL A   1      36.689  32.703  29.202  1.00  0.00    -0.014 A 
BRANCH  39  40
ATOM     40  C   UNL A   1      38.103  32.407  29.376  1.00  0.00     0.031 A 
ATOM     41  C   UNL A   1      38.321  30.957  29.155  1.00  0.00     0.074 A 
ATOM     42  C   UNL A   1      39.149  33.195  29.665  1.00  0.00     0.049 A 
ATOM     43  N   UNL A   1      38.547  30.059  30.053  1.00  0.00    -0.248 NA
ATOM     44  C   UNL A   1      38.000  30.437  27.816  1.00  0.00     0.031 C 
ATOM     45  C   UNL A   1      39.292  34.646  29.628  1.00  0.00     0.029 A 
ATOM     46  N   UNL A   1      40.394  32.763  30.012  1.00  0.00    -0.354 N 
ATOM     47  C   UNL A   1      38.488  28.848  29.382  1.00  0.00     0.074 A 
ATOM     48  C   UNL A   1      37.994  29.129  28.056  1.00  0.00     0.031 C 
ATOM     49  C   UNL A   1      40.612  34.955  29.722  1.00  0.00     0.029 A 
ATOM     50  C   UNL A   1      41.372  33.738  29.976  1.00  0.00     0.049 A 
ATOM     51  H   UNL A   1      40.581  31.832  30.269  1.00  0.00     0.167 HD
ATOM     52  C   UNL A   1      39.001  27.704  29.895  1.00  0.00     0.031 A 
ATOM     53  C   UNL A   1      42.705  33.508  30.065  1.00  0.00     0.031 A 
ATOM     54  C   UNL A   1      39.234  27.792  31.309  1.00  0.00     0.049 A 
ATOM     55  C   UNL A   1      42.903  32.180  30.702  1.00  0.00     0.074 A 
ATOM     56  C   UNL A   1      38.421  27.937  32.415  1.00  0.00     0.029 A 
ATOM     57  N   UNL A   1      40.503  28.111  31.726  1.00  0.00    -0.354 N 
ATOM     58  N   UNL A   1      42.627  31.923  31.948  1.00  0.00    -0.248 NA
ATOM     59  C   UNL A   1      43.052  31.014  29.845  1.00  0.00     0.031 C 
ATOM     60  C   UNL A   1      39.156  28.764  33.312  1.00  0.00     0.029 A 
ATOM     61  C   UNL A   1      40.383  29.057  32.713  1.00  0.00     0.049 A 
ATOM     62  H   UNL A   1      41.344  27.732  31.381  1.00  0.00     0.167 HD
ATOM     63  C   UNL A   1      42.170  30.612  31.952  1.00  0.00     0.074 A 
ATOM     64  C   UNL A   1      42.549  30.075  30.650  1.00  0.00     0.031 C 
ATOM     65  C   UNL A   1      41.293  30.169  32.900  1.00  0.00     0.031 A 
BRANCH  52  66
ATOM     66  C   UNL A   1      39.584  26.633  29.022  1.00  0.00    -0.014 A 
ATOM     67  C   UNL A   1      38.874  25.467  28.667  1.00  0.00     0.009 A 
ATOM     68  C   UNL A   1      40.781  26.881  28.337  1.00  0.00     0.009 A 
ATOM     69  C   UNL A   1      39.338  24.579  27.698  1.00  0.00     0.001 A 
ATOM     70  C   UNL A   1      41.224  26.018  27.328  1.00  0.00     0.001 A 
ATOM     71  C   UNL A   1      40.505  24.868  27.012  1.00  0.00     0.000 A 
ENDBRANCH  52  66
BRANCH  53  72
ATOM     72  C   UNL A   1      43.790  34.158  29.298  1.00  0.00    -0.014 A 
ATOM     73  C   UNL A   1      44.790  34.881  29.973  1.00  0.00     0.009 A 
ATOM     74  C   UNL A   1      43.678  34.334  27.909  1.00  0.00     0.009 A 
ATOM     75  C   UNL A   1      45.619  35.780  29.294  1.00  0.00     0.001 A 
ATOM     76  C   UNL A   1      44.508  35.236  27.229  1.00  0.00     0.001 A 
ATOM     77  C   UNL A   1      45.466  35.969  27.925  1.00  0.00     0.000 A 
ENDBRANCH  53  72
BRANCH  65  78
ATOM     78  C   UNL A   1      41.016  31.053  34.094  1.00  0.00    -0.014 A 
ATOM     79  C   UNL A   1      41.642  30.743  35.312  1.00  0.00     0.009 A 
ATOM     80  C   UNL A   1      40.014  32.040  34.093  1.00  0.00     0.009 A 
ATOM     81  C   UNL A   1      41.264  31.379  36.496  1.00  0.00     0.001 A 
ATOM     82  C   UNL A   1      39.653  32.696  35.275  1.00  0.00     0.001 A 
ATOM     83  C   UNL A   1      40.269  32.354  36.478  1.00  0.00     0.000 A 
ENDBRANCH  65  78
ENDBRANCH  39  40
ENDBRANCH  32  34
ENDBRANCH  31  32
ENDBRANCH  30  31
ENDBRANCH  29  30
ENDBRANCH  28  29
ENDBRANCH   1  28
TORSDOF 17
ENDMDL
MODEL 3
REMARK VINA RESULT:     -11.2      4.298      9.398
REMARK SMILES Cc1ccnc(C(=O)c2[nH]c3cc(Cl)c(F)cc3c2CC(=O)OCCOCCOC(=O)c2ccc(-c3c4nc(c(-c5ccccc5)c5ccc([nH]5)c(-c5ccccc5)c5nc(c(-c6ccccc6)c6ccc3[nH]6)C=C5)C=C4)cc2)c1
REMARK SMILES IDX 25 1 24 2 23 3 21 4 22 5 20 6 19 7 9 8 10 9 11 10 18 12
REMARK SMILES IDX 12 13 17 14 13 15 15 16 14 17 16 18 7 19 8 20 6 21 1 22 2 23
REMARK SMILES IDX 3 24 80 25 4 26 5 27 26 28 27 29 28 30 29 31 30 32 31 33
REMARK SMILES IDX 32 34 33 35 79 36 34 37 78 38 35 39 36 40 37 41 72 42 38 43
REMARK SMILES IDX 77 44 71 45 73 46 39 47 76 48 70 49 69 50 40 52 62 53 47 54
REMARK SMILES IDX 61 55 48 56 51 57 60 58 74 59 49 60 50 61 59 63 75 64 52 65
REMARK SMILES IDX 41 66 42 67 46 68 43 69 45 70 44 71 63 72 64 73 68 74 65 75
REMARK SMILES IDX 67 76 66 77 53 78 54 79 58 80 55 81 57 82 56 83
REMARK H PARENT 10 11 73 51 51 62
REMARK Flexibility Score: inf
ROOT
ATOM      1  C   UNL A   1      44.474  26.161  25.480  1.00  0.00     0.202 C 
ENDROOT
BRANCH   1   2
ATOM      2  C   UNL A   1      42.949  26.079  25.339  1.00  0.00     0.261 C 
BRANCH   2   3
ATOM      3  O   UNL A   1      42.430  24.851  25.936  1.00  0.00    -0.463 OA
BRANCH   3   4
ATOM      4  C   UNL A   1      41.198  24.950  26.498  1.00  0.00     0.310 C 
ATOM      5  O   UNL A   1      40.446  25.892  26.258  1.00  0.00    -0.252 OA
BRANCH   4   6
ATOM      6  C   UNL A   1      40.755  23.777  27.382  1.00  0.00     0.161 C 
BRANCH   6   7
ATOM      7  C   UNL A   1      39.958  22.584  26.841  1.00  0.00     0.000 A 
ATOM      8  C   UNL A   1      40.320  21.221  26.615  1.00  0.00     0.093 A 
ATOM      9  N   UNL A   1      39.351  20.731  25.748  1.00  0.00    -0.351 N 
ATOM     10  C   UNL A   1      38.329  21.620  25.541  1.00  0.00     0.048 A 
ATOM     11  H   UNL A   1      39.394  19.842  25.327  1.00  0.00     0.167 HD
ATOM     12  C   UNL A   1      38.645  22.775  26.247  1.00  0.00     0.007 A 
ATOM     13  C   UNL A   1      37.177  21.494  24.748  1.00  0.00     0.050 A 
ATOM     14  C   UNL A   1      37.734  23.857  26.186  1.00  0.00     0.051 A 
ATOM     15  C   UNL A   1      36.293  22.576  24.709  1.00  0.00     0.078 A 
ATOM     16  C   UNL A   1      36.564  23.733  25.428  1.00  0.00     0.142 A 
ATOM     17  Cl  UNL A   1      34.868  22.456  23.747  1.00  0.00    -0.081 Cl
ATOM     18  F   UNL A   1      35.711  24.768  25.399  1.00  0.00    -0.205 F 
BRANCH   8  19
ATOM     19  C   UNL A   1      41.516  20.361  26.822  1.00  0.00     0.227 C 
ATOM     20  O   UNL A   1      41.508  19.583  27.776  1.00  0.00    -0.285 OA
BRANCH  19  21
ATOM     21  C   UNL A   1      42.842  20.442  26.037  1.00  0.00     0.113 A 
ATOM     22  C   UNL A   1      44.930  22.717  23.839  1.00  0.00     0.044 C 
ATOM     23  C   UNL A   1      44.539  21.523  24.677  1.00  0.00    -0.047 A 
ATOM     24  C   UNL A   1      44.945  20.277  24.217  1.00  0.00     0.023 A 
ATOM     25  C   UNL A   1      43.578  21.595  25.726  1.00  0.00     0.036 A 
ATOM     26  C   UNL A   1      44.315  19.170  24.739  1.00  0.00     0.112 A 
ATOM     27  N   UNL A   1      43.257  19.227  25.583  1.00  0.00    -0.253 NA
ENDBRANCH  19  21
ENDBRANCH   8  19
ENDBRANCH   6   7
ENDBRANCH   4   6
ENDBRANCH   3   4
ENDBRANCH   2   3
ENDBRANCH   1   2
BRANCH   1  28
ATOM     28  O   UNL A   1      44.905  25.106  26.330  1.00  0.00    -0.374 OA
BRANCH  28  29
ATOM     29  C   UNL A   1      46.166  25.383  26.923  1.00  0.00     0.202 C 
BRANCH  29  30
ATOM     30  C   UNL A   1      46.380  24.689  28.272  1.00  0.00     0.261 C 
BRANCH  30  31
ATOM     31  O   UNL A   1      45.338  25.102  29.117  1.00  0.00    -0.460 OA
BRANCH  31  32
ATOM     32  C   UNL A   1      45.490  25.979  30.127  1.00  0.00     0.338 C 
ATOM     33  O   UNL A   1      46.486  26.521  30.555  1.00  0.00    -0.246 OA
BRANCH  32  34
ATOM     34  C   UNL A   1      44.065  26.093  30.500  1.00  0.00     0.060 A 
ATOM     35  C   UNL A   1      43.264  26.153  29.348  1.00  0.00     0.016 A 
ATOM     36  C   UNL A   1      43.860  26.970  31.581  1.00  0.00     0.016 A 
ATOM     37  C   UNL A   1      42.535  27.308  29.145  1.00  0.00     0.010 A 
ATOM     38  C   UNL A   1      43.083  28.107  31.387  1.00  0.00     0.010 A 
ATOM     39  C   UNL A   1      42.478  28.302  30.146  1.00  0.00    -0.014 A 
BRANCH  39  40
ATOM     40  C   UNL A   1      41.431  29.290  29.937  1.00  0.00     0.031 A 
ATOM     41  C   UNL A   1      42.059  30.604  29.659  1.00  0.00     0.074 A 
ATOM     42  C   UNL A   1      40.094  29.186  29.941  1.00  0.00     0.049 A 
ATOM     43  N   UNL A   1      42.141  31.612  30.461  1.00  0.00    -0.248 NA
ATOM     44  C   UNL A   1      42.894  30.695  28.451  1.00  0.00     0.031 C 
ATOM     45  C   UNL A   1      39.225  28.016  29.874  1.00  0.00     0.029 A 
ATOM     46  N   UNL A   1      39.217  30.230  29.943  1.00  0.00    -0.354 N 
ATOM     47  C   UNL A   1      42.973  32.518  29.824  1.00  0.00     0.074 A 
ATOM     48  C   UNL A   1      43.529  31.841  28.678  1.00  0.00     0.031 C 
ATOM     49  C   UNL A   1      37.957  28.430  29.615  1.00  0.00     0.029 A 
ATOM     50  C   UNL A   1      37.911  29.886  29.653  1.00  0.00     0.049 A 
ATOM     51  H   UNL A   1      39.493  31.155  30.137  1.00  0.00     0.167 HD
ATOM     52  C   UNL A   1      43.034  33.826  30.177  1.00  0.00     0.031 A 
ATOM     53  C   UNL A   1      36.915  30.765  29.384  1.00  0.00     0.031 A 
ATOM     54  C   UNL A   1      42.480  34.069  31.478  1.00  0.00     0.049 A 
ATOM     55  C   UNL A   1      37.304  32.087  29.939  1.00  0.00     0.074 A 
ATOM     56  C   UNL A   1      42.825  33.694  32.762  1.00  0.00     0.029 A 
ATOM     57  N   UNL A   1      41.175  34.495  31.545  1.00  0.00    -0.354 N 
ATOM     58  N   UNL A   1      37.386  32.346  31.212  1.00  0.00    -0.248 NA
ATOM     59  C   UNL A   1      37.984  33.034  29.068  1.00  0.00     0.031 C 
ATOM     60  C   UNL A   1      41.587  33.487  33.435  1.00  0.00     0.029 A 
ATOM     61  C   UNL A   1      40.558  33.769  32.533  1.00  0.00     0.049 A 
ATOM     62  H   UNL A   1      40.760  35.192  30.988  1.00  0.00     0.167 HD
ATOM     63  C   UNL A   1      38.447  33.233  31.332  1.00  0.00     0.074 A 
ATOM     64  C   UNL A   1      38.707  33.697  29.973  1.00  0.00     0.031 C 
ATOM     65  C   UNL A   1      39.187  33.306  32.477  1.00  0.00     0.031 A 
BRANCH  52  66
ATOM     66  C   UNL A   1      43.311  34.907  29.176  1.00  0.00    -0.014 A 
ATOM     67  C   UNL A   1      42.380  35.287  28.186  1.00  0.00     0.009 A 
ATOM     68  C   UNL A   1      44.426  35.738  29.353  1.00  0.00     0.009 A 
ATOM     69  C   UNL A   1      42.557  36.421  27.395  1.00  0.00     0.001 A 
ATOM     70  C   UNL A   1      44.580  36.904  28.595  1.00  0.00     0.001 A 
ATOM     71  C   UNL A   1      43.649  37.243  27.616  1.00  0.00     0.000 A 
ENDBRANCH  52  66
BRANCH  53  72
ATOM     72  C   UNL A   1      35.855  30.647  28.359  1.00  0.00    -0.014 A 
ATOM     73  C   UNL A   1      34.803  31.580  28.329  1.00  0.00     0.009 A 
ATOM     74  C   UNL A   1      35.704  29.464  27.619  1.00  0.00     0.009 A 
ATOM     75  C   UNL A   1      33.624  31.321  27.622  1.00  0.00     0.001 A 
ATOM     76  C   UNL A   1      34.522  29.203  26.912  1.00  0.00     0.001 A 
ATOM     77  C   UNL A   1      33.478  30.125  26.928  1.00  0.00     0.000 A 
ENDBRANCH  53  72
BRANCH  65  78
ATOM     78  C   UNL A   1      38.685  32.583  33.705  1.00  0.00    -0.014 A 
ATOM     79  C   UNL A   1      38.192  33.349  34.773  1.00  0.00     0.009 A 
ATOM     80  C   UNL A   1      38.875  31.204  33.907  1.00  0.00     0.009 A 
ATOM     81  C   UNL A   1      37.920  32.763  36.012  1.00  0.00     0.001 A 
ATOM     82  C   UNL A   1      38.577  30.612  35.139  1.00  0.00     0.001 A 
ATOM     83  C   UNL A   1      38.114  31.396  36.195  1.00  0.00     0.000 A 
ENDBRANCH  65  78
ENDBRANCH  39  40
ENDBRANCH  32  34
ENDBRANCH  31  32
ENDBRANCH  30  31
ENDBRANCH  29  30
ENDBRANCH  28  29
ENDBRANCH   1  28
TORSDOF 17
ENDMDL
