MODEL 1
REMARK VINA RESULT:     -12.0      0.000      0.000
REMARK SMILES Cc1ccc(C2=NN(C(=O)CCC(=O)OCCOCCOC(=O)c3ccc(-c4c5nc(c(-c6ccccc6)c6ccc([nH]6)c(-c6ccccc6)c6nc(c(-c7ccccc7)c7ccc4[nH]7)C=C6)C=C5)cc3)[C@H](C[C@H]3C=c4cccc(C)c4=NC3=O)C2)cc1
REMARK SMILES IDX 16 1 15 2 13 3 14 4 12 5 11 6 9 7 10 8 8 9 6 10 7 11 86 12
REMARK SMILES IDX 72 13 5 14 1 15 2 16 3 17 88 18 4 19 87 20 73 21 74 22 75 23
REMARK SMILES IDX 84 24 76 25 83 26 85 27 77 28 82 29 78 30 80 31 79 32 81 33
REMARK SMILES IDX 17 34 18 35 19 36 20 37 21 38 22 39 23 40 24 41 25 42 71 43
REMARK SMILES IDX 26 44 70 45 27 46 28 47 29 48 64 49 30 50 69 51 63 52 65 53
REMARK SMILES IDX 31 54 68 55 62 56 61 57 32 59 54 60 39 61 53 62 40 63 43 64
REMARK SMILES IDX 52 65 66 66 41 67 42 68 51 70 67 71 44 72 33 73 34 74 38 75
REMARK SMILES IDX 35 76 37 77 36 78 55 79 56 80 60 81 57 82 59 83 58 84 45 85
REMARK SMILES IDX 46 86 50 87 47 88 49 89 48 90
REMARK H PARENT 65 58 43 69
REMARK Flexibility Score: inf
ROOT
ATOM      1  C   UNL A   1      39.793  26.454  28.616  1.00  0.00     0.261 C 
ENDROOT
BRANCH   1   2
ATOM      2  O   UNL A   1      38.929  26.378  29.731  1.00  0.00    -0.463 OA
BRANCH   2   3
ATOM      3  C   UNL A   1      38.998  27.437  30.548  1.00  0.00     0.306 C 
ATOM      4  O   UNL A   1      39.020  27.384  31.786  1.00  0.00    -0.252 OA
BRANCH   3   5
ATOM      5  C   UNL A   1      39.034  28.708  29.773  1.00  0.00     0.132 C 
BRANCH   5   6
ATOM      6  C   UNL A   1      37.685  29.360  29.510  1.00  0.00     0.114 C 
BRANCH   6   7
ATOM      7  C   UNL A   1      37.199  29.697  28.067  1.00  0.00     0.243 C 
ATOM      8  O   UNL A   1      38.014  29.349  27.190  1.00  0.00    -0.273 OA
BRANCH   7   9
ATOM      9  N   UNL A   1      35.890  30.143  27.677  1.00  0.00    -0.230 N 
ATOM     10  C   UNL A   1      34.586  31.913  28.063  1.00  0.00     0.070 C 
ATOM     11  N   UNL A   1      35.812  31.611  27.825  1.00  0.00    -0.174 NA
ATOM     12  C   UNL A   1      33.712  30.707  28.021  1.00  0.00     0.086 C 
ATOM     13  C   UNL A   1      34.256  29.456  27.173  1.00  0.00     0.118 C 
BRANCH  10  14
ATOM     14  C   UNL A   1      33.972  33.212  28.669  1.00  0.00    -0.002 A 
ATOM     15  C   UNL A   1      33.150  37.026  30.680  1.00  0.00     0.044 C 
ATOM     16  C   UNL A   1      33.404  35.725  29.968  1.00  0.00    -0.051 A 
ATOM     17  C   UNL A   1      32.840  35.381  28.724  1.00  0.00     0.004 A 
ATOM     18  C   UNL A   1      34.202  34.785  30.588  1.00  0.00     0.004 A 
ATOM     19  C   UNL A   1      33.150  34.152  28.056  1.00  0.00     0.010 A 
ATOM     20  C   UNL A   1      34.427  33.557  29.967  1.00  0.00     0.010 A 
ENDBRANCH  10  14
BRANCH  13  21
ATOM     21  C   UNL A   1      33.773  28.860  25.238  1.00  0.00     0.045 C 
BRANCH  21  22
ATOM     22  C   UNL A   1      32.736  27.247  24.788  1.00  0.00     0.106 C 
ATOM     23  C   UNL A   1      33.296  26.071  23.773  1.00  0.00    -0.003 C 
ATOM     24  C   UNL A   1      32.099  26.466  25.992  1.00  0.00     0.253 C 
ATOM     25  C   UNL A   1      33.693  24.864  24.202  1.00  0.00    -0.003 A 
ATOM     26  N   UNL A   1      32.105  25.061  26.052  1.00  0.00    -0.212 NA
ATOM     27  O   UNL A   1      31.592  27.126  26.900  1.00  0.00    -0.272 OA
ATOM     28  C   UNL A   1      34.881  24.120  23.774  1.00  0.00     0.010 A 
ATOM     29  C   UNL A   1      32.842  24.334  25.273  1.00  0.00     0.077 A 
ATOM     30  C   UNL A   1      35.058  22.850  24.169  1.00  0.00     0.001 A 
ATOM     31  C   UNL A   1      32.861  22.812  25.235  1.00  0.00    -0.025 A 
ATOM     32  C   UNL A   1      33.934  22.154  24.742  1.00  0.00     0.005 A 
ATOM     33  C   UNL A   1      31.562  22.116  25.439  1.00  0.00     0.047 C 
ENDBRANCH  21  22
ENDBRANCH  13  21
ENDBRANCH   7   9
ENDBRANCH   6   7
ENDBRANCH   5   6
ENDBRANCH   3   5
ENDBRANCH   2   3
ENDBRANCH   1   2
BRANCH   1  34
ATOM     34  C   UNL A   1      40.490  25.156  28.344  1.00  0.00     0.202 C 
BRANCH  34  35
ATOM     35  O   UNL A   1      40.727  24.777  27.009  1.00  0.00    -0.374 OA
BRANCH  35  36
ATOM     36  C   UNL A   1      41.341  23.555  26.510  1.00  0.00     0.202 C 
BRANCH  36  37
ATOM     37  C   UNL A   1      42.900  23.282  25.714  1.00  0.00     0.261 C 
BRANCH  37  38
ATOM     38  O   UNL A   1      44.727  23.835  25.945  1.00  0.00    -0.460 OA
BRANCH  38  39
ATOM     39  C   UNL A   1      45.682  25.252  26.205  1.00  0.00     0.338 C 
ATOM     40  O   UNL A   1      46.717  25.059  26.820  1.00  0.00    -0.246 OA
BRANCH  39  41
ATOM     41  C   UNL A   1      45.190  27.018  25.846  1.00  0.00     0.060 A 
ATOM     42  C   UNL A   1      46.008  28.141  26.210  1.00  0.00     0.016 A 
ATOM     43  C   UNL A   1      43.886  27.501  25.715  1.00  0.00     0.016 A 
ATOM     44  C   UNL A   1      45.510  29.206  27.109  1.00  0.00     0.010 A 
ATOM     45  C   UNL A   1      43.384  28.596  26.507  1.00  0.00     0.010 A 
ATOM     46  C   UNL A   1      44.159  29.313  27.432  1.00  0.00    -0.014 A 
BRANCH  46  47
ATOM     47  C   UNL A   1      43.465  29.987  28.650  1.00  0.00     0.031 A 
ATOM     48  C   UNL A   1      42.969  29.110  29.815  1.00  0.00     0.074 A 
ATOM     49  C   UNL A   1      43.534  31.338  28.990  1.00  0.00     0.049 A 
ATOM     50  N   UNL A   1      42.399  29.555  30.896  1.00  0.00    -0.248 NA
ATOM     51  C   UNL A   1      43.068  27.651  29.853  1.00  0.00     0.031 C 
ATOM     52  C   UNL A   1      43.600  31.838  30.399  1.00  0.00     0.029 A 
ATOM     53  N   UNL A   1      43.791  32.544  28.296  1.00  0.00    -0.354 N 
ATOM     54  C   UNL A   1      42.399  28.564  31.858  1.00  0.00     0.074 A 
ATOM     55  C   UNL A   1      42.706  27.369  31.113  1.00  0.00     0.031 C 
ATOM     56  C   UNL A   1      43.780  33.160  30.457  1.00  0.00     0.029 A 
ATOM     57  C   UNL A   1      43.549  33.685  29.143  1.00  0.00     0.049 A 
ATOM     58  H   UNL A   1      44.094  32.596  27.362  1.00  0.00     0.167 HD
ATOM     59  C   UNL A   1      42.228  28.868  33.183  1.00  0.00     0.031 A 
ATOM     60  C   UNL A   1      42.708  34.758  28.937  1.00  0.00     0.031 A 
ATOM     61  C   UNL A   1      41.976  30.298  33.409  1.00  0.00     0.049 A 
ATOM     62  C   UNL A   1      41.520  34.721  29.851  1.00  0.00     0.074 A 
ATOM     63  C   UNL A   1      42.673  31.329  34.019  1.00  0.00     0.029 A 
ATOM     64  N   UNL A   1      40.898  30.894  32.778  1.00  0.00    -0.354 N 
ATOM     65  N   UNL A   1      41.494  34.167  31.022  1.00  0.00    -0.248 NA
ATOM     66  C   UNL A   1      40.200  35.116  29.354  1.00  0.00     0.031 C 
ATOM     67  C   UNL A   1      42.017  32.557  33.692  1.00  0.00     0.029 A 
ATOM     68  C   UNL A   1      40.878  32.267  32.962  1.00  0.00     0.049 A 
ATOM     69  H   UNL A   1      40.224  30.401  32.257  1.00  0.00     0.167 HD
ATOM     70  C   UNL A   1      40.192  33.871  31.301  1.00  0.00     0.074 A 
ATOM     71  C   UNL A   1      39.418  34.497  30.240  1.00  0.00     0.031 C 
ATOM     72  C   UNL A   1      39.824  33.040  32.315  1.00  0.00     0.031 A 
BRANCH  59  73
ATOM     73  C   UNL A   1      42.363  27.898  34.358  1.00  0.00    -0.014 A 
ATOM     74  C   UNL A   1      43.302  28.160  35.382  1.00  0.00     0.009 A 
ATOM     75  C   UNL A   1      41.642  26.700  34.505  1.00  0.00     0.009 A 
ATOM     76  C   UNL A   1      43.498  27.291  36.472  1.00  0.00     0.001 A 
ATOM     77  C   UNL A   1      41.811  25.839  35.607  1.00  0.00     0.001 A 
ATOM     78  C   UNL A   1      42.744  26.132  36.589  1.00  0.00     0.000 A 
ENDBRANCH  59  73
BRANCH  60  79
ATOM     79  C   UNL A   1      42.515  35.337  27.570  1.00  0.00    -0.014 A 
ATOM     80  C   UNL A   1      41.743  36.508  27.570  1.00  0.00     0.009 A 
ATOM     81  C   UNL A   1      43.674  35.233  26.801  1.00  0.00     0.009 A 
ATOM     82  C   UNL A   1      42.434  37.680  27.433  1.00  0.00     0.001 A 
ATOM     83  C   UNL A   1      44.405  36.383  26.760  1.00  0.00     0.001 A 
ATOM     84  C   UNL A   1      43.783  37.554  27.187  1.00  0.00     0.000 A 
ENDBRANCH  60  79
BRANCH  72  85
ATOM     85  C   UNL A   1      38.376  32.865  32.669  1.00  0.00    -0.014 A 
ATOM     86  C   UNL A   1      37.738  33.703  33.598  1.00  0.00     0.009 A 
ATOM     87  C   UNL A   1      37.621  31.799  32.159  1.00  0.00     0.009 A 
ATOM     88  C   UNL A   1      36.373  33.605  33.859  1.00  0.00     0.001 A 
ATOM     89  C   UNL A   1      36.266  31.659  32.458  1.00  0.00     0.001 A 
ATOM     90  C   UNL A   1      35.633  32.586  33.277  1.00  0.00     0.000 A 
ENDBRANCH  72  85
ENDBRANCH  46  47
ENDBRANCH  39  41
ENDBRANCH  38  39
ENDBRANCH  37  38
ENDBRANCH  36  37
ENDBRANCH  35  36
ENDBRANCH  34  35
ENDBRANCH   1  34
TORSDOF 20
ENDMDL
MODEL 2
REMARK VINA RESULT:     -11.5      3.344     10.443
REMARK SMILES Cc1ccc(C2=NN(C(=O)CCC(=O)OCCOCCOC(=O)c3ccc(-c4c5nc(c(-c6ccccc6)c6ccc([nH]6)c(-c6ccccc6)c6nc(c(-c7ccccc7)c7ccc4[nH]7)C=C6)C=C5)cc3)[C@H](C[C@H]3C=c4cccc(C)c4=NC3=O)C2)cc1
REMARK SMILES IDX 16 1 15 2 13 3 14 4 12 5 11 6 9 7 10 8 8 9 6 10 7 11 86 12
REMARK SMILES IDX 72 13 5 14 1 15 2 16 3 17 88 18 4 19 87 20 73 21 74 22 75 23
REMARK SMILES IDX 84 24 76 25 83 26 85 27 77 28 82 29 78 30 80 31 79 32 81 33
REMARK SMILES IDX 17 34 18 35 19 36 20 37 21 38 22 39 23 40 24 41 25 42 71 43
REMARK SMILES IDX 26 44 70 45 27 46 28 47 29 48 64 49 30 50 69 51 63 52 65 53
REMARK SMILES IDX 31 54 68 55 62 56 61 57 32 59 54 60 39 61 53 62 40 63 43 64
REMARK SMILES IDX 52 65 66 66 41 67 42 68 51 70 67 71 44 72 33 73 34 74 38 75
REMARK SMILES IDX 35 76 37 77 36 78 55 79 56 80 60 81 57 82 59 83 58 84 45 85
REMARK SMILES IDX 46 86 50 87 47 88 49 89 48 90
REMARK H PARENT 65 58 43 69
REMARK Flexibility Score: inf
ROOT
ATOM      1  C   UNL A   1      33.400  30.223  26.823  1.00  0.00     0.261 C 
ENDROOT
BRANCH   1   2
ATOM      2  O   UNL A   1      33.715  28.892  27.177  1.00  0.00    -0.463 OA
BRANCH   2   3
ATOM      3  C   UNL A   1      32.664  28.064  27.176  1.00  0.00     0.306 C 
ATOM      4  O   UNL A   1      31.744  28.075  28.006  1.00  0.00    -0.252 OA
BRANCH   3   5
ATOM      5  C   UNL A   1      32.743  27.103  26.042  1.00  0.00     0.132 C 
BRANCH   5   6
ATOM      6  C   UNL A   1      34.122  26.529  25.756  1.00  0.00     0.114 C 
BRANCH   6   7
ATOM      7  C   UNL A   1      34.316  25.076  25.223  1.00  0.00     0.243 C 
ATOM      8  O   UNL A   1      35.297  24.501  25.734  1.00  0.00    -0.273 OA
BRANCH   7   9
ATOM      9  N   UNL A   1      33.398  24.320  24.417  1.00  0.00    -0.230 N 
ATOM     10  C   UNL A   1      32.840  22.175  24.151  1.00  0.00     0.070 C 
ATOM     11  N   UNL A   1      33.127  23.024  25.072  1.00  0.00    -0.174 NA
ATOM     12  C   UNL A   1      32.810  22.821  22.807  1.00  0.00     0.086 C 
ATOM     13  C   UNL A   1      32.554  24.407  22.780  1.00  0.00     0.118 C 
BRANCH  10  14
ATOM     14  C   UNL A   1      32.842  20.617  24.187  1.00  0.00    -0.002 A 
ATOM     15  C   UNL A   1      32.433  16.355  25.155  1.00  0.00     0.044 C 
ATOM     16  C   UNL A   1      32.572  17.807  24.788  1.00  0.00    -0.051 A 
ATOM     17  C   UNL A   1      32.317  18.326  23.503  1.00  0.00     0.004 A 
ATOM     18  C   UNL A   1      33.020  18.686  25.753  1.00  0.00     0.004 A 
ATOM     19  C   UNL A   1      32.411  19.725  23.209  1.00  0.00     0.010 A 
ATOM     20  C   UNL A   1      33.191  20.032  25.431  1.00  0.00     0.010 A 
ENDBRANCH  10  14
BRANCH  13  21
ATOM     21  C   UNL A   1      30.794  25.456  22.414  1.00  0.00     0.045 C 
BRANCH  21  22
ATOM     22  C   UNL A   1      30.226  27.068  23.393  1.00  0.00     0.106 C 
ATOM     23  C   UNL A   1      30.665  28.595  22.945  1.00  0.00    -0.003 C 
ATOM     24  C   UNL A   1      28.698  27.175  23.737  1.00  0.00     0.253 C 
ATOM     25  C   UNL A   1      29.812  29.466  22.386  1.00  0.00    -0.003 A 
ATOM     26  N   UNL A   1      27.994  28.387  23.614  1.00  0.00    -0.212 NA
ATOM     27  O   UNL A   1      28.121  26.155  24.115  1.00  0.00    -0.272 OA
ATOM     28  C   UNL A   1      30.070  30.349  21.245  1.00  0.00     0.010 A 
ATOM     29  C   UNL A   1      28.473  29.411  22.982  1.00  0.00     0.077 A 
ATOM     30  C   UNL A   1      29.174  31.287  20.903  1.00  0.00     0.001 A 
ATOM     31  C   UNL A   1      27.801  30.771  22.856  1.00  0.00    -0.025 A 
ATOM     32  C   UNL A   1      28.133  31.607  21.847  1.00  0.00     0.005 A 
ATOM     33  C   UNL A   1      27.044  31.260  24.040  1.00  0.00     0.047 C 
ENDBRANCH  21  22
ENDBRANCH  13  21
ENDBRANCH   7   9
ENDBRANCH   6   7
ENDBRANCH   5   6
ENDBRANCH   3   5
ENDBRANCH   2   3
ENDBRANCH   1   2
BRANCH   1  34
ATOM     34  C   UNL A   1      33.925  31.218  27.813  1.00  0.00     0.202 C 
BRANCH  34  35
ATOM     35  O   UNL A   1      35.275  31.139  28.207  1.00  0.00    -0.374 OA
BRANCH  35  36
ATOM     36  C   UNL A   1      36.194  32.226  28.510  1.00  0.00     0.202 C 
BRANCH  36  37
ATOM     37  C   UNL A   1      37.026  32.655  30.015  1.00  0.00     0.261 C 
BRANCH  37  38
ATOM     38  O   UNL A   1      36.558  32.976  31.853  1.00  0.00    -0.460 OA
BRANCH  38  39
ATOM     39  C   UNL A   1      36.940  32.444  33.451  1.00  0.00     0.338 C 
ATOM     40  O   UNL A   1      36.855  33.308  34.307  1.00  0.00    -0.246 OA
BRANCH  39  41
ATOM     41  C   UNL A   1      37.661  30.792  33.941  1.00  0.00     0.060 A 
ATOM     42  C   UNL A   1      38.797  30.668  34.811  1.00  0.00     0.016 A 
ATOM     43  C   UNL A   1      37.598  29.611  33.197  1.00  0.00     0.016 A 
ATOM     44  C   UNL A   1      40.038  29.990  34.377  1.00  0.00     0.010 A 
ATOM     45  C   UNL A   1      38.777  28.868  32.826  1.00  0.00     0.010 A 
ATOM     46  C   UNL A   1      40.078  29.217  33.218  1.00  0.00    -0.014 A 
BRANCH  46  47
ATOM     47  C   UNL A   1      41.281  28.813  32.318  1.00  0.00     0.031 A 
ATOM     48  C   UNL A   1      41.541  29.590  31.013  1.00  0.00     0.074 A 
ATOM     49  C   UNL A   1      42.377  28.044  32.709  1.00  0.00     0.049 A 
ATOM     50  N   UNL A   1      42.524  29.366  30.192  1.00  0.00    -0.248 NA
ATOM     51  C   UNL A   1      40.703  30.684  30.521  1.00  0.00     0.031 C 
ATOM     52  C   UNL A   1      43.776  28.291  32.237  1.00  0.00     0.029 A 
ATOM     53  N   UNL A   1      42.630  27.081  33.713  1.00  0.00    -0.354 N 
ATOM     54  C   UNL A   1      42.660  30.438  29.333  1.00  0.00     0.074 A 
ATOM     55  C   UNL A   1      41.425  31.163  29.497  1.00  0.00     0.031 C 
ATOM     56  C   UNL A   1      44.661  27.497  32.846  1.00  0.00     0.029 A 
ATOM     57  C   UNL A   1      43.924  26.473  33.528  1.00  0.00     0.049 A 
ATOM     58  H   UNL A   1      42.007  26.856  34.440  1.00  0.00     0.167 HD
ATOM     59  C   UNL A   1      43.827  30.647  28.645  1.00  0.00     0.031 A 
ATOM     60  C   UNL A   1      44.246  25.141  33.384  1.00  0.00     0.031 A 
ATOM     61  C   UNL A   1      44.818  29.587  28.874  1.00  0.00     0.049 A 
ATOM     62  C   UNL A   1      44.682  24.819  31.985  1.00  0.00     0.074 A 
ATOM     63  C   UNL A   1      46.055  29.522  29.495  1.00  0.00     0.029 A 
ATOM     64  N   UNL A   1      44.476  28.277  28.581  1.00  0.00    -0.354 N 
ATOM     65  N   UNL A   1      45.239  25.653  31.164  1.00  0.00    -0.248 NA
ATOM     66  C   UNL A   1      44.271  23.559  31.361  1.00  0.00     0.031 C 
ATOM     67  C   UNL A   1      46.416  28.144  29.615  1.00  0.00     0.029 A 
ATOM     68  C   UNL A   1      45.447  27.379  28.990  1.00  0.00     0.049 A 
ATOM     69  H   UNL A   1      43.638  28.015  28.135  1.00  0.00     0.167 HD
ATOM     70  C   UNL A   1      45.007  25.193  29.901  1.00  0.00     0.074 A 
ATOM     71  C   UNL A   1      44.415  23.875  30.073  1.00  0.00     0.031 C 
ATOM     72  C   UNL A   1      45.204  25.955  28.790  1.00  0.00     0.031 A 
BRANCH  59  73
ATOM     73  C   UNL A   1      44.167  31.869  27.791  1.00  0.00    -0.014 A 
ATOM     74  C   UNL A   1      44.459  33.104  28.413  1.00  0.00     0.009 A 
ATOM     75  C   UNL A   1      44.179  31.896  26.384  1.00  0.00     0.009 A 
ATOM     76  C   UNL A   1      44.747  34.273  27.683  1.00  0.00     0.001 A 
ATOM     77  C   UNL A   1      44.494  33.053  25.647  1.00  0.00     0.001 A 
ATOM     78  C   UNL A   1      44.773  34.244  26.297  1.00  0.00     0.000 A 
ENDBRANCH  59  73
BRANCH  60  79
ATOM     79  C   UNL A   1      43.510  24.081  34.142  1.00  0.00    -0.014 A 
ATOM     80  C   UNL A   1      43.907  22.780  33.801  1.00  0.00     0.009 A 
ATOM     81  C   UNL A   1      43.305  24.451  35.471  1.00  0.00     0.009 A 
ATOM     82  C   UNL A   1      44.733  22.153  34.692  1.00  0.00     0.001 A 
ATOM     83  C   UNL A   1      44.204  23.897  36.335  1.00  0.00     0.001 A 
ATOM     84  C   UNL A   1      44.967  22.830  35.869  1.00  0.00     0.000 A 
ENDBRANCH  60  79
BRANCH  72  85
ATOM     85  C   UNL A   1      45.074  25.353  27.422  1.00  0.00    -0.014 A 
ATOM     86  C   UNL A   1      45.966  24.371  26.960  1.00  0.00     0.009 A 
ATOM     87  C   UNL A   1      44.114  25.812  26.508  1.00  0.00     0.009 A 
ATOM     88  C   UNL A   1      45.793  23.742  25.728  1.00  0.00     0.001 A 
ATOM     89  C   UNL A   1      43.968  25.228  25.250  1.00  0.00     0.001 A 
ATOM     90  C   UNL A   1      44.783  24.165  24.877  1.00  0.00     0.000 A 
ENDBRANCH  72  85
ENDBRANCH  46  47
ENDBRANCH  39  41
ENDBRANCH  38  39
ENDBRANCH  37  38
ENDBRANCH  36  37
ENDBRANCH  35  36
ENDBRANCH  34  35
ENDBRANCH   1  34
TORSDOF 20
ENDMDL
MODEL 3
REMARK VINA RESULT:     -11.4      3.296      7.985
REMARK SMILES Cc1ccc(C2=NN(C(=O)CCC(=O)OCCOCCOC(=O)c3ccc(-c4c5nc(c(-c6ccccc6)c6ccc([nH]6)c(-c6ccccc6)c6nc(c(-c7ccccc7)c7ccc4[nH]7)C=C6)C=C5)cc3)[C@H](C[C@H]3C=c4cccc(C)c4=NC3=O)C2)cc1
REMARK SMILES IDX 16 1 15 2 13 3 14 4 12 5 11 6 9 7 10 8 8 9 6 10 7 11 86 12
REMARK SMILES IDX 72 13 5 14 1 15 2 16 3 17 88 18 4 19 87 20 73 21 74 22 75 23
REMARK SMILES IDX 84 24 76 25 83 26 85 27 77 28 82 29 78 30 80 31 79 32 81 33
REMARK SMILES IDX 17 34 18 35 19 36 20 37 21 38 22 39 23 40 24 41 25 42 71 43
REMARK SMILES IDX 26 44 70 45 27 46 28 47 29 48 64 49 30 50 69 51 63 52 65 53
REMARK SMILES IDX 31 54 68 55 62 56 61 57 32 59 54 60 39 61 53 62 40 63 43 64
REMARK SMILES IDX 52 65 66 66 41 67 42 68 51 70 67 71 44 72 33 73 34 74 38 75
REMARK SMILES IDX 35 76 37 77 36 78 55 79 56 80 60 81 57 82 59 83 58 84 45 85
REMARK SMILES IDX 46 86 50 87 47 88 49 89 48 90
REMARK H PARENT 65 58 43 69
REMARK Flexibility Score: inf
ROOT
ATOM      1  C   UNL A   1      36.836  30.175  27.827  1.00  0.00     0.261 C 
ENDROOT
BRANCH   1   2
ATOM      2  O   UNL A   1      35.526  30.054  28.342  1.00  0.00    -0.463 OA
BRANCH   2   3
ATOM      3  C   UNL A   1      34.616  30.792  27.696  1.00  0.00     0.306 C 
ATOM      4  O   UNL A   1      34.588  32.031  27.671  1.00  0.00    -0.252 OA
BRANCH   3   5
ATOM      5  C   UNL A   1      33.617  29.928  27.010  1.00  0.00     0.132 C 
BRANCH   5   6
ATOM      6  C   UNL A   1      33.661  28.451  27.371  1.00  0.00     0.114 C 
BRANCH   6   7
ATOM      7  C   UNL A   1      32.465  27.494  27.076  1.00  0.00     0.243 C 
ATOM      8  O   UNL A   1      31.705  27.354  28.053  1.00  0.00    -0.273 OA
BRANCH   7   9
ATOM      9  N   UNL A   1      32.072  26.971  25.796  1.00  0.00    -0.230 N 
ATOM     10  C   UNL A   1      31.094  27.748  23.946  1.00  0.00     0.070 C 
ATOM     11  N   UNL A   1      31.965  28.083  24.829  1.00  0.00    -0.174 NA
ATOM     12  C   UNL A   1      30.590  26.364  24.178  1.00  0.00     0.086 C 
ATOM     13  C   UNL A   1      31.546  25.385  25.019  1.00  0.00     0.118 C 
BRANCH  10  14
ATOM     14  C   UNL A   1      30.300  28.630  22.934  1.00  0.00    -0.002 A 
ATOM     15  C   UNL A   1      27.568  31.377  20.872  1.00  0.00     0.044 C 
ATOM     16  C   UNL A   1      28.529  30.442  21.552  1.00  0.00    -0.051 A 
ATOM     17  C   UNL A   1      29.904  30.362  21.252  1.00  0.00     0.004 A 
ATOM     18  C   UNL A   1      28.033  29.570  22.501  1.00  0.00     0.004 A 
ATOM     19  C   UNL A   1      30.794  29.494  21.962  1.00  0.00     0.010 A 
ATOM     20  C   UNL A   1      28.896  28.668  23.124  1.00  0.00     0.010 A 
ENDBRANCH  10  14
BRANCH  13  21
ATOM     21  C   UNL A   1      32.852  23.912  24.344  1.00  0.00     0.045 C 
BRANCH  21  22
ATOM     22  C   UNL A   1      33.046  22.128  25.156  1.00  0.00     0.106 C 
ATOM     23  C   UNL A   1      32.132  20.830  24.704  1.00  0.00    -0.003 C 
ATOM     24  C   UNL A   1      34.508  21.567  25.272  1.00  0.00     0.253 C 
ATOM     25  C   UNL A   1      32.620  19.805  23.989  1.00  0.00    -0.003 A 
ATOM     26  N   UNL A   1      34.810  20.222  24.994  1.00  0.00    -0.212 NA
ATOM     27  O   UNL A   1      35.397  22.349  25.611  1.00  0.00    -0.272 OA
ATOM     28  C   UNL A   1      31.979  19.131  22.856  1.00  0.00     0.010 A 
ATOM     29  C   UNL A   1      33.981  19.431  24.390  1.00  0.00     0.077 A 
ATOM     30  C   UNL A   1      32.516  18.012  22.347  1.00  0.00     0.001 A 
ATOM     31  C   UNL A   1      34.210  17.954  24.106  1.00  0.00    -0.025 A 
ATOM     32  C   UNL A   1      33.528  17.333  23.117  1.00  0.00     0.005 A 
ATOM     33  C   UNL A   1      34.933  17.172  25.145  1.00  0.00     0.047 C 
ENDBRANCH  21  22
ENDBRANCH  13  21
ENDBRANCH   7   9
ENDBRANCH   6   7
ENDBRANCH   5   6
ENDBRANCH   3   5
ENDBRANCH   2   3
ENDBRANCH   1   2
BRANCH   1  34
ATOM     34  C   UNL A   1      37.816  30.640  28.860  1.00  0.00     0.202 C 
BRANCH  34  35
ATOM     35  O   UNL A   1      38.207  29.748  29.879  1.00  0.00    -0.374 OA
BRANCH  35  36
ATOM     36  C   UNL A   1      37.389  29.160  30.929  1.00  0.00     0.202 C 
BRANCH  36  37
ATOM     37  C   UNL A   1      37.703  28.943  32.659  1.00  0.00     0.261 C 
BRANCH  37  38
ATOM     38  O   UNL A   1      38.468  29.961  34.100  1.00  0.00    -0.460 OA
BRANCH  38  39
ATOM     39  C   UNL A   1      39.406  31.382  34.394  1.00  0.00     0.338 C 
ATOM     40  O   UNL A   1      39.286  31.845  35.516  1.00  0.00    -0.246 OA
BRANCH  39  41
ATOM     41  C   UNL A   1      40.375  32.367  33.138  1.00  0.00     0.060 A 
ATOM     42  C   UNL A   1      39.893  32.616  31.808  1.00  0.00     0.016 A 
ATOM     43  C   UNL A   1      41.765  32.503  33.090  1.00  0.00     0.016 A 
ATOM     44  C   UNL A   1      40.648  32.177  30.613  1.00  0.00     0.010 A 
ATOM     45  C   UNL A   1      42.534  32.172  31.916  1.00  0.00     0.010 A 
ATOM     46  C   UNL A   1      41.969  31.744  30.705  1.00  0.00    -0.014 A 
BRANCH  46  47
ATOM     47  C   UNL A   1      42.797  30.829  29.758  1.00  0.00     0.031 A 
ATOM     48  C   UNL A   1      42.566  29.307  29.786  1.00  0.00     0.074 A 
ATOM     49  C   UNL A   1      43.498  31.242  28.623  1.00  0.00     0.049 A 
ATOM     50  N   UNL A   1      43.174  28.443  29.028  1.00  0.00    -0.248 NA
ATOM     51  C   UNL A   1      41.629  28.630  30.683  1.00  0.00     0.031 C 
ATOM     52  C   UNL A   1      43.592  30.434  27.367  1.00  0.00     0.029 A 
ATOM     53  N   UNL A   1      44.066  32.455  28.171  1.00  0.00    -0.354 N 
ATOM     54  C   UNL A   1      42.497  27.240  29.065  1.00  0.00     0.074 A 
ATOM     55  C   UNL A   1      41.627  27.375  30.206  1.00  0.00     0.031 C 
ATOM     56  C   UNL A   1      44.214  31.097  26.388  1.00  0.00     0.029 A 
ATOM     57  C   UNL A   1      44.841  32.245  26.974  1.00  0.00     0.049 A 
ATOM     58  H   UNL A   1      43.948  33.326  28.614  1.00  0.00     0.167 HD
ATOM     59  C   UNL A   1      42.677  26.299  28.086  1.00  0.00     0.031 A 
ATOM     60  C   UNL A   1      46.166  32.540  26.734  1.00  0.00     0.031 A 
ATOM     61  C   UNL A   1      43.692  26.694  27.099  1.00  0.00     0.049 A 
ATOM     62  C   UNL A   1      47.008  31.302  26.646  1.00  0.00     0.074 A 
ATOM     63  C   UNL A   1      43.673  27.026  25.754  1.00  0.00     0.029 A 
ATOM     64  N   UNL A   1      44.974  26.983  27.539  1.00  0.00    -0.354 N 
ATOM     65  N   UNL A   1      46.585  30.136  26.271  1.00  0.00    -0.248 NA
ATOM     66  C   UNL A   1      48.352  31.287  27.227  1.00  0.00     0.031 C 
ATOM     67  C   UNL A   1      44.952  27.569  25.415  1.00  0.00     0.029 A 
ATOM     68  C   UNL A   1      45.773  27.485  26.526  1.00  0.00     0.049 A 
ATOM     69  H   UNL A   1      45.281  26.848  28.464  1.00  0.00     0.167 HD
ATOM     70  C   UNL A   1      47.432  29.209  26.804  1.00  0.00     0.074 A 
ATOM     71  C   UNL A   1      48.530  29.973  27.378  1.00  0.00     0.031 C 
ATOM     72  C   UNL A   1      47.139  27.880  26.849  1.00  0.00     0.031 A 
BRANCH  59  73
ATOM     73  C   UNL A   1      41.882  25.004  27.918  1.00  0.00    -0.014 A 
ATOM     74  C   UNL A   1      42.456  23.770  28.301  1.00  0.00     0.009 A 
ATOM     75  C   UNL A   1      40.594  24.912  27.360  1.00  0.00     0.009 A 
ATOM     76  C   UNL A   1      41.789  22.541  28.142  1.00  0.00     0.001 A 
ATOM     77  C   UNL A   1      39.908  23.689  27.224  1.00  0.00     0.001 A 
ATOM     78  C   UNL A   1      40.508  22.502  27.611  1.00  0.00     0.000 A 
ENDBRANCH  59  73
BRANCH  60  79
ATOM     79  C   UNL A   1      46.799  33.771  27.304  1.00  0.00    -0.014 A 
ATOM     80  C   UNL A   1      47.196  34.693  26.324  1.00  0.00     0.009 A 
ATOM     81  C   UNL A   1      46.156  34.185  28.469  1.00  0.00     0.009 A 
ATOM     82  C   UNL A   1      46.384  35.781  26.161  1.00  0.00     0.001 A 
ATOM     83  C   UNL A   1      45.271  35.204  28.271  1.00  0.00     0.001 A 
ATOM     84  C   UNL A   1      45.351  35.896  27.065  1.00  0.00     0.000 A 
ENDBRANCH  60  79
BRANCH  72  85
ATOM     85  C   UNL A   1      48.166  26.889  27.312  1.00  0.00    -0.014 A 
ATOM     86  C   UNL A   1      48.314  26.560  28.670  1.00  0.00     0.009 A 
ATOM     87  C   UNL A   1      49.086  26.317  26.422  1.00  0.00     0.009 A 
ATOM     88  C   UNL A   1      49.201  25.572  29.094  1.00  0.00     0.001 A 
ATOM     89  C   UNL A   1      50.015  25.367  26.845  1.00  0.00     0.001 A 
ATOM     90  C   UNL A   1      50.045  24.966  28.176  1.00  0.00     0.000 A 
ENDBRANCH  72  85
ENDBRANCH  46  47
ENDBRANCH  39  41
ENDBRANCH  38  39
ENDBRANCH  37  38
ENDBRANCH  36  37
ENDBRANCH  35  36
ENDBRANCH  34  35
ENDBRANCH   1  34
TORSDOF 20
ENDMDL
