MODEL 1
REMARK VINA RESULT:     -10.2      0.000      0.000
REMARK SMILES CCCc1cc2c(cc1Cl)C=C(C(=O)OCCOCCOC(=O)c1ccc(-c3c4nc(c(-c5ccccc5)c5ccc([nH]5)c(-c5ccccc5)c5nc(c(-c6ccccc6)c6ccc3[nH]6)C=C5)C=C4)cc1)[C@@H](C(F)(F)F)O2
REMARK SMILES IDX 18 1 17 2 16 3 15 4 13 5 14 6 12 7 4 8 5 9 9 10 6 11 8 12
REMARK SMILES IDX 10 13 7 14 77 15 11 16 72 17 3 18 2 19 1 20 73 21 74 22
REMARK SMILES IDX 75 23 76 24 19 25 20 26 21 27 22 28 23 29 24 30 25 31 71 32
REMARK SMILES IDX 26 33 70 34 27 35 28 36 29 37 64 38 30 39 69 40 63 41 65 42
REMARK SMILES IDX 31 43 68 44 62 45 61 46 32 48 54 49 39 50 53 51 40 52 43 53
REMARK SMILES IDX 52 54 66 55 41 56 42 57 51 59 67 60 44 61 33 62 34 63 38 64
REMARK SMILES IDX 35 65 37 66 36 67 55 68 56 69 60 70 57 71 59 72 58 73 45 74
REMARK SMILES IDX 46 75 50 76 47 77 49 78 48 79
REMARK H PARENT 65 47 43 58
REMARK Flexibility Score: inf
ROOT
ATOM      1  O   UNL A   1      38.850  21.498  25.464  1.00  0.00    -0.374 OA
ENDROOT
BRANCH   1   2
ATOM      2  C   UNL A   1      37.610  22.180  25.304  1.00  0.00     0.202 C 
BRANCH   2   3
ATOM      3  C   UNL A   1      36.322  21.358  25.400  1.00  0.00     0.261 C 
BRANCH   3   4
ATOM      4  O   UNL A   1      35.425  21.638  24.315  1.00  0.00    -0.460 OA
BRANCH   4   5
ATOM      5  C   UNL A   1      34.138  21.296  24.559  1.00  0.00     0.338 C 
ATOM      6  O   UNL A   1      33.675  20.169  24.610  1.00  0.00    -0.246 OA
BRANCH   5   7
ATOM      7  C   UNL A   1      33.361  22.504  24.892  1.00  0.00     0.087 C 
ATOM      8  C   UNL A   1      32.019  27.298  25.327  1.00  0.00    -0.026 A 
ATOM      9  C   UNL A   1      31.676  26.117  26.010  1.00  0.00     0.052 A 
ATOM     10  C   UNL A   1      32.671  27.170  24.086  1.00  0.00     0.045 A 
ATOM     11  C   UNL A   1      32.120  24.873  25.563  1.00  0.00     0.128 A 
ATOM     12  C   UNL A   1      33.086  25.920  23.621  1.00  0.00     0.032 A 
ATOM     13  Cl  UNL A   1      33.022  28.539  23.088  1.00  0.00    -0.084 Cl
ATOM     14  C   UNL A   1      32.861  24.779  24.389  1.00  0.00     0.019 A 
ATOM     15  O   UNL A   1      31.801  23.798  26.344  1.00  0.00    -0.475 OA
ATOM     16  C   UNL A   1      33.467  23.516  24.020  1.00  0.00     0.027 C 
ATOM     17  C   UNL A   1      32.544  22.561  26.153  1.00  0.00     0.316 C 
BRANCH   8  18
ATOM     18  C   UNL A   1      31.716  28.669  25.901  1.00  0.00     0.037 C 
BRANCH  18  19
ATOM     19  C   UNL A   1      32.325  29.030  27.265  1.00  0.00     0.001 C 
ATOM     20  C   UNL A   1      33.844  29.158  27.247  1.00  0.00     0.004 C 
ENDBRANCH  18  19
ENDBRANCH   8  18
BRANCH  17  21
ATOM     21  C   UNL A   1      33.382  22.286  27.410  1.00  0.00     0.430 C 
ATOM     22  F   UNL A   1      34.506  23.043  27.428  1.00  0.00    -0.167 F 
ATOM     23  F   UNL A   1      32.698  22.584  28.540  1.00  0.00    -0.167 F 
ATOM     24  F   UNL A   1      33.763  20.992  27.496  1.00  0.00    -0.167 F 
ENDBRANCH  17  21
ENDBRANCH   5   7
ENDBRANCH   4   5
ENDBRANCH   3   4
ENDBRANCH   2   3
ENDBRANCH   1   2
BRANCH   1  25
ATOM     25  C   UNL A   1      38.892  20.090  25.241  1.00  0.00     0.202 C 
BRANCH  25  26
ATOM     26  C   UNL A   1      39.802  19.230  26.127  1.00  0.00     0.261 C 
BRANCH  26  27
ATOM     27  O   UNL A   1      40.985  18.779  25.447  1.00  0.00    -0.460 OA
BRANCH  27  28
ATOM     28  C   UNL A   1      42.137  18.929  26.146  1.00  0.00     0.338 C 
ATOM     29  O   UNL A   1      43.001  18.087  26.344  1.00  0.00    -0.246 OA
BRANCH  28  30
ATOM     30  C   UNL A   1      42.316  20.350  26.487  1.00  0.00     0.060 A 
ATOM     31  C   UNL A   1      42.278  20.784  27.813  1.00  0.00     0.016 A 
ATOM     32  C   UNL A   1      42.567  21.253  25.446  1.00  0.00     0.016 A 
ATOM     33  C   UNL A   1      42.514  22.133  28.095  1.00  0.00     0.010 A 
ATOM     34  C   UNL A   1      42.798  22.598  25.730  1.00  0.00     0.010 A 
ATOM     35  C   UNL A   1      42.790  23.045  27.060  1.00  0.00    -0.014 A 
BRANCH  35  36
ATOM     36  C   UNL A   1      43.184  24.440  27.372  1.00  0.00     0.031 A 
ATOM     37  C   UNL A   1      42.165  25.472  27.748  1.00  0.00     0.074 A 
ATOM     38  C   UNL A   1      44.486  24.774  27.285  1.00  0.00     0.049 A 
ATOM     39  N   UNL A   1      42.354  26.721  28.090  1.00  0.00    -0.248 NA
ATOM     40  C   UNL A   1      40.755  25.056  27.739  1.00  0.00     0.031 C 
ATOM     41  C   UNL A   1      45.562  23.857  26.908  1.00  0.00     0.029 A 
ATOM     42  N   UNL A   1      45.127  25.966  27.514  1.00  0.00    -0.354 N 
ATOM     43  C   UNL A   1      41.093  27.237  28.354  1.00  0.00     0.074 A 
ATOM     44  C   UNL A   1      40.141  26.181  28.086  1.00  0.00     0.031 C 
ATOM     45  C   UNL A   1      46.733  24.510  26.965  1.00  0.00     0.029 A 
ATOM     46  C   UNL A   1      46.489  25.900  27.339  1.00  0.00     0.049 A 
ATOM     47  H   UNL A   1      44.657  26.790  27.778  1.00  0.00     0.167 HD
ATOM     48  C   UNL A   1      40.768  28.475  28.797  1.00  0.00     0.031 A 
ATOM     49  C   UNL A   1      47.438  26.848  27.462  1.00  0.00     0.031 A 
ATOM     50  C   UNL A   1      41.725  29.525  29.041  1.00  0.00     0.049 A 
ATOM     51  C   UNL A   1      47.041  28.233  27.895  1.00  0.00     0.074 A 
ATOM     52  C   UNL A   1      41.488  30.799  29.528  1.00  0.00     0.029 A 
ATOM     53  N   UNL A   1      43.088  29.432  28.809  1.00  0.00    -0.354 N 
ATOM     54  N   UNL A   1      45.853  28.685  28.218  1.00  0.00    -0.248 NA
ATOM     55  C   UNL A   1      48.111  29.236  27.993  1.00  0.00     0.031 C 
ATOM     56  C   UNL A   1      42.692  31.503  29.511  1.00  0.00     0.029 A 
ATOM     57  C   UNL A   1      43.697  30.641  29.104  1.00  0.00     0.049 A 
ATOM     58  H   UNL A   1      43.554  28.628  28.485  1.00  0.00     0.167 HD
ATOM     59  C   UNL A   1      46.037  30.012  28.582  1.00  0.00     0.074 A 
ATOM     60  C   UNL A   1      47.451  30.291  28.457  1.00  0.00     0.031 C 
ATOM     61  C   UNL A   1      45.109  30.915  28.985  1.00  0.00     0.031 A 
BRANCH  48  62
ATOM     62  C   UNL A   1      39.320  28.782  29.063  1.00  0.00    -0.014 A 
ATOM     63  C   UNL A   1      38.548  29.429  28.083  1.00  0.00     0.009 A 
ATOM     64  C   UNL A   1      38.755  28.560  30.329  1.00  0.00     0.009 A 
ATOM     65  C   UNL A   1      37.255  29.869  28.371  1.00  0.00     0.001 A 
ATOM     66  C   UNL A   1      37.449  28.972  30.604  1.00  0.00     0.001 A 
ATOM     67  C   UNL A   1      36.706  29.638  29.631  1.00  0.00     0.000 A 
ENDBRANCH  48  62
BRANCH  49  68
ATOM     68  C   UNL A   1      48.860  26.493  27.204  1.00  0.00    -0.014 A 
ATOM     69  C   UNL A   1      49.401  26.595  25.912  1.00  0.00     0.009 A 
ATOM     70  C   UNL A   1      49.669  25.990  28.236  1.00  0.00     0.009 A 
ATOM     71  C   UNL A   1      50.706  26.172  25.650  1.00  0.00     0.001 A 
ATOM     72  C   UNL A   1      50.986  25.603  27.979  1.00  0.00     0.001 A 
ATOM     73  C   UNL A   1      51.499  25.681  26.684  1.00  0.00     0.000 A 
ENDBRANCH  49  68
BRANCH  61  74
ATOM     74  C   UNL A   1      45.567  32.303  29.344  1.00  0.00    -0.014 A 
ATOM     75  C   UNL A   1      45.880  32.607  30.681  1.00  0.00     0.009 A 
ATOM     76  C   UNL A   1      45.549  33.341  28.400  1.00  0.00     0.009 A 
ATOM     77  C   UNL A   1      46.128  33.924  31.071  1.00  0.00     0.001 A 
ATOM     78  C   UNL A   1      45.832  34.653  28.788  1.00  0.00     0.001 A 
ATOM     79  C   UNL A   1      46.105  34.946  30.125  1.00  0.00     0.000 A 
ENDBRANCH  61  74
ENDBRANCH  35  36
ENDBRANCH  28  30
ENDBRANCH  27  28
ENDBRANCH  26  27
ENDBRANCH  25  26
ENDBRANCH   1  25
TORSDOF 17
ENDMDL
MODEL 2
REMARK VINA RESULT:     -10.2      2.070      6.333
REMARK SMILES CCCc1cc2c(cc1Cl)C=C(C(=O)OCCOCCOC(=O)c1ccc(-c3c4nc(c(-c5ccccc5)c5ccc([nH]5)c(-c5ccccc5)c5nc(c(-c6ccccc6)c6ccc3[nH]6)C=C5)C=C4)cc1)[C@@H](C(F)(F)F)O2
REMARK SMILES IDX 18 1 17 2 16 3 15 4 13 5 14 6 12 7 4 8 5 9 9 10 6 11 8 12
REMARK SMILES IDX 10 13 7 14 77 15 11 16 72 17 3 18 2 19 1 20 73 21 74 22
REMARK SMILES IDX 75 23 76 24 19 25 20 26 21 27 22 28 23 29 24 30 25 31 71 32
REMARK SMILES IDX 26 33 70 34 27 35 28 36 29 37 64 38 30 39 69 40 63 41 65 42
REMARK SMILES IDX 31 43 68 44 62 45 61 46 32 48 54 49 39 50 53 51 40 52 43 53
REMARK SMILES IDX 52 54 66 55 41 56 42 57 51 59 67 60 44 61 33 62 34 63 38 64
REMARK SMILES IDX 35 65 37 66 36 67 55 68 56 69 60 70 57 71 59 72 58 73 45 74
REMARK SMILES IDX 46 75 50 76 47 77 49 78 48 79
REMARK H PARENT 65 47 43 58
REMARK Flexibility Score: inf
ROOT
ATOM      1  O   UNL A   1      38.418  22.674  25.873  1.00  0.00    -0.374 OA
ENDROOT
BRANCH   1   2
ATOM      2  C   UNL A   1      37.474  23.733  25.757  1.00  0.00     0.202 C 
BRANCH   2   3
ATOM      3  C   UNL A   1      35.986  23.372  25.772  1.00  0.00     0.261 C 
BRANCH   3   4
ATOM      4  O   UNL A   1      35.182  24.386  25.153  1.00  0.00    -0.460 OA
BRANCH   4   5
ATOM      5  C   UNL A   1      34.953  24.183  23.834  1.00  0.00     0.338 C 
ATOM      6  O   UNL A   1      35.521  23.388  23.104  1.00  0.00    -0.246 OA
BRANCH   5   7
ATOM      7  C   UNL A   1      33.795  24.988  23.404  1.00  0.00     0.087 C 
ATOM      8  C   UNL A   1      30.061  28.309  23.447  1.00  0.00    -0.026 A 
ATOM      9  C   UNL A   1      30.323  27.137  22.715  1.00  0.00     0.052 A 
ATOM     10  C   UNL A   1      31.129  28.890  24.156  1.00  0.00     0.045 A 
ATOM     11  C   UNL A   1      31.545  26.476  22.829  1.00  0.00     0.128 A 
ATOM     12  C   UNL A   1      32.366  28.246  24.243  1.00  0.00     0.032 A 
ATOM     13  Cl  UNL A   1      30.969  30.403  24.980  1.00  0.00    -0.084 Cl
ATOM     14  C   UNL A   1      32.554  27.010  23.625  1.00  0.00     0.019 A 
ATOM     15  O   UNL A   1      31.668  25.302  22.140  1.00  0.00    -0.475 OA
ATOM     16  C   UNL A   1      33.754  26.239  23.880  1.00  0.00     0.027 C 
ATOM     17  C   UNL A   1      32.739  24.391  22.516  1.00  0.00     0.316 C 
BRANCH   8  18
ATOM     18  C   UNL A   1      28.678  28.930  23.491  1.00  0.00     0.037 C 
BRANCH  18  19
ATOM     19  C   UNL A   1      28.389  30.116  22.558  1.00  0.00     0.001 C 
ATOM     20  C   UNL A   1      27.825  31.339  23.272  1.00  0.00     0.004 C 
ENDBRANCH  18  19
ENDBRANCH   8  18
BRANCH  17  21
ATOM     21  C   UNL A   1      32.120  23.117  23.110  1.00  0.00     0.430 C 
ATOM     22  F   UNL A   1      32.694  22.004  22.593  1.00  0.00    -0.167 F 
ATOM     23  F   UNL A   1      32.296  23.055  24.451  1.00  0.00    -0.167 F 
ATOM     24  F   UNL A   1      30.792  23.037  22.871  1.00  0.00    -0.167 F 
ENDBRANCH  17  21
ENDBRANCH   5   7
ENDBRANCH   4   5
ENDBRANCH   3   4
ENDBRANCH   2   3
ENDBRANCH   1   2
BRANCH   1  25
ATOM     25  C   UNL A   1      37.977  21.335  25.657  1.00  0.00     0.202 C 
BRANCH  25  26
ATOM     26  C   UNL A   1      38.991  20.295  25.162  1.00  0.00     0.261 C 
BRANCH  26  27
ATOM     27  O   UNL A   1      39.733  19.682  26.230  1.00  0.00    -0.460 OA
BRANCH  27  28
ATOM     28  C   UNL A   1      41.080  19.704  26.073  1.00  0.00     0.338 C 
ATOM     29  O   UNL A   1      41.771  18.901  25.464  1.00  0.00    -0.246 OA
BRANCH  28  30
ATOM     30  C   UNL A   1      41.606  20.980  26.586  1.00  0.00     0.060 A 
ATOM     31  C   UNL A   1      42.197  21.912  25.732  1.00  0.00     0.016 A 
ATOM     32  C   UNL A   1      41.461  21.255  27.952  1.00  0.00     0.016 A 
ATOM     33  C   UNL A   1      42.627  23.136  26.251  1.00  0.00     0.010 A 
ATOM     34  C   UNL A   1      41.894  22.475  28.468  1.00  0.00     0.010 A 
ATOM     35  C   UNL A   1      42.465  23.432  27.617  1.00  0.00    -0.014 A 
BRANCH  35  36
ATOM     36  C   UNL A   1      42.786  24.784  28.137  1.00  0.00     0.031 A 
ATOM     37  C   UNL A   1      44.188  25.166  28.500  1.00  0.00     0.074 A 
ATOM     38  C   UNL A   1      41.780  25.663  28.304  1.00  0.00     0.049 A 
ATOM     39  N   UNL A   1      44.636  26.319  28.927  1.00  0.00    -0.248 NA
ATOM     40  C   UNL A   1      45.221  24.127  28.373  1.00  0.00     0.031 C 
ATOM     41  C   UNL A   1      40.373  25.392  28.003  1.00  0.00     0.029 A 
ATOM     42  N   UNL A   1      41.782  26.959  28.756  1.00  0.00    -0.354 N 
ATOM     43  C   UNL A   1      46.003  26.154  29.103  1.00  0.00     0.074 A 
ATOM     44  C   UNL A   1      46.305  24.775  28.784  1.00  0.00     0.031 C 
ATOM     45  C   UNL A   1      39.654  26.498  28.245  1.00  0.00     0.029 A 
ATOM     46  C   UNL A   1      40.536  27.541  28.759  1.00  0.00     0.049 A 
ATOM     47  H   UNL A   1      42.596  27.427  29.050  1.00  0.00     0.167 HD
ATOM     48  C   UNL A   1      46.920  27.077  29.479  1.00  0.00     0.031 A 
ATOM     49  C   UNL A   1      40.143  28.774  29.135  1.00  0.00     0.031 A 
ATOM     50  C   UNL A   1      46.603  28.443  29.814  1.00  0.00     0.049 A 
ATOM     51  C   UNL A   1      41.175  29.762  29.609  1.00  0.00     0.074 A 
ATOM     52  C   UNL A   1      47.475  29.459  30.168  1.00  0.00     0.029 A 
ATOM     53  N   UNL A   1      45.327  28.981  29.848  1.00  0.00    -0.354 N 
ATOM     54  N   UNL A   1      42.475  29.614  29.694  1.00  0.00    -0.248 NA
ATOM     55  C   UNL A   1      40.692  31.086  30.027  1.00  0.00     0.031 C 
ATOM     56  C   UNL A   1      46.721  30.585  30.498  1.00  0.00     0.029 A 
ATOM     57  C   UNL A   1      45.385  30.303  30.259  1.00  0.00     0.049 A 
ATOM     58  H   UNL A   1      44.501  28.497  29.615  1.00  0.00     0.167 HD
ATOM     59  C   UNL A   1      42.967  30.832  30.148  1.00  0.00     0.074 A 
ATOM     60  C   UNL A   1      41.830  31.712  30.305  1.00  0.00     0.031 C 
ATOM     61  C   UNL A   1      44.250  31.181  30.408  1.00  0.00     0.031 A 
BRANCH  48  62
ATOM     62  C   UNL A   1      48.365  26.665  29.547  1.00  0.00    -0.014 A 
ATOM     63  C   UNL A   1      48.887  26.129  30.736  1.00  0.00     0.009 A 
ATOM     64  C   UNL A   1      49.243  26.932  28.484  1.00  0.00     0.009 A 
ATOM     65  C   UNL A   1      50.257  25.896  30.871  1.00  0.00     0.001 A 
ATOM     66  C   UNL A   1      50.608  26.666  28.609  1.00  0.00     0.001 A 
ATOM     67  C   UNL A   1      51.116  26.163  29.806  1.00  0.00     0.000 A 
ENDBRANCH  48  62
BRANCH  49  68
ATOM     68  C   UNL A   1      38.705  29.143  29.035  1.00  0.00    -0.014 A 
ATOM     69  C   UNL A   1      38.186  29.687  27.848  1.00  0.00     0.009 A 
ATOM     70  C   UNL A   1      37.855  29.011  30.144  1.00  0.00     0.009 A 
ATOM     71  C   UNL A   1      36.860  30.121  27.784  1.00  0.00     0.001 A 
ATOM     72  C   UNL A   1      36.520  29.412  30.066  1.00  0.00     0.001 A 
ATOM     73  C   UNL A   1      36.027  29.979  28.891  1.00  0.00     0.000 A 
ENDBRANCH  49  68
BRANCH  61  74
ATOM     74  C   UNL A   1      44.531  32.582  30.882  1.00  0.00    -0.014 A 
ATOM     75  C   UNL A   1      44.854  33.580  29.944  1.00  0.00     0.009 A 
ATOM     76  C   UNL A   1      44.620  32.883  32.249  1.00  0.00     0.009 A 
ATOM     77  C   UNL A   1      45.297  34.835  30.366  1.00  0.00     0.001 A 
ATOM     78  C   UNL A   1      45.029  34.152  32.667  1.00  0.00     0.001 A 
ATOM     79  C   UNL A   1      45.382  35.121  31.727  1.00  0.00     0.000 A 
ENDBRANCH  61  74
ENDBRANCH  35  36
ENDBRANCH  28  30
ENDBRANCH  27  28
ENDBRANCH  26  27
ENDBRANCH  25  26
ENDBRANCH   1  25
TORSDOF 17
ENDMDL
MODEL 3
REMARK VINA RESULT:     -10.1      1.451      6.010
REMARK SMILES CCCc1cc2c(cc1Cl)C=C(C(=O)OCCOCCOC(=O)c1ccc(-c3c4nc(c(-c5ccccc5)c5ccc([nH]5)c(-c5ccccc5)c5nc(c(-c6ccccc6)c6ccc3[nH]6)C=C5)C=C4)cc1)[C@@H](C(F)(F)F)O2
REMARK SMILES IDX 18 1 17 2 16 3 15 4 13 5 14 6 12 7 4 8 5 9 9 10 6 11 8 12
REMARK SMILES IDX 10 13 7 14 77 15 11 16 72 17 3 18 2 19 1 20 73 21 74 22
REMARK SMILES IDX 75 23 76 24 19 25 20 26 21 27 22 28 23 29 24 30 25 31 71 32
REMARK SMILES IDX 26 33 70 34 27 35 28 36 29 37 64 38 30 39 69 40 63 41 65 42
REMARK SMILES IDX 31 43 68 44 62 45 61 46 32 48 54 49 39 50 53 51 40 52 43 53
REMARK SMILES IDX 52 54 66 55 41 56 42 57 51 59 67 60 44 61 33 62 34 63 38 64
REMARK SMILES IDX 35 65 37 66 36 67 55 68 56 69 60 70 57 71 59 72 58 73 45 74
REMARK SMILES IDX 46 75 50 76 47 77 49 78 48 79
REMARK H PARENT 65 47 43 58
REMARK Flexibility Score: inf
ROOT
ATOM      1  O   UNL A   1      37.084  19.358  24.980  1.00  0.00    -0.374 OA
ENDROOT
BRANCH   1   2
ATOM      2  C   UNL A   1      36.136  20.421  24.984  1.00  0.00     0.202 C 
BRANCH   2   3
ATOM      3  C   UNL A   1      34.654  20.061  24.849  1.00  0.00     0.261 C 
BRANCH   3   4
ATOM      4  O   UNL A   1      33.916  21.080  24.159  1.00  0.00    -0.460 OA
BRANCH   4   5
ATOM      5  C   UNL A   1      32.694  21.331  24.686  1.00  0.00     0.338 C 
ATOM      6  O   UNL A   1      31.797  20.527  24.875  1.00  0.00    -0.246 OA
BRANCH   5   7
ATOM      7  C   UNL A   1      32.630  22.733  25.136  1.00  0.00     0.087 C 
ATOM      8  C   UNL A   1      33.544  27.633  25.506  1.00  0.00    -0.026 A 
ATOM      9  C   UNL A   1      33.024  26.663  26.382  1.00  0.00     0.052 A 
ATOM     10  C   UNL A   1      33.612  27.310  24.137  1.00  0.00     0.045 A 
ATOM     11  C   UNL A   1      32.752  25.368  25.941  1.00  0.00     0.128 A 
ATOM     12  C   UNL A   1      33.306  26.022  23.690  1.00  0.00     0.032 A 
ATOM     13  Cl  UNL A   1      34.102  28.463  22.945  1.00  0.00    -0.084 Cl
ATOM     14  C   UNL A   1      32.931  25.036  24.602  1.00  0.00     0.019 A 
ATOM     15  O   UNL A   1      32.328  24.480  26.890  1.00  0.00    -0.475 OA
ATOM     16  C   UNL A   1      32.816  23.655  24.181  1.00  0.00     0.027 C 
ATOM     17  C   UNL A   1      32.402  23.058  26.586  1.00  0.00     0.316 C 
BRANCH   8  18
ATOM     18  C   UNL A   1      34.031  28.980  26.005  1.00  0.00     0.037 C 
BRANCH  18  19
ATOM     19  C   UNL A   1      32.987  29.972  26.539  1.00  0.00     0.001 C 
ATOM     20  C   UNL A   1      31.760  30.116  25.645  1.00  0.00     0.004 C 
ENDBRANCH  18  19
ENDBRANCH   8  18
BRANCH  17  21
ATOM     21  C   UNL A   1      33.445  22.408  27.507  1.00  0.00     0.430 C 
ATOM     22  F   UNL A   1      34.705  22.662  27.080  1.00  0.00    -0.167 F 
ATOM     23  F   UNL A   1      33.362  22.887  28.771  1.00  0.00    -0.167 F 
ATOM     24  F   UNL A   1      33.300  21.066  27.572  1.00  0.00    -0.167 F 
ENDBRANCH  17  21
ENDBRANCH   5   7
ENDBRANCH   4   5
ENDBRANCH   3   4
ENDBRANCH   2   3
ENDBRANCH   1   2
BRANCH   1  25
ATOM     25  C   UNL A   1      38.455  19.661  24.730  1.00  0.00     0.202 C 
BRANCH  25  26
ATOM     26  C   UNL A   1      39.221  20.508  25.754  1.00  0.00     0.261 C 
BRANCH  26  27
ATOM     27  O   UNL A   1      40.209  19.756  26.478  1.00  0.00    -0.460 OA
BRANCH  27  28
ATOM     28  C   UNL A   1      41.487  19.955  26.072  1.00  0.00     0.338 C 
ATOM     29  O   UNL A   1      42.124  19.287  25.270  1.00  0.00    -0.246 OA
BRANCH  28  30
ATOM     30  C   UNL A   1      41.966  21.246  26.592  1.00  0.00     0.060 A 
ATOM     31  C   UNL A   1      42.375  22.264  25.730  1.00  0.00     0.016 A 
ATOM     32  C   UNL A   1      41.960  21.444  27.979  1.00  0.00     0.016 A 
ATOM     33  C   UNL A   1      42.764  23.495  26.265  1.00  0.00     0.010 A 
ATOM     34  C   UNL A   1      42.352  22.671  28.510  1.00  0.00     0.010 A 
ATOM     35  C   UNL A   1      42.741  23.713  27.655  1.00  0.00    -0.014 A 
BRANCH  35  36
ATOM     36  C   UNL A   1      43.011  25.061  28.209  1.00  0.00     0.031 A 
ATOM     37  C   UNL A   1      44.395  25.480  28.602  1.00  0.00     0.074 A 
ATOM     38  C   UNL A   1      41.975  25.905  28.381  1.00  0.00     0.049 A 
ATOM     39  N   UNL A   1      44.800  26.636  29.062  1.00  0.00    -0.248 NA
ATOM     40  C   UNL A   1      45.462  24.477  28.467  1.00  0.00     0.031 C 
ATOM     41  C   UNL A   1      40.582  25.597  28.053  1.00  0.00     0.029 A 
ATOM     42  N   UNL A   1      41.929  27.189  28.862  1.00  0.00    -0.354 N 
ATOM     43  C   UNL A   1      46.169  26.510  29.255  1.00  0.00     0.074 A 
ATOM     44  C   UNL A   1      46.519  25.149  28.909  1.00  0.00     0.031 C 
ATOM     45  C   UNL A   1      39.824  26.673  28.309  1.00  0.00     0.029 A 
ATOM     46  C   UNL A   1      40.666  27.732  28.860  1.00  0.00     0.049 A 
ATOM     47  H   UNL A   1      42.724  27.676  29.179  1.00  0.00     0.167 HD
ATOM     48  C   UNL A   1      47.051  27.452  29.665  1.00  0.00     0.031 A 
ATOM     49  C   UNL A   1      40.229  28.943  29.257  1.00  0.00     0.031 A 
ATOM     50  C   UNL A   1      46.686  28.799  30.025  1.00  0.00     0.049 A 
ATOM     51  C   UNL A   1      41.222  29.951  29.769  1.00  0.00     0.074 A 
ATOM     52  C   UNL A   1      47.520  29.834  30.416  1.00  0.00     0.029 A 
ATOM     53  N   UNL A   1      45.392  29.296  30.052  1.00  0.00    -0.354 N 
ATOM     54  N   UNL A   1      42.524  29.843  29.870  1.00  0.00    -0.248 NA
ATOM     55  C   UNL A   1      40.691  31.249  30.209  1.00  0.00     0.031 C 
ATOM     56  C   UNL A   1      46.725  30.927  30.759  1.00  0.00     0.029 A 
ATOM     57  C   UNL A   1      45.403  30.609  30.494  1.00  0.00     0.049 A 
ATOM     58  H   UNL A   1      44.586  28.792  29.796  1.00  0.00     0.167 HD
ATOM     59  C   UNL A   1      42.971  31.064  30.359  1.00  0.00     0.074 A 
ATOM     60  C   UNL A   1      41.804  31.905  30.519  1.00  0.00     0.031 C 
ATOM     61  C   UNL A   1      44.239  31.448  30.646  1.00  0.00     0.031 A 
BRANCH  48  62
ATOM     62  C   UNL A   1      48.507  27.084  29.745  1.00  0.00    -0.014 A 
ATOM     63  C   UNL A   1      49.045  26.609  30.952  1.00  0.00     0.009 A 
ATOM     64  C   UNL A   1      49.375  27.336  28.671  1.00  0.00     0.009 A 
ATOM     65  C   UNL A   1      50.421  26.420  31.093  1.00  0.00     0.001 A 
ATOM     66  C   UNL A   1      50.748  27.115  28.803  1.00  0.00     0.001 A 
ATOM     67  C   UNL A   1      51.271  26.671  30.017  1.00  0.00     0.000 A 
ENDBRANCH  48  62
BRANCH  49  68
ATOM     68  C   UNL A   1      38.781  29.268  29.144  1.00  0.00    -0.014 A 
ATOM     69  C   UNL A   1      38.275  29.889  27.990  1.00  0.00     0.009 A 
ATOM     70  C   UNL A   1      37.907  29.016  30.213  1.00  0.00     0.009 A 
ATOM     71  C   UNL A   1      36.936  30.281  27.921  1.00  0.00     0.001 A 
ATOM     72  C   UNL A   1      36.560  29.376  30.127  1.00  0.00     0.001 A 
ATOM     73  C   UNL A   1      36.079  30.019  28.988  1.00  0.00     0.000 A 
ENDBRANCH  49  68
BRANCH  61  74
ATOM     74  C   UNL A   1      44.468  32.846  31.155  1.00  0.00    -0.014 A 
ATOM     75  C   UNL A   1      44.496  33.084  32.541  1.00  0.00     0.009 A 
ATOM     76  C   UNL A   1      44.509  33.940  30.278  1.00  0.00     0.009 A 
ATOM     77  C   UNL A   1      44.522  34.390  33.037  1.00  0.00     0.001 A 
ATOM     78  C   UNL A   1      44.570  35.243  30.778  1.00  0.00     0.001 A 
ATOM     79  C   UNL A   1      44.560  35.467  32.155  1.00  0.00     0.000 A 
ENDBRANCH  61  74
ENDBRANCH  35  36
ENDBRANCH  28  30
ENDBRANCH  27  28
ENDBRANCH  26  27
ENDBRANCH  25  26
ENDBRANCH   1  25
TORSDOF 17
ENDMDL
