MODEL 1
REMARK VINA RESULT:     -10.2      0.000      0.000
REMARK SMILES O=C(OCCOCCOC(=O)[C@@H]1CCCN(C(=O)Nc2ccccc2)C1)c1ccc(-c2c3nc(c(-c4ccccc4)c4ccc([nH]4)c(-c4ccccc4)c4nc(c(-c5ccccc5)c5ccc2[nH]5)C=C4)C=C3)cc1
REMARK SMILES IDX 6 1 5 2 4 3 3 4 2 5 1 6 27 7 28 8 74 9 29 10 73 11 30 12
REMARK SMILES IDX 31 13 32 14 67 15 33 16 72 17 66 18 68 19 34 20 71 21 65 22
REMARK SMILES IDX 64 23 35 25 57 26 42 27 56 28 43 29 46 30 55 31 69 32 44 33
REMARK SMILES IDX 45 34 54 36 70 37 47 38 36 39 37 40 41 41 38 42 40 43 39 44
REMARK SMILES IDX 58 45 59 46 63 47 60 48 62 49 61 50 48 51 49 52 53 53 50 54
REMARK SMILES IDX 52 55 51 56 7 57 8 58 9 59 10 60 11 61 12 62 13 63 26 64
REMARK SMILES IDX 14 65 16 66 15 67 17 68 18 69 19 70 20 72 21 73 25 74 22 75
REMARK SMILES IDX 24 76 23 77
REMARK H PARENT 68 24 46 35 19 71
REMARK Flexibility Score: inf
ROOT
ATOM      1  O   UNL A   1      33.288  30.720  26.589  1.00  0.00    -0.374 OA
ENDROOT
BRANCH   1   2
ATOM      2  C   UNL A   1      31.890  30.893  26.800  1.00  0.00     0.202 C 
BRANCH   2   3
ATOM      3  C   UNL A   1      31.404  32.341  26.936  1.00  0.00     0.261 C 
BRANCH   3   4
ATOM      4  O   UNL A   1      32.516  33.255  26.926  1.00  0.00    -0.460 OA
BRANCH   4   5
ATOM      5  C   UNL A   1      33.051  33.885  28.003  1.00  0.00     0.338 C 
ATOM      6  O   UNL A   1      32.460  34.832  28.513  1.00  0.00    -0.246 OA
BRANCH   5   7
ATOM      7  C   UNL A   1      34.301  33.396  28.641  1.00  0.00     0.060 A 
ATOM      8  C   UNL A   1      35.568  33.673  28.139  1.00  0.00     0.016 A 
ATOM      9  C   UNL A   1      34.207  32.646  29.819  1.00  0.00     0.016 A 
ATOM     10  C   UNL A   1      36.701  33.114  28.665  1.00  0.00     0.010 A 
ATOM     11  C   UNL A   1      35.366  32.162  30.435  1.00  0.00     0.010 A 
ATOM     12  C   UNL A   1      36.612  32.385  29.837  1.00  0.00    -0.014 A 
BRANCH  12  13
ATOM     13  C   UNL A   1      37.871  31.800  30.307  1.00  0.00     0.031 A 
ATOM     14  C   UNL A   1      38.475  32.354  31.552  1.00  0.00     0.074 A 
ATOM     15  C   UNL A   1      38.304  30.661  29.735  1.00  0.00     0.049 A 
ATOM     16  N   UNL A   1      39.592  32.030  32.138  1.00  0.00    -0.248 NA
ATOM     17  C   UNL A   1      37.712  33.411  32.243  1.00  0.00     0.031 C 
ATOM     18  C   UNL A   1      37.633  29.952  28.635  1.00  0.00     0.029 A 
ATOM     19  N   UNL A   1      39.365  29.859  30.039  1.00  0.00    -0.354 N 
ATOM     20  C   UNL A   1      39.702  32.888  33.221  1.00  0.00     0.074 A 
ATOM     21  C   UNL A   1      38.532  33.735  33.229  1.00  0.00     0.031 C 
ATOM     22  C   UNL A   1      38.269  28.797  28.399  1.00  0.00     0.029 A 
ATOM     23  C   UNL A   1      39.452  28.743  29.244  1.00  0.00     0.049 A 
ATOM     24  H   UNL A   1      40.007  30.061  30.758  1.00  0.00     0.167 HD
ATOM     25  C   UNL A   1      40.719  32.967  34.108  1.00  0.00     0.031 A 
ATOM     26  C   UNL A   1      40.419  27.814  29.180  1.00  0.00     0.031 A 
ATOM     27  C   UNL A   1      41.860  32.097  34.051  1.00  0.00     0.049 A 
ATOM     28  C   UNL A   1      41.594  27.997  30.095  1.00  0.00     0.074 A 
ATOM     29  C   UNL A   1      43.002  32.105  34.826  1.00  0.00     0.029 A 
ATOM     30  N   UNL A   1      41.989  31.045  33.149  1.00  0.00    -0.354 N 
ATOM     31  N   UNL A   1      41.766  28.886  31.047  1.00  0.00    -0.248 NA
ATOM     32  C   UNL A   1      42.718  27.076  29.913  1.00  0.00     0.031 C 
ATOM     33  C   UNL A   1      43.845  31.092  34.356  1.00  0.00     0.029 A 
ATOM     34  C   UNL A   1      43.201  30.409  33.333  1.00  0.00     0.049 A 
ATOM     35  H   UNL A   1      41.315  30.792  32.478  1.00  0.00     0.167 HD
ATOM     36  C   UNL A   1      43.011  28.621  31.594  1.00  0.00     0.074 A 
ATOM     37  C   UNL A   1      43.537  27.472  30.877  1.00  0.00     0.031 C 
ATOM     38  C   UNL A   1      43.668  29.264  32.590  1.00  0.00     0.031 A 
BRANCH  25  39
ATOM     39  C   UNL A   1      40.669  34.099  35.093  1.00  0.00    -0.014 A 
ATOM     40  C   UNL A   1      40.097  33.960  36.367  1.00  0.00     0.009 A 
ATOM     41  C   UNL A   1      41.139  35.362  34.698  1.00  0.00     0.009 A 
ATOM     42  C   UNL A   1      39.950  35.072  37.203  1.00  0.00     0.001 A 
ATOM     43  C   UNL A   1      41.018  36.465  35.545  1.00  0.00     0.001 A 
ATOM     44  C   UNL A   1      40.410  36.322  36.790  1.00  0.00     0.000 A 
ENDBRANCH  25  39
BRANCH  26  45
ATOM     45  C   UNL A   1      40.359  26.715  28.179  1.00  0.00    -0.014 A 
ATOM     46  C   UNL A   1      39.711  25.507  28.473  1.00  0.00     0.009 A 
ATOM     47  C   UNL A   1      40.960  26.864  26.917  1.00  0.00     0.009 A 
ATOM     48  C   UNL A   1      39.689  24.466  27.539  1.00  0.00     0.001 A 
ATOM     49  C   UNL A   1      40.908  25.837  25.972  1.00  0.00     0.001 A 
ATOM     50  C   UNL A   1      40.283  24.634  26.288  1.00  0.00     0.000 A 
ENDBRANCH  26  45
BRANCH  38  51
ATOM     51  C   UNL A   1      44.997  28.692  32.984  1.00  0.00    -0.014 A 
ATOM     52  C   UNL A   1      46.190  29.148  32.403  1.00  0.00     0.009 A 
ATOM     53  C   UNL A   1      45.048  27.705  33.980  1.00  0.00     0.009 A 
ATOM     54  C   UNL A   1      47.410  28.594  32.789  1.00  0.00     0.001 A 
ATOM     55  C   UNL A   1      46.271  27.182  34.389  1.00  0.00     0.001 A 
ATOM     56  C   UNL A   1      47.450  27.618  33.785  1.00  0.00     0.000 A 
ENDBRANCH  38  51
ENDBRANCH  12  13
ENDBRANCH   5   7
ENDBRANCH   4   5
ENDBRANCH   3   4
ENDBRANCH   2   3
ENDBRANCH   1   2
BRANCH   1  57
ATOM     57  C   UNL A   1      33.933  29.820  27.482  1.00  0.00     0.202 C 
BRANCH  57  58
ATOM     58  C   UNL A   1      34.607  28.688  26.712  1.00  0.00     0.261 C 
BRANCH  58  59
ATOM     59  O   UNL A   1      33.702  28.137  25.730  1.00  0.00    -0.463 OA
BRANCH  59  60
ATOM     60  C   UNL A   1      33.422  26.809  25.892  1.00  0.00     0.310 C 
ATOM     61  O   UNL A   1      34.240  25.915  25.713  1.00  0.00    -0.252 OA
BRANCH  60  62
ATOM     62  C   UNL A   1      31.952  26.592  26.237  1.00  0.00     0.119 C 
ATOM     63  C   UNL A   1      31.483  25.135  26.325  1.00  0.00     0.019 C 
ATOM     64  C   UNL A   1      31.046  27.379  25.291  1.00  0.00     0.136 C 
ATOM     65  C   UNL A   1      31.001  24.491  25.026  1.00  0.00     0.023 C 
ATOM     66  N   UNL A   1      31.000  26.790  23.953  1.00  0.00    -0.324 N 
ATOM     67  C   UNL A   1      30.522  25.413  23.907  1.00  0.00     0.121 C 
BRANCH  66  68
ATOM     68  C   UNL A   1      31.403  27.589  22.895  1.00  0.00     0.321 C 
ATOM     69  O   UNL A   1      32.508  27.463  22.358  1.00  0.00    -0.248 OA
ATOM     70  N   UNL A   1      30.557  28.475  22.307  1.00  0.00    -0.308 N 
ATOM     71  H   UNL A   1      30.675  28.542  21.332  1.00  0.00     0.171 HD
BRANCH  70  72
ATOM     72  C   UNL A   1      29.553  29.310  22.806  1.00  0.00     0.042 A 
ATOM     73  C   UNL A   1      29.942  30.512  23.401  1.00  0.00     0.026 A 
ATOM     74  C   UNL A   1      28.198  28.985  22.731  1.00  0.00     0.026 A 
ATOM     75  C   UNL A   1      28.978  31.444  23.787  1.00  0.00     0.002 A 
ATOM     76  C   UNL A   1      27.233  29.915  23.115  1.00  0.00     0.002 A 
ATOM     77  C   UNL A   1      27.625  31.155  23.618  1.00  0.00     0.000 A 
ENDBRANCH  70  72
ENDBRANCH  66  68
ENDBRANCH  60  62
ENDBRANCH  59  60
ENDBRANCH  58  59
ENDBRANCH  57  58
ENDBRANCH   1  57
TORSDOF 16
ENDMDL
MODEL 2
REMARK VINA RESULT:     -10.1      1.475      6.742
REMARK SMILES O=C(OCCOCCOC(=O)[C@@H]1CCCN(C(=O)Nc2ccccc2)C1)c1ccc(-c2c3nc(c(-c4ccccc4)c4ccc([nH]4)c(-c4ccccc4)c4nc(c(-c5ccccc5)c5ccc2[nH]5)C=C4)C=C3)cc1
REMARK SMILES IDX 6 1 5 2 4 3 3 4 2 5 1 6 27 7 28 8 74 9 29 10 73 11 30 12
REMARK SMILES IDX 31 13 32 14 67 15 33 16 72 17 66 18 68 19 34 20 71 21 65 22
REMARK SMILES IDX 64 23 35 25 57 26 42 27 56 28 43 29 46 30 55 31 69 32 44 33
REMARK SMILES IDX 45 34 54 36 70 37 47 38 36 39 37 40 41 41 38 42 40 43 39 44
REMARK SMILES IDX 58 45 59 46 63 47 60 48 62 49 61 50 48 51 49 52 53 53 50 54
REMARK SMILES IDX 52 55 51 56 7 57 8 58 9 59 10 60 11 61 12 62 13 63 26 64
REMARK SMILES IDX 14 65 16 66 15 67 17 68 18 69 19 70 20 72 21 73 25 74 22 75
REMARK SMILES IDX 24 76 23 77
REMARK H PARENT 68 24 46 35 19 71
REMARK Flexibility Score: inf
ROOT
ATOM      1  O   UNL A   1      32.501  29.902  27.105  1.00  0.00    -0.374 OA
ENDROOT
BRANCH   1   2
ATOM      2  C   UNL A   1      32.425  31.187  26.495  1.00  0.00     0.202 C 
BRANCH   2   3
ATOM      3  C   UNL A   1      31.561  32.227  27.219  1.00  0.00     0.261 C 
BRANCH   3   4
ATOM      4  O   UNL A   1      32.166  33.531  27.149  1.00  0.00    -0.460 OA
BRANCH   4   5
ATOM      5  C   UNL A   1      32.910  34.126  28.115  1.00  0.00     0.338 C 
ATOM      6  O   UNL A   1      32.508  35.156  28.650  1.00  0.00    -0.246 OA
BRANCH   5   7
ATOM      7  C   UNL A   1      34.169  33.509  28.611  1.00  0.00     0.060 A 
ATOM      8  C   UNL A   1      34.192  32.479  29.544  1.00  0.00     0.016 A 
ATOM      9  C   UNL A   1      35.389  33.964  28.097  1.00  0.00     0.016 A 
ATOM     10  C   UNL A   1      35.359  32.007  30.082  1.00  0.00     0.010 A 
ATOM     11  C   UNL A   1      36.590  33.410  28.554  1.00  0.00     0.010 A 
ATOM     12  C   UNL A   1      36.566  32.443  29.566  1.00  0.00    -0.014 A 
BRANCH  12  13
ATOM     13  C   UNL A   1      37.758  31.906  30.226  1.00  0.00     0.031 A 
ATOM     14  C   UNL A   1      38.495  30.802  29.546  1.00  0.00     0.074 A 
ATOM     15  C   UNL A   1      38.261  32.569  31.285  1.00  0.00     0.049 A 
ATOM     16  N   UNL A   1      39.545  30.147  29.947  1.00  0.00    -0.248 NA
ATOM     17  C   UNL A   1      37.987  30.387  28.225  1.00  0.00     0.031 C 
ATOM     18  C   UNL A   1      37.690  33.790  31.874  1.00  0.00     0.029 A 
ATOM     19  N   UNL A   1      39.397  32.358  32.011  1.00  0.00    -0.354 N 
ATOM     20  C   UNL A   1      39.781  29.195  28.967  1.00  0.00     0.074 A 
ATOM     21  C   UNL A   1      38.781  29.367  27.940  1.00  0.00     0.031 C 
ATOM     22  C   UNL A   1      38.511  34.246  32.830  1.00  0.00     0.029 A 
ATOM     23  C   UNL A   1      39.593  33.290  33.000  1.00  0.00     0.049 A 
ATOM     24  H   UNL A   1      40.016  31.610  31.841  1.00  0.00     0.167 HD
ATOM     25  C   UNL A   1      40.742  28.244  28.958  1.00  0.00     0.031 A 
ATOM     26  C   UNL A   1      40.525  33.324  33.967  1.00  0.00     0.031 A 
ATOM     27  C   UNL A   1      41.712  28.119  30.011  1.00  0.00     0.049 A 
ATOM     28  C   UNL A   1      41.504  32.187  34.003  1.00  0.00     0.074 A 
ATOM     29  C   UNL A   1      42.693  27.164  30.182  1.00  0.00     0.029 A 
ATOM     30  N   UNL A   1      41.815  29.004  31.079  1.00  0.00    -0.354 N 
ATOM     31  N   UNL A   1      41.660  31.206  33.143  1.00  0.00    -0.248 NA
ATOM     32  C   UNL A   1      42.415  32.141  35.149  1.00  0.00     0.031 C 
ATOM     33  C   UNL A   1      43.354  27.441  31.385  1.00  0.00     0.029 A 
ATOM     34  C   UNL A   1      42.830  28.607  31.928  1.00  0.00     0.049 A 
ATOM     35  H   UNL A   1      41.247  29.798  31.212  1.00  0.00     0.167 HD
ATOM     36  C   UNL A   1      42.700  30.433  33.632  1.00  0.00     0.074 A 
ATOM     37  C   UNL A   1      43.150  31.078  34.854  1.00  0.00     0.031 C 
ATOM     38  C   UNL A   1      43.236  29.294  33.130  1.00  0.00     0.031 A 
BRANCH  25  39
ATOM     39  C   UNL A   1      40.677  27.229  27.854  1.00  0.00    -0.014 A 
ATOM     40  C   UNL A   1      39.926  26.048  27.965  1.00  0.00     0.009 A 
ATOM     41  C   UNL A   1      41.457  27.428  26.704  1.00  0.00     0.009 A 
ATOM     42  C   UNL A   1      40.000  25.067  26.971  1.00  0.00     0.001 A 
ATOM     43  C   UNL A   1      41.505  26.461  25.699  1.00  0.00     0.001 A 
ATOM     44  C   UNL A   1      40.789  25.274  25.840  1.00  0.00     0.000 A 
ENDBRANCH  25  39
BRANCH  26  45
ATOM     45  C   UNL A   1      40.513  34.392  35.003  1.00  0.00    -0.014 A 
ATOM     46  C   UNL A   1      41.276  35.557  34.844  1.00  0.00     0.009 A 
ATOM     47  C   UNL A   1      39.740  34.248  36.168  1.00  0.00     0.009 A 
ATOM     48  C   UNL A   1      41.286  36.541  35.839  1.00  0.00     0.001 A 
ATOM     49  C   UNL A   1      39.724  35.246  37.145  1.00  0.00     0.001 A 
ATOM     50  C   UNL A   1      40.507  36.387  36.985  1.00  0.00     0.000 A 
ENDBRANCH  26  45
BRANCH  38  51
ATOM     51  C   UNL A   1      44.399  28.721  33.882  1.00  0.00    -0.014 A 
ATOM     52  C   UNL A   1      44.216  27.760  34.888  1.00  0.00     0.009 A 
ATOM     53  C   UNL A   1      45.698  29.132  33.548  1.00  0.00     0.009 A 
ATOM     54  C   UNL A   1      45.319  27.248  35.572  1.00  0.00     0.001 A 
ATOM     55  C   UNL A   1      46.798  28.590  34.208  1.00  0.00     0.001 A 
ATOM     56  C   UNL A   1      46.607  27.658  35.226  1.00  0.00     0.000 A 
ENDBRANCH  38  51
ENDBRANCH  12  13
ENDBRANCH   5   7
ENDBRANCH   4   5
ENDBRANCH   3   4
ENDBRANCH   2   3
ENDBRANCH   1   2
BRANCH   1  57
ATOM     57  C   UNL A   1      33.817  29.406  27.320  1.00  0.00     0.202 C 
BRANCH  57  58
ATOM     58  C   UNL A   1      34.070  28.167  26.466  1.00  0.00     0.261 C 
BRANCH  58  59
ATOM     59  O   UNL A   1      32.850  27.740  25.823  1.00  0.00    -0.463 OA
BRANCH  59  60
ATOM     60  C   UNL A   1      32.871  27.807  24.457  1.00  0.00     0.310 C 
ATOM     61  O   UNL A   1      33.888  27.988  23.801  1.00  0.00    -0.252 OA
BRANCH  60  62
ATOM     62  C   UNL A   1      31.463  27.712  23.878  1.00  0.00     0.119 C 
ATOM     63  C   UNL A   1      30.432  26.950  24.720  1.00  0.00     0.019 C 
ATOM     64  C   UNL A   1      31.491  27.158  22.455  1.00  0.00     0.136 C 
ATOM     65  C   UNL A   1      30.342  25.442  24.492  1.00  0.00     0.023 C 
ATOM     66  N   UNL A   1      31.787  25.726  22.426  1.00  0.00    -0.324 N 
ATOM     67  C   UNL A   1      30.842  24.891  23.158  1.00  0.00     0.121 C 
BRANCH  66  68
ATOM     68  C   UNL A   1      32.908  25.324  21.717  1.00  0.00     0.321 C 
ATOM     69  O   UNL A   1      32.983  25.428  20.489  1.00  0.00    -0.248 OA
ATOM     70  N   UNL A   1      34.038  24.905  22.346  1.00  0.00    -0.308 N 
ATOM     71  H   UNL A   1      34.865  25.189  21.895  1.00  0.00     0.171 HD
BRANCH  70  72
ATOM     72  C   UNL A   1      34.263  24.153  23.502  1.00  0.00     0.042 A 
ATOM     73  C   UNL A   1      34.023  22.778  23.442  1.00  0.00     0.026 A 
ATOM     74  C   UNL A   1      34.709  24.724  24.696  1.00  0.00     0.026 A 
ATOM     75  C   UNL A   1      34.365  21.963  24.521  1.00  0.00     0.002 A 
ATOM     76  C   UNL A   1      35.052  23.910  25.775  1.00  0.00     0.002 A 
ATOM     77  C   UNL A   1      34.905  22.527  25.676  1.00  0.00     0.000 A 
ENDBRANCH  70  72
ENDBRANCH  66  68
ENDBRANCH  60  62
ENDBRANCH  59  60
ENDBRANCH  58  59
ENDBRANCH  57  58
ENDBRANCH   1  57
TORSDOF 16
ENDMDL
MODEL 3
REMARK VINA RESULT:     -10.0      4.449      9.621
REMARK SMILES O=C(OCCOCCOC(=O)[C@@H]1CCCN(C(=O)Nc2ccccc2)C1)c1ccc(-c2c3nc(c(-c4ccccc4)c4ccc([nH]4)c(-c4ccccc4)c4nc(c(-c5ccccc5)c5ccc2[nH]5)C=C4)C=C3)cc1
REMARK SMILES IDX 6 1 5 2 4 3 3 4 2 5 1 6 27 7 28 8 74 9 29 10 73 11 30 12
REMARK SMILES IDX 31 13 32 14 67 15 33 16 72 17 66 18 68 19 34 20 71 21 65 22
REMARK SMILES IDX 64 23 35 25 57 26 42 27 56 28 43 29 46 30 55 31 69 32 44 33
REMARK SMILES IDX 45 34 54 36 70 37 47 38 36 39 37 40 41 41 38 42 40 43 39 44
REMARK SMILES IDX 58 45 59 46 63 47 60 48 62 49 61 50 48 51 49 52 53 53 50 54
REMARK SMILES IDX 52 55 51 56 7 57 8 58 9 59 10 60 11 61 12 62 13 63 26 64
REMARK SMILES IDX 14 65 16 66 15 67 17 68 18 69 19 70 20 72 21 73 25 74 22 75
REMARK SMILES IDX 24 76 23 77
REMARK H PARENT 68 24 46 35 19 71
REMARK Flexibility Score: inf
ROOT
ATOM      1  O   UNL A   1      38.302  21.647  26.048  1.00  0.00    -0.374 OA
ENDROOT
BRANCH   1   2
ATOM      2  C   UNL A   1      38.320  20.535  25.156  1.00  0.00     0.202 C 
BRANCH   2   3
ATOM      3  C   UNL A   1      38.949  19.247  25.700  1.00  0.00     0.261 C 
BRANCH   3   4
ATOM      4  O   UNL A   1      40.335  19.157  25.323  1.00  0.00    -0.460 OA
BRANCH   4   5
ATOM      5  C   UNL A   1      41.404  19.456  26.104  1.00  0.00     0.338 C 
ATOM      6  O   UNL A   1      42.244  18.594  26.346  1.00  0.00    -0.246 OA
BRANCH   5   7
ATOM      7  C   UNL A   1      41.633  20.837  26.604  1.00  0.00     0.060 A 
ATOM      8  C   UNL A   1      41.761  21.936  25.764  1.00  0.00     0.016 A 
ATOM      9  C   UNL A   1      41.696  21.050  27.987  1.00  0.00     0.016 A 
ATOM     10  C   UNL A   1      42.094  23.179  26.232  1.00  0.00     0.010 A 
ATOM     11  C   UNL A   1      41.923  22.336  28.486  1.00  0.00     0.010 A 
ATOM     12  C   UNL A   1      42.143  23.396  27.597  1.00  0.00    -0.014 A 
BRANCH  12  13
ATOM     13  C   UNL A   1      42.539  24.747  28.002  1.00  0.00     0.031 A 
ATOM     14  C   UNL A   1      43.984  25.103  27.923  1.00  0.00     0.074 A 
ATOM     15  C   UNL A   1      41.576  25.665  28.210  1.00  0.00     0.049 A 
ATOM     16  N   UNL A   1      44.576  26.214  28.258  1.00  0.00    -0.248 NA
ATOM     17  C   UNL A   1      44.889  24.074  27.379  1.00  0.00     0.031 C 
ATOM     18  C   UNL A   1      40.130  25.421  28.097  1.00  0.00     0.029 A 
ATOM     19  N   UNL A   1      41.660  26.998  28.486  1.00  0.00    -0.354 N 
ATOM     20  C   UNL A   1      45.927  25.992  28.036  1.00  0.00     0.074 A 
ATOM     21  C   UNL A   1      46.070  24.653  27.517  1.00  0.00     0.031 C 
ATOM     22  C   UNL A   1      39.473  26.579  28.248  1.00  0.00     0.029 A 
ATOM     23  C   UNL A   1      40.437  27.614  28.584  1.00  0.00     0.049 A 
ATOM     24  H   UNL A   1      42.515  27.472  28.605  1.00  0.00     0.167 HD
ATOM     25  C   UNL A   1      46.950  26.841  28.278  1.00  0.00     0.031 A 
ATOM     26  C   UNL A   1      40.141  28.870  28.958  1.00  0.00     0.031 A 
ATOM     27  C   UNL A   1      46.746  28.165  28.797  1.00  0.00     0.049 A 
ATOM     28  C   UNL A   1      41.295  29.751  29.338  1.00  0.00     0.074 A 
ATOM     29  C   UNL A   1      47.683  29.109  29.168  1.00  0.00     0.029 A 
ATOM     30  N   UNL A   1      45.493  28.729  29.011  1.00  0.00    -0.354 N 
ATOM     31  N   UNL A   1      42.583  29.508  29.248  1.00  0.00    -0.248 NA
ATOM     32  C   UNL A   1      40.962  31.063  29.898  1.00  0.00     0.031 C 
ATOM     33  C   UNL A   1      46.993  30.224  29.658  1.00  0.00     0.029 A 
ATOM     34  C   UNL A   1      45.629  30.003  29.530  1.00  0.00     0.049 A 
ATOM     35  H   UNL A   1      44.635  28.286  28.822  1.00  0.00     0.167 HD
ATOM     36  C   UNL A   1      43.219  30.643  29.721  1.00  0.00     0.074 A 
ATOM     37  C   UNL A   1      42.168  31.583  30.075  1.00  0.00     0.031 C 
ATOM     38  C   UNL A   1      44.544  30.894  29.859  1.00  0.00     0.031 A 
BRANCH  25  39
ATOM     39  C   UNL A   1      48.337  26.294  28.104  1.00  0.00    -0.014 A 
ATOM     40  C   UNL A   1      49.035  25.672  29.151  1.00  0.00     0.009 A 
ATOM     41  C   UNL A   1      48.989  26.480  26.875  1.00  0.00     0.009 A 
ATOM     42  C   UNL A   1      50.372  25.298  28.987  1.00  0.00     0.001 A 
ATOM     43  C   UNL A   1      50.315  26.078  26.703  1.00  0.00     0.001 A 
ATOM     44  C   UNL A   1      51.010  25.501  27.763  1.00  0.00     0.000 A 
ENDBRANCH  25  39
BRANCH  26  45
ATOM     45  C   UNL A   1      38.728  29.319  29.077  1.00  0.00    -0.014 A 
ATOM     46  C   UNL A   1      37.998  29.098  30.253  1.00  0.00     0.009 A 
ATOM     47  C   UNL A   1      38.093  29.969  28.004  1.00  0.00     0.009 A 
ATOM     48  C   UNL A   1      36.658  29.493  30.343  1.00  0.00     0.001 A 
ATOM     49  C   UNL A   1      36.767  30.393  28.107  1.00  0.00     0.001 A 
ATOM     50  C   UNL A   1      36.047  30.144  29.272  1.00  0.00     0.000 A 
ENDBRANCH  26  45
BRANCH  38  51
ATOM     51  C   UNL A   1      44.911  32.258  30.363  1.00  0.00    -0.014 A 
ATOM     52  C   UNL A   1      45.084  33.339  29.486  1.00  0.00     0.009 A 
ATOM     53  C   UNL A   1      45.050  32.460  31.745  1.00  0.00     0.009 A 
ATOM     54  C   UNL A   1      45.429  34.595  29.986  1.00  0.00     0.001 A 
ATOM     55  C   UNL A   1      45.357  33.724  32.242  1.00  0.00     0.001 A 
ATOM     56  C   UNL A   1      45.557  34.787  31.362  1.00  0.00     0.000 A 
ENDBRANCH  38  51
ENDBRANCH  12  13
ENDBRANCH   5   7
ENDBRANCH   4   5
ENDBRANCH   3   4
ENDBRANCH   2   3
ENDBRANCH   1   2
BRANCH   1  57
ATOM     57  C   UNL A   1      37.950  22.894  25.460  1.00  0.00     0.202 C 
BRANCH  57  58
ATOM     58  C   UNL A   1      36.546  23.311  25.886  1.00  0.00     0.261 C 
BRANCH  58  59
ATOM     59  O   UNL A   1      36.081  24.416  25.081  1.00  0.00    -0.463 OA
BRANCH  59  60
ATOM     60  C   UNL A   1      34.724  24.485  24.933  1.00  0.00     0.310 C 
ATOM     61  O   UNL A   1      33.962  24.858  25.816  1.00  0.00    -0.252 OA
BRANCH  60  62
ATOM     62  C   UNL A   1      34.290  23.959  23.569  1.00  0.00     0.119 C 
ATOM     63  C   UNL A   1      33.212  24.770  22.839  1.00  0.00     0.019 C 
ATOM     64  C   UNL A   1      33.873  22.491  23.654  1.00  0.00     0.136 C 
ATOM     65  C   UNL A   1      31.759  24.411  23.147  1.00  0.00     0.023 C 
ATOM     66  N   UNL A   1      32.584  22.321  24.325  1.00  0.00    -0.324 N 
ATOM     67  C   UNL A   1      31.469  23.014  23.691  1.00  0.00     0.121 C 
BRANCH  66  68
ATOM     68  C   UNL A   1      32.561  21.533  25.465  1.00  0.00     0.321 C 
ATOM     69  O   UNL A   1      32.560  22.018  26.600  1.00  0.00    -0.248 OA
ATOM     70  N   UNL A   1      32.416  20.184  25.396  1.00  0.00    -0.308 N 
ATOM     71  H   UNL A   1      31.865  19.812  26.122  1.00  0.00     0.171 HD
BRANCH  70  72
ATOM     72  C   UNL A   1      32.889  19.218  24.504  1.00  0.00     0.042 A 
ATOM     73  C   UNL A   1      34.065  18.542  24.840  1.00  0.00     0.026 A 
ATOM     74  C   UNL A   1      32.237  18.913  23.308  1.00  0.00     0.026 A 
ATOM     75  C   UNL A   1      34.503  17.473  24.057  1.00  0.00     0.002 A 
ATOM     76  C   UNL A   1      32.673  17.845  22.526  1.00  0.00     0.002 A 
ATOM     77  C   UNL A   1      33.791  17.108  22.916  1.00  0.00     0.000 A 
ENDBRANCH  70  72
ENDBRANCH  66  68
ENDBRANCH  60  62
ENDBRANCH  59  60
ENDBRANCH  58  59
ENDBRANCH  57  58
ENDBRANCH   1  57
TORSDOF 16
ENDMDL
