MODEL 1
REMARK VINA RESULT:     -10.6      0.000      0.000
REMARK SMILES CC1(C)CCC[C@H]1NC(=O)N[C@@H]1COC[C@@]1(C)C(=O)OCCOCCOC(=O)c1ccc(-c2c3nc(c(-c4ccccc4)c4ccc([nH]4)c(-c4ccccc4)c4nc(c(-c5ccccc5)c5ccc2[nH]5)C=C4)C=C3)cc1
REMARK SMILES IDX 23 1 22 2 21 3 20 4 18 5 19 6 16 7 12 8 13 9 14 10 15 11
REMARK SMILES IDX 17 12 11 13 8 14 9 15 10 17 7 19 1 20 2 21 3 22 4 23 5 24
REMARK SMILES IDX 6 25 24 26 25 27 26 28 27 29 28 30 29 31 30 32 76 33 31 34
REMARK SMILES IDX 75 35 32 36 33 37 34 38 69 39 35 40 74 41 68 42 70 43 36 44
REMARK SMILES IDX 73 45 67 46 66 47 37 49 59 50 44 51 58 52 45 53 48 54 57 55
REMARK SMILES IDX 71 56 46 57 47 58 56 60 72 61 49 62 38 63 39 64 43 65 40 66
REMARK SMILES IDX 42 67 41 68 60 69 61 70 65 71 62 72 64 73 63 74 50 75 51 76
REMARK SMILES IDX 55 77 52 78 54 79 53 80
REMARK H PARENT 8 16 11 18 70 48 48 59
REMARK Flexibility Score: inf
ROOT
ATOM      1  O   UNL A   1      38.731  22.347  26.137  1.00  0.00    -0.374 OA
ENDROOT
BRANCH   1   2
ATOM      2  C   UNL A   1      37.937  23.534  26.232  1.00  0.00     0.202 C 
BRANCH   2   3
ATOM      3  C   UNL A   1      36.983  23.738  25.040  1.00  0.00     0.261 C 
BRANCH   3   4
ATOM      4  O   UNL A   1      35.630  23.574  25.512  1.00  0.00    -0.463 OA
BRANCH   4   5
ATOM      5  C   UNL A   1      34.745  22.902  24.728  1.00  0.00     0.316 C 
ATOM      6  O   UNL A   1      34.687  23.012  23.513  1.00  0.00    -0.251 OA
BRANCH   5   7
ATOM      7  C   UNL A   1      33.925  21.911  25.569  1.00  0.00     0.111 C 
ATOM      8  C   UNL A   1      32.442  21.836  25.195  1.00  0.00     0.129 C 
ATOM      9  C   UNL A   1      32.219  20.463  24.576  1.00  0.00     0.186 C 
ATOM     10  O   UNL A   1      33.345  19.651  24.903  1.00  0.00    -0.378 OA
ATOM     11  C   UNL A   1      34.449  20.510  25.210  1.00  0.00     0.181 C 
ATOM     12  C   UNL A   1      34.112  22.278  27.041  1.00  0.00     0.028 C 
BRANCH   8  13
ATOM     13  N   UNL A   1      31.447  22.177  26.242  1.00  0.00    -0.332 N 
ATOM     14  N   UNL A   1      30.954  24.505  26.545  1.00  0.00    -0.335 N 
ATOM     15  C   UNL A   1      30.813  23.206  26.805  1.00  0.00     0.315 C 
ATOM     16  H   UNL A   1      30.247  25.033  26.983  1.00  0.00     0.165 HD
ATOM     17  O   UNL A   1      29.962  22.908  27.651  1.00  0.00    -0.249 OA
ATOM     18  H   UNL A   1      31.149  21.345  26.677  1.00  0.00     0.165 HD
BRANCH  14  19
ATOM     19  C   UNL A   1      31.864  25.367  25.793  1.00  0.00     0.089 C 
ATOM     20  C   UNL A   1      30.397  24.733  23.653  1.00  0.00     0.013 C 
ATOM     21  C   UNL A   1      31.411  25.683  24.316  1.00  0.00    -0.015 C 
ATOM     22  C   UNL A   1      32.655  25.757  23.398  1.00  0.00     0.013 C 
ATOM     23  C   UNL A   1      30.769  27.073  24.438  1.00  0.00     0.008 C 
ATOM     24  C   UNL A   1      31.634  27.798  25.448  1.00  0.00     0.003 C 
ATOM     25  C   UNL A   1      31.973  26.740  26.490  1.00  0.00     0.025 C 
ENDBRANCH  14  19
ENDBRANCH   8  13
ENDBRANCH   5   7
ENDBRANCH   4   5
ENDBRANCH   3   4
ENDBRANCH   2   3
ENDBRANCH   1   2
BRANCH   1  26
ATOM     26  C   UNL A   1      38.222  21.272  25.347  1.00  0.00     0.202 C 
BRANCH  26  27
ATOM     27  C   UNL A   1      39.092  20.006  25.260  1.00  0.00     0.261 C 
BRANCH  27  28
ATOM     28  O   UNL A   1      39.986  19.851  26.376  1.00  0.00    -0.460 OA
BRANCH  28  29
ATOM     29  C   UNL A   1      41.298  19.891  26.036  1.00  0.00     0.338 C 
ATOM     30  O   UNL A   1      41.893  19.097  25.327  1.00  0.00    -0.246 OA
BRANCH  29  31
ATOM     31  C   UNL A   1      41.949  21.128  26.516  1.00  0.00     0.060 A 
ATOM     32  C   UNL A   1      42.099  21.248  27.902  1.00  0.00     0.016 A 
ATOM     33  C   UNL A   1      42.290  22.192  25.677  1.00  0.00     0.016 A 
ATOM     34  C   UNL A   1      42.512  22.455  28.459  1.00  0.00     0.010 A 
ATOM     35  C   UNL A   1      42.715  23.407  26.241  1.00  0.00     0.010 A 
ATOM     36  C   UNL A   1      42.779  23.559  27.639  1.00  0.00    -0.014 A 
BRANCH  36  37
ATOM     37  C   UNL A   1      42.971  24.882  28.290  1.00  0.00     0.031 A 
ATOM     38  C   UNL A   1      44.363  25.342  28.640  1.00  0.00     0.074 A 
ATOM     39  C   UNL A   1      41.934  25.725  28.446  1.00  0.00     0.049 A 
ATOM     40  N   UNL A   1      44.766  26.517  29.056  1.00  0.00    -0.248 NA
ATOM     41  C   UNL A   1      45.442  24.354  28.496  1.00  0.00     0.031 C 
ATOM     42  C   UNL A   1      40.541  25.422  28.116  1.00  0.00     0.029 A 
ATOM     43  N   UNL A   1      41.899  27.022  28.895  1.00  0.00    -0.354 N 
ATOM     44  C   UNL A   1      46.143  26.411  29.214  1.00  0.00     0.074 A 
ATOM     45  C   UNL A   1      46.500  25.045  28.894  1.00  0.00     0.031 C 
ATOM     46  C   UNL A   1      39.791  26.512  28.349  1.00  0.00     0.029 A 
ATOM     47  C   UNL A   1      40.645  27.582  28.861  1.00  0.00     0.049 A 
ATOM     48  H   UNL A   1      42.696  27.504  29.211  1.00  0.00     0.167 HD
ATOM     49  C   UNL A   1      47.036  27.363  29.578  1.00  0.00     0.031 A 
ATOM     50  C   UNL A   1      40.231  28.820  29.197  1.00  0.00     0.031 A 
ATOM     51  C   UNL A   1      46.692  28.719  29.912  1.00  0.00     0.049 A 
ATOM     52  C   UNL A   1      41.236  29.843  29.656  1.00  0.00     0.074 A 
ATOM     53  C   UNL A   1      47.533  29.757  30.281  1.00  0.00     0.029 A 
ATOM     54  N   UNL A   1      45.402  29.225  29.926  1.00  0.00    -0.354 N 
ATOM     55  N   UNL A   1      42.538  29.737  29.758  1.00  0.00    -0.248 NA
ATOM     56  C   UNL A   1      40.707  31.164  30.029  1.00  0.00     0.031 C 
ATOM     57  C   UNL A   1      46.745  30.877  30.569  1.00  0.00     0.029 A 
ATOM     58  C   UNL A   1      45.420  30.553  30.322  1.00  0.00     0.049 A 
ATOM     59  H   UNL A   1      44.593  28.717  29.690  1.00  0.00     0.167 HD
ATOM     60  C   UNL A   1      42.987  30.984  30.176  1.00  0.00     0.074 A 
ATOM     61  C   UNL A   1      41.821  31.834  30.292  1.00  0.00     0.031 C 
ATOM     62  C   UNL A   1      44.254  31.390  30.437  1.00  0.00     0.031 A 
BRANCH  49  63
ATOM     63  C   UNL A   1      48.482  26.955  29.659  1.00  0.00    -0.014 A 
ATOM     64  C   UNL A   1      49.349  27.126  28.567  1.00  0.00     0.009 A 
ATOM     65  C   UNL A   1      48.990  26.421  30.852  1.00  0.00     0.009 A 
ATOM     66  C   UNL A   1      50.688  26.737  28.661  1.00  0.00     0.001 A 
ATOM     67  C   UNL A   1      50.334  26.060  30.952  1.00  0.00     0.001 A 
ATOM     68  C   UNL A   1      51.180  26.209  29.854  1.00  0.00     0.000 A 
ENDBRANCH  49  63
BRANCH  50  69
ATOM     69  C   UNL A   1      38.789  29.171  29.106  1.00  0.00    -0.014 A 
ATOM     70  C   UNL A   1      38.239  29.653  27.908  1.00  0.00     0.009 A 
ATOM     71  C   UNL A   1      37.961  29.051  30.233  1.00  0.00     0.009 A 
ATOM     72  C   UNL A   1      36.895  30.033  27.849  1.00  0.00     0.001 A 
ATOM     73  C   UNL A   1      36.612  29.404  30.162  1.00  0.00     0.001 A 
ATOM     74  C   UNL A   1      36.083  29.905  28.975  1.00  0.00     0.000 A 
ENDBRANCH  50  69
BRANCH  62  75
ATOM     75  C   UNL A   1      44.449  32.826  30.839  1.00  0.00    -0.014 A 
ATOM     76  C   UNL A   1      44.415  33.222  32.185  1.00  0.00     0.009 A 
ATOM     77  C   UNL A   1      44.697  33.795  29.853  1.00  0.00     0.009 A 
ATOM     78  C   UNL A   1      44.582  34.565  32.532  1.00  0.00     0.001 A 
ATOM     79  C   UNL A   1      44.894  35.132  30.204  1.00  0.00     0.001 A 
ATOM     80  C   UNL A   1      44.826  35.517  31.542  1.00  0.00     0.000 A 
ENDBRANCH  62  75
ENDBRANCH  36  37
ENDBRANCH  29  31
ENDBRANCH  28  29
ENDBRANCH  27  28
ENDBRANCH  26  27
ENDBRANCH   1  26
TORSDOF 16
ENDMDL
MODEL 2
REMARK VINA RESULT:     -10.3      4.211      8.914
REMARK SMILES CC1(C)CCC[C@H]1NC(=O)N[C@@H]1COC[C@@]1(C)C(=O)OCCOCCOC(=O)c1ccc(-c2c3nc(c(-c4ccccc4)c4ccc([nH]4)c(-c4ccccc4)c4nc(c(-c5ccccc5)c5ccc2[nH]5)C=C4)C=C3)cc1
REMARK SMILES IDX 23 1 22 2 21 3 20 4 18 5 19 6 16 7 12 8 13 9 14 10 15 11
REMARK SMILES IDX 17 12 11 13 8 14 9 15 10 17 7 19 1 20 2 21 3 22 4 23 5 24
REMARK SMILES IDX 6 25 24 26 25 27 26 28 27 29 28 30 29 31 30 32 76 33 31 34
REMARK SMILES IDX 75 35 32 36 33 37 34 38 69 39 35 40 74 41 68 42 70 43 36 44
REMARK SMILES IDX 73 45 67 46 66 47 37 49 59 50 44 51 58 52 45 53 48 54 57 55
REMARK SMILES IDX 71 56 46 57 47 58 56 60 72 61 49 62 38 63 39 64 43 65 40 66
REMARK SMILES IDX 42 67 41 68 60 69 61 70 65 71 62 72 64 73 63 74 50 75 51 76
REMARK SMILES IDX 55 77 52 78 54 79 53 80
REMARK H PARENT 8 16 11 18 70 48 48 59
REMARK Flexibility Score: inf
ROOT
ATOM      1  O   UNL A   1      32.899  30.555  27.245  1.00  0.00    -0.374 OA
ENDROOT
BRANCH   1   2
ATOM      2  C   UNL A   1      33.319  29.446  26.445  1.00  0.00     0.202 C 
BRANCH   2   3
ATOM      3  C   UNL A   1      32.791  29.490  24.998  1.00  0.00     0.261 C 
BRANCH   3   4
ATOM      4  O   UNL A   1      32.762  28.143  24.487  1.00  0.00    -0.463 OA
BRANCH   4   5
ATOM      5  C   UNL A   1      31.578  27.474  24.482  1.00  0.00     0.316 C 
ATOM      6  O   UNL A   1      30.496  28.001  24.267  1.00  0.00    -0.251 OA
BRANCH   5   7
ATOM      7  C   UNL A   1      31.809  25.966  24.662  1.00  0.00     0.111 C 
ATOM      8  C   UNL A   1      30.533  25.119  24.625  1.00  0.00     0.129 C 
ATOM      9  C   UNL A   1      30.596  24.297  23.346  1.00  0.00     0.186 C 
ATOM     10  O   UNL A   1      31.938  24.342  22.865  1.00  0.00    -0.378 OA
ATOM     11  C   UNL A   1      32.577  25.499  23.414  1.00  0.00     0.181 C 
ATOM     12  C   UNL A   1      32.577  25.763  25.969  1.00  0.00     0.028 C 
BRANCH   8  13
ATOM     13  N   UNL A   1      30.205  24.313  25.826  1.00  0.00    -0.332 N 
ATOM     14  N   UNL A   1      31.559  22.373  26.229  1.00  0.00    -0.335 N 
ATOM     15  C   UNL A   1      30.582  23.234  26.514  1.00  0.00     0.315 C 
ATOM     16  H   UNL A   1      31.731  21.769  26.988  1.00  0.00     0.165 HD
ATOM     17  O   UNL A   1      29.968  23.032  27.568  1.00  0.00    -0.249 OA
ATOM     18  H   UNL A   1      29.429  24.719  26.277  1.00  0.00     0.165 HD
BRANCH  14  19
ATOM     19  C   UNL A   1      32.444  22.073  25.106  1.00  0.00     0.089 C 
ATOM     20  C   UNL A   1      34.434  22.856  26.705  1.00  0.00     0.013 C 
ATOM     21  C   UNL A   1      33.983  22.089  25.449  1.00  0.00    -0.015 C 
ATOM     22  C   UNL A   1      34.776  22.651  24.246  1.00  0.00     0.013 C 
ATOM     23  C   UNL A   1      34.313  20.601  25.643  1.00  0.00     0.008 C 
ATOM     24  C   UNL A   1      33.479  19.893  24.595  1.00  0.00     0.003 C 
ATOM     25  C   UNL A   1      32.156  20.648  24.585  1.00  0.00     0.025 C 
ENDBRANCH  14  19
ENDBRANCH   8  13
ENDBRANCH   5   7
ENDBRANCH   4   5
ENDBRANCH   3   4
ENDBRANCH   2   3
ENDBRANCH   1   2
BRANCH   1  26
ATOM     26  C   UNL A   1      31.772  31.306  26.795  1.00  0.00     0.202 C 
BRANCH  26  27
ATOM     27  C   UNL A   1      31.858  32.836  26.938  1.00  0.00     0.261 C 
BRANCH  27  28
ATOM     28  O   UNL A   1      33.198  33.312  27.159  1.00  0.00    -0.460 OA
BRANCH  28  29
ATOM     29  C   UNL A   1      33.322  34.112  28.247  1.00  0.00     0.338 C 
ATOM     30  O   UNL A   1      32.575  35.020  28.574  1.00  0.00    -0.246 OA
BRANCH  29  31
ATOM     31  C   UNL A   1      34.428  33.674  29.123  1.00  0.00     0.060 A 
ATOM     32  C   UNL A   1      35.678  34.254  28.876  1.00  0.00     0.016 A 
ATOM     33  C   UNL A   1      34.302  32.651  30.067  1.00  0.00     0.016 A 
ATOM     34  C   UNL A   1      36.815  33.761  29.509  1.00  0.00     0.010 A 
ATOM     35  C   UNL A   1      35.450  32.161  30.711  1.00  0.00     0.010 A 
ATOM     36  C   UNL A   1      36.719  32.681  30.396  1.00  0.00    -0.014 A 
BRANCH  36  37
ATOM     37  C   UNL A   1      37.981  32.036  30.848  1.00  0.00     0.031 A 
ATOM     38  C   UNL A   1      38.522  32.343  32.221  1.00  0.00     0.074 A 
ATOM     39  C   UNL A   1      38.569  31.083  30.100  1.00  0.00     0.049 A 
ATOM     40  N   UNL A   1      39.504  31.770  32.871  1.00  0.00    -0.248 NA
ATOM     41  C   UNL A   1      37.866  33.430  32.962  1.00  0.00     0.031 C 
ATOM     42  C   UNL A   1      38.130  30.662  28.770  1.00  0.00     0.029 A 
ATOM     43  N   UNL A   1      39.646  30.276  30.371  1.00  0.00    -0.354 N 
ATOM     44  C   UNL A   1      39.578  32.421  34.096  1.00  0.00     0.074 A 
ATOM     45  C   UNL A   1      38.571  33.461  34.083  1.00  0.00     0.031 C 
ATOM     46  C   UNL A   1      38.915  29.655  28.351  1.00  0.00     0.029 A 
ATOM     47  C   UNL A   1      39.922  29.374  29.372  1.00  0.00     0.049 A 
ATOM     48  H   UNL A   1      40.171  30.338  31.201  1.00  0.00     0.167 HD
ATOM     49  C   UNL A   1      40.396  32.171  35.148  1.00  0.00     0.031 A 
ATOM     50  C   UNL A   1      40.872  28.422  29.292  1.00  0.00     0.031 A 
ATOM     51  C   UNL A   1      41.409  31.150  35.168  1.00  0.00     0.049 A 
ATOM     52  C   UNL A   1      41.809  28.204  30.450  1.00  0.00     0.074 A 
ATOM     53  C   UNL A   1      42.277  30.817  36.195  1.00  0.00     0.029 A 
ATOM     54  N   UNL A   1      41.695  30.302  34.111  1.00  0.00    -0.354 N 
ATOM     55  N   UNL A   1      41.835  28.800  31.618  1.00  0.00    -0.248 NA
ATOM     56  C   UNL A   1      42.835  27.165  30.281  1.00  0.00     0.031 C 
ATOM     57  C   UNL A   1      43.125  29.801  35.739  1.00  0.00     0.029 A 
ATOM     58  C   UNL A   1      42.745  29.463  34.450  1.00  0.00     0.049 A 
ATOM     59  H   UNL A   1      41.224  30.296  33.247  1.00  0.00     0.167 HD
ATOM     60  C   UNL A   1      42.858  28.188  32.331  1.00  0.00     0.074 A 
ATOM     61  C   UNL A   1      43.416  27.165  31.473  1.00  0.00     0.031 C 
ATOM     62  C   UNL A   1      43.295  28.449  33.588  1.00  0.00     0.031 A 
BRANCH  49  63
ATOM     63  C   UNL A   1      40.241  33.045  36.363  1.00  0.00    -0.014 A 
ATOM     64  C   UNL A   1      41.059  34.170  36.560  1.00  0.00     0.009 A 
ATOM     65  C   UNL A   1      39.244  32.756  37.307  1.00  0.00     0.009 A 
ATOM     66  C   UNL A   1      40.902  34.966  37.698  1.00  0.00     0.001 A 
ATOM     67  C   UNL A   1      39.072  33.570  38.427  1.00  0.00     0.001 A 
ATOM     68  C   UNL A   1      39.906  34.668  38.627  1.00  0.00     0.000 A 
ENDBRANCH  49  63
BRANCH  50  69
ATOM     69  C   UNL A   1      40.988  27.589  28.066  1.00  0.00    -0.014 A 
ATOM     70  C   UNL A   1      41.759  28.019  26.974  1.00  0.00     0.009 A 
ATOM     71  C   UNL A   1      40.302  26.368  27.973  1.00  0.00     0.009 A 
ATOM     72  C   UNL A   1      41.817  27.255  25.805  1.00  0.00     0.001 A 
ATOM     73  C   UNL A   1      40.386  25.594  26.815  1.00  0.00     0.001 A 
ATOM     74  C   UNL A   1      41.134  26.042  25.728  1.00  0.00     0.000 A 
ENDBRANCH  50  69
BRANCH  62  75
ATOM     75  C   UNL A   1      44.407  27.590  34.124  1.00  0.00    -0.014 A 
ATOM     76  C   UNL A   1      45.754  27.958  33.977  1.00  0.00     0.009 A 
ATOM     77  C   UNL A   1      44.099  26.405  34.811  1.00  0.00     0.009 A 
ATOM     78  C   UNL A   1      46.769  27.134  34.468  1.00  0.00     0.001 A 
ATOM     79  C   UNL A   1      45.114  25.599  35.329  1.00  0.00     0.001 A 
ATOM     80  C   UNL A   1      46.449  25.959  35.147  1.00  0.00     0.000 A 
ENDBRANCH  62  75
ENDBRANCH  36  37
ENDBRANCH  29  31
ENDBRANCH  28  29
ENDBRANCH  27  28
ENDBRANCH  26  27
ENDBRANCH   1  26
TORSDOF 16
ENDMDL
MODEL 3
REMARK VINA RESULT:     -10.2      3.643      7.207
REMARK SMILES CC1(C)CCC[C@H]1NC(=O)N[C@@H]1COC[C@@]1(C)C(=O)OCCOCCOC(=O)c1ccc(-c2c3nc(c(-c4ccccc4)c4ccc([nH]4)c(-c4ccccc4)c4nc(c(-c5ccccc5)c5ccc2[nH]5)C=C4)C=C3)cc1
REMARK SMILES IDX 23 1 22 2 21 3 20 4 18 5 19 6 16 7 12 8 13 9 14 10 15 11
REMARK SMILES IDX 17 12 11 13 8 14 9 15 10 17 7 19 1 20 2 21 3 22 4 23 5 24
REMARK SMILES IDX 6 25 24 26 25 27 26 28 27 29 28 30 29 31 30 32 76 33 31 34
REMARK SMILES IDX 75 35 32 36 33 37 34 38 69 39 35 40 74 41 68 42 70 43 36 44
REMARK SMILES IDX 73 45 67 46 66 47 37 49 59 50 44 51 58 52 45 53 48 54 57 55
REMARK SMILES IDX 71 56 46 57 47 58 56 60 72 61 49 62 38 63 39 64 43 65 40 66
REMARK SMILES IDX 42 67 41 68 60 69 61 70 65 71 62 72 64 73 63 74 50 75 51 76
REMARK SMILES IDX 55 77 52 78 54 79 53 80
REMARK H PARENT 8 16 11 18 70 48 48 59
REMARK Flexibility Score: inf
ROOT
ATOM      1  O   UNL A   1      39.355  21.807  26.703  1.00  0.00    -0.374 OA
ENDROOT
BRANCH   1   2
ATOM      2  C   UNL A   1      38.598  22.217  25.560  1.00  0.00     0.202 C 
BRANCH   2   3
ATOM      3  C   UNL A   1      37.396  23.117  25.903  1.00  0.00     0.261 C 
BRANCH   3   4
ATOM      4  O   UNL A   1      36.244  22.275  26.105  1.00  0.00    -0.463 OA
BRANCH   4   5
ATOM      5  C   UNL A   1      35.096  22.572  25.439  1.00  0.00     0.316 C 
ATOM      6  O   UNL A   1      35.015  23.415  24.558  1.00  0.00    -0.251 OA
BRANCH   5   7
ATOM      7  C   UNL A   1      33.964  21.626  25.867  1.00  0.00     0.111 C 
ATOM      8  C   UNL A   1      32.581  22.003  25.326  1.00  0.00     0.129 C 
ATOM      9  C   UNL A   1      32.200  20.926  24.322  1.00  0.00     0.186 C 
ATOM     10  O   UNL A   1      33.069  19.813  24.526  1.00  0.00    -0.378 OA
ATOM     11  C   UNL A   1      34.252  20.278  25.184  1.00  0.00     0.181 C 
ATOM     12  C   UNL A   1      33.965  21.553  27.395  1.00  0.00     0.028 C 
BRANCH   8  13
ATOM     13  N   UNL A   1      31.511  22.295  26.311  1.00  0.00    -0.332 N 
ATOM     14  N   UNL A   1      30.875  24.595  26.566  1.00  0.00    -0.335 N 
ATOM     15  C   UNL A   1      30.790  23.291  26.828  1.00  0.00     0.315 C 
ATOM     16  H   UNL A   1      30.116  25.085  26.958  1.00  0.00     0.165 HD
ATOM     17  O   UNL A   1      29.908  22.951  27.626  1.00  0.00    -0.249 OA
ATOM     18  H   UNL A   1      31.233  21.451  26.735  1.00  0.00     0.165 HD
BRANCH  14  19
ATOM     19  C   UNL A   1      31.780  25.500  25.860  1.00  0.00     0.089 C 
ATOM     20  C   UNL A   1      30.547  24.696  23.631  1.00  0.00     0.013 C 
ATOM     21  C   UNL A   1      31.430  25.739  24.341  1.00  0.00    -0.015 C 
ATOM     22  C   UNL A   1      32.737  25.880  23.525  1.00  0.00     0.013 C 
ATOM     23  C   UNL A   1      30.680  27.079  24.362  1.00  0.00     0.008 C 
ATOM     24  C   UNL A   1      31.402  27.896  25.413  1.00  0.00     0.003 C 
ATOM     25  C   UNL A   1      31.729  26.897  26.516  1.00  0.00     0.025 C 
ENDBRANCH  14  19
ENDBRANCH   8  13
ENDBRANCH   5   7
ENDBRANCH   4   5
ENDBRANCH   3   4
ENDBRANCH   2   3
ENDBRANCH   1   2
BRANCH   1  26
ATOM     26  C   UNL A   1      40.403  20.861  26.498  1.00  0.00     0.202 C 
BRANCH  26  27
ATOM     27  C   UNL A   1      41.788  21.428  26.139  1.00  0.00     0.261 C 
BRANCH  27  28
ATOM     28  O   UNL A   1      42.171  22.550  26.954  1.00  0.00    -0.460 OA
BRANCH  28  29
ATOM     29  C   UNL A   1      42.331  23.703  26.258  1.00  0.00     0.338 C 
ATOM     30  O   UNL A   1      42.725  23.813  25.108  1.00  0.00    -0.246 OA
BRANCH  29  31
ATOM     31  C   UNL A   1      41.825  24.869  27.011  1.00  0.00     0.060 A 
ATOM     32  C   UNL A   1      42.656  25.995  27.036  1.00  0.00     0.016 A 
ATOM     33  C   UNL A   1      40.653  24.843  27.772  1.00  0.00     0.016 A 
ATOM     34  C   UNL A   1      42.363  27.062  27.879  1.00  0.00     0.010 A 
ATOM     35  C   UNL A   1      40.355  25.925  28.617  1.00  0.00     0.010 A 
ATOM     36  C   UNL A   1      41.237  27.018  28.712  1.00  0.00    -0.014 A 
BRANCH  36  37
ATOM     37  C   UNL A   1      41.106  28.060  29.765  1.00  0.00     0.031 A 
ATOM     38  C   UNL A   1      40.001  29.080  29.669  1.00  0.00     0.074 A 
ATOM     39  C   UNL A   1      41.878  28.018  30.867  1.00  0.00     0.049 A 
ATOM     40  N   UNL A   1      39.610  29.962  30.554  1.00  0.00    -0.248 NA
ATOM     41  C   UNL A   1      39.232  29.104  28.416  1.00  0.00     0.031 C 
ATOM     42  C   UNL A   1      42.960  27.063  31.107  1.00  0.00     0.029 A 
ATOM     43  N   UNL A   1      41.847  28.784  32.007  1.00  0.00    -0.354 N 
ATOM     44  C   UNL A   1      38.546  30.638  29.970  1.00  0.00     0.074 A 
ATOM     45  C   UNL A   1      38.382  30.096  28.638  1.00  0.00     0.031 C 
ATOM     46  C   UNL A   1      43.473  27.282  32.329  1.00  0.00     0.029 A 
ATOM     47  C   UNL A   1      42.770  28.403  32.950  1.00  0.00     0.049 A 
ATOM     48  H   UNL A   1      41.223  29.534  32.135  1.00  0.00     0.167 HD
ATOM     49  C   UNL A   1      37.762  31.613  30.494  1.00  0.00     0.031 A 
ATOM     50  C   UNL A   1      43.017  28.896  34.180  1.00  0.00     0.031 A 
ATOM     51  C   UNL A   1      37.924  32.169  31.810  1.00  0.00     0.049 A 
ATOM     52  C   UNL A   1      42.171  30.020  34.716  1.00  0.00     0.074 A 
ATOM     53  C   UNL A   1      37.169  33.152  32.431  1.00  0.00     0.029 A 
ATOM     54  N   UNL A   1      38.912  31.798  32.708  1.00  0.00    -0.354 N 
ATOM     55  N   UNL A   1      41.142  30.617  34.167  1.00  0.00    -0.248 NA
ATOM     56  C   UNL A   1      42.515  30.522  36.055  1.00  0.00     0.031 C 
ATOM     57  C   UNL A   1      37.735  33.412  33.684  1.00  0.00     0.029 A 
ATOM     58  C   UNL A   1      38.804  32.550  33.867  1.00  0.00     0.049 A 
ATOM     59  H   UNL A   1      39.591  31.104  32.546  1.00  0.00     0.167 HD
ATOM     60  C   UNL A   1      40.697  31.543  35.103  1.00  0.00     0.074 A 
ATOM     61  C   UNL A   1      41.557  31.415  36.261  1.00  0.00     0.031 C 
ATOM     62  C   UNL A   1      39.666  32.418  35.013  1.00  0.00     0.031 A 
BRANCH  49  63
ATOM     63  C   UNL A   1      36.667  32.160  29.620  1.00  0.00    -0.014 A 
ATOM     64  C   UNL A   1      35.388  31.580  29.605  1.00  0.00     0.009 A 
ATOM     65  C   UNL A   1      36.909  33.289  28.823  1.00  0.00     0.009 A 
ATOM     66  C   UNL A   1      34.385  32.100  28.783  1.00  0.00     0.001 A 
ATOM     67  C   UNL A   1      35.897  33.823  28.024  1.00  0.00     0.001 A 
ATOM     68  C   UNL A   1      34.640  33.223  27.997  1.00  0.00     0.000 A 
ENDBRANCH  49  63
BRANCH  50  69
ATOM     69  C   UNL A   1      44.116  28.325  35.002  1.00  0.00    -0.014 A 
ATOM     70  C   UNL A   1      43.856  27.340  35.968  1.00  0.00     0.009 A 
ATOM     71  C   UNL A   1      45.432  28.786  34.841  1.00  0.00     0.009 A 
ATOM     72  C   UNL A   1      44.888  26.850  36.775  1.00  0.00     0.001 A 
ATOM     73  C   UNL A   1      46.465  28.273  35.627  1.00  0.00     0.001 A 
ATOM     74  C   UNL A   1      46.191  27.314  36.600  1.00  0.00     0.000 A 
ENDBRANCH  50  69
BRANCH  62  75
ATOM     75  C   UNL A   1      39.387  33.281  36.212  1.00  0.00    -0.014 A 
ATOM     76  C   UNL A   1      38.533  32.853  37.241  1.00  0.00     0.009 A 
ATOM     77  C   UNL A   1      40.011  34.534  36.327  1.00  0.00     0.009 A 
ATOM     78  C   UNL A   1      38.276  33.680  38.337  1.00  0.00     0.001 A 
ATOM     79  C   UNL A   1      39.778  35.346  37.438  1.00  0.00     0.001 A 
ATOM     80  C   UNL A   1      38.902  34.923  38.436  1.00  0.00     0.000 A 
ENDBRANCH  62  75
ENDBRANCH  36  37
ENDBRANCH  29  31
ENDBRANCH  28  29
ENDBRANCH  27  28
ENDBRANCH  26  27
ENDBRANCH   1  26
TORSDOF 16
ENDMDL
