MODEL 1
REMARK VINA RESULT:     -10.7      0.000      0.000
REMARK SMILES Cc1ccc(Cl)c(Nc2ccccc2C(=O)NCC(=O)OCCOCCOC(=O)c2ccc(-c3c4nc(c(-c5ccccc5)c5ccc([nH]5)c(-c5ccccc5)c5nc(c(-c6ccccc6)c6ccc3[nH]6)C=C5)C=C4)cc2)c1Cl
REMARK SMILES IDX 23 1 22 2 21 3 19 4 20 5 18 6 17 7 15 8 16 9 14 11 9 12
REMARK SMILES IDX 10 13 11 14 13 15 12 16 8 17 7 19 1 20 2 21 3 22 78 23 4 24
REMARK SMILES IDX 79 25 5 26 6 27 24 28 25 29 26 30 27 31 28 32 29 33 30 34
REMARK SMILES IDX 31 35 77 36 32 37 76 38 33 39 34 40 35 41 70 42 36 43 75 44
REMARK SMILES IDX 69 45 71 46 37 47 74 48 68 49 67 50 38 52 60 53 45 54 59 55
REMARK SMILES IDX 46 56 49 57 58 58 72 59 47 60 48 61 57 63 73 64 50 65 39 66
REMARK SMILES IDX 40 67 44 68 41 69 43 70 42 71 61 72 62 73 66 74 63 75 65 76
REMARK SMILES IDX 64 77 51 78 52 79 56 80 53 81 55 82 54 83
REMARK H PARENT 17 10 8 18 71 51 49 62
REMARK Flexibility Score: inf
ROOT
ATOM      1  C   UNL A   1      41.595  20.979  27.040  1.00  0.00     0.202 C 
ENDROOT
BRANCH   1   2
ATOM      2  C   UNL A   1      40.389  21.422  26.197  1.00  0.00     0.261 C 
BRANCH   2   3
ATOM      3  O   UNL A   1      39.605  22.386  26.915  1.00  0.00    -0.462 OA
BRANCH   3   4
ATOM      4  C   UNL A   1      38.533  22.901  26.253  1.00  0.00     0.325 C 
ATOM      5  O   UNL A   1      38.368  24.083  25.985  1.00  0.00    -0.250 OA
BRANCH   4   6
ATOM      6  C   UNL A   1      37.657  21.764  25.756  1.00  0.00     0.239 C 
BRANCH   6   7
ATOM      7  N   UNL A   1      37.346  21.657  24.358  1.00  0.00    -0.341 N 
ATOM      8  C   UNL A   1      36.360  22.397  23.755  1.00  0.00     0.253 C 
ATOM      9  O   UNL A   1      36.669  23.091  22.787  1.00  0.00    -0.269 OA
ATOM     10  H   UNL A   1      37.864  21.025  23.808  1.00  0.00     0.164 HD
BRANCH   8  11
ATOM     11  C   UNL A   1      34.935  22.065  24.013  1.00  0.00     0.063 A 
ATOM     12  C   UNL A   1      33.782  22.833  23.760  1.00  0.00     0.051 A 
ATOM     13  C   UNL A   1      32.554  22.322  24.246  1.00  0.00     0.027 A 
ATOM     14  C   UNL A   1      32.454  21.087  24.894  1.00  0.00     0.002 A 
ATOM     15  C   UNL A   1      34.815  20.804  24.647  1.00  0.00     0.016 A 
ATOM     16  C   UNL A   1      33.588  20.313  25.075  1.00  0.00     0.001 A 
BRANCH  12  17
ATOM     17  N   UNL A   1      33.653  24.012  22.996  1.00  0.00    -0.352 N 
ATOM     18  H   UNL A   1      33.613  23.823  22.031  1.00  0.00     0.167 HD
BRANCH  17  19
ATOM     19  C   UNL A   1      33.567  25.401  23.268  1.00  0.00     0.077 A 
ATOM     20  C   UNL A   1      33.703  27.953  26.136  1.00  0.00     0.046 C 
ATOM     21  C   UNL A   1      33.454  27.322  24.793  1.00  0.00    -0.030 A 
ATOM     22  C   UNL A   1      32.759  28.057  23.822  1.00  0.00     0.006 A 
ATOM     23  C   UNL A   1      33.895  26.012  24.495  1.00  0.00     0.069 A 
ATOM     24  C   UNL A   1      32.552  27.526  22.556  1.00  0.00     0.023 A 
ATOM     25  Cl  UNL A   1      34.971  25.228  25.611  1.00  0.00    -0.082 Cl
ATOM     26  C   UNL A   1      32.966  26.223  22.280  1.00  0.00     0.066 A 
ATOM     27  Cl  UNL A   1      32.680  25.623  20.678  1.00  0.00    -0.082 Cl
ENDBRANCH  17  19
ENDBRANCH  12  17
ENDBRANCH   8  11
ENDBRANCH   6   7
ENDBRANCH   4   6
ENDBRANCH   3   4
ENDBRANCH   2   3
ENDBRANCH   1   2
BRANCH   1  28
ATOM     28  O   UNL A   1      42.847  21.615  26.791  1.00  0.00    -0.374 OA
BRANCH  28  29
ATOM     29  C   UNL A   1      43.654  21.143  25.715  1.00  0.00     0.202 C 
BRANCH  29  30
ATOM     30  C   UNL A   1      44.227  22.178  24.726  1.00  0.00     0.261 C 
BRANCH  30  31
ATOM     31  O   UNL A   1      43.455  23.395  24.662  1.00  0.00    -0.460 OA
BRANCH  31  32
ATOM     32  C   UNL A   1      44.126  24.519  25.003  1.00  0.00     0.338 C 
ATOM     33  O   UNL A   1      45.218  24.886  24.586  1.00  0.00    -0.246 OA
BRANCH  32  34
ATOM     34  C   UNL A   1      43.285  25.396  25.837  1.00  0.00     0.060 A 
ATOM     35  C   UNL A   1      43.818  26.636  26.213  1.00  0.00     0.016 A 
ATOM     36  C   UNL A   1      42.074  24.954  26.373  1.00  0.00     0.016 A 
ATOM     37  C   UNL A   1      43.159  27.424  27.153  1.00  0.00     0.010 A 
ATOM     38  C   UNL A   1      41.423  25.740  27.333  1.00  0.00     0.010 A 
ATOM     39  C   UNL A   1      41.984  26.959  27.755  1.00  0.00    -0.014 A 
BRANCH  39  40
ATOM     40  C   UNL A   1      41.471  27.684  28.942  1.00  0.00     0.031 A 
ATOM     41  C   UNL A   1      42.212  27.569  30.246  1.00  0.00     0.074 A 
ATOM     42  C   UNL A   1      40.417  28.513  28.839  1.00  0.00     0.049 A 
ATOM     43  N   UNL A   1      42.000  28.188  31.379  1.00  0.00    -0.248 NA
ATOM     44  C   UNL A   1      43.351  26.637  30.271  1.00  0.00     0.031 C 
ATOM     45  C   UNL A   1      39.642  28.750  27.624  1.00  0.00     0.029 A 
ATOM     46  N   UNL A   1      39.830  29.323  29.780  1.00  0.00    -0.354 N 
ATOM     47  C   UNL A   1      42.984  27.731  32.247  1.00  0.00     0.074 A 
ATOM     48  C   UNL A   1      43.769  26.755  31.522  1.00  0.00     0.031 C 
ATOM     49  C   UNL A   1      38.678  29.648  27.892  1.00  0.00     0.029 A 
ATOM     50  C   UNL A   1      38.760  30.034  29.299  1.00  0.00     0.049 A 
ATOM     51  H   UNL A   1      40.147  29.386  30.710  1.00  0.00     0.167 HD
ATOM     52  C   UNL A   1      43.221  28.094  33.531  1.00  0.00     0.031 A 
ATOM     53  C   UNL A   1      37.937  30.897  29.925  1.00  0.00     0.031 A 
ATOM     54  C   UNL A   1      42.426  29.038  34.268  1.00  0.00     0.049 A 
ATOM     55  C   UNL A   1      38.175  31.234  31.372  1.00  0.00     0.074 A 
ATOM     56  C   UNL A   1      42.578  29.464  35.576  1.00  0.00     0.029 A 
ATOM     57  N   UNL A   1      41.316  29.697  33.761  1.00  0.00    -0.354 N 
ATOM     58  N   UNL A   1      39.121  30.809  32.175  1.00  0.00    -0.248 NA
ATOM     59  C   UNL A   1      37.238  32.181  31.992  1.00  0.00     0.031 C 
ATOM     60  C   UNL A   1      41.531  30.344  35.875  1.00  0.00     0.029 A 
ATOM     61  C   UNL A   1      40.759  30.509  34.736  1.00  0.00     0.049 A 
ATOM     62  H   UNL A   1      40.973  29.602  32.843  1.00  0.00     0.167 HD
ATOM     63  C   UNL A   1      38.906  31.452  33.388  1.00  0.00     0.074 A 
ATOM     64  C   UNL A   1      37.752  32.309  33.208  1.00  0.00     0.031 C 
ATOM     65  C   UNL A   1      39.602  31.344  34.547  1.00  0.00     0.031 A 
BRANCH  52  66
ATOM     66  C   UNL A   1      44.376  27.427  34.224  1.00  0.00    -0.014 A 
ATOM     67  C   UNL A   1      45.650  28.020  34.251  1.00  0.00     0.009 A 
ATOM     68  C   UNL A   1      44.190  26.189  34.858  1.00  0.00     0.009 A 
ATOM     69  C   UNL A   1      46.722  27.365  34.862  1.00  0.00     0.001 A 
ATOM     70  C   UNL A   1      45.257  25.550  35.491  1.00  0.00     0.001 A 
ATOM     71  C   UNL A   1      46.523  26.132  35.483  1.00  0.00     0.000 A 
ENDBRANCH  52  66
BRANCH  53  72
ATOM     72  C   UNL A   1      36.799  31.498  29.183  1.00  0.00    -0.014 A 
ATOM     73  C   UNL A   1      35.617  30.777  28.967  1.00  0.00     0.009 A 
ATOM     74  C   UNL A   1      36.897  32.808  28.685  1.00  0.00     0.009 A 
ATOM     75  C   UNL A   1      34.562  31.348  28.252  1.00  0.00     0.001 A 
ATOM     76  C   UNL A   1      35.832  33.385  27.993  1.00  0.00     0.001 A 
ATOM     77  C   UNL A   1      34.667  32.653  27.771  1.00  0.00     0.000 A 
ENDBRANCH  53  72
BRANCH  65  78
ATOM     78  C   UNL A   1      39.142  32.191  35.701  1.00  0.00    -0.014 A 
ATOM     79  C   UNL A   1      39.619  33.499  35.881  1.00  0.00     0.009 A 
ATOM     80  C   UNL A   1      38.205  31.678  36.612  1.00  0.00     0.009 A 
ATOM     81  C   UNL A   1      39.196  34.262  36.971  1.00  0.00     0.001 A 
ATOM     82  C   UNL A   1      37.764  32.452  37.686  1.00  0.00     0.001 A 
ATOM     83  C   UNL A   1      38.268  33.738  37.872  1.00  0.00     0.000 A 
ENDBRANCH  65  78
ENDBRANCH  39  40
ENDBRANCH  32  34
ENDBRANCH  31  32
ENDBRANCH  30  31
ENDBRANCH  29  30
ENDBRANCH  28  29
ENDBRANCH   1  28
TORSDOF 18
ENDMDL
MODEL 2
REMARK VINA RESULT:     -10.4      4.056      8.676
REMARK SMILES Cc1ccc(Cl)c(Nc2ccccc2C(=O)NCC(=O)OCCOCCOC(=O)c2ccc(-c3c4nc(c(-c5ccccc5)c5ccc([nH]5)c(-c5ccccc5)c5nc(c(-c6ccccc6)c6ccc3[nH]6)C=C5)C=C4)cc2)c1Cl
REMARK SMILES IDX 23 1 22 2 21 3 19 4 20 5 18 6 17 7 15 8 16 9 14 11 9 12
REMARK SMILES IDX 10 13 11 14 13 15 12 16 8 17 7 19 1 20 2 21 3 22 78 23 4 24
REMARK SMILES IDX 79 25 5 26 6 27 24 28 25 29 26 30 27 31 28 32 29 33 30 34
REMARK SMILES IDX 31 35 77 36 32 37 76 38 33 39 34 40 35 41 70 42 36 43 75 44
REMARK SMILES IDX 69 45 71 46 37 47 74 48 68 49 67 50 38 52 60 53 45 54 59 55
REMARK SMILES IDX 46 56 49 57 58 58 72 59 47 60 48 61 57 63 73 64 50 65 39 66
REMARK SMILES IDX 40 67 44 68 41 69 43 70 42 71 61 72 62 73 66 74 63 75 65 76
REMARK SMILES IDX 64 77 51 78 52 79 56 80 53 81 55 82 54 83
REMARK H PARENT 17 10 8 18 71 51 49 62
REMARK Flexibility Score: inf
ROOT
ATOM      1  C   UNL A   1      34.817  32.339  27.805  1.00  0.00     0.202 C 
ENDROOT
BRANCH   1   2
ATOM      2  C   UNL A   1      34.584  30.821  27.775  1.00  0.00     0.261 C 
BRANCH   2   3
ATOM      3  O   UNL A   1      33.185  30.533  27.635  1.00  0.00    -0.462 OA
BRANCH   3   4
ATOM      4  C   UNL A   1      32.838  29.738  26.585  1.00  0.00     0.325 C 
ATOM      5  O   UNL A   1      32.843  30.075  25.410  1.00  0.00    -0.250 OA
BRANCH   4   6
ATOM      6  C   UNL A   1      32.602  28.322  27.085  1.00  0.00     0.239 C 
BRANCH   6   7
ATOM      7  N   UNL A   1      31.586  27.509  26.480  1.00  0.00    -0.341 N 
ATOM      8  C   UNL A   1      31.710  26.149  26.331  1.00  0.00     0.253 C 
ATOM      9  O   UNL A   1      30.833  25.433  26.812  1.00  0.00    -0.269 OA
ATOM     10  H   UNL A   1      30.764  27.944  26.158  1.00  0.00     0.164 HD
BRANCH   8  11
ATOM     11  C   UNL A   1      32.639  25.608  25.305  1.00  0.00     0.063 A 
ATOM     12  C   UNL A   1      32.463  25.504  23.912  1.00  0.00     0.051 A 
ATOM     13  C   UNL A   1      33.464  24.806  23.192  1.00  0.00     0.027 A 
ATOM     14  C   UNL A   1      34.611  24.290  23.801  1.00  0.00     0.002 A 
ATOM     15  C   UNL A   1      33.818  25.102  25.905  1.00  0.00     0.016 A 
ATOM     16  C   UNL A   1      34.800  24.458  25.162  1.00  0.00     0.001 A 
BRANCH  12  17
ATOM     17  N   UNL A   1      31.469  26.087  23.099  1.00  0.00    -0.352 N 
ATOM     18  H   UNL A   1      31.191  25.486  22.370  1.00  0.00     0.167 HD
BRANCH  17  19
ATOM     19  C   UNL A   1      30.767  27.318  23.067  1.00  0.00     0.077 A 
ATOM     20  C   UNL A   1      27.224  28.804  23.111  1.00  0.00     0.046 C 
ATOM     21  C   UNL A   1      28.712  28.655  22.937  1.00  0.00    -0.030 A 
ATOM     22  C   UNL A   1      29.432  29.714  22.364  1.00  0.00     0.006 A 
ATOM     23  C   UNL A   1      29.392  27.479  23.328  1.00  0.00     0.069 A 
ATOM     24  C   UNL A   1      30.811  29.633  22.231  1.00  0.00     0.023 A 
ATOM     25  Cl  UNL A   1      28.528  26.298  24.265  1.00  0.00    -0.082 Cl
ATOM     26  C   UNL A   1      31.470  28.458  22.594  1.00  0.00     0.066 A 
ATOM     27  Cl  UNL A   1      33.193  28.424  22.406  1.00  0.00    -0.082 Cl
ENDBRANCH  17  19
ENDBRANCH  12  17
ENDBRANCH   8  11
ENDBRANCH   6   7
ENDBRANCH   4   6
ENDBRANCH   3   4
ENDBRANCH   2   3
ENDBRANCH   1   2
BRANCH   1  28
ATOM     28  O   UNL A   1      34.499  33.034  29.010  1.00  0.00    -0.374 OA
BRANCH  28  29
ATOM     29  C   UNL A   1      34.256  34.437  28.947  1.00  0.00     0.202 C 
BRANCH  29  30
ATOM     30  C   UNL A   1      32.980  34.986  29.616  1.00  0.00     0.261 C 
BRANCH  30  31
ATOM     31  O   UNL A   1      33.250  35.885  30.712  1.00  0.00    -0.460 OA
BRANCH  31  32
ATOM     32  C   UNL A   1      32.943  35.406  31.938  1.00  0.00     0.338 C 
ATOM     33  O   UNL A   1      31.828  35.302  32.436  1.00  0.00    -0.246 OA
BRANCH  32  34
ATOM     34  C   UNL A   1      34.133  34.824  32.584  1.00  0.00     0.060 A 
ATOM     35  C   UNL A   1      35.360  35.468  32.377  1.00  0.00     0.016 A 
ATOM     36  C   UNL A   1      34.081  33.593  33.241  1.00  0.00     0.016 A 
ATOM     37  C   UNL A   1      36.544  34.867  32.795  1.00  0.00     0.010 A 
ATOM     38  C   UNL A   1      35.276  32.981  33.643  1.00  0.00     0.010 A 
ATOM     39  C   UNL A   1      36.514  33.598  33.386  1.00  0.00    -0.014 A 
BRANCH  39  40
ATOM     40  C   UNL A   1      37.796  32.873  33.557  1.00  0.00     0.031 A 
ATOM     41  C   UNL A   1      38.585  33.071  34.822  1.00  0.00     0.074 A 
ATOM     42  C   UNL A   1      38.205  31.975  32.644  1.00  0.00     0.049 A 
ATOM     43  N   UNL A   1      39.675  32.469  35.224  1.00  0.00    -0.248 NA
ATOM     44  C   UNL A   1      38.067  34.074  35.766  1.00  0.00     0.031 C 
ATOM     45  C   UNL A   1      37.509  31.657  31.399  1.00  0.00     0.029 A 
ATOM     46  N   UNL A   1      39.306  31.155  32.638  1.00  0.00    -0.354 N 
ATOM     47  C   UNL A   1      39.969  33.012  36.468  1.00  0.00     0.074 A 
ATOM     48  C   UNL A   1      38.963  34.017  36.740  1.00  0.00     0.031 C 
ATOM     49  C   UNL A   1      38.200  30.706  30.747  1.00  0.00     0.029 A 
ATOM     50  C   UNL A   1      39.391  30.363  31.520  1.00  0.00     0.049 A 
ATOM     51  H   UNL A   1      39.968  31.137  33.364  1.00  0.00     0.167 HD
ATOM     52  C   UNL A   1      40.977  32.699  37.317  1.00  0.00     0.031 A 
ATOM     53  C   UNL A   1      40.329  29.465  31.160  1.00  0.00     0.031 A 
ATOM     54  C   UNL A   1      41.999  31.725  37.040  1.00  0.00     0.049 A 
ATOM     55  C   UNL A   1      41.482  29.183  32.085  1.00  0.00     0.074 A 
ATOM     56  C   UNL A   1      43.070  31.345  37.830  1.00  0.00     0.029 A 
ATOM     57  N   UNL A   1      42.082  30.982  35.871  1.00  0.00    -0.354 N 
ATOM     58  N   UNL A   1      41.735  29.689  33.268  1.00  0.00    -0.248 NA
ATOM     59  C   UNL A   1      42.467  28.194  31.629  1.00  0.00     0.031 C 
ATOM     60  C   UNL A   1      43.827  30.407  37.119  1.00  0.00     0.029 A 
ATOM     61  C   UNL A   1      43.198  30.162  35.908  1.00  0.00     0.049 A 
ATOM     62  H   UNL A   1      41.442  31.031  35.125  1.00  0.00     0.167 HD
ATOM     63  C   UNL A   1      42.897  29.066  33.706  1.00  0.00     0.074 A 
ATOM     64  C   UNL A   1      43.287  28.131  32.670  1.00  0.00     0.031 C 
ATOM     65  C   UNL A   1      43.581  29.250  34.863  1.00  0.00     0.031 A 
BRANCH  52  66
ATOM     66  C   UNL A   1      41.037  33.457  38.613  1.00  0.00    -0.014 A 
ATOM     67  C   UNL A   1      40.398  32.976  39.768  1.00  0.00     0.009 A 
ATOM     68  C   UNL A   1      41.739  34.670  38.682  1.00  0.00     0.009 A 
ATOM     69  C   UNL A   1      40.427  33.716  40.953  1.00  0.00     0.001 A 
ATOM     70  C   UNL A   1      41.788  35.394  39.873  1.00  0.00     0.001 A 
ATOM     71  C   UNL A   1      41.123  34.923  41.004  1.00  0.00     0.000 A 
ENDBRANCH  52  66
BRANCH  53  72
ATOM     72  C   UNL A   1      40.220  28.772  29.851  1.00  0.00    -0.014 A 
ATOM     73  C   UNL A   1      40.795  29.318  28.694  1.00  0.00     0.009 A 
ATOM     74  C   UNL A   1      39.532  27.551  29.756  1.00  0.00     0.009 A 
ATOM     75  C   UNL A   1      40.668  28.665  27.467  1.00  0.00     0.001 A 
ATOM     76  C   UNL A   1      39.429  26.888  28.532  1.00  0.00     0.001 A 
ATOM     77  C   UNL A   1      39.991  27.448  27.387  1.00  0.00     0.000 A 
ENDBRANCH  53  72
BRANCH  65  78
ATOM     78  C   UNL A   1      44.807  28.405  35.073  1.00  0.00    -0.014 A 
ATOM     79  C   UNL A   1      46.074  28.842  34.655  1.00  0.00     0.009 A 
ATOM     80  C   UNL A   1      44.695  27.163  35.717  1.00  0.00     0.009 A 
ATOM     81  C   UNL A   1      47.197  28.034  34.841  1.00  0.00     0.001 A 
ATOM     82  C   UNL A   1      45.824  26.369  35.925  1.00  0.00     0.001 A 
ATOM     83  C   UNL A   1      47.071  26.799  35.477  1.00  0.00     0.000 A 
ENDBRANCH  65  78
ENDBRANCH  39  40
ENDBRANCH  32  34
ENDBRANCH  31  32
ENDBRANCH  30  31
ENDBRANCH  29  30
ENDBRANCH  28  29
ENDBRANCH   1  28
TORSDOF 18
ENDMDL
MODEL 3
REMARK VINA RESULT:     -10.3      1.470      5.968
REMARK SMILES Cc1ccc(Cl)c(Nc2ccccc2C(=O)NCC(=O)OCCOCCOC(=O)c2ccc(-c3c4nc(c(-c5ccccc5)c5ccc([nH]5)c(-c5ccccc5)c5nc(c(-c6ccccc6)c6ccc3[nH]6)C=C5)C=C4)cc2)c1Cl
REMARK SMILES IDX 23 1 22 2 21 3 19 4 20 5 18 6 17 7 15 8 16 9 14 11 9 12
REMARK SMILES IDX 10 13 11 14 13 15 12 16 8 17 7 19 1 20 2 21 3 22 78 23 4 24
REMARK SMILES IDX 79 25 5 26 6 27 24 28 25 29 26 30 27 31 28 32 29 33 30 34
REMARK SMILES IDX 31 35 77 36 32 37 76 38 33 39 34 40 35 41 70 42 36 43 75 44
REMARK SMILES IDX 69 45 71 46 37 47 74 48 68 49 67 50 38 52 60 53 45 54 59 55
REMARK SMILES IDX 46 56 49 57 58 58 72 59 47 60 48 61 57 63 73 64 50 65 39 66
REMARK SMILES IDX 40 67 44 68 41 69 43 70 42 71 61 72 62 73 66 74 63 75 65 76
REMARK SMILES IDX 64 77 51 78 52 79 56 80 53 81 55 82 54 83
REMARK H PARENT 17 10 8 18 71 51 49 62
REMARK Flexibility Score: inf
ROOT
ATOM      1  C   UNL A   1      40.099  20.926  26.212  1.00  0.00     0.202 C 
ENDROOT
BRANCH   1   2
ATOM      2  C   UNL A   1      39.026  22.023  26.280  1.00  0.00     0.261 C 
BRANCH   2   3
ATOM      3  O   UNL A   1      38.244  22.032  25.077  1.00  0.00    -0.462 OA
BRANCH   3   4
ATOM      4  C   UNL A   1      36.936  22.383  25.214  1.00  0.00     0.325 C 
ATOM      5  O   UNL A   1      36.217  22.081  26.156  1.00  0.00    -0.250 OA
BRANCH   4   6
ATOM      6  C   UNL A   1      36.554  23.342  24.098  1.00  0.00     0.239 C 
BRANCH   6   7
ATOM      7  N   UNL A   1      35.609  22.936  23.097  1.00  0.00    -0.341 N 
ATOM      8  C   UNL A   1      34.324  23.416  23.045  1.00  0.00     0.253 C 
ATOM      9  O   UNL A   1      33.948  23.951  22.002  1.00  0.00    -0.269 OA
ATOM     10  H   UNL A   1      35.896  22.285  22.416  1.00  0.00     0.164 HD
BRANCH   8  11
ATOM     11  C   UNL A   1      33.331  22.957  24.051  1.00  0.00     0.063 A 
ATOM     12  C   UNL A   1      32.616  23.708  25.003  1.00  0.00     0.051 A 
ATOM     13  C   UNL A   1      31.840  22.981  25.938  1.00  0.00     0.027 A 
ATOM     14  C   UNL A   1      31.720  21.589  25.900  1.00  0.00     0.002 A 
ATOM     15  C   UNL A   1      33.181  21.549  24.008  1.00  0.00     0.016 A 
ATOM     16  C   UNL A   1      32.376  20.871  24.916  1.00  0.00     0.001 A 
BRANCH  12  17
ATOM     17  N   UNL A   1      32.482  25.109  25.107  1.00  0.00    -0.352 N 
ATOM     18  H   UNL A   1      33.090  25.488  25.782  1.00  0.00     0.167 HD
BRANCH  17  19
ATOM     19  C   UNL A   1      31.692  26.107  24.483  1.00  0.00     0.077 A 
ATOM     20  C   UNL A   1      28.050  27.096  23.763  1.00  0.00     0.046 C 
ATOM     21  C   UNL A   1      29.552  27.025  23.703  1.00  0.00    -0.030 A 
ATOM     22  C   UNL A   1      30.222  27.751  22.708  1.00  0.00     0.006 A 
ATOM     23  C   UNL A   1      30.295  26.241  24.616  1.00  0.00     0.069 A 
ATOM     24  C   UNL A   1      31.609  27.748  22.651  1.00  0.00     0.023 A 
ATOM     25  Cl  UNL A   1      29.470  25.565  25.988  1.00  0.00    -0.082 Cl
ATOM     26  C   UNL A   1      32.332  26.950  23.538  1.00  0.00     0.066 A 
ATOM     27  Cl  UNL A   1      34.062  26.995  23.415  1.00  0.00    -0.082 Cl
ENDBRANCH  17  19
ENDBRANCH  12  17
ENDBRANCH   8  11
ENDBRANCH   6   7
ENDBRANCH   4   6
ENDBRANCH   3   4
ENDBRANCH   2   3
ENDBRANCH   1   2
BRANCH   1  28
ATOM     28  O   UNL A   1      41.404  21.245  26.692  1.00  0.00    -0.374 OA
BRANCH  28  29
ATOM     29  C   UNL A   1      42.535  20.699  26.017  1.00  0.00     0.202 C 
BRANCH  29  30
ATOM     30  C   UNL A   1      43.567  21.676  25.418  1.00  0.00     0.261 C 
BRANCH  30  31
ATOM     31  O   UNL A   1      42.968  22.855  24.842  1.00  0.00    -0.460 OA
BRANCH  31  32
ATOM     32  C   UNL A   1      43.653  24.004  25.044  1.00  0.00     0.338 C 
ATOM     33  O   UNL A   1      44.696  24.350  24.502  1.00  0.00    -0.246 OA
BRANCH  32  34
ATOM     34  C   UNL A   1      42.883  24.927  25.895  1.00  0.00     0.060 A 
ATOM     35  C   UNL A   1      43.355  26.241  26.018  1.00  0.00     0.016 A 
ATOM     36  C   UNL A   1      41.819  24.482  26.682  1.00  0.00     0.016 A 
ATOM     37  C   UNL A   1      42.789  27.104  26.952  1.00  0.00     0.010 A 
ATOM     38  C   UNL A   1      41.264  25.346  27.636  1.00  0.00     0.010 A 
ATOM     39  C   UNL A   1      41.774  26.647  27.800  1.00  0.00    -0.014 A 
BRANCH  39  40
ATOM     40  C   UNL A   1      41.396  27.491  28.959  1.00  0.00     0.031 A 
ATOM     41  C   UNL A   1      40.124  28.292  28.896  1.00  0.00     0.074 A 
ATOM     42  C   UNL A   1      42.121  27.470  30.091  1.00  0.00     0.049 A 
ATOM     43  N   UNL A   1      39.553  29.017  29.824  1.00  0.00    -0.248 NA
ATOM     44  C   UNL A   1      39.394  28.261  27.619  1.00  0.00     0.031 C 
ATOM     45  C   UNL A   1      43.346  26.701  30.296  1.00  0.00     0.029 A 
ATOM     46  N   UNL A   1      41.915  28.108  31.289  1.00  0.00    -0.354 N 
ATOM     47  C   UNL A   1      38.393  29.520  29.247  1.00  0.00     0.074 A 
ATOM     48  C   UNL A   1      38.361  29.048  27.880  1.00  0.00     0.031 C 
ATOM     49  C   UNL A   1      43.785  26.911  31.550  1.00  0.00     0.029 A 
ATOM     50  C   UNL A   1      42.882  27.840  32.225  1.00  0.00     0.049 A 
ATOM     51  H   UNL A   1      41.148  28.701  31.459  1.00  0.00     0.167 HD
ATOM     52  C   UNL A   1      37.434  30.298  29.805  1.00  0.00     0.031 A 
ATOM     53  C   UNL A   1      43.024  28.298  33.484  1.00  0.00     0.031 A 
ATOM     54  C   UNL A   1      37.476  30.798  31.154  1.00  0.00     0.049 A 
ATOM     55  C   UNL A   1      41.984  29.218  34.062  1.00  0.00     0.074 A 
ATOM     56  C   UNL A   1      36.559  31.602  31.807  1.00  0.00     0.029 A 
ATOM     57  N   UNL A   1      38.501  30.548  32.053  1.00  0.00    -0.354 N 
ATOM     58  N   UNL A   1      40.882  29.669  33.512  1.00  0.00    -0.248 NA
ATOM     59  C   UNL A   1      42.202  29.679  35.440  1.00  0.00     0.031 C 
ATOM     60  C   UNL A   1      37.053  31.878  33.087  1.00  0.00     0.029 A 
ATOM     61  C   UNL A   1      38.252  31.201  33.250  1.00  0.00     0.049 A 
ATOM     62  H   UNL A   1      39.290  29.990  31.869  1.00  0.00     0.167 HD
ATOM     63  C   UNL A   1      40.266  30.449  34.483  1.00  0.00     0.074 A 
ATOM     64  C   UNL A   1      41.108  30.394  35.661  1.00  0.00     0.031 C 
ATOM     65  C   UNL A   1      39.106  31.149  34.407  1.00  0.00     0.031 A 
BRANCH  52  66
ATOM     66  C   UNL A   1      36.275  30.683  28.929  1.00  0.00    -0.014 A 
ATOM     67  C   UNL A   1      36.093  32.009  28.504  1.00  0.00     0.009 A 
ATOM     68  C   UNL A   1      35.351  29.707  28.525  1.00  0.00     0.009 A 
ATOM     69  C   UNL A   1      34.985  32.357  27.727  1.00  0.00     0.001 A 
ATOM     70  C   UNL A   1      34.260  30.053  27.726  1.00  0.00     0.001 A 
ATOM     71  C   UNL A   1      34.072  31.378  27.337  1.00  0.00     0.000 A 
ENDBRANCH  52  66
BRANCH  53  72
ATOM     72  C   UNL A   1      44.210  27.895  34.283  1.00  0.00    -0.014 A 
ATOM     73  C   UNL A   1      44.179  26.752  35.095  1.00  0.00     0.009 A 
ATOM     74  C   UNL A   1      45.385  28.664  34.235  1.00  0.00     0.009 A 
ATOM     75  C   UNL A   1      45.295  26.396  35.855  1.00  0.00     0.001 A 
ATOM     76  C   UNL A   1      46.507  28.291  34.977  1.00  0.00     0.001 A 
ATOM     77  C   UNL A   1      46.459  27.161  35.791  1.00  0.00     0.000 A 
ENDBRANCH  53  72
BRANCH  65  78
ATOM     78  C   UNL A   1      38.674  31.891  35.641  1.00  0.00    -0.014 A 
ATOM     79  C   UNL A   1      38.149  31.215  36.753  1.00  0.00     0.009 A 
ATOM     80  C   UNL A   1      38.813  33.287  35.698  1.00  0.00     0.009 A 
ATOM     81  C   UNL A   1      37.733  31.925  37.881  1.00  0.00     0.001 A 
ATOM     82  C   UNL A   1      38.422  33.991  36.838  1.00  0.00     0.001 A 
ATOM     83  C   UNL A   1      37.872  33.312  37.923  1.00  0.00     0.000 A 
ENDBRANCH  65  78
ENDBRANCH  39  40
ENDBRANCH  32  34
ENDBRANCH  31  32
ENDBRANCH  30  31
ENDBRANCH  29  30
ENDBRANCH  28  29
ENDBRANCH   1  28
TORSDOF 18
ENDMDL
