MODEL 1
REMARK VINA RESULT:      -8.8      0.000      0.000
REMARK SMILES Cc1c(Br)cc(C(=O)OCCOCCOC(=O)c2ccc(-c3c4nc(c(-c5ccccc5)c5ccc([nH]5)c(-c5ccccc5)c5nc(c(-c6ccccc6)c6ccc3[nH]6)C=C5)C=C4)cc2)c(C)c1C
REMARK SMILES IDX 13 1 12 2 11 3 10 4 9 5 7 6 8 7 6 8 1 9 2 10 3 11 68 12 4 13
REMARK SMILES IDX 5 14 66 15 69 16 67 17 14 18 15 19 16 20 17 21 18 22 19 23
REMARK SMILES IDX 65 24 20 25 64 26 21 27 22 28 23 29 58 30 24 31 63 32 57 33
REMARK SMILES IDX 59 34 25 35 62 36 56 37 55 38 26 40 48 41 33 42 47 43 34 44
REMARK SMILES IDX 37 45 46 46 60 47 35 48 36 49 45 51 61 52 38 53 27 54 28 55
REMARK SMILES IDX 32 56 29 57 31 58 30 59 49 60 50 61 54 62 51 63 53 64 52 65
REMARK SMILES IDX 39 66 40 67 44 68 41 69 43 70 42 71
REMARK H PARENT 59 39 37 50
REMARK Flexibility Score: inf
ROOT
ATOM      1  C   UNL A   1      44.587  19.442  25.082  1.00  0.00     0.202 C 
ENDROOT
BRANCH   1   2
ATOM      2  O   UNL A   1      44.445  20.175  23.863  1.00  0.00    -0.374 OA
BRANCH   2   3
ATOM      3  C   UNL A   1      44.946  21.509  23.835  1.00  0.00     0.202 C 
BRANCH   3   4
ATOM      4  C   UNL A   1      46.017  21.847  24.872  1.00  0.00     0.261 C 
BRANCH   4   5
ATOM      5  O   UNL A   1      45.771  23.137  25.456  1.00  0.00    -0.460 OA
BRANCH   5   6
ATOM      6  C   UNL A   1      46.381  24.172  24.833  1.00  0.00     0.338 C 
ATOM      7  O   UNL A   1      47.037  24.110  23.806  1.00  0.00    -0.246 OA
BRANCH   6   8
ATOM      8  C   UNL A   1      46.028  25.476  25.458  1.00  0.00     0.064 A 
ATOM      9  C   UNL A   1      44.613  29.386  26.691  1.00  0.00     0.046 C 
ATOM     10  C   UNL A   1      45.116  28.009  26.324  1.00  0.00    -0.034 A 
ATOM     11  C   UNL A   1      44.242  27.098  25.704  1.00  0.00     0.022 A 
ATOM     12  C   UNL A   1      46.481  27.632  26.513  1.00  0.00    -0.043 A 
ATOM     13  Br  UNL A   1      42.405  27.480  25.373  1.00  0.00    -0.051 Br
ATOM     14  C   UNL A   1      44.696  25.860  25.264  1.00  0.00     0.032 A 
ATOM     15  C   UNL A   1      46.925  26.327  26.138  1.00  0.00    -0.033 A 
ATOM     16  C   UNL A   1      47.478  28.609  27.101  1.00  0.00     0.045 C 
ATOM     17  C   UNL A   1      48.315  25.838  26.473  1.00  0.00     0.045 C 
ENDBRANCH   6   8
ENDBRANCH   5   6
ENDBRANCH   4   5
ENDBRANCH   3   4
ENDBRANCH   2   3
ENDBRANCH   1   2
BRANCH   1  18
ATOM     18  C   UNL A   1      43.451  18.472  25.435  1.00  0.00     0.261 C 
BRANCH  18  19
ATOM     19  O   UNL A   1      42.660  18.944  26.543  1.00  0.00    -0.460 OA
BRANCH  19  20
ATOM     20  C   UNL A   1      41.556  19.652  26.209  1.00  0.00     0.338 C 
ATOM     21  O   UNL A   1      40.537  19.244  25.672  1.00  0.00    -0.246 OA
BRANCH  20  22
ATOM     22  C   UNL A   1      41.673  21.014  26.751  1.00  0.00     0.060 A 
ATOM     23  C   UNL A   1      42.154  22.024  25.909  1.00  0.00     0.016 A 
ATOM     24  C   UNL A   1      41.391  21.277  28.093  1.00  0.00     0.016 A 
ATOM     25  C   UNL A   1      42.368  23.304  26.412  1.00  0.00     0.010 A 
ATOM     26  C   UNL A   1      41.624  22.559  28.600  1.00  0.00     0.010 A 
ATOM     27  C   UNL A   1      42.133  23.570  27.767  1.00  0.00    -0.014 A 
BRANCH  27  28
ATOM     28  C   UNL A   1      42.532  24.880  28.327  1.00  0.00     0.031 A 
ATOM     29  C   UNL A   1      41.507  25.971  28.443  1.00  0.00     0.074 A 
ATOM     30  C   UNL A   1      43.785  25.075  28.773  1.00  0.00     0.049 A 
ATOM     31  N   UNL A   1      41.640  27.173  28.942  1.00  0.00    -0.248 NA
ATOM     32  C   UNL A   1      40.157  25.671  27.941  1.00  0.00     0.031 C 
ATOM     33  C   UNL A   1      44.853  24.076  28.755  1.00  0.00     0.029 A 
ATOM     34  N   UNL A   1      44.366  26.180  29.342  1.00  0.00    -0.354 N 
ATOM     35  C   UNL A   1      40.390  27.767  28.824  1.00  0.00     0.074 A 
ATOM     36  C   UNL A   1      39.520  26.809  28.179  1.00  0.00     0.031 C 
ATOM     37  C   UNL A   1      45.958  24.612  29.298  1.00  0.00     0.029 A 
ATOM     38  C   UNL A   1      45.683  25.996  29.681  1.00  0.00     0.049 A 
ATOM     39  H   UNL A   1      43.883  27.025  29.493  1.00  0.00     0.167 HD
ATOM     40  C   UNL A   1      40.002  28.996  29.233  1.00  0.00     0.031 A 
ATOM     41  C   UNL A   1      46.569  26.846  30.236  1.00  0.00     0.031 A 
ATOM     42  C   UNL A   1      40.866  29.950  29.869  1.00  0.00     0.049 A 
ATOM     43  C   UNL A   1      46.136  28.240  30.598  1.00  0.00     0.074 A 
ATOM     44  C   UNL A   1      40.549  31.213  30.337  1.00  0.00     0.029 A 
ATOM     45  N   UNL A   1      42.212  29.750  30.123  1.00  0.00    -0.354 N 
ATOM     46  N   UNL A   1      44.946  28.780  30.502  1.00  0.00    -0.248 NA
ATOM     47  C   UNL A   1      47.164  29.142  31.140  1.00  0.00     0.031 C 
ATOM     48  C   UNL A   1      41.717  31.798  30.829  1.00  0.00     0.029 A 
ATOM     49  C   UNL A   1      42.749  30.880  30.710  1.00  0.00     0.049 A 
ATOM     50  H   UNL A   1      42.712  28.927  29.916  1.00  0.00     0.167 HD
ATOM     51  C   UNL A   1      45.076  30.076  30.984  1.00  0.00     0.074 A 
ATOM     52  C   UNL A   1      46.459  30.242  31.377  1.00  0.00     0.031 C 
ATOM     53  C   UNL A   1      44.127  31.036  31.092  1.00  0.00     0.031 A 
BRANCH  40  54
ATOM     54  C   UNL A   1      38.573  29.394  29.006  1.00  0.00    -0.014 A 
ATOM     55  C   UNL A   1      38.127  29.764  27.730  1.00  0.00     0.009 A 
ATOM     56  C   UNL A   1      37.646  29.295  30.055  1.00  0.00     0.009 A 
ATOM     57  C   UNL A   1      36.776  30.035  27.508  1.00  0.00     0.001 A 
ATOM     58  C   UNL A   1      36.293  29.547  29.825  1.00  0.00     0.001 A 
ATOM     59  C   UNL A   1      35.860  29.918  28.553  1.00  0.00     0.000 A 
ENDBRANCH  40  54
BRANCH  41  60
ATOM     60  C   UNL A   1      47.957  26.385  30.488  1.00  0.00    -0.014 A 
ATOM     61  C   UNL A   1      48.290  25.764  31.700  1.00  0.00     0.009 A 
ATOM     62  C   UNL A   1      48.942  26.519  29.497  1.00  0.00     0.009 A 
ATOM     63  C   UNL A   1      49.583  25.282  31.913  1.00  0.00     0.001 A 
ATOM     64  C   UNL A   1      50.229  26.019  29.706  1.00  0.00     0.001 A 
ATOM     65  C   UNL A   1      50.549  25.403  30.915  1.00  0.00     0.000 A 
ENDBRANCH  41  60
BRANCH  53  66
ATOM     66  C   UNL A   1      44.525  32.371  31.651  1.00  0.00    -0.014 A 
ATOM     67  C   UNL A   1      44.878  33.424  30.796  1.00  0.00     0.009 A 
ATOM     68  C   UNL A   1      44.391  32.619  33.026  1.00  0.00     0.009 A 
ATOM     69  C   UNL A   1      45.081  34.707  31.308  1.00  0.00     0.001 A 
ATOM     70  C   UNL A   1      44.576  33.905  33.532  1.00  0.00     0.001 A 
ATOM     71  C   UNL A   1      44.918  34.948  32.673  1.00  0.00     0.000 A 
ENDBRANCH  53  66
ENDBRANCH  27  28
ENDBRANCH  20  22
ENDBRANCH  19  20
ENDBRANCH  18  19
ENDBRANCH   1  18
TORSDOF 14
ENDMDL
MODEL 2
REMARK VINA RESULT:      -8.2      0.378      6.174
REMARK SMILES Cc1c(Br)cc(C(=O)OCCOCCOC(=O)c2ccc(-c3c4nc(c(-c5ccccc5)c5ccc([nH]5)c(-c5ccccc5)c5nc(c(-c6ccccc6)c6ccc3[nH]6)C=C5)C=C4)cc2)c(C)c1C
REMARK SMILES IDX 13 1 12 2 11 3 10 4 9 5 7 6 8 7 6 8 1 9 2 10 3 11 68 12 4 13
REMARK SMILES IDX 5 14 66 15 69 16 67 17 14 18 15 19 16 20 17 21 18 22 19 23
REMARK SMILES IDX 65 24 20 25 64 26 21 27 22 28 23 29 58 30 24 31 63 32 57 33
REMARK SMILES IDX 59 34 25 35 62 36 56 37 55 38 26 40 48 41 33 42 47 43 34 44
REMARK SMILES IDX 37 45 46 46 60 47 35 48 36 49 45 51 61 52 38 53 27 54 28 55
REMARK SMILES IDX 32 56 29 57 31 58 30 59 49 60 50 61 54 62 51 63 53 64 52 65
REMARK SMILES IDX 39 66 40 67 44 68 41 69 43 70 42 71
REMARK H PARENT 59 39 37 50
REMARK Flexibility Score: inf
ROOT
ATOM      1  C   UNL A   1      44.367  19.260  25.321  1.00  0.00     0.202 C 
ENDROOT
BRANCH   1   2
ATOM      2  O   UNL A   1      44.537  20.055  24.145  1.00  0.00    -0.374 OA
BRANCH   2   3
ATOM      3  C   UNL A   1      44.813  21.442  24.322  1.00  0.00     0.202 C 
BRANCH   3   4
ATOM      4  C   UNL A   1      46.152  21.783  24.979  1.00  0.00     0.261 C 
BRANCH   4   5
ATOM      5  O   UNL A   1      46.099  23.078  25.599  1.00  0.00    -0.460 OA
BRANCH   5   6
ATOM      6  C   UNL A   1      46.509  24.103  24.817  1.00  0.00     0.338 C 
ATOM      7  O   UNL A   1      46.985  24.011  23.696  1.00  0.00    -0.246 OA
BRANCH   6   8
ATOM      8  C   UNL A   1      46.162  25.423  25.412  1.00  0.00     0.064 A 
ATOM      9  C   UNL A   1      44.741  29.354  26.569  1.00  0.00     0.046 C 
ATOM     10  C   UNL A   1      45.249  27.972  26.229  1.00  0.00    -0.034 A 
ATOM     11  C   UNL A   1      44.365  27.031  25.670  1.00  0.00     0.022 A 
ATOM     12  C   UNL A   1      46.624  27.618  26.379  1.00  0.00    -0.043 A 
ATOM     13  Br  UNL A   1      42.512  27.380  25.396  1.00  0.00    -0.051 Br
ATOM     14  C   UNL A   1      44.819  25.785  25.255  1.00  0.00     0.032 A 
ATOM     15  C   UNL A   1      47.072  26.307  26.031  1.00  0.00    -0.033 A 
ATOM     16  C   UNL A   1      47.630  28.625  26.898  1.00  0.00     0.045 C 
ATOM     17  C   UNL A   1      48.479  25.846  26.329  1.00  0.00     0.045 C 
ENDBRANCH   6   8
ENDBRANCH   5   6
ENDBRANCH   4   5
ENDBRANCH   3   4
ENDBRANCH   2   3
ENDBRANCH   1   2
BRANCH   1  18
ATOM     18  C   UNL A   1      43.064  18.457  25.422  1.00  0.00     0.261 C 
BRANCH  18  19
ATOM     19  O   UNL A   1      42.248  18.883  26.530  1.00  0.00    -0.460 OA
BRANCH  19  20
ATOM     20  C   UNL A   1      41.328  19.833  26.241  1.00  0.00     0.338 C 
ATOM     21  O   UNL A   1      40.211  19.677  25.771  1.00  0.00    -0.246 OA
BRANCH  20  22
ATOM     22  C   UNL A   1      41.799  21.132  26.746  1.00  0.00     0.060 A 
ATOM     23  C   UNL A   1      42.086  21.248  28.111  1.00  0.00     0.016 A 
ATOM     24  C   UNL A   1      41.877  22.241  25.903  1.00  0.00     0.016 A 
ATOM     25  C   UNL A   1      42.444  22.483  28.643  1.00  0.00     0.010 A 
ATOM     26  C   UNL A   1      42.218  23.485  26.443  1.00  0.00     0.010 A 
ATOM     27  C   UNL A   1      42.481  23.614  27.818  1.00  0.00    -0.014 A 
BRANCH  27  28
ATOM     28  C   UNL A   1      42.686  24.947  28.426  1.00  0.00     0.031 A 
ATOM     29  C   UNL A   1      44.054  25.329  28.914  1.00  0.00     0.074 A 
ATOM     30  C   UNL A   1      41.671  25.825  28.496  1.00  0.00     0.049 A 
ATOM     31  N   UNL A   1      44.454  26.459  29.437  1.00  0.00    -0.248 NA
ATOM     32  C   UNL A   1      45.111  24.312  28.789  1.00  0.00     0.031 C 
ATOM     33  C   UNL A   1      40.311  25.584  28.014  1.00  0.00     0.029 A 
ATOM     34  N   UNL A   1      41.633  27.105  28.989  1.00  0.00    -0.354 N 
ATOM     35  C   UNL A   1      45.809  26.293  29.693  1.00  0.00     0.074 A 
ATOM     36  C   UNL A   1      46.158  24.947  29.300  1.00  0.00     0.031 C 
ATOM     37  C   UNL A   1      39.574  26.686  28.228  1.00  0.00     0.029 A 
ATOM     38  C   UNL A   1      40.400  27.700  28.880  1.00  0.00     0.049 A 
ATOM     39  H   UNL A   1      42.415  27.554  29.384  1.00  0.00     0.167 HD
ATOM     40  C   UNL A   1      46.684  27.192  30.198  1.00  0.00     0.031 A 
ATOM     41  C   UNL A   1      39.985  28.922  29.263  1.00  0.00     0.031 A 
ATOM     42  C   UNL A   1      46.338  28.528  30.594  1.00  0.00     0.049 A 
ATOM     43  C   UNL A   1      40.957  29.871  29.907  1.00  0.00     0.074 A 
ATOM     44  C   UNL A   1      47.168  29.515  31.095  1.00  0.00     0.029 A 
ATOM     45  N   UNL A   1      45.062  29.063  30.538  1.00  0.00    -0.354 N 
ATOM     46  N   UNL A   1      42.240  29.710  30.122  1.00  0.00    -0.248 NA
ATOM     47  C   UNL A   1      40.428  31.166  30.362  1.00  0.00     0.031 C 
ATOM     48  C   UNL A   1      46.385  30.632  31.390  1.00  0.00     0.029 A 
ATOM     49  C   UNL A   1      45.076  30.355  31.028  1.00  0.00     0.049 A 
ATOM     50  H   UNL A   1      44.265  28.593  30.200  1.00  0.00     0.167 HD
ATOM     51  C   UNL A   1      42.675  30.885  30.722  1.00  0.00     0.074 A 
ATOM     52  C   UNL A   1      41.523  31.753  30.834  1.00  0.00     0.031 C 
ATOM     53  C   UNL A   1      43.923  31.208  31.138  1.00  0.00     0.031 A 
BRANCH  40  54
ATOM     54  C   UNL A   1      48.114  26.767  30.358  1.00  0.00    -0.014 A 
ATOM     55  C   UNL A   1      49.086  27.159  29.427  1.00  0.00     0.009 A 
ATOM     56  C   UNL A   1      48.508  26.059  31.504  1.00  0.00     0.009 A 
ATOM     57  C   UNL A   1      50.430  26.844  29.639  1.00  0.00     0.001 A 
ATOM     58  C   UNL A   1      49.854  25.764  31.722  1.00  0.00     0.001 A 
ATOM     59  C   UNL A   1      50.813  26.155  30.790  1.00  0.00     0.000 A 
ENDBRANCH  40  54
BRANCH  41  60
ATOM     60  C   UNL A   1      38.571  29.313  29.033  1.00  0.00    -0.014 A 
ATOM     61  C   UNL A   1      38.151  29.747  27.769  1.00  0.00     0.009 A 
ATOM     62  C   UNL A   1      37.626  29.204  30.066  1.00  0.00     0.009 A 
ATOM     63  C   UNL A   1      36.810  30.061  27.540  1.00  0.00     0.001 A 
ATOM     64  C   UNL A   1      36.282  29.501  29.830  1.00  0.00     0.001 A 
ATOM     65  C   UNL A   1      35.876  29.932  28.568  1.00  0.00     0.000 A 
ENDBRANCH  41  60
BRANCH  53  66
ATOM     66  C   UNL A   1      44.138  32.555  31.764  1.00  0.00    -0.014 A 
ATOM     67  C   UNL A   1      44.384  33.680  30.966  1.00  0.00     0.009 A 
ATOM     68  C   UNL A   1      43.933  32.723  33.143  1.00  0.00     0.009 A 
ATOM     69  C   UNL A   1      44.413  34.954  31.536  1.00  0.00     0.001 A 
ATOM     70  C   UNL A   1      43.945  33.999  33.707  1.00  0.00     0.001 A 
ATOM     71  C   UNL A   1      44.182  35.113  32.903  1.00  0.00     0.000 A 
ENDBRANCH  53  66
ENDBRANCH  27  28
ENDBRANCH  20  22
ENDBRANCH  19  20
ENDBRANCH  18  19
ENDBRANCH   1  18
TORSDOF 14
ENDMDL
MODEL 3
REMARK VINA RESULT:      -7.6      5.951     10.843
REMARK SMILES Cc1c(Br)cc(C(=O)OCCOCCOC(=O)c2ccc(-c3c4nc(c(-c5ccccc5)c5ccc([nH]5)c(-c5ccccc5)c5nc(c(-c6ccccc6)c6ccc3[nH]6)C=C5)C=C4)cc2)c(C)c1C
REMARK SMILES IDX 13 1 12 2 11 3 10 4 9 5 7 6 8 7 6 8 1 9 2 10 3 11 68 12 4 13
REMARK SMILES IDX 5 14 66 15 69 16 67 17 14 18 15 19 16 20 17 21 18 22 19 23
REMARK SMILES IDX 65 24 20 25 64 26 21 27 22 28 23 29 58 30 24 31 63 32 57 33
REMARK SMILES IDX 59 34 25 35 62 36 56 37 55 38 26 40 48 41 33 42 47 43 34 44
REMARK SMILES IDX 37 45 46 46 60 47 35 48 36 49 45 51 61 52 38 53 27 54 28 55
REMARK SMILES IDX 32 56 29 57 31 58 30 59 49 60 50 61 54 62 51 63 53 64 52 65
REMARK SMILES IDX 39 66 40 67 44 68 41 69 43 70 42 71
REMARK H PARENT 59 39 37 50
REMARK Flexibility Score: inf
ROOT
ATOM      1  C   UNL A   1      31.383  32.043  26.642  1.00  0.00     0.202 C 
ENDROOT
BRANCH   1   2
ATOM      2  O   UNL A   1      31.861  30.720  26.894  1.00  0.00    -0.374 OA
BRANCH   2   3
ATOM      3  C   UNL A   1      33.269  30.505  26.829  1.00  0.00     0.202 C 
BRANCH   3   4
ATOM      4  C   UNL A   1      33.762  29.135  27.299  1.00  0.00     0.261 C 
BRANCH   4   5
ATOM      5  O   UNL A   1      34.428  28.441  26.231  1.00  0.00    -0.460 OA
BRANCH   5   6
ATOM      6  C   UNL A   1      33.605  27.859  25.328  1.00  0.00     0.338 C 
ATOM      7  O   UNL A   1      33.205  28.359  24.288  1.00  0.00    -0.246 OA
BRANCH   6   8
ATOM      8  C   UNL A   1      33.350  26.429  25.656  1.00  0.00     0.064 A 
ATOM      9  C   UNL A   1      32.983  22.123  26.023  1.00  0.00     0.046 C 
ATOM     10  C   UNL A   1      33.100  23.629  25.960  1.00  0.00    -0.034 A 
ATOM     11  C   UNL A   1      34.324  24.210  25.578  1.00  0.00     0.022 A 
ATOM     12  C   UNL A   1      31.979  24.481  26.194  1.00  0.00    -0.043 A 
ATOM     13  Br  UNL A   1      35.891  23.189  25.215  1.00  0.00    -0.051 Br
ATOM     14  C   UNL A   1      34.439  25.585  25.413  1.00  0.00     0.032 A 
ATOM     15  C   UNL A   1      32.123  25.900  26.108  1.00  0.00    -0.033 A 
ATOM     16  C   UNL A   1      30.621  23.898  26.527  1.00  0.00     0.045 C 
ATOM     17  C   UNL A   1      31.005  26.835  26.510  1.00  0.00     0.045 C 
ENDBRANCH   6   8
ENDBRANCH   5   6
ENDBRANCH   4   5
ENDBRANCH   3   4
ENDBRANCH   2   3
ENDBRANCH   1   2
BRANCH   1  18
ATOM     18  C   UNL A   1      32.384  33.185  26.856  1.00  0.00     0.261 C 
BRANCH  18  19
ATOM     19  O   UNL A   1      32.159  33.877  28.100  1.00  0.00    -0.460 OA
BRANCH  19  20
ATOM     20  C   UNL A   1      33.172  34.674  28.513  1.00  0.00     0.338 C 
ATOM     21  O   UNL A   1      33.142  35.876  28.725  1.00  0.00    -0.246 OA
BRANCH  20  22
ATOM     22  C   UNL A   1      34.335  33.839  28.853  1.00  0.00     0.060 A 
ATOM     23  C   UNL A   1      34.125  32.696  29.633  1.00  0.00     0.016 A 
ATOM     24  C   UNL A   1      35.624  34.222  28.481  1.00  0.00     0.016 A 
ATOM     25  C   UNL A   1      35.210  31.933  30.055  1.00  0.00     0.010 A 
ATOM     26  C   UNL A   1      36.714  33.465  28.921  1.00  0.00     0.010 A 
ATOM     27  C   UNL A   1      36.512  32.332  29.727  1.00  0.00    -0.014 A 
BRANCH  27  28
ATOM     28  C   UNL A   1      37.661  31.618  30.328  1.00  0.00     0.031 A 
ATOM     29  C   UNL A   1      38.014  31.877  31.764  1.00  0.00     0.074 A 
ATOM     30  C   UNL A   1      38.349  30.712  29.612  1.00  0.00     0.049 A 
ATOM     31  N   UNL A   1      38.953  31.327  32.491  1.00  0.00    -0.248 NA
ATOM     32  C   UNL A   1      37.203  32.876  32.479  1.00  0.00     0.031 C 
ATOM     33  C   UNL A   1      38.069  30.345  28.224  1.00  0.00     0.029 A 
ATOM     34  N   UNL A   1      39.417  29.927  29.961  1.00  0.00    -0.354 N 
ATOM     35  C   UNL A   1      38.838  31.905  33.749  1.00  0.00     0.074 A 
ATOM     36  C   UNL A   1      37.763  32.869  33.681  1.00  0.00     0.031 C 
ATOM     37  C   UNL A   1      38.940  29.396  27.843  1.00  0.00     0.029 A 
ATOM     38  C   UNL A   1      39.850  29.106  28.949  1.00  0.00     0.049 A 
ATOM     39  H   UNL A   1      39.834  29.949  30.853  1.00  0.00     0.167 HD
ATOM     40  C   UNL A   1      39.557  31.640  34.863  1.00  0.00     0.031 A 
ATOM     41  C   UNL A   1      40.866  28.223  28.917  1.00  0.00     0.031 A 
ATOM     42  C   UNL A   1      40.628  30.687  34.930  1.00  0.00     0.049 A 
ATOM     43  C   UNL A   1      41.711  28.014  30.143  1.00  0.00     0.074 A 
ATOM     44  C   UNL A   1      41.397  30.340  36.027  1.00  0.00     0.029 A 
ATOM     45  N   UNL A   1      41.084  29.935  33.861  1.00  0.00    -0.354 N 
ATOM     46  N   UNL A   1      41.576  28.549  31.332  1.00  0.00    -0.248 NA
ATOM     47  C   UNL A   1      42.845  27.085  30.027  1.00  0.00     0.031 C 
ATOM     48  C   UNL A   1      42.353  29.412  35.609  1.00  0.00     0.029 A 
ATOM     49  C   UNL A   1      42.147  29.148  34.264  1.00  0.00     0.049 A 
ATOM     50  H   UNL A   1      40.708  29.957  32.951  1.00  0.00     0.167 HD
ATOM     51  C   UNL A   1      42.596  28.013  32.108  1.00  0.00     0.074 A 
ATOM     52  C   UNL A   1      43.339  27.106  31.259  1.00  0.00     0.031 C 
ATOM     53  C   UNL A   1      42.882  28.254  33.410  1.00  0.00     0.031 A 
BRANCH  40  54
ATOM     54  C   UNL A   1      39.216  32.394  36.114  1.00  0.00    -0.014 A 
ATOM     55  C   UNL A   1      38.224  31.924  36.986  1.00  0.00     0.009 A 
ATOM     56  C   UNL A   1      39.967  33.524  36.476  1.00  0.00     0.009 A 
ATOM     57  C   UNL A   1      37.984  32.577  38.197  1.00  0.00     0.001 A 
ATOM     58  C   UNL A   1      39.738  34.162  37.695  1.00  0.00     0.001 A 
ATOM     59  C   UNL A   1      38.747  33.688  38.554  1.00  0.00     0.000 A 
ENDBRANCH  40  54
BRANCH  41  60
ATOM     60  C   UNL A   1      41.128  27.464  27.669  1.00  0.00    -0.014 A 
ATOM     61  C   UNL A   1      41.995  27.977  26.694  1.00  0.00     0.009 A 
ATOM     62  C   UNL A   1      40.552  26.198  27.471  1.00  0.00     0.009 A 
ATOM     63  C   UNL A   1      42.283  27.236  25.545  1.00  0.00     0.001 A 
ATOM     64  C   UNL A   1      40.857  25.452  26.331  1.00  0.00     0.001 A 
ATOM     65  C   UNL A   1      41.720  25.973  25.368  1.00  0.00     0.000 A 
ENDBRANCH  41  60
BRANCH  53  66
ATOM     66  C   UNL A   1      44.051  27.541  34.026  1.00  0.00    -0.014 A 
ATOM     67  C   UNL A   1      45.304  28.164  34.102  1.00  0.00     0.009 A 
ATOM     68  C   UNL A   1      43.854  26.311  34.672  1.00  0.00     0.009 A 
ATOM     69  C   UNL A   1      46.340  27.570  34.825  1.00  0.00     0.001 A 
ATOM     70  C   UNL A   1      44.886  25.729  35.409  1.00  0.00     0.001 A 
ATOM     71  C   UNL A   1      46.127  26.360  35.487  1.00  0.00     0.000 A 
ENDBRANCH  53  66
ENDBRANCH  27  28
ENDBRANCH  20  22
ENDBRANCH  19  20
ENDBRANCH  18  19
ENDBRANCH   1  18
TORSDOF 14
ENDMDL
