MODEL 1
REMARK VINA RESULT:     -10.4      0.000      0.000
REMARK SMILES CCOc1cc2nccc(Nc3ccc(C(=O)OCCOCCOC(=O)c4ccc(-c5c6nc(c(-c7ccccc7)c7ccc([nH]7)c(-c7ccccc7)c7nc(c(-c8ccccc8)c8ccc5[nH]8)C=C7)C=C6)cc4)cc3)c2cc1OCC
REMARK SMILES IDX 20 1 19 2 18 3 16 4 17 5 15 6 12 7 13 8 76 9 14 10 75 11
REMARK SMILES IDX 11 12 10 14 4 15 5 16 79 17 6 18 78 19 7 20 77 21 8 22 9 23
REMARK SMILES IDX 3 24 2 25 1 26 80 27 81 28 82 29 21 30 22 31 23 32 24 33
REMARK SMILES IDX 25 34 26 35 27 36 28 37 74 38 29 39 73 40 30 41 31 42 32 43
REMARK SMILES IDX 67 44 33 45 72 46 66 47 68 48 34 49 71 50 65 51 64 52 35 54
REMARK SMILES IDX 57 55 42 56 56 57 43 58 46 59 55 60 69 61 44 62 45 63 54 65
REMARK SMILES IDX 70 66 47 67 36 68 37 69 41 70 38 71 40 72 39 73 58 74 59 75
REMARK SMILES IDX 63 76 60 77 62 78 61 79 48 80 49 81 53 82 50 83 52 84 51 85
REMARK H PARENT 11 13 68 53 46 64
REMARK Flexibility Score: inf
ROOT
ATOM      1  C   UNL A   1      43.463  21.528  25.862  1.00  0.00     0.202 C 
ENDROOT
BRANCH   1   2
ATOM      2  C   UNL A   1      42.128  22.219  25.577  1.00  0.00     0.261 C 
BRANCH   2   3
ATOM      3  O   UNL A   1      41.020  21.524  26.168  1.00  0.00    -0.460 OA
BRANCH   3   4
ATOM      4  C   UNL A   1      40.208  22.312  26.908  1.00  0.00     0.338 C 
ATOM      5  O   UNL A   1      40.485  22.862  27.968  1.00  0.00    -0.246 OA
BRANCH   4   6
ATOM      6  C   UNL A   1      38.929  22.554  26.211  1.00  0.00     0.060 A 
ATOM      7  C   UNL A   1      36.678  22.962  24.606  1.00  0.00     0.038 A 
ATOM      8  C   UNL A   1      37.315  21.716  24.625  1.00  0.00     0.027 A 
ATOM      9  C   UNL A   1      37.124  23.972  25.467  1.00  0.00     0.027 A 
ATOM     10  C   UNL A   1      38.440  21.514  25.415  1.00  0.00     0.018 A 
ATOM     11  C   UNL A   1      38.243  23.770  26.280  1.00  0.00     0.018 A 
BRANCH   7  12
ATOM     12  N   UNL A   1      35.701  23.187  23.622  1.00  0.00    -0.355 N 
ATOM     13  H   UNL A   1      36.041  23.551  22.772  1.00  0.00     0.167 HD
BRANCH  12  14
ATOM     14  C   UNL A   1      34.299  22.971  23.666  1.00  0.00     0.050 A 
ATOM     15  C   UNL A   1      31.602  25.947  22.317  1.00  0.00     0.163 A 
ATOM     16  C   UNL A   1      31.142  24.738  22.853  1.00  0.00     0.079 A 
ATOM     17  C   UNL A   1      32.972  26.149  22.165  1.00  0.00     0.161 A 
ATOM     18  C   UNL A   1      32.019  23.737  23.270  1.00  0.00     0.076 A 
ATOM     19  C   UNL A   1      33.856  25.161  22.584  1.00  0.00     0.063 A 
ATOM     20  N   UNL A   1      31.513  22.607  23.792  1.00  0.00    -0.256 NA
ATOM     21  C   UNL A   1      33.411  23.956  23.160  1.00  0.00     0.028 A 
ATOM     22  C   UNL A   1      32.378  21.671  24.238  1.00  0.00     0.114 A 
ATOM     23  C   UNL A   1      33.752  21.803  24.197  1.00  0.00     0.047 A 
BRANCH  15  24
ATOM     24  O   UNL A   1      30.752  26.988  22.065  1.00  0.00    -0.490 OA
BRANCH  24  25
ATOM     25  C   UNL A   1      29.932  27.376  23.170  1.00  0.00     0.226 C 
ATOM     26  C   UNL A   1      30.111  28.878  23.354  1.00  0.00     0.049 C 
ENDBRANCH  24  25
ENDBRANCH  15  24
BRANCH  17  27
ATOM     27  O   UNL A   1      33.599  27.253  21.661  1.00  0.00    -0.490 OA
BRANCH  27  28
ATOM     28  C   UNL A   1      34.456  27.975  22.544  1.00  0.00     0.226 C 
ATOM     29  C   UNL A   1      33.751  29.084  23.315  1.00  0.00     0.049 C 
ENDBRANCH  27  28
ENDBRANCH  17  27
ENDBRANCH  12  14
ENDBRANCH   7  12
ENDBRANCH   4   6
ENDBRANCH   3   4
ENDBRANCH   2   3
ENDBRANCH   1   2
BRANCH   1  30
ATOM     30  O   UNL A   1      44.268  21.166  24.742  1.00  0.00    -0.374 OA
BRANCH  30  31
ATOM     31  C   UNL A   1      44.756  22.214  23.904  1.00  0.00     0.202 C 
BRANCH  31  32
ATOM     32  C   UNL A   1      45.358  23.446  24.595  1.00  0.00     0.261 C 
BRANCH  32  33
ATOM     33  O   UNL A   1      44.450  24.561  24.622  1.00  0.00    -0.460 OA
BRANCH  33  34
ATOM     34  C   UNL A   1      44.972  25.715  25.098  1.00  0.00     0.338 C 
ATOM     35  O   UNL A   1      45.945  26.327  24.668  1.00  0.00    -0.246 OA
BRANCH  34  36
ATOM     36  C   UNL A   1      44.090  26.271  26.133  1.00  0.00     0.060 A 
ATOM     37  C   UNL A   1      44.160  27.647  26.392  1.00  0.00     0.016 A 
ATOM     38  C   UNL A   1      43.251  25.448  26.888  1.00  0.00     0.016 A 
ATOM     39  C   UNL A   1      43.412  28.203  27.427  1.00  0.00     0.010 A 
ATOM     40  C   UNL A   1      42.512  26.006  27.935  1.00  0.00     0.010 A 
ATOM     41  C   UNL A   1      42.608  27.379  28.225  1.00  0.00    -0.014 A 
BRANCH  41  42
ATOM     42  C   UNL A   1      41.948  27.926  29.433  1.00  0.00     0.031 A 
ATOM     43  C   UNL A   1      40.590  28.555  29.304  1.00  0.00     0.074 A 
ATOM     44  C   UNL A   1      42.560  27.873  30.629  1.00  0.00     0.049 A 
ATOM     45  N   UNL A   1      39.876  29.175  30.209  1.00  0.00    -0.248 NA
ATOM     46  C   UNL A   1      39.953  28.478  27.979  1.00  0.00     0.031 C 
ATOM     47  C   UNL A   1      43.855  27.247  30.891  1.00  0.00     0.029 A 
ATOM     48  N   UNL A   1      42.172  28.371  31.847  1.00  0.00    -0.354 N 
ATOM     49  C   UNL A   1      38.714  29.575  29.560  1.00  0.00     0.074 A 
ATOM     50  C   UNL A   1      38.827  29.145  28.183  1.00  0.00     0.031 C 
ATOM     51  C   UNL A   1      44.163  27.414  32.188  1.00  0.00     0.029 A 
ATOM     52  C   UNL A   1      43.109  28.192  32.834  1.00  0.00     0.049 A 
ATOM     53  H   UNL A   1      41.306  28.814  31.999  1.00  0.00     0.167 HD
ATOM     54  C   UNL A   1      37.649  30.239  30.068  1.00  0.00     0.031 A 
ATOM     55  C   UNL A   1      43.129  28.637  34.106  1.00  0.00     0.031 A 
ATOM     56  C   UNL A   1      37.545  30.677  31.434  1.00  0.00     0.049 A 
ATOM     57  C   UNL A   1      41.976  29.455  34.621  1.00  0.00     0.074 A 
ATOM     58  C   UNL A   1      36.495  31.335  32.051  1.00  0.00     0.029 A 
ATOM     59  N   UNL A   1      38.533  30.510  32.393  1.00  0.00    -0.354 N 
ATOM     60  N   UNL A   1      40.870  29.801  34.009  1.00  0.00    -0.248 NA
ATOM     61  C   UNL A   1      42.075  29.942  36.005  1.00  0.00     0.031 C 
ATOM     62  C   UNL A   1      36.873  31.622  33.366  1.00  0.00     0.029 A 
ATOM     63  C   UNL A   1      38.133  31.088  33.586  1.00  0.00     0.049 A 
ATOM     64  H   UNL A   1      39.390  30.050  32.247  1.00  0.00     0.167 HD
ATOM     65  C   UNL A   1      40.132  30.526  34.938  1.00  0.00     0.074 A 
ATOM     66  C   UNL A   1      40.910  30.556  36.159  1.00  0.00     0.031 C 
ATOM     67  C   UNL A   1      38.919  31.112  34.792  1.00  0.00     0.031 A 
BRANCH  54  68
ATOM     68  C   UNL A   1      36.525  30.571  29.127  1.00  0.00    -0.014 A 
ATOM     69  C   UNL A   1      36.281  31.891  28.716  1.00  0.00     0.009 A 
ATOM     70  C   UNL A   1      35.723  29.541  28.615  1.00  0.00     0.009 A 
ATOM     71  C   UNL A   1      35.236  32.174  27.834  1.00  0.00     0.001 A 
ATOM     72  C   UNL A   1      34.696  29.823  27.712  1.00  0.00     0.001 A 
ATOM     73  C   UNL A   1      34.448  31.140  27.330  1.00  0.00     0.000 A 
ENDBRANCH  54  68
BRANCH  55  74
ATOM     74  C   UNL A   1      44.303  28.353  34.973  1.00  0.00    -0.014 A 
ATOM     75  C   UNL A   1      45.374  29.256  35.046  1.00  0.00     0.009 A 
ATOM     76  C   UNL A   1      44.364  27.165  35.719  1.00  0.00     0.009 A 
ATOM     77  C   UNL A   1      46.492  28.965  35.832  1.00  0.00     0.001 A 
ATOM     78  C   UNL A   1      45.470  26.890  36.526  1.00  0.00     0.001 A 
ATOM     79  C   UNL A   1      46.537  27.785  36.575  1.00  0.00     0.000 A 
ENDBRANCH  55  74
BRANCH  67  80
ATOM     80  C   UNL A   1      38.340  31.813  35.989  1.00  0.00    -0.014 A 
ATOM     81  C   UNL A   1      37.936  31.097  37.126  1.00  0.00     0.009 A 
ATOM     82  C   UNL A   1      38.254  33.214  35.999  1.00  0.00     0.009 A 
ATOM     83  C   UNL A   1      37.433  31.771  38.241  1.00  0.00     0.001 A 
ATOM     84  C   UNL A   1      37.777  33.887  37.126  1.00  0.00     0.001 A 
ATOM     85  C   UNL A   1      37.361  33.164  38.243  1.00  0.00     0.000 A 
ENDBRANCH  67  80
ENDBRANCH  41  42
ENDBRANCH  34  36
ENDBRANCH  33  34
ENDBRANCH  32  33
ENDBRANCH  31  32
ENDBRANCH  30  31
ENDBRANCH   1  30
TORSDOF 20
ENDMDL
MODEL 2
REMARK VINA RESULT:     -10.2      4.153      9.601
REMARK SMILES CCOc1cc2nccc(Nc3ccc(C(=O)OCCOCCOC(=O)c4ccc(-c5c6nc(c(-c7ccccc7)c7ccc([nH]7)c(-c7ccccc7)c7nc(c(-c8ccccc8)c8ccc5[nH]8)C=C7)C=C6)cc4)cc3)c2cc1OCC
REMARK SMILES IDX 20 1 19 2 18 3 16 4 17 5 15 6 12 7 13 8 76 9 14 10 75 11
REMARK SMILES IDX 11 12 10 14 4 15 5 16 79 17 6 18 78 19 7 20 77 21 8 22 9 23
REMARK SMILES IDX 3 24 2 25 1 26 80 27 81 28 82 29 21 30 22 31 23 32 24 33
REMARK SMILES IDX 25 34 26 35 27 36 28 37 74 38 29 39 73 40 30 41 31 42 32 43
REMARK SMILES IDX 67 44 33 45 72 46 66 47 68 48 34 49 71 50 65 51 64 52 35 54
REMARK SMILES IDX 57 55 42 56 56 57 43 58 46 59 55 60 69 61 44 62 45 63 54 65
REMARK SMILES IDX 70 66 47 67 36 68 37 69 41 70 38 71 40 72 39 73 58 74 59 75
REMARK SMILES IDX 63 76 60 77 62 78 61 79 48 80 49 81 53 82 50 83 52 84 51 85
REMARK H PARENT 11 13 68 53 46 64
REMARK Flexibility Score: inf
ROOT
ATOM      1  C   UNL A   1      30.754  29.573  24.181  1.00  0.00     0.202 C 
ENDROOT
BRANCH   1   2
ATOM      2  C   UNL A   1      31.835  28.702  23.537  1.00  0.00     0.261 C 
BRANCH   2   3
ATOM      3  O   UNL A   1      31.285  27.544  22.891  1.00  0.00    -0.460 OA
BRANCH   3   4
ATOM      4  C   UNL A   1      30.720  26.656  23.741  1.00  0.00     0.338 C 
ATOM      5  O   UNL A   1      29.527  26.536  23.990  1.00  0.00    -0.246 OA
BRANCH   4   6
ATOM      6  C   UNL A   1      31.729  25.718  24.271  1.00  0.00     0.060 A 
ATOM      7  C   UNL A   1      33.629  24.122  25.558  1.00  0.00     0.038 A 
ATOM      8  C   UNL A   1      32.320  24.196  26.048  1.00  0.00     0.027 A 
ATOM      9  C   UNL A   1      33.952  24.782  24.366  1.00  0.00     0.027 A 
ATOM     10  C   UNL A   1      31.377  24.996  25.415  1.00  0.00     0.018 A 
ATOM     11  C   UNL A   1      33.002  25.574  23.712  1.00  0.00     0.018 A 
BRANCH   7  12
ATOM     12  N   UNL A   1      34.598  23.497  26.359  1.00  0.00    -0.355 N 
ATOM     13  H   UNL A   1      34.464  23.597  27.330  1.00  0.00     0.167 HD
BRANCH  12  14
ATOM     14  C   UNL A   1      35.742  22.744  25.984  1.00  0.00     0.050 A 
ATOM     15  C   UNL A   1      35.351  18.781  24.538  1.00  0.00     0.163 A 
ATOM     16  C   UNL A   1      36.609  19.377  24.698  1.00  0.00     0.079 A 
ATOM     17  C   UNL A   1      34.205  19.527  24.800  1.00  0.00     0.161 A 
ATOM     18  C   UNL A   1      36.750  20.691  25.141  1.00  0.00     0.076 A 
ATOM     19  C   UNL A   1      34.332  20.836  25.250  1.00  0.00     0.063 A 
ATOM     20  N   UNL A   1      37.985  21.198  25.288  1.00  0.00    -0.256 NA
ATOM     21  C   UNL A   1      35.590  21.437  25.451  1.00  0.00     0.028 A 
ATOM     22  C   UNL A   1      38.102  22.454  25.769  1.00  0.00     0.114 A 
ATOM     23  C   UNL A   1      37.033  23.252  26.123  1.00  0.00     0.047 A 
BRANCH  15  24
ATOM     24  O   UNL A   1      35.220  17.448  24.265  1.00  0.00    -0.490 OA
BRANCH  24  25
ATOM     25  C   UNL A   1      35.218  16.596  25.414  1.00  0.00     0.226 C 
ATOM     26  C   UNL A   1      33.930  15.784  25.366  1.00  0.00     0.049 C 
ENDBRANCH  24  25
ENDBRANCH  15  24
BRANCH  17  27
ATOM     27  O   UNL A   1      32.905  19.118  24.696  1.00  0.00    -0.490 OA
BRANCH  27  28
ATOM     28  C   UNL A   1      32.260  19.311  23.438  1.00  0.00     0.226 C 
ATOM     29  C   UNL A   1      32.329  18.098  22.519  1.00  0.00     0.049 C 
ENDBRANCH  27  28
ENDBRANCH  17  27
ENDBRANCH  12  14
ENDBRANCH   7  12
ENDBRANCH   4   6
ENDBRANCH   3   4
ENDBRANCH   2   3
ENDBRANCH   1   2
BRANCH   1  30
ATOM     30  O   UNL A   1      31.148  30.418  25.261  1.00  0.00    -0.374 OA
BRANCH  30  31
ATOM     31  C   UNL A   1      31.899  29.835  26.325  1.00  0.00     0.202 C 
BRANCH  31  32
ATOM     32  C   UNL A   1      32.731  30.782  27.201  1.00  0.00     0.261 C 
BRANCH  32  33
ATOM     33  O   UNL A   1      34.127  30.436  27.216  1.00  0.00    -0.460 OA
BRANCH  33  34
ATOM     34  C   UNL A   1      34.845  30.985  28.222  1.00  0.00     0.338 C 
ATOM     35  O   UNL A   1      34.482  31.854  29.010  1.00  0.00    -0.246 OA
BRANCH  34  36
ATOM     36  C   UNL A   1      36.114  30.261  28.382  1.00  0.00     0.060 A 
ATOM     37  C   UNL A   1      36.384  29.669  29.623  1.00  0.00     0.016 A 
ATOM     38  C   UNL A   1      37.057  30.217  27.353  1.00  0.00     0.016 A 
ATOM     39  C   UNL A   1      37.613  29.053  29.851  1.00  0.00     0.010 A 
ATOM     40  C   UNL A   1      38.294  29.612  27.588  1.00  0.00     0.010 A 
ATOM     41  C   UNL A   1      38.587  29.050  28.844  1.00  0.00    -0.014 A 
BRANCH  41  42
ATOM     42  C   UNL A   1      39.954  28.557  29.131  1.00  0.00     0.031 A 
ATOM     43  C   UNL A   1      40.944  29.481  29.780  1.00  0.00     0.074 A 
ATOM     44  C   UNL A   1      40.311  27.302  28.806  1.00  0.00     0.049 A 
ATOM     45  N   UNL A   1      42.213  29.287  30.035  1.00  0.00    -0.248 NA
ATOM     46  C   UNL A   1      40.438  30.800  30.195  1.00  0.00     0.031 C 
ATOM     47  C   UNL A   1      39.427  26.296  28.217  1.00  0.00     0.029 A 
ATOM     48  N   UNL A   1      41.521  26.667  28.914  1.00  0.00    -0.354 N 
ATOM     49  C   UNL A   1      42.661  30.462  30.625  1.00  0.00     0.074 A 
ATOM     50  C   UNL A   1      41.535  31.370  30.673  1.00  0.00     0.031 C 
ATOM     51  C   UNL A   1      40.132  25.173  27.999  1.00  0.00     0.029 A 
ATOM     52  C   UNL A   1      41.521  25.396  28.394  1.00  0.00     0.049 A 
ATOM     53  H   UNL A   1      42.314  27.081  29.324  1.00  0.00     0.167 HD
ATOM     54  C   UNL A   1      43.899  30.757  31.086  1.00  0.00     0.031 A 
ATOM     55  C   UNL A   1      42.535  24.525  28.224  1.00  0.00     0.031 A 
ATOM     56  C   UNL A   1      45.021  29.858  31.026  1.00  0.00     0.049 A 
ATOM     57  C   UNL A   1      43.923  24.912  28.659  1.00  0.00     0.074 A 
ATOM     58  C   UNL A   1      46.310  30.056  31.490  1.00  0.00     0.029 A 
ATOM     59  N   UNL A   1      44.988  28.595  30.456  1.00  0.00    -0.354 N 
ATOM     60  N   UNL A   1      44.329  26.014  29.242  1.00  0.00    -0.248 NA
ATOM     61  C   UNL A   1      44.991  23.933  28.411  1.00  0.00     0.031 C 
ATOM     62  C   UNL A   1      47.073  28.936  31.145  1.00  0.00     0.029 A 
ATOM     63  C   UNL A   1      46.245  28.016  30.522  1.00  0.00     0.049 A 
ATOM     64  H   UNL A   1      44.191  28.172  30.064  1.00  0.00     0.167 HD
ATOM     65  C   UNL A   1      45.693  25.851  29.452  1.00  0.00     0.074 A 
ATOM     66  C   UNL A   1      46.042  24.539  28.947  1.00  0.00     0.031 C 
ATOM     67  C   UNL A   1      46.577  26.712  30.014  1.00  0.00     0.031 A 
BRANCH  54  68
ATOM     68  C   UNL A   1      44.118  32.129  31.660  1.00  0.00    -0.014 A 
ATOM     69  C   UNL A   1      44.495  33.210  30.848  1.00  0.00     0.009 A 
ATOM     70  C   UNL A   1      43.904  32.350  33.029  1.00  0.00     0.009 A 
ATOM     71  C   UNL A   1      44.684  34.477  31.403  1.00  0.00     0.001 A 
ATOM     72  C   UNL A   1      44.067  33.624  33.576  1.00  0.00     0.001 A 
ATOM     73  C   UNL A   1      44.465  34.684  32.765  1.00  0.00     0.000 A 
ENDBRANCH  54  68
BRANCH  55  74
ATOM     74  C   UNL A   1      42.283  23.211  27.574  1.00  0.00    -0.014 A 
ATOM     75  C   UNL A   1      42.760  22.950  26.281  1.00  0.00     0.009 A 
ATOM     76  C   UNL A   1      41.549  22.218  28.240  1.00  0.00     0.009 A 
ATOM     77  C   UNL A   1      42.486  21.729  25.660  1.00  0.00     0.001 A 
ATOM     78  C   UNL A   1      41.301  20.987  27.629  1.00  0.00     0.001 A 
ATOM     79  C   UNL A   1      41.762  20.746  26.336  1.00  0.00     0.000 A 
ENDBRANCH  55  74
BRANCH  67  80
ATOM     80  C   UNL A   1      48.003  26.254  30.141  1.00  0.00    -0.014 A 
ATOM     81  C   UNL A   1      48.489  25.711  31.340  1.00  0.00     0.009 A 
ATOM     82  C   UNL A   1      48.854  26.314  29.027  1.00  0.00     0.009 A 
ATOM     83  C   UNL A   1      49.807  25.261  31.427  1.00  0.00     0.001 A 
ATOM     84  C   UNL A   1      50.164  25.835  29.108  1.00  0.00     0.001 A 
ATOM     85  C   UNL A   1      50.640  25.317  30.310  1.00  0.00     0.000 A 
ENDBRANCH  67  80
ENDBRANCH  41  42
ENDBRANCH  34  36
ENDBRANCH  33  34
ENDBRANCH  32  33
ENDBRANCH  31  32
ENDBRANCH  30  31
ENDBRANCH   1  30
TORSDOF 20
ENDMDL
MODEL 3
REMARK VINA RESULT:     -10.0      4.418     10.362
REMARK SMILES CCOc1cc2nccc(Nc3ccc(C(=O)OCCOCCOC(=O)c4ccc(-c5c6nc(c(-c7ccccc7)c7ccc([nH]7)c(-c7ccccc7)c7nc(c(-c8ccccc8)c8ccc5[nH]8)C=C7)C=C6)cc4)cc3)c2cc1OCC
REMARK SMILES IDX 20 1 19 2 18 3 16 4 17 5 15 6 12 7 13 8 76 9 14 10 75 11
REMARK SMILES IDX 11 12 10 14 4 15 5 16 79 17 6 18 78 19 7 20 77 21 8 22 9 23
REMARK SMILES IDX 3 24 2 25 1 26 80 27 81 28 82 29 21 30 22 31 23 32 24 33
REMARK SMILES IDX 25 34 26 35 27 36 28 37 74 38 29 39 73 40 30 41 31 42 32 43
REMARK SMILES IDX 67 44 33 45 72 46 66 47 68 48 34 49 71 50 65 51 64 52 35 54
REMARK SMILES IDX 57 55 42 56 56 57 43 58 46 59 55 60 69 61 44 62 45 63 54 65
REMARK SMILES IDX 70 66 47 67 36 68 37 69 41 70 38 71 40 72 39 73 58 74 59 75
REMARK SMILES IDX 63 76 60 77 62 78 61 79 48 80 49 81 53 82 50 83 52 84 51 85
REMARK H PARENT 11 13 68 53 46 64
REMARK Flexibility Score: inf
ROOT
ATOM      1  C   UNL A   1      33.718  34.563  29.373  1.00  0.00     0.202 C 
ENDROOT
BRANCH   1   2
ATOM      2  C   UNL A   1      34.971  34.108  28.621  1.00  0.00     0.261 C 
BRANCH   2   3
ATOM      3  O   UNL A   1      34.695  33.037  27.706  1.00  0.00    -0.460 OA
BRANCH   3   4
ATOM      4  C   UNL A   1      34.560  31.829  28.297  1.00  0.00     0.338 C 
ATOM      5  O   UNL A   1      34.969  31.505  29.407  1.00  0.00    -0.246 OA
BRANCH   4   6
ATOM      6  C   UNL A   1      33.720  30.931  27.480  1.00  0.00     0.060 A 
ATOM      7  C   UNL A   1      32.371  29.251  25.699  1.00  0.00     0.038 A 
ATOM      8  C   UNL A   1      33.605  28.866  26.236  1.00  0.00     0.027 A 
ATOM      9  C   UNL A   1      31.778  30.443  26.134  1.00  0.00     0.027 A 
ATOM     10  C   UNL A   1      34.282  29.705  27.114  1.00  0.00     0.018 A 
ATOM     11  C   UNL A   1      32.443  31.282  27.033  1.00  0.00     0.018 A 
BRANCH   7  12
ATOM     12  N   UNL A   1      31.846  28.489  24.644  1.00  0.00    -0.355 N 
ATOM     13  H   UNL A   1      30.869  28.551  24.530  1.00  0.00     0.167 HD
BRANCH  12  14
ATOM     14  C   UNL A   1      32.507  27.639  23.718  1.00  0.00     0.050 A 
ATOM     15  C   UNL A   1      33.185  23.555  24.621  1.00  0.00     0.163 A 
ATOM     16  C   UNL A   1      33.636  24.120  23.421  1.00  0.00     0.079 A 
ATOM     17  C   UNL A   1      32.444  24.335  25.505  1.00  0.00     0.161 A 
ATOM     18  C   UNL A   1      33.391  25.454  23.097  1.00  0.00     0.076 A 
ATOM     19  C   UNL A   1      32.199  25.669  25.198  1.00  0.00     0.063 A 
ATOM     20  N   UNL A   1      33.865  25.939  21.938  1.00  0.00    -0.256 NA
ATOM     21  C   UNL A   1      32.679  26.261  24.014  1.00  0.00     0.028 A 
ATOM     22  C   UNL A   1      33.663  27.245  21.666  1.00  0.00     0.114 A 
ATOM     23  C   UNL A   1      33.003  28.119  22.506  1.00  0.00     0.047 A 
BRANCH  15  24
ATOM     24  O   UNL A   1      33.568  22.302  25.011  1.00  0.00    -0.490 OA
BRANCH  24  25
ATOM     25  C   UNL A   1      33.238  21.259  24.090  1.00  0.00     0.226 C 
ATOM     26  C   UNL A   1      33.419  19.938  24.827  1.00  0.00     0.049 C 
ENDBRANCH  24  25
ENDBRANCH  15  24
BRANCH  17  27
ATOM     27  O   UNL A   1      31.922  23.957  26.711  1.00  0.00    -0.490 OA
BRANCH  27  28
ATOM     28  C   UNL A   1      30.505  23.811  26.789  1.00  0.00     0.226 C 
ATOM     29  C   UNL A   1      30.021  22.385  26.561  1.00  0.00     0.049 C 
ENDBRANCH  27  28
ENDBRANCH  17  27
ENDBRANCH  12  14
ENDBRANCH   7  12
ENDBRANCH   4   6
ENDBRANCH   3   4
ENDBRANCH   2   3
ENDBRANCH   1   2
BRANCH   1  30
ATOM     30  O   UNL A   1      33.902  35.429  30.491  1.00  0.00    -0.374 OA
BRANCH  30  31
ATOM     31  C   UNL A   1      33.743  34.875  31.798  1.00  0.00     0.202 C 
BRANCH  31  32
ATOM     32  C   UNL A   1      34.895  35.073  32.792  1.00  0.00     0.261 C 
BRANCH  32  33
ATOM     33  O   UNL A   1      36.110  34.436  32.362  1.00  0.00    -0.460 OA
BRANCH  33  34
ATOM     34  C   UNL A   1      36.407  33.278  32.994  1.00  0.00     0.338 C 
ATOM     35  O   UNL A   1      35.871  32.816  33.997  1.00  0.00    -0.246 OA
BRANCH  34  36
ATOM     36  C   UNL A   1      37.377  32.511  32.200  1.00  0.00     0.060 A 
ATOM     37  C   UNL A   1      38.205  31.599  32.869  1.00  0.00     0.016 A 
ATOM     38  C   UNL A   1      37.521  32.728  30.828  1.00  0.00     0.016 A 
ATOM     39  C   UNL A   1      39.202  30.919  32.174  1.00  0.00     0.010 A 
ATOM     40  C   UNL A   1      38.532  32.055  30.135  1.00  0.00     0.010 A 
ATOM     41  C   UNL A   1      39.391  31.168  30.808  1.00  0.00    -0.014 A 
BRANCH  41  42
ATOM     42  C   UNL A   1      40.555  30.587  30.099  1.00  0.00     0.031 A 
ATOM     43  C   UNL A   1      41.782  31.429  29.894  1.00  0.00     0.074 A 
ATOM     44  C   UNL A   1      40.512  29.327  29.633  1.00  0.00     0.049 A 
ATOM     45  N   UNL A   1      42.872  31.153  29.224  1.00  0.00    -0.248 NA
ATOM     46  C   UNL A   1      41.780  32.759  30.526  1.00  0.00     0.031 C 
ATOM     47  C   UNL A   1      39.398  28.395  29.812  1.00  0.00     0.029 A 
ATOM     48  N   UNL A   1      41.430  28.619  28.900  1.00  0.00    -0.354 N 
ATOM     49  C   UNL A   1      43.678  32.278  29.340  1.00  0.00     0.074 A 
ATOM     50  C   UNL A   1      42.945  33.247  30.127  1.00  0.00     0.031 C 
ATOM     51  C   UNL A   1      39.692  27.243  29.188  1.00  0.00     0.029 A 
ATOM     52  C   UNL A   1      40.993  27.370  28.534  1.00  0.00     0.049 A 
ATOM     53  H   UNL A   1      42.317  28.972  28.660  1.00  0.00     0.167 HD
ATOM     54  C   UNL A   1      44.918  32.485  28.836  1.00  0.00     0.031 A 
ATOM     55  C   UNL A   1      41.563  26.449  27.733  1.00  0.00     0.031 A 
ATOM     56  C   UNL A   1      45.639  31.526  28.043  1.00  0.00     0.049 A 
ATOM     57  C   UNL A   1      42.901  26.739  27.107  1.00  0.00     0.074 A 
ATOM     58  C   UNL A   1      46.911  31.632  27.508  1.00  0.00     0.029 A 
ATOM     59  N   UNL A   1      45.145  30.287  27.662  1.00  0.00    -0.354 N 
ATOM     60  N   UNL A   1      43.667  27.794  27.247  1.00  0.00    -0.248 NA
ATOM     61  C   UNL A   1      43.452  25.711  26.213  1.00  0.00     0.031 C 
ATOM     62  C   UNL A   1      47.163  30.483  26.751  1.00  0.00     0.029 A 
ATOM     63  C   UNL A   1      46.072  29.636  26.866  1.00  0.00     0.049 A 
ATOM     64  H   UNL A   1      44.267  29.926  27.919  1.00  0.00     0.167 HD
ATOM     65  C   UNL A   1      44.799  27.546  26.479  1.00  0.00     0.074 A 
ATOM     66  C   UNL A   1      44.625  26.235  25.888  1.00  0.00     0.031 C 
ATOM     67  C   UNL A   1      45.884  28.333  26.283  1.00  0.00     0.031 A 
BRANCH  54  68
ATOM     68  C   UNL A   1      45.558  33.820  29.093  1.00  0.00    -0.014 A 
ATOM     69  C   UNL A   1      45.397  34.892  28.202  1.00  0.00     0.009 A 
ATOM     70  C   UNL A   1      46.303  34.017  30.266  1.00  0.00     0.009 A 
ATOM     71  C   UNL A   1      45.994  36.126  28.468  1.00  0.00     0.001 A 
ATOM     72  C   UNL A   1      46.876  35.260  30.542  1.00  0.00     0.001 A 
ATOM     73  C   UNL A   1      46.729  36.310  29.638  1.00  0.00     0.000 A 
ENDBRANCH  54  68
BRANCH  55  74
ATOM     74  C   UNL A   1      40.851  25.177  27.441  1.00  0.00    -0.014 A 
ATOM     75  C   UNL A   1      39.767  25.151  26.552  1.00  0.00     0.009 A 
ATOM     76  C   UNL A   1      41.245  23.984  28.067  1.00  0.00     0.009 A 
ATOM     77  C   UNL A   1      39.077  23.960  26.313  1.00  0.00     0.001 A 
ATOM     78  C   UNL A   1      40.571  22.789  27.804  1.00  0.00     0.001 A 
ATOM     79  C   UNL A   1      39.483  22.779  26.935  1.00  0.00     0.000 A 
ENDBRANCH  55  74
BRANCH  67  80
ATOM     80  C   UNL A   1      46.986  27.790  25.416  1.00  0.00    -0.014 A 
ATOM     81  C   UNL A   1      48.040  27.043  25.962  1.00  0.00     0.009 A 
ATOM     82  C   UNL A   1      46.934  27.980  24.027  1.00  0.00     0.009 A 
ATOM     83  C   UNL A   1      49.035  26.518  25.135  1.00  0.00     0.001 A 
ATOM     84  C   UNL A   1      47.914  27.430  23.198  1.00  0.00     0.001 A 
ATOM     85  C   UNL A   1      48.967  26.706  23.755  1.00  0.00     0.000 A 
ENDBRANCH  67  80
ENDBRANCH  41  42
ENDBRANCH  34  36
ENDBRANCH  33  34
ENDBRANCH  32  33
ENDBRANCH  31  32
ENDBRANCH  30  31
ENDBRANCH   1  30
TORSDOF 20
ENDMDL
