MODEL 1
REMARK VINA RESULT:      -9.5      0.000      0.000
REMARK SMILES COCCCN(C)C(=O)N1CCC(CC(=O)OCCOCCOC(=O)c2ccc(-c3c4nc(c(-c5ccccc5)c5ccc([nH]5)c(-c5ccccc5)c5nc(c(-c6ccccc6)c6ccc3[nH]6)C=C5)C=C4)cc2)CC1
REMARK SMILES IDX 18 1 17 2 15 3 16 4 14 5 13 6 8 7 9 8 10 9 11 10 75 11 12 12
REMARK SMILES IDX 74 13 6 14 7 15 5 16 4 17 3 18 2 19 1 20 19 21 20 22 21 23
REMARK SMILES IDX 22 24 23 25 24 26 25 27 26 28 27 29 73 30 28 31 72 32 29 33
REMARK SMILES IDX 30 34 31 35 66 36 32 37 71 38 65 39 67 40 33 41 70 42 64 43
REMARK SMILES IDX 63 44 34 46 56 47 41 48 55 49 42 50 45 51 54 52 68 53 43 54
REMARK SMILES IDX 44 55 53 57 69 58 46 59 35 60 36 61 40 62 37 63 39 64 38 65
REMARK SMILES IDX 57 66 58 67 62 68 59 69 61 70 60 71 47 72 48 73 52 74 49 75
REMARK SMILES IDX 51 76 50 77
REMARK H PARENT 67 45 45 56
REMARK Flexibility Score: inf
ROOT
ATOM      1  C   UNL A   1      33.983  22.984  23.776  1.00  0.00     0.261 C 
ENDROOT
BRANCH   1   2
ATOM      2  O   UNL A   1      32.748  23.493  24.320  1.00  0.00    -0.463 OA
BRANCH   2   3
ATOM      3  C   UNL A   1      32.732  23.753  25.651  1.00  0.00     0.306 C 
ATOM      4  O   UNL A   1      31.970  23.234  26.457  1.00  0.00    -0.252 OA
BRANCH   3   5
ATOM      5  C   UNL A   1      33.735  24.817  26.048  1.00  0.00     0.126 C 
BRANCH   5   6
ATOM      6  C   UNL A   1      33.394  26.284  25.712  1.00  0.00     0.003 C 
ATOM      7  C   UNL A   1      31.047  27.745  23.038  1.00  0.00     0.319 C 
ATOM      8  O   UNL A   1      31.375  26.788  22.341  1.00  0.00    -0.248 OA
ATOM      9  N   UNL A   1      31.855  28.152  24.083  1.00  0.00    -0.325 N 
ATOM     10  C   UNL A   1      33.292  28.049  23.890  1.00  0.00     0.121 C 
ATOM     11  C   UNL A   1      31.415  27.894  25.445  1.00  0.00     0.121 C 
ATOM     12  C   UNL A   1      33.818  26.669  24.282  1.00  0.00     0.026 C 
ATOM     13  C   UNL A   1      31.873  26.504  25.899  1.00  0.00     0.026 C 
BRANCH   7  14
ATOM     14  N   UNL A   1      29.899  28.481  22.809  1.00  0.00    -0.328 N 
ATOM     15  C   UNL A   1      28.552  28.015  23.103  1.00  0.00     0.148 C 
BRANCH  14  16
ATOM     16  C   UNL A   1      30.021  29.808  22.198  1.00  0.00     0.123 C 
BRANCH  16  17
ATOM     17  C   UNL A   1      28.713  30.612  22.131  1.00  0.00     0.050 C 
BRANCH  17  18
ATOM     18  C   UNL A   1      28.811  32.138  22.239  1.00  0.00     0.161 C 
BRANCH  18  19
ATOM     19  O   UNL A   1      27.807  32.837  21.501  1.00  0.00    -0.385 OA
ATOM     20  C   UNL A   1      27.747  32.507  20.122  1.00  0.00     0.194 C 
ENDBRANCH  18  19
ENDBRANCH  17  18
ENDBRANCH  16  17
ENDBRANCH  14  16
ENDBRANCH   7  14
ENDBRANCH   5   6
ENDBRANCH   3   5
ENDBRANCH   2   3
ENDBRANCH   1   2
BRANCH   1  21
ATOM     21  C   UNL A   1      34.250  21.554  24.250  1.00  0.00     0.202 C 
BRANCH  21  22
ATOM     22  O   UNL A   1      35.451  21.355  24.995  1.00  0.00    -0.374 OA
BRANCH  22  23
ATOM     23  C   UNL A   1      36.014  20.046  24.981  1.00  0.00     0.202 C 
BRANCH  23  24
ATOM     24  C   UNL A   1      37.544  19.975  24.910  1.00  0.00     0.261 C 
BRANCH  24  25
ATOM     25  O   UNL A   1      38.168  21.179  25.396  1.00  0.00    -0.460 OA
BRANCH  25  26
ATOM     26  C   UNL A   1      39.326  20.986  26.069  1.00  0.00     0.338 C 
ATOM     27  O   UNL A   1      40.003  19.963  26.101  1.00  0.00    -0.246 OA
BRANCH  26  28
ATOM     28  C   UNL A   1      39.792  22.250  26.664  1.00  0.00     0.060 A 
ATOM     29  C   UNL A   1      39.250  23.442  26.162  1.00  0.00     0.016 A 
ATOM     30  C   UNL A   1      40.797  22.282  27.634  1.00  0.00     0.016 A 
ATOM     31  C   UNL A   1      39.748  24.672  26.588  1.00  0.00     0.010 A 
ATOM     32  C   UNL A   1      41.300  23.518  28.053  1.00  0.00     0.010 A 
ATOM     33  C   UNL A   1      40.805  24.716  27.505  1.00  0.00    -0.014 A 
BRANCH  33  34
ATOM     34  C   UNL A   1      41.505  25.998  27.766  1.00  0.00     0.031 A 
ATOM     35  C   UNL A   1      40.813  27.043  28.600  1.00  0.00     0.074 A 
ATOM     36  C   UNL A   1      42.737  26.232  27.280  1.00  0.00     0.049 A 
ATOM     37  N   UNL A   1      41.192  28.264  28.882  1.00  0.00    -0.248 NA
ATOM     38  C   UNL A   1      39.520  26.661  29.195  1.00  0.00     0.031 C 
ATOM     39  C   UNL A   1      43.536  25.286  26.503  1.00  0.00     0.029 A 
ATOM     40  N   UNL A   1      43.524  27.354  27.359  1.00  0.00    -0.354 N 
ATOM     41  C   UNL A   1      40.177  28.801  29.665  1.00  0.00     0.074 A 
ATOM     42  C   UNL A   1      39.161  27.781  29.804  1.00  0.00     0.031 C 
ATOM     43  C   UNL A   1      44.695  25.876  26.159  1.00  0.00     0.029 A 
ATOM     44  C   UNL A   1      44.700  27.250  26.657  1.00  0.00     0.049 A 
ATOM     45  H   UNL A   1      43.270  28.156  27.870  1.00  0.00     0.167 HD
ATOM     46  C   UNL A   1      40.098  30.034  30.216  1.00  0.00     0.031 A 
ATOM     47  C   UNL A   1      45.654  28.170  26.416  1.00  0.00     0.031 A 
ATOM     48  C   UNL A   1      41.108  31.048  30.084  1.00  0.00     0.049 A 
ATOM     49  C   UNL A   1      45.507  29.558  26.984  1.00  0.00     0.074 A 
ATOM     50  C   UNL A   1      41.127  32.320  30.629  1.00  0.00     0.029 A 
ATOM     51  N   UNL A   1      42.275  30.907  29.352  1.00  0.00    -0.354 N 
ATOM     52  N   UNL A   1      44.557  30.046  27.745  1.00  0.00    -0.248 NA
ATOM     53  C   UNL A   1      46.570  30.524  26.661  1.00  0.00     0.031 C 
ATOM     54  C   UNL A   1      42.281  32.968  30.183  1.00  0.00     0.029 A 
ATOM     55  C   UNL A   1      43.008  32.079  29.410  1.00  0.00     0.049 A 
ATOM     56  H   UNL A   1      42.543  30.095  28.864  1.00  0.00     0.167 HD
ATOM     57  C   UNL A   1      44.925  31.357  28.020  1.00  0.00     0.074 A 
ATOM     58  C   UNL A   1      46.188  31.588  27.353  1.00  0.00     0.031 C 
ATOM     59  C   UNL A   1      44.275  32.287  28.760  1.00  0.00     0.031 A 
BRANCH  46  60
ATOM     60  C   UNL A   1      38.858  30.376  30.992  1.00  0.00    -0.014 A 
ATOM     61  C   UNL A   1      37.726  30.911  30.360  1.00  0.00     0.009 A 
ATOM     62  C   UNL A   1      38.803  30.094  32.366  1.00  0.00     0.009 A 
ATOM     63  C   UNL A   1      36.568  31.175  31.095  1.00  0.00     0.001 A 
ATOM     64  C   UNL A   1      37.636  30.334  33.092  1.00  0.00     0.001 A 
ATOM     65  C   UNL A   1      36.521  30.880  32.457  1.00  0.00     0.000 A 
ENDBRANCH  46  60
BRANCH  47  66
ATOM     66  C   UNL A   1      46.822  27.835  25.559  1.00  0.00    -0.014 A 
ATOM     67  C   UNL A   1      46.765  28.005  24.167  1.00  0.00     0.009 A 
ATOM     68  C   UNL A   1      47.986  27.292  26.127  1.00  0.00     0.009 A 
ATOM     69  C   UNL A   1      47.834  27.606  23.360  1.00  0.00     0.001 A 
ATOM     70  C   UNL A   1      49.064  26.921  25.321  1.00  0.00     0.001 A 
ATOM     71  C   UNL A   1      48.982  27.067  23.937  1.00  0.00     0.000 A 
ENDBRANCH  47  66
BRANCH  59  72
ATOM     72  C   UNL A   1      44.939  33.622  28.944  1.00  0.00    -0.014 A 
ATOM     73  C   UNL A   1      44.676  34.696  28.081  1.00  0.00     0.009 A 
ATOM     74  C   UNL A   1      45.794  33.823  30.040  1.00  0.00     0.009 A 
ATOM     75  C   UNL A   1      45.273  35.939  28.301  1.00  0.00     0.001 A 
ATOM     76  C   UNL A   1      46.368  35.073  30.273  1.00  0.00     0.001 A 
ATOM     77  C   UNL A   1      46.112  36.128  29.399  1.00  0.00     0.000 A 
ENDBRANCH  59  72
ENDBRANCH  33  34
ENDBRANCH  26  28
ENDBRANCH  25  26
ENDBRANCH  24  25
ENDBRANCH  23  24
ENDBRANCH  22  23
ENDBRANCH  21  22
ENDBRANCH   1  21
TORSDOF 20
ENDMDL
MODEL 2
REMARK VINA RESULT:      -9.3      3.939      7.851
REMARK SMILES COCCCN(C)C(=O)N1CCC(CC(=O)OCCOCCOC(=O)c2ccc(-c3c4nc(c(-c5ccccc5)c5ccc([nH]5)c(-c5ccccc5)c5nc(c(-c6ccccc6)c6ccc3[nH]6)C=C5)C=C4)cc2)CC1
REMARK SMILES IDX 18 1 17 2 15 3 16 4 14 5 13 6 8 7 9 8 10 9 11 10 75 11 12 12
REMARK SMILES IDX 74 13 6 14 7 15 5 16 4 17 3 18 2 19 1 20 19 21 20 22 21 23
REMARK SMILES IDX 22 24 23 25 24 26 25 27 26 28 27 29 73 30 28 31 72 32 29 33
REMARK SMILES IDX 30 34 31 35 66 36 32 37 71 38 65 39 67 40 33 41 70 42 64 43
REMARK SMILES IDX 63 44 34 46 56 47 41 48 55 49 42 50 45 51 54 52 68 53 43 54
REMARK SMILES IDX 44 55 53 57 69 58 46 59 35 60 36 61 40 62 37 63 39 64 38 65
REMARK SMILES IDX 57 66 58 67 62 68 59 69 61 70 60 71 47 72 48 73 52 74 49 75
REMARK SMILES IDX 51 76 50 77
REMARK H PARENT 67 45 45 56
REMARK Flexibility Score: inf
ROOT
ATOM      1  C   UNL A   1      40.997  21.380  27.326  1.00  0.00     0.261 C 
ENDROOT
BRANCH   1   2
ATOM      2  O   UNL A   1      40.359  21.832  26.114  1.00  0.00    -0.463 OA
BRANCH   2   3
ATOM      3  C   UNL A   1      39.162  21.271  25.811  1.00  0.00     0.306 C 
ATOM      4  O   UNL A   1      38.985  20.082  25.576  1.00  0.00    -0.252 OA
BRANCH   3   5
ATOM      5  C   UNL A   1      38.044  22.291  25.736  1.00  0.00     0.126 C 
BRANCH   5   6
ATOM      6  C   UNL A   1      36.852  21.979  24.809  1.00  0.00     0.003 C 
ATOM      7  C   UNL A   1      33.219  23.238  24.914  1.00  0.00     0.319 C 
ATOM      8  O   UNL A   1      33.341  23.247  26.136  1.00  0.00    -0.248 OA
ATOM      9  N   UNL A   1      34.052  22.454  24.139  1.00  0.00    -0.325 N 
ATOM     10  C   UNL A   1      34.449  21.166  24.684  1.00  0.00     0.121 C 
ATOM     11  C   UNL A   1      35.078  23.106  23.339  1.00  0.00     0.121 C 
ATOM     12  C   UNL A   1      35.699  21.282  25.556  1.00  0.00     0.026 C 
ATOM     13  C   UNL A   1      36.355  23.295  24.162  1.00  0.00     0.026 C 
BRANCH   7  14
ATOM     14  N   UNL A   1      32.245  23.964  24.253  1.00  0.00    -0.328 N 
ATOM     15  C   UNL A   1      31.147  23.375  23.502  1.00  0.00     0.148 C 
BRANCH  14  16
ATOM     16  C   UNL A   1      32.324  25.428  24.270  1.00  0.00     0.123 C 
BRANCH  16  17
ATOM     17  C   UNL A   1      31.096  26.135  24.863  1.00  0.00     0.050 C 
BRANCH  17  18
ATOM     18  C   UNL A   1      31.309  27.005  26.107  1.00  0.00     0.161 C 
BRANCH  18  19
ATOM     19  O   UNL A   1      32.644  26.975  26.614  1.00  0.00    -0.385 OA
ATOM     20  C   UNL A   1      33.297  28.236  26.640  1.00  0.00     0.194 C 
ENDBRANCH  18  19
ENDBRANCH  17  18
ENDBRANCH  16  17
ENDBRANCH  14  16
ENDBRANCH   7  14
ENDBRANCH   5   6
ENDBRANCH   3   5
ENDBRANCH   2   3
ENDBRANCH   1   2
BRANCH   1  21
ATOM     21  C   UNL A   1      42.124  20.390  27.024  1.00  0.00     0.202 C 
BRANCH  21  22
ATOM     22  O   UNL A   1      42.567  20.341  25.668  1.00  0.00    -0.374 OA
BRANCH  22  23
ATOM     23  C   UNL A   1      43.905  20.754  25.406  1.00  0.00     0.202 C 
BRANCH  23  24
ATOM     24  C   UNL A   1      44.069  21.900  24.401  1.00  0.00     0.261 C 
BRANCH  24  25
ATOM     25  O   UNL A   1      43.313  23.067  24.779  1.00  0.00    -0.460 OA
BRANCH  25  26
ATOM     26  C   UNL A   1      44.058  24.167  25.034  1.00  0.00     0.338 C 
ATOM     27  O   UNL A   1      45.139  24.463  24.536  1.00  0.00    -0.246 OA
BRANCH  26  28
ATOM     28  C   UNL A   1      43.318  25.098  25.904  1.00  0.00     0.060 A 
ATOM     29  C   UNL A   1      43.811  26.405  26.024  1.00  0.00     0.016 A 
ATOM     30  C   UNL A   1      42.213  24.686  26.652  1.00  0.00     0.016 A 
ATOM     31  C   UNL A   1      43.235  27.290  26.934  1.00  0.00     0.010 A 
ATOM     32  C   UNL A   1      41.642  25.573  27.571  1.00  0.00     0.010 A 
ATOM     33  C   UNL A   1      42.175  26.865  27.743  1.00  0.00    -0.014 A 
BRANCH  33  34
ATOM     34  C   UNL A   1      41.729  27.707  28.880  1.00  0.00     0.031 A 
ATOM     35  C   UNL A   1      42.452  27.590  30.195  1.00  0.00     0.074 A 
ATOM     36  C   UNL A   1      40.704  28.568  28.750  1.00  0.00     0.049 A 
ATOM     37  N   UNL A   1      42.183  28.156  31.344  1.00  0.00    -0.248 NA
ATOM     38  C   UNL A   1      43.638  26.715  30.219  1.00  0.00     0.031 C 
ATOM     39  C   UNL A   1      39.953  28.815  27.521  1.00  0.00     0.029 A 
ATOM     40  N   UNL A   1      40.109  29.386  29.679  1.00  0.00    -0.354 N 
ATOM     41  C   UNL A   1      43.148  27.691  32.228  1.00  0.00     0.074 A 
ATOM     42  C   UNL A   1      44.002  26.787  31.491  1.00  0.00     0.031 C 
ATOM     43  C   UNL A   1      38.982  29.710  27.776  1.00  0.00     0.029 A 
ATOM     44  C   UNL A   1      39.019  30.067  29.193  1.00  0.00     0.049 A 
ATOM     45  H   UNL A   1      40.431  29.476  30.605  1.00  0.00     0.167 HD
ATOM     46  C   UNL A   1      43.307  27.988  33.539  1.00  0.00     0.031 A 
ATOM     47  C   UNL A   1      38.134  30.860  29.828  1.00  0.00     0.031 A 
ATOM     48  C   UNL A   1      42.464  28.890  34.274  1.00  0.00     0.049 A 
ATOM     49  C   UNL A   1      38.294  31.119  31.303  1.00  0.00     0.074 A 
ATOM     50  C   UNL A   1      42.564  29.273  35.600  1.00  0.00     0.029 A 
ATOM     51  N   UNL A   1      41.363  29.546  33.749  1.00  0.00    -0.354 N 
ATOM     52  N   UNL A   1      39.226  30.695  32.122  1.00  0.00    -0.248 NA
ATOM     53  C   UNL A   1      37.279  31.971  31.942  1.00  0.00     0.031 C 
ATOM     54  C   UNL A   1      41.491  30.120  35.891  1.00  0.00     0.029 A 
ATOM     55  C   UNL A   1      40.760  30.310  34.731  1.00  0.00     0.049 A 
ATOM     56  H   UNL A   1      41.057  29.479  32.815  1.00  0.00     0.167 HD
ATOM     57  C   UNL A   1      38.930  31.257  33.359  1.00  0.00     0.074 A 
ATOM     58  C   UNL A   1      37.738  32.058  33.182  1.00  0.00     0.031 C 
ATOM     59  C   UNL A   1      39.587  31.121  34.535  1.00  0.00     0.031 A 
BRANCH  46  60
ATOM     60  C   UNL A   1      44.421  27.306  34.281  1.00  0.00    -0.014 A 
ATOM     61  C   UNL A   1      45.551  28.014  34.715  1.00  0.00     0.009 A 
ATOM     62  C   UNL A   1      44.301  25.946  34.608  1.00  0.00     0.009 A 
ATOM     63  C   UNL A   1      46.549  27.368  35.446  1.00  0.00     0.001 A 
ATOM     64  C   UNL A   1      45.288  25.309  35.361  1.00  0.00     0.001 A 
ATOM     65  C   UNL A   1      46.415  26.020  35.775  1.00  0.00     0.000 A 
ENDBRANCH  46  60
BRANCH  47  66
ATOM     66  C   UNL A   1      36.981  31.440  29.089  1.00  0.00    -0.014 A 
ATOM     67  C   UNL A   1      37.008  32.771  28.644  1.00  0.00     0.009 A 
ATOM     68  C   UNL A   1      35.823  30.676  28.870  1.00  0.00     0.009 A 
ATOM     69  C   UNL A   1      35.887  33.334  28.028  1.00  0.00     0.001 A 
ATOM     70  C   UNL A   1      34.716  31.232  28.227  1.00  0.00     0.001 A 
ATOM     71  C   UNL A   1      34.744  32.565  27.818  1.00  0.00     0.000 A 
ENDBRANCH  47  66
BRANCH  59  72
ATOM     72  C   UNL A   1      39.076  31.899  35.714  1.00  0.00    -0.014 A 
ATOM     73  C   UNL A   1      39.428  33.242  35.913  1.00  0.00     0.009 A 
ATOM     74  C   UNL A   1      38.176  31.291  36.604  1.00  0.00     0.009 A 
ATOM     75  C   UNL A   1      38.903  33.955  36.994  1.00  0.00     0.001 A 
ATOM     76  C   UNL A   1      37.632  32.014  37.667  1.00  0.00     0.001 A 
ATOM     77  C   UNL A   1      38.002  33.343  37.865  1.00  0.00     0.000 A 
ENDBRANCH  59  72
ENDBRANCH  33  34
ENDBRANCH  26  28
ENDBRANCH  25  26
ENDBRANCH  24  25
ENDBRANCH  23  24
ENDBRANCH  22  23
ENDBRANCH  21  22
ENDBRANCH   1  21
TORSDOF 20
ENDMDL
MODEL 3
REMARK VINA RESULT:      -9.1      5.159      9.741
REMARK SMILES COCCCN(C)C(=O)N1CCC(CC(=O)OCCOCCOC(=O)c2ccc(-c3c4nc(c(-c5ccccc5)c5ccc([nH]5)c(-c5ccccc5)c5nc(c(-c6ccccc6)c6ccc3[nH]6)C=C5)C=C4)cc2)CC1
REMARK SMILES IDX 18 1 17 2 15 3 16 4 14 5 13 6 8 7 9 8 10 9 11 10 75 11 12 12
REMARK SMILES IDX 74 13 6 14 7 15 5 16 4 17 3 18 2 19 1 20 19 21 20 22 21 23
REMARK SMILES IDX 22 24 23 25 24 26 25 27 26 28 27 29 73 30 28 31 72 32 29 33
REMARK SMILES IDX 30 34 31 35 66 36 32 37 71 38 65 39 67 40 33 41 70 42 64 43
REMARK SMILES IDX 63 44 34 46 56 47 41 48 55 49 42 50 45 51 54 52 68 53 43 54
REMARK SMILES IDX 44 55 53 57 69 58 46 59 35 60 36 61 40 62 37 63 39 64 38 65
REMARK SMILES IDX 57 66 58 67 62 68 59 69 61 70 60 71 47 72 48 73 52 74 49 75
REMARK SMILES IDX 51 76 50 77
REMARK H PARENT 67 45 45 56
REMARK Flexibility Score: inf
ROOT
ATOM      1  C   UNL A   1      33.416  31.692  27.588  1.00  0.00     0.261 C 
ENDROOT
BRANCH   1   2
ATOM      2  O   UNL A   1      33.079  30.290  27.621  1.00  0.00    -0.463 OA
BRANCH   2   3
ATOM      3  C   UNL A   1      33.510  29.536  26.579  1.00  0.00     0.306 C 
ATOM      4  O   UNL A   1      34.545  28.881  26.569  1.00  0.00    -0.252 OA
BRANCH   3   5
ATOM      5  C   UNL A   1      32.593  29.627  25.377  1.00  0.00     0.126 C 
BRANCH   5   6
ATOM      6  C   UNL A   1      31.785  28.369  24.997  1.00  0.00     0.003 C 
ATOM      7  C   UNL A   1      32.549  24.645  25.585  1.00  0.00     0.319 C 
ATOM      8  O   UNL A   1      33.731  24.948  25.444  1.00  0.00    -0.248 OA
ATOM      9  N   UNL A   1      31.558  25.461  25.072  1.00  0.00    -0.325 N 
ATOM     10  C   UNL A   1      31.832  26.125  23.809  1.00  0.00     0.121 C 
ATOM     11  C   UNL A   1      30.752  26.244  25.996  1.00  0.00     0.121 C 
ATOM     12  C   UNL A   1      32.548  27.460  24.015  1.00  0.00     0.026 C 
ATOM     13  C   UNL A   1      31.428  27.588  26.285  1.00  0.00     0.026 C 
BRANCH   7  14
ATOM     14  N   UNL A   1      32.143  23.485  26.218  1.00  0.00    -0.328 N 
ATOM     15  C   UNL A   1      30.867  22.826  25.987  1.00  0.00     0.148 C 
BRANCH  14  16
ATOM     16  C   UNL A   1      33.028  22.880  27.218  1.00  0.00     0.123 C 
BRANCH  16  17
ATOM     17  C   UNL A   1      33.788  21.634  26.740  1.00  0.00     0.050 C 
BRANCH  17  18
ATOM     18  C   UNL A   1      35.210  21.832  26.204  1.00  0.00     0.161 C 
BRANCH  18  19
ATOM     19  O   UNL A   1      35.307  21.774  24.779  1.00  0.00    -0.385 OA
ATOM     20  C   UNL A   1      36.428  22.451  24.232  1.00  0.00     0.194 C 
ENDBRANCH  18  19
ENDBRANCH  17  18
ENDBRANCH  16  17
ENDBRANCH  14  16
ENDBRANCH   7  14
ENDBRANCH   5   6
ENDBRANCH   3   5
ENDBRANCH   2   3
ENDBRANCH   1   2
BRANCH   1  21
ATOM     21  C   UNL A   1      34.494  32.027  28.621  1.00  0.00     0.202 C 
BRANCH  21  22
ATOM     22  O   UNL A   1      34.562  33.392  29.034  1.00  0.00    -0.374 OA
BRANCH  22  23
ATOM     23  C   UNL A   1      33.461  34.229  28.693  1.00  0.00     0.202 C 
BRANCH  23  24
ATOM     24  C   UNL A   1      33.253  35.460  29.584  1.00  0.00     0.261 C 
BRANCH  24  25
ATOM     25  O   UNL A   1      32.358  35.193  30.680  1.00  0.00    -0.460 OA
BRANCH  25  26
ATOM     26  C   UNL A   1      32.708  35.771  31.852  1.00  0.00     0.338 C 
ATOM     27  O   UNL A   1      32.134  36.690  32.427  1.00  0.00    -0.246 OA
BRANCH  26  28
ATOM     28  C   UNL A   1      33.822  35.035  32.475  1.00  0.00     0.060 A 
ATOM     29  C   UNL A   1      35.084  35.644  32.473  1.00  0.00     0.016 A 
ATOM     30  C   UNL A   1      33.660  33.742  32.979  1.00  0.00     0.016 A 
ATOM     31  C   UNL A   1      36.202  34.944  32.924  1.00  0.00     0.010 A 
ATOM     32  C   UNL A   1      34.784  33.038  33.424  1.00  0.00     0.010 A 
ATOM     33  C   UNL A   1      36.064  33.622  33.363  1.00  0.00    -0.014 A 
BRANCH  33  34
ATOM     34  C   UNL A   1      37.271  32.792  33.601  1.00  0.00     0.031 A 
ATOM     35  C   UNL A   1      38.057  33.004  34.867  1.00  0.00     0.074 A 
ATOM     36  C   UNL A   1      37.662  31.860  32.714  1.00  0.00     0.049 A 
ATOM     37  N   UNL A   1      39.188  32.462  35.242  1.00  0.00    -0.248 NA
ATOM     38  C   UNL A   1      37.494  33.957  35.839  1.00  0.00     0.031 C 
ATOM     39  C   UNL A   1      36.962  31.519  31.476  1.00  0.00     0.029 A 
ATOM     40  N   UNL A   1      38.761  31.037  32.717  1.00  0.00    -0.354 N 
ATOM     41  C   UNL A   1      39.481  33.022  36.479  1.00  0.00     0.074 A 
ATOM     42  C   UNL A   1      38.420  33.955  36.787  1.00  0.00     0.031 C 
ATOM     43  C   UNL A   1      37.662  30.570  30.828  1.00  0.00     0.029 A 
ATOM     44  C   UNL A   1      38.874  30.267  31.585  1.00  0.00     0.049 A 
ATOM     45  H   UNL A   1      39.406  31.002  33.460  1.00  0.00     0.167 HD
ATOM     46  C   UNL A   1      40.541  32.783  37.285  1.00  0.00     0.031 A 
ATOM     47  C   UNL A   1      39.861  29.439  31.191  1.00  0.00     0.031 A 
ATOM     48  C   UNL A   1      41.595  31.853  36.985  1.00  0.00     0.049 A 
ATOM     49  C   UNL A   1      41.065  29.244  32.076  1.00  0.00     0.074 A 
ATOM     50  C   UNL A   1      42.698  31.524  37.754  1.00  0.00     0.029 A 
ATOM     51  N   UNL A   1      41.680  31.106  35.822  1.00  0.00    -0.354 N 
ATOM     52  N   UNL A   1      41.318  29.758  33.255  1.00  0.00    -0.248 NA
ATOM     53  C   UNL A   1      42.120  28.348  31.576  1.00  0.00     0.031 C 
ATOM     54  C   UNL A   1      43.478  30.617  37.032  1.00  0.00     0.029 A 
ATOM     55  C   UNL A   1      42.830  30.338  35.841  1.00  0.00     0.049 A 
ATOM     56  H   UNL A   1      41.019  31.119  35.091  1.00  0.00     0.167 HD
ATOM     57  C   UNL A   1      42.537  29.222  33.650  1.00  0.00     0.074 A 
ATOM     58  C   UNL A   1      42.971  28.336  32.591  1.00  0.00     0.031 C 
ATOM     59  C   UNL A   1      43.236  29.443  34.790  1.00  0.00     0.031 A 
BRANCH  46  60
ATOM     60  C   UNL A   1      40.639  33.564  38.564  1.00  0.00    -0.014 A 
ATOM     61  C   UNL A   1      40.106  33.071  39.764  1.00  0.00     0.009 A 
ATOM     62  C   UNL A   1      41.336  34.783  38.577  1.00  0.00     0.009 A 
ATOM     63  C   UNL A   1      40.252  33.794  40.949  1.00  0.00     0.001 A 
ATOM     64  C   UNL A   1      41.503  35.490  39.769  1.00  0.00     0.001 A 
ATOM     65  C   UNL A   1      40.956  34.998  40.953  1.00  0.00     0.000 A 
ENDBRANCH  46  60
BRANCH  47  66
ATOM     66  C   UNL A   1      39.787  28.756  29.872  1.00  0.00    -0.014 A 
ATOM     67  C   UNL A   1      39.365  27.422  29.775  1.00  0.00     0.009 A 
ATOM     68  C   UNL A   1      40.188  29.426  28.704  1.00  0.00     0.009 A 
ATOM     69  C   UNL A   1      39.381  26.761  28.543  1.00  0.00     0.001 A 
ATOM     70  C   UNL A   1      40.174  28.773  27.470  1.00  0.00     0.001 A 
ATOM     71  C   UNL A   1      39.783  27.437  27.393  1.00  0.00     0.000 A 
ENDBRANCH  47  66
BRANCH  59  72
ATOM     72  C   UNL A   1      44.512  28.674  34.987  1.00  0.00    -0.014 A 
ATOM     73  C   UNL A   1      45.746  29.179  34.551  1.00  0.00     0.009 A 
ATOM     74  C   UNL A   1      44.482  27.453  35.679  1.00  0.00     0.009 A 
ATOM     75  C   UNL A   1      46.922  28.463  34.786  1.00  0.00     0.001 A 
ATOM     76  C   UNL A   1      45.662  26.754  35.936  1.00  0.00     0.001 A 
ATOM     77  C   UNL A   1      46.880  27.256  35.483  1.00  0.00     0.000 A 
ENDBRANCH  59  72
ENDBRANCH  33  34
ENDBRANCH  26  28
ENDBRANCH  25  26
ENDBRANCH  24  25
ENDBRANCH  23  24
ENDBRANCH  22  23
ENDBRANCH  21  22
ENDBRANCH   1  21
TORSDOF 20
ENDMDL
