MODEL 1
REMARK VINA RESULT:     -11.8      0.000      0.000
REMARK SMILES CS(=O)(=O)c1ccc(-c2cc(Cl)cc3c2O[C@@H](C(F)(F)F)C(C(=O)OCCOCCOC(=O)c2ccc(-c4c5nc(c(-c6ccccc6)c6ccc([nH]6)c(-c6ccccc6)c6nc(c(-c7ccccc7)c7ccc4[nH]7)C=C6)C=C5)cc2)=C3)cc1
REMARK SMILES IDX 28 1 27 2 26 3 25 4 23 5 24 6 22 7 9 8 10 9 15 10 11 11
REMARK SMILES IDX 14 12 16 13 12 14 13 15 82 16 17 17 8 18 5 19 6 20 84 21
REMARK SMILES IDX 7 22 83 23 2 24 1 25 3 26 4 27 18 28 19 29 20 30 21 31 29 32
REMARK SMILES IDX 30 33 31 34 32 35 33 36 34 37 35 38 81 39 36 40 80 41 37 42
REMARK SMILES IDX 38 43 39 44 74 45 40 46 79 47 73 48 75 49 41 50 78 51 72 52
REMARK SMILES IDX 71 53 42 55 64 56 49 57 63 58 50 59 53 60 62 61 76 62 51 63
REMARK SMILES IDX 52 64 61 66 77 67 54 68 43 69 44 70 48 71 45 72 47 73 46 74
REMARK SMILES IDX 65 75 66 76 70 77 67 78 69 79 68 80 55 81 56 82 60 83 57 84
REMARK SMILES IDX 59 85 58 86
REMARK H PARENT 75 54 53 65
REMARK Flexibility Score: inf
ROOT
ATOM      1  O   UNL A   1      38.040  21.429  25.005  1.00  0.00    -0.374 OA
ENDROOT
BRANCH   1   2
ATOM      2  C   UNL A   1      36.822  20.699  25.027  1.00  0.00     0.202 C 
BRANCH   2   3
ATOM      3  C   UNL A   1      35.601  21.331  25.715  1.00  0.00     0.261 C 
BRANCH   3   4
ATOM      4  O   UNL A   1      35.469  22.735  25.450  1.00  0.00    -0.460 OA
BRANCH   4   5
ATOM      5  C   UNL A   1      34.335  23.112  24.831  1.00  0.00     0.338 C 
ATOM      6  O   UNL A   1      33.861  22.581  23.835  1.00  0.00    -0.246 OA
BRANCH   5   7
ATOM      7  C   UNL A   1      33.603  24.157  25.585  1.00  0.00     0.087 C 
ATOM      8  C   UNL A   1      30.718  26.334  23.525  1.00  0.00     0.026 A 
ATOM      9  C   UNL A   1      31.052  26.123  22.168  1.00  0.00     0.033 A 
ATOM     10  C   UNL A   1      31.629  25.778  24.448  1.00  0.00     0.135 A 
ATOM     11  C   UNL A   1      32.359  25.802  21.799  1.00  0.00     0.042 A 
ATOM     12  C   UNL A   1      32.990  25.718  24.104  1.00  0.00     0.019 A 
ATOM     13  O   UNL A   1      31.171  24.759  25.320  1.00  0.00    -0.475 OA
ATOM     14  Cl  UNL A   1      32.759  25.647  20.136  1.00  0.00    -0.084 Cl
ATOM     15  C   UNL A   1      33.354  25.704  22.762  1.00  0.00     0.032 A 
ATOM     16  C   UNL A   1      33.972  25.376  25.154  1.00  0.00     0.027 C 
ATOM     17  C   UNL A   1      32.201  24.077  26.150  1.00  0.00     0.316 C 
BRANCH   8  18
ATOM     18  C   UNL A   1      30.016  27.665  23.736  1.00  0.00    -0.015 A 
ATOM     19  C   UNL A   1      28.951  30.277  23.268  1.00  0.00     0.067 A 
ATOM     20  C   UNL A   1      28.168  29.141  23.051  1.00  0.00     0.021 A 
ATOM     21  C   UNL A   1      30.228  30.134  23.805  1.00  0.00     0.021 A 
ATOM     22  C   UNL A   1      28.688  27.858  23.298  1.00  0.00     0.010 A 
ATOM     23  C   UNL A   1      30.748  28.839  24.039  1.00  0.00     0.010 A 
BRANCH  19  24
ATOM     24  S   UNL A   1      28.266  31.844  22.759  1.00  0.00     0.175 S 
ATOM     25  C   UNL A   1      28.068  31.842  21.002  1.00  0.00     0.163 C 
ATOM     26  O   UNL A   1      29.269  32.846  23.069  1.00  0.00    -0.224 OA
ATOM     27  O   UNL A   1      26.937  31.915  23.339  1.00  0.00    -0.224 OA
ENDBRANCH  19  24
ENDBRANCH   8  18
BRANCH  17  28
ATOM     28  C   UNL A   1      31.810  22.700  26.733  1.00  0.00     0.430 C 
ATOM     29  F   UNL A   1      30.662  22.831  27.455  1.00  0.00    -0.167 F 
ATOM     30  F   UNL A   1      31.546  21.796  25.760  1.00  0.00    -0.167 F 
ATOM     31  F   UNL A   1      32.719  22.143  27.555  1.00  0.00    -0.167 F 
ENDBRANCH  17  28
ENDBRANCH   5   7
ENDBRANCH   4   5
ENDBRANCH   3   4
ENDBRANCH   2   3
ENDBRANCH   1   2
BRANCH   1  32
ATOM     32  C   UNL A   1      39.045  21.092  25.958  1.00  0.00     0.202 C 
BRANCH  32  33
ATOM     33  C   UNL A   1      39.774  19.754  25.802  1.00  0.00     0.261 C 
BRANCH  33  34
ATOM     34  O   UNL A   1      40.919  19.625  26.661  1.00  0.00    -0.460 OA
BRANCH  34  35
ATOM     35  C   UNL A   1      42.104  19.938  26.083  1.00  0.00     0.338 C 
ATOM     36  O   UNL A   1      42.727  19.295  25.250  1.00  0.00    -0.246 OA
BRANCH  35  37
ATOM     37  C   UNL A   1      42.502  21.290  26.496  1.00  0.00     0.060 A 
ATOM     38  C   UNL A   1      42.475  21.609  27.859  1.00  0.00     0.016 A 
ATOM     39  C   UNL A   1      42.824  22.254  25.540  1.00  0.00     0.016 A 
ATOM     40  C   UNL A   1      42.770  22.907  28.274  1.00  0.00     0.010 A 
ATOM     41  C   UNL A   1      43.106  23.555  25.957  1.00  0.00     0.010 A 
ATOM     42  C   UNL A   1      43.066  23.890  27.323  1.00  0.00    -0.014 A 
BRANCH  42  43
ATOM     43  C   UNL A   1      43.256  25.299  27.736  1.00  0.00     0.031 A 
ATOM     44  C   UNL A   1      44.637  25.795  28.052  1.00  0.00     0.074 A 
ATOM     45  C   UNL A   1      42.196  26.116  27.858  1.00  0.00     0.049 A 
ATOM     46  N   UNL A   1      45.012  26.951  28.533  1.00  0.00    -0.248 NA
ATOM     47  C   UNL A   1      45.742  24.856  27.798  1.00  0.00     0.031 C 
ATOM     48  C   UNL A   1      40.812  25.756  27.545  1.00  0.00     0.029 A 
ATOM     49  N   UNL A   1      42.117  27.411  28.301  1.00  0.00    -0.354 N 
ATOM     50  C   UNL A   1      46.393  26.876  28.657  1.00  0.00     0.074 A 
ATOM     51  C   UNL A   1      46.786  25.553  28.222  1.00  0.00     0.031 C 
ATOM     52  C   UNL A   1      40.017  26.801  27.828  1.00  0.00     0.029 A 
ATOM     53  C   UNL A   1      40.829  27.881  28.383  1.00  0.00     0.049 A 
ATOM     54  H   UNL A   1      42.906  27.951  28.538  1.00  0.00     0.167 HD
ATOM     55  C   UNL A   1      47.253  27.825  29.097  1.00  0.00     0.031 A 
ATOM     56  C   UNL A   1      40.355  29.038  28.886  1.00  0.00     0.031 A 
ATOM     57  C   UNL A   1      46.850  29.131  29.549  1.00  0.00     0.049 A 
ATOM     58  C   UNL A   1      41.322  30.045  29.447  1.00  0.00     0.074 A 
ATOM     59  C   UNL A   1      47.644  30.176  29.987  1.00  0.00     0.029 A 
ATOM     60  N   UNL A   1      45.535  29.563  29.638  1.00  0.00    -0.354 N 
ATOM     61  N   UNL A   1      42.630  29.982  29.523  1.00  0.00    -0.248 NA
ATOM     62  C   UNL A   1      40.747  31.283  29.991  1.00  0.00     0.031 C 
ATOM     63  C   UNL A   1      46.806  31.213  30.408  1.00  0.00     0.029 A 
ATOM     64  C   UNL A   1      45.493  30.842  30.165  1.00  0.00     0.049 A 
ATOM     65  H   UNL A   1      44.747  29.037  29.367  1.00  0.00     0.167 HD
ATOM     66  C   UNL A   1      43.036  31.179  30.100  1.00  0.00     0.074 A 
ATOM     67  C   UNL A   1      41.836  31.955  30.339  1.00  0.00     0.031 C 
ATOM     68  C   UNL A   1      44.289  31.598  30.405  1.00  0.00     0.031 A 
BRANCH  55  69
ATOM     69  C   UNL A   1      48.712  27.462  29.158  1.00  0.00    -0.014 A 
ATOM     70  C   UNL A   1      49.546  27.573  28.032  1.00  0.00     0.009 A 
ATOM     71  C   UNL A   1      49.266  27.022  30.370  1.00  0.00     0.009 A 
ATOM     72  C   UNL A   1      50.892  27.209  28.111  1.00  0.00     0.001 A 
ATOM     73  C   UNL A   1      50.619  26.689  30.454  1.00  0.00     0.001 A 
ATOM     74  C   UNL A   1      51.428  26.771  29.322  1.00  0.00     0.000 A 
ENDBRANCH  55  69
BRANCH  56  75
ATOM     75  C   UNL A   1      38.890  29.283  28.918  1.00  0.00    -0.014 A 
ATOM     76  C   UNL A   1      38.217  29.765  27.786  1.00  0.00     0.009 A 
ATOM     77  C   UNL A   1      38.155  29.032  30.088  1.00  0.00     0.009 A 
ATOM     78  C   UNL A   1      36.842  30.007  27.831  1.00  0.00     0.001 A 
ATOM     79  C   UNL A   1      36.776  29.246  30.121  1.00  0.00     0.001 A 
ATOM     80  C   UNL A   1      36.122  29.741  28.996  1.00  0.00     0.000 A 
ENDBRANCH  56  75
BRANCH  68  81
ATOM     81  C   UNL A   1      44.433  32.969  31.008  1.00  0.00    -0.014 A 
ATOM     82  C   UNL A   1      44.548  34.112  30.201  1.00  0.00     0.009 A 
ATOM     83  C   UNL A   1      44.395  33.123  32.403  1.00  0.00     0.009 A 
ATOM     84  C   UNL A   1      44.650  35.378  30.782  1.00  0.00     0.001 A 
ATOM     85  C   UNL A   1      44.464  34.391  32.980  1.00  0.00     0.001 A 
ATOM     86  C   UNL A   1      44.601  35.517  32.170  1.00  0.00     0.000 A 
ENDBRANCH  68  81
ENDBRANCH  42  43
ENDBRANCH  35  37
ENDBRANCH  34  35
ENDBRANCH  33  34
ENDBRANCH  32  33
ENDBRANCH   1  32
TORSDOF 17
ENDMDL
MODEL 2
REMARK VINA RESULT:     -11.8      1.654      5.966
REMARK SMILES CS(=O)(=O)c1ccc(-c2cc(Cl)cc3c2O[C@@H](C(F)(F)F)C(C(=O)OCCOCCOC(=O)c2ccc(-c4c5nc(c(-c6ccccc6)c6ccc([nH]6)c(-c6ccccc6)c6nc(c(-c7ccccc7)c7ccc4[nH]7)C=C6)C=C5)cc2)=C3)cc1
REMARK SMILES IDX 28 1 27 2 26 3 25 4 23 5 24 6 22 7 9 8 10 9 15 10 11 11
REMARK SMILES IDX 14 12 16 13 12 14 13 15 82 16 17 17 8 18 5 19 6 20 84 21
REMARK SMILES IDX 7 22 83 23 2 24 1 25 3 26 4 27 18 28 19 29 20 30 21 31 29 32
REMARK SMILES IDX 30 33 31 34 32 35 33 36 34 37 35 38 81 39 36 40 80 41 37 42
REMARK SMILES IDX 38 43 39 44 74 45 40 46 79 47 73 48 75 49 41 50 78 51 72 52
REMARK SMILES IDX 71 53 42 55 64 56 49 57 63 58 50 59 53 60 62 61 76 62 51 63
REMARK SMILES IDX 52 64 61 66 77 67 54 68 43 69 44 70 48 71 45 72 47 73 46 74
REMARK SMILES IDX 65 75 66 76 70 77 67 78 69 79 68 80 55 81 56 82 60 83 57 84
REMARK SMILES IDX 59 85 58 86
REMARK H PARENT 75 54 53 65
REMARK Flexibility Score: inf
ROOT
ATOM      1  O   UNL A   1      36.857  21.559  25.552  1.00  0.00    -0.374 OA
ENDROOT
BRANCH   1   2
ATOM      2  C   UNL A   1      36.307  22.814  25.923  1.00  0.00     0.202 C 
BRANCH   2   3
ATOM      3  C   UNL A   1      35.019  22.830  26.763  1.00  0.00     0.261 C 
BRANCH   3   4
ATOM      4  O   UNL A   1      33.842  23.089  25.985  1.00  0.00    -0.460 OA
BRANCH   4   5
ATOM      5  C   UNL A   1      32.669  22.791  26.575  1.00  0.00     0.338 C 
ATOM      6  O   UNL A   1      32.536  22.396  27.725  1.00  0.00    -0.246 OA
BRANCH   5   7
ATOM      7  C   UNL A   1      31.507  23.155  25.730  1.00  0.00     0.087 C 
ATOM      8  C   UNL A   1      31.714  26.744  23.637  1.00  0.00     0.026 A 
ATOM      9  C   UNL A   1      32.729  27.461  24.311  1.00  0.00     0.033 A 
ATOM     10  C   UNL A   1      31.371  25.512  24.233  1.00  0.00     0.135 A 
ATOM     11  C   UNL A   1      33.024  27.189  25.648  1.00  0.00     0.042 A 
ATOM     12  C   UNL A   1      31.451  25.389  25.630  1.00  0.00     0.019 A 
ATOM     13  O   UNL A   1      31.594  24.320  23.498  1.00  0.00    -0.475 OA
ATOM     14  Cl  UNL A   1      34.194  28.140  26.470  1.00  0.00    -0.084 Cl
ATOM     15  C   UNL A   1      32.308  26.223  26.340  1.00  0.00     0.032 A 
ATOM     16  C   UNL A   1      30.855  24.198  26.272  1.00  0.00     0.027 C 
ATOM     17  C   UNL A   1      31.387  23.039  24.225  1.00  0.00     0.316 C 
BRANCH   8  18
ATOM     18  C   UNL A   1      30.704  27.672  22.984  1.00  0.00    -0.015 A 
ATOM     19  C   UNL A   1      28.926  29.866  22.534  1.00  0.00     0.067 A 
ATOM     20  C   UNL A   1      30.257  29.932  22.114  1.00  0.00     0.021 A 
ATOM     21  C   UNL A   1      28.444  28.684  23.092  1.00  0.00     0.021 A 
ATOM     22  C   UNL A   1      31.125  28.845  22.320  1.00  0.00     0.010 A 
ATOM     23  C   UNL A   1      29.328  27.600  23.308  1.00  0.00     0.010 A 
BRANCH  19  24
ATOM     24  S   UNL A   1      27.954  31.355  22.389  1.00  0.00     0.175 S 
ATOM     25  C   UNL A   1      29.005  32.755  22.637  1.00  0.00     0.163 C 
ATOM     26  O   UNL A   1      27.011  31.335  23.492  1.00  0.00    -0.224 OA
ATOM     27  O   UNL A   1      27.492  31.406  21.014  1.00  0.00    -0.224 OA
ENDBRANCH  19  24
ENDBRANCH   8  18
BRANCH  17  28
ATOM     28  C   UNL A   1      32.056  21.787  23.612  1.00  0.00     0.430 C 
ATOM     29  F   UNL A   1      33.383  22.037  23.429  1.00  0.00    -0.167 F 
ATOM     30  F   UNL A   1      31.981  20.718  24.439  1.00  0.00    -0.167 F 
ATOM     31  F   UNL A   1      31.569  21.400  22.418  1.00  0.00    -0.167 F 
ENDBRANCH  17  28
ENDBRANCH   5   7
ENDBRANCH   4   5
ENDBRANCH   3   4
ENDBRANCH   2   3
ENDBRANCH   1   2
BRANCH   1  32
ATOM     32  C   UNL A   1      38.264  21.475  25.341  1.00  0.00     0.202 C 
BRANCH  32  33
ATOM     33  C   UNL A   1      38.905  20.086  25.257  1.00  0.00     0.261 C 
BRANCH  33  34
ATOM     34  O   UNL A   1      39.720  19.764  26.395  1.00  0.00    -0.460 OA
BRANCH  34  35
ATOM     35  C   UNL A   1      41.048  19.673  26.140  1.00  0.00     0.338 C 
ATOM     36  O   UNL A   1      41.639  18.781  25.549  1.00  0.00    -0.246 OA
BRANCH  35  37
ATOM     37  C   UNL A   1      41.708  20.917  26.556  1.00  0.00     0.060 A 
ATOM     38  C   UNL A   1      41.883  21.156  27.925  1.00  0.00     0.016 A 
ATOM     39  C   UNL A   1      42.081  21.870  25.608  1.00  0.00     0.016 A 
ATOM     40  C   UNL A   1      42.433  22.364  28.353  1.00  0.00     0.010 A 
ATOM     41  C   UNL A   1      42.620  23.082  26.040  1.00  0.00     0.010 A 
ATOM     42  C   UNL A   1      42.784  23.340  27.414  1.00  0.00    -0.014 A 
BRANCH  42  43
ATOM     43  C   UNL A   1      43.250  24.673  27.857  1.00  0.00     0.031 A 
ATOM     44  C   UNL A   1      42.241  25.723  28.220  1.00  0.00     0.074 A 
ATOM     45  C   UNL A   1      44.565  24.948  27.903  1.00  0.00     0.049 A 
ATOM     46  N   UNL A   1      42.427  26.980  28.527  1.00  0.00    -0.248 NA
ATOM     47  C   UNL A   1      40.831  25.299  28.231  1.00  0.00     0.031 C 
ATOM     48  C   UNL A   1      45.637  23.998  27.607  1.00  0.00     0.029 A 
ATOM     49  N   UNL A   1      45.218  26.118  28.193  1.00  0.00    -0.354 N 
ATOM     50  C   UNL A   1      41.161  27.503  28.750  1.00  0.00     0.074 A 
ATOM     51  C   UNL A   1      40.213  26.434  28.521  1.00  0.00     0.031 C 
ATOM     52  C   UNL A   1      46.818  24.630  27.710  1.00  0.00     0.029 A 
ATOM     53  C   UNL A   1      46.580  26.035  28.032  1.00  0.00     0.049 A 
ATOM     54  H   UNL A   1      44.758  26.937  28.488  1.00  0.00     0.167 HD
ATOM     55  C   UNL A   1      40.820  28.764  29.111  1.00  0.00     0.031 A 
ATOM     56  C   UNL A   1      47.524  26.994  28.097  1.00  0.00     0.031 A 
ATOM     57  C   UNL A   1      41.769  29.828  29.313  1.00  0.00     0.049 A 
ATOM     58  C   UNL A   1      47.115  28.407  28.417  1.00  0.00     0.074 A 
ATOM     59  C   UNL A   1      41.531  31.133  29.707  1.00  0.00     0.029 A 
ATOM     60  N   UNL A   1      43.138  29.711  29.119  1.00  0.00    -0.354 N 
ATOM     61  N   UNL A   1      45.919  28.884  28.667  1.00  0.00    -0.248 NA
ATOM     62  C   UNL A   1      48.186  29.412  28.465  1.00  0.00     0.031 C 
ATOM     63  C   UNL A   1      42.747  31.824  29.683  1.00  0.00     0.029 A 
ATOM     64  C   UNL A   1      43.751  30.932  29.343  1.00  0.00     0.049 A 
ATOM     65  H   UNL A   1      43.603  28.884  28.860  1.00  0.00     0.167 HD
ATOM     66  C   UNL A   1      46.096  30.238  28.924  1.00  0.00     0.074 A 
ATOM     67  C   UNL A   1      47.517  30.501  28.817  1.00  0.00     0.031 C 
ATOM     68  C   UNL A   1      45.167  31.179  29.223  1.00  0.00     0.031 A 
BRANCH  55  69
ATOM     69  C   UNL A   1      39.355  29.071  29.257  1.00  0.00    -0.014 A 
ATOM     70  C   UNL A   1      38.685  28.899  30.479  1.00  0.00     0.009 A 
ATOM     71  C   UNL A   1      38.637  29.561  28.155  1.00  0.00     0.009 A 
ATOM     72  C   UNL A   1      37.319  29.171  30.582  1.00  0.00     0.001 A 
ATOM     73  C   UNL A   1      37.279  29.862  28.268  1.00  0.00     0.001 A 
ATOM     74  C   UNL A   1      36.618  29.655  29.478  1.00  0.00     0.000 A 
ENDBRANCH  55  69
BRANCH  56  75
ATOM     75  C   UNL A   1      48.942  26.654  27.813  1.00  0.00    -0.014 A 
ATOM     76  C   UNL A   1      49.819  26.301  28.850  1.00  0.00     0.009 A 
ATOM     77  C   UNL A   1      49.427  26.679  26.495  1.00  0.00     0.009 A 
ATOM     78  C   UNL A   1      51.154  25.998  28.574  1.00  0.00     0.001 A 
ATOM     79  C   UNL A   1      50.754  26.346  26.219  1.00  0.00     0.001 A 
ATOM     80  C   UNL A   1      51.619  26.014  27.259  1.00  0.00     0.000 A 
ENDBRANCH  56  75
BRANCH  68  81
ATOM     81  C   UNL A   1      45.656  32.578  29.481  1.00  0.00    -0.014 A 
ATOM     82  C   UNL A   1      46.083  32.978  30.757  1.00  0.00     0.009 A 
ATOM     83  C   UNL A   1      45.744  33.491  28.418  1.00  0.00     0.009 A 
ATOM     84  C   UNL A   1      46.562  34.272  30.967  1.00  0.00     0.001 A 
ATOM     85  C   UNL A   1      46.253  34.774  28.624  1.00  0.00     0.001 A 
ATOM     86  C   UNL A   1      46.654  35.166  29.899  1.00  0.00     0.000 A 
ENDBRANCH  68  81
ENDBRANCH  42  43
ENDBRANCH  35  37
ENDBRANCH  34  35
ENDBRANCH  33  34
ENDBRANCH  32  33
ENDBRANCH   1  32
TORSDOF 17
ENDMDL
MODEL 3
REMARK VINA RESULT:     -11.7      4.311      9.647
REMARK SMILES CS(=O)(=O)c1ccc(-c2cc(Cl)cc3c2O[C@@H](C(F)(F)F)C(C(=O)OCCOCCOC(=O)c2ccc(-c4c5nc(c(-c6ccccc6)c6ccc([nH]6)c(-c6ccccc6)c6nc(c(-c7ccccc7)c7ccc4[nH]7)C=C6)C=C5)cc2)=C3)cc1
REMARK SMILES IDX 28 1 27 2 26 3 25 4 23 5 24 6 22 7 9 8 10 9 15 10 11 11
REMARK SMILES IDX 14 12 16 13 12 14 13 15 82 16 17 17 8 18 5 19 6 20 84 21
REMARK SMILES IDX 7 22 83 23 2 24 1 25 3 26 4 27 18 28 19 29 20 30 21 31 29 32
REMARK SMILES IDX 30 33 31 34 32 35 33 36 34 37 35 38 81 39 36 40 80 41 37 42
REMARK SMILES IDX 38 43 39 44 74 45 40 46 79 47 73 48 75 49 41 50 78 51 72 52
REMARK SMILES IDX 71 53 42 55 64 56 49 57 63 58 50 59 53 60 62 61 76 62 51 63
REMARK SMILES IDX 52 64 61 66 77 67 54 68 43 69 44 70 48 71 45 72 47 73 46 74
REMARK SMILES IDX 65 75 66 76 70 77 67 78 69 79 68 80 55 81 56 82 60 83 57 84
REMARK SMILES IDX 59 85 58 86
REMARK H PARENT 75 54 53 65
REMARK Flexibility Score: inf
ROOT
ATOM      1  O   UNL A   1      31.353  31.309  25.745  1.00  0.00    -0.374 OA
ENDROOT
BRANCH   1   2
ATOM      2  C   UNL A   1      32.080  30.094  25.630  1.00  0.00     0.202 C 
BRANCH   2   3
ATOM      3  C   UNL A   1      32.319  29.262  26.899  1.00  0.00     0.261 C 
BRANCH   3   4
ATOM      4  O   UNL A   1      33.147  28.112  26.671  1.00  0.00    -0.460 OA
BRANCH   4   5
ATOM      5  C   UNL A   1      32.550  27.067  26.067  1.00  0.00     0.338 C 
ATOM      6  O   UNL A   1      31.342  26.922  25.935  1.00  0.00    -0.246 OA
BRANCH   5   7
ATOM      7  C   UNL A   1      33.525  26.164  25.412  1.00  0.00     0.087 C 
ATOM      8  C   UNL A   1      32.187  22.381  24.315  1.00  0.00     0.026 A 
ATOM      9  C   UNL A   1      31.021  22.205  25.094  1.00  0.00     0.033 A 
ATOM     10  C   UNL A   1      32.902  23.565  24.588  1.00  0.00     0.135 A 
ATOM     11  C   UNL A   1      30.857  22.895  26.296  1.00  0.00     0.042 A 
ATOM     12  C   UNL A   1      32.900  24.071  25.899  1.00  0.00     0.019 A 
ATOM     13  O   UNL A   1      33.031  24.531  23.558  1.00  0.00    -0.475 OA
ATOM     14  Cl  UNL A   1      29.477  22.589  27.270  1.00  0.00    -0.084 Cl
ATOM     15  C   UNL A   1      31.850  23.750  26.752  1.00  0.00     0.032 A 
ATOM     16  C   UNL A   1      33.845  25.156  26.242  1.00  0.00     0.027 C 
ATOM     17  C   UNL A   1      33.635  25.837  23.938  1.00  0.00     0.316 C 
BRANCH   8  18
ATOM     18  C   UNL A   1      32.852  21.056  23.982  1.00  0.00    -0.015 A 
ATOM     19  C   UNL A   1      33.581  18.291  24.047  1.00  0.00     0.067 A 
ATOM     20  C   UNL A   1      32.533  18.732  23.234  1.00  0.00     0.021 A 
ATOM     21  C   UNL A   1      34.332  19.225  24.759  1.00  0.00     0.021 A 
ATOM     22  C   UNL A   1      32.188  20.094  23.190  1.00  0.00     0.010 A 
ATOM     23  C   UNL A   1      33.969  20.592  24.718  1.00  0.00     0.010 A 
BRANCH  19  24
ATOM     24  S   UNL A   1      33.826  16.528  24.171  1.00  0.00     0.175 S 
ATOM     25  C   UNL A   1      35.172  16.210  25.272  1.00  0.00     0.163 C 
ATOM     26  O   UNL A   1      34.245  16.083  22.854  1.00  0.00    -0.224 OA
ATOM     27  O   UNL A   1      32.628  15.994  24.792  1.00  0.00    -0.224 OA
ENDBRANCH  19  24
ENDBRANCH   8  18
BRANCH  17  28
ATOM     28  C   UNL A   1      33.359  27.022  22.984  1.00  0.00     0.430 C 
ATOM     29  F   UNL A   1      33.854  26.724  21.750  1.00  0.00    -0.167 F 
ATOM     30  F   UNL A   1      32.034  27.242  22.820  1.00  0.00    -0.167 F 
ATOM     31  F   UNL A   1      33.914  28.194  23.348  1.00  0.00    -0.167 F 
ENDBRANCH  17  28
ENDBRANCH   5   7
ENDBRANCH   4   5
ENDBRANCH   3   4
ENDBRANCH   2   3
ENDBRANCH   1   2
BRANCH   1  32
ATOM     32  C   UNL A   1      31.383  31.997  26.993  1.00  0.00     0.202 C 
BRANCH  32  33
ATOM     33  C   UNL A   1      32.544  32.959  27.265  1.00  0.00     0.261 C 
BRANCH  33  34
ATOM     34  O   UNL A   1      32.369  33.740  28.459  1.00  0.00    -0.460 OA
BRANCH  34  35
ATOM     35  C   UNL A   1      33.281  34.726  28.635  1.00  0.00     0.338 C 
ATOM     36  O   UNL A   1      33.140  35.924  28.435  1.00  0.00    -0.246 OA
BRANCH  35  37
ATOM     37  C   UNL A   1      34.482  34.167  29.268  1.00  0.00     0.060 A 
ATOM     38  C   UNL A   1      35.717  34.335  28.627  1.00  0.00     0.016 A 
ATOM     39  C   UNL A   1      34.381  33.421  30.443  1.00  0.00     0.016 A 
ATOM     40  C   UNL A   1      36.862  33.748  29.163  1.00  0.00     0.010 A 
ATOM     41  C   UNL A   1      35.526  32.825  30.969  1.00  0.00     0.010 A 
ATOM     42  C   UNL A   1      36.768  32.973  30.324  1.00  0.00    -0.014 A 
BRANCH  42  43
ATOM     43  C   UNL A   1      37.948  32.239  30.833  1.00  0.00     0.031 A 
ATOM     44  C   UNL A   1      38.766  32.838  31.941  1.00  0.00     0.074 A 
ATOM     45  C   UNL A   1      38.301  31.064  30.286  1.00  0.00     0.049 A 
ATOM     46  N   UNL A   1      39.892  32.419  32.458  1.00  0.00    -0.248 NA
ATOM     47  C   UNL A   1      38.248  34.078  32.540  1.00  0.00     0.031 C 
ATOM     48  C   UNL A   1      37.564  30.369  29.230  1.00  0.00     0.029 A 
ATOM     49  N   UNL A   1      39.385  30.260  30.527  1.00  0.00    -0.354 N 
ATOM     50  C   UNL A   1      40.228  33.352  33.429  1.00  0.00     0.074 A 
ATOM     51  C   UNL A   1      39.198  34.370  33.415  1.00  0.00     0.031 C 
ATOM     52  C   UNL A   1      38.231  29.251  28.898  1.00  0.00     0.029 A 
ATOM     53  C   UNL A   1      39.460  29.178  29.684  1.00  0.00     0.049 A 
ATOM     54  H   UNL A   1      40.046  30.440  31.235  1.00  0.00     0.167 HD
ATOM     55  C   UNL A   1      41.300  33.360  34.257  1.00  0.00     0.031 A 
ATOM     56  C   UNL A   1      40.430  28.255  29.536  1.00  0.00     0.031 A 
ATOM     57  C   UNL A   1      42.331  32.355  34.248  1.00  0.00     0.049 A 
ATOM     58  C   UNL A   1      41.653  28.330  30.409  1.00  0.00     0.074 A 
ATOM     59  C   UNL A   1      43.444  32.254  35.064  1.00  0.00     0.029 A 
ATOM     60  N   UNL A   1      42.383  31.287  33.366  1.00  0.00    -0.354 N 
ATOM     61  N   UNL A   1      41.943  29.192  31.354  1.00  0.00    -0.248 NA
ATOM     62  C   UNL A   1      42.683  27.302  30.196  1.00  0.00     0.031 C 
ATOM     63  C   UNL A   1      44.206  31.165  34.629  1.00  0.00     0.029 A 
ATOM     64  C   UNL A   1      43.532  30.546  33.589  1.00  0.00     0.049 A 
ATOM     65  H   UNL A   1      41.705  31.085  32.681  1.00  0.00     0.167 HD
ATOM     66  C   UNL A   1      43.175  28.799  31.863  1.00  0.00     0.074 A 
ATOM     67  C   UNL A   1      43.569  27.611  31.133  1.00  0.00     0.031 C 
ATOM     68  C   UNL A   1      43.913  29.370  32.846  1.00  0.00     0.031 A 
BRANCH  55  69
ATOM     69  C   UNL A   1      41.435  34.520  35.205  1.00  0.00    -0.014 A 
ATOM     70  C   UNL A   1      42.157  35.674  34.857  1.00  0.00     0.009 A 
ATOM     71  C   UNL A   1      40.811  34.465  36.461  1.00  0.00     0.009 A 
ATOM     72  C   UNL A   1      42.285  36.728  35.764  1.00  0.00     0.001 A 
ATOM     73  C   UNL A   1      40.914  35.534  37.353  1.00  0.00     0.001 A 
ATOM     74  C   UNL A   1      41.661  36.659  37.010  1.00  0.00     0.000 A 
ENDBRANCH  55  69
BRANCH  56  75
ATOM     75  C   UNL A   1      40.299  27.208  28.491  1.00  0.00    -0.014 A 
ATOM     76  C   UNL A   1      40.847  27.395  27.213  1.00  0.00     0.009 A 
ATOM     77  C   UNL A   1      39.621  26.009  28.768  1.00  0.00     0.009 A 
ATOM     78  C   UNL A   1      40.705  26.411  26.231  1.00  0.00     0.001 A 
ATOM     79  C   UNL A   1      39.507  25.015  27.796  1.00  0.00     0.001 A 
ATOM     80  C   UNL A   1      40.041  25.220  26.525  1.00  0.00     0.000 A 
ENDBRANCH  56  75
BRANCH  68  81
ATOM     81  C   UNL A   1      45.213  28.705  33.211  1.00  0.00    -0.014 A 
ATOM     82  C   UNL A   1      46.423  29.092  32.614  1.00  0.00     0.009 A 
ATOM     83  C   UNL A   1      45.232  27.718  34.209  1.00  0.00     0.009 A 
ATOM     84  C   UNL A   1      47.621  28.482  32.990  1.00  0.00     0.001 A 
ATOM     85  C   UNL A   1      46.435  27.133  34.606  1.00  0.00     0.001 A 
ATOM     86  C   UNL A   1      47.627  27.509  33.990  1.00  0.00     0.000 A 
ENDBRANCH  68  81
ENDBRANCH  42  43
ENDBRANCH  35  37
ENDBRANCH  34  35
ENDBRANCH  33  34
ENDBRANCH  32  33
ENDBRANCH   1  32
TORSDOF 17
ENDMDL
