MODEL 1
REMARK VINA RESULT:     -11.6      0.000      0.000
REMARK SMILES CC(=O)Nc1ccc(/C=C2/CCc3oc(C(=O)OCCOCCOC(=O)c4ccc(-c5c6nc(c(-c7ccccc7)c7ccc([nH]7)c(-c7ccccc7)c7nc(c(-c8ccccc8)c8ccc5[nH]8)C=C7)C=C6)cc4)c(C)c3C2=O)cc1
REMARK SMILES IDX 21 1 20 2 19 3 18 4 16 5 17 6 15 7 9 8 10 9 11 10 78 11
REMARK SMILES IDX 12 12 77 13 79 14 13 15 75 16 14 17 76 18 8 19 5 20 6 21
REMARK SMILES IDX 81 22 7 23 80 24 4 25 1 26 2 27 3 28 22 30 23 31 24 32 25 33
REMARK SMILES IDX 26 34 27 35 28 36 74 37 29 38 73 39 30 40 31 41 32 42 67 43
REMARK SMILES IDX 33 44 72 45 66 46 68 47 34 48 71 49 65 50 64 51 35 53 57 54
REMARK SMILES IDX 42 55 56 56 43 57 46 58 55 59 69 60 44 61 45 62 54 64 70 65
REMARK SMILES IDX 47 66 36 67 37 68 41 69 38 70 40 71 39 72 58 73 59 74 63 75
REMARK SMILES IDX 60 76 62 77 61 78 48 79 49 80 53 81 50 82 52 83 51 84
REMARK H PARENT 4 29 68 52 46 63
REMARK Flexibility Score: inf
ROOT
ATOM      1  O   UNL A   1      41.953  19.725  26.778  1.00  0.00    -0.374 OA
ENDROOT
BRANCH   1   2
ATOM      2  C   UNL A   1      40.572  19.946  26.497  1.00  0.00     0.202 C 
BRANCH   2   3
ATOM      3  C   UNL A   1      40.100  21.393  26.316  1.00  0.00     0.261 C 
BRANCH   3   4
ATOM      4  O   UNL A   1      38.932  21.499  25.487  1.00  0.00    -0.457 OA
BRANCH   4   5
ATOM      5  C   UNL A   1      38.090  22.525  25.815  1.00  0.00     0.374 C 
ATOM      6  O   UNL A   1      38.447  23.632  26.190  1.00  0.00    -0.242 OA
BRANCH   5   7
ATOM      7  C   UNL A   1      36.724  22.169  25.496  1.00  0.00     0.215 A 
ATOM      8  C   UNL A   1      31.310  23.014  24.962  1.00  0.00     0.016 C 
ATOM      9  C   UNL A   1      32.250  22.052  24.861  1.00  0.00     0.001 C 
ATOM     10  C   UNL A   1      32.314  20.847  25.791  1.00  0.00     0.048 C 
ATOM     11  C   UNL A   1      33.412  22.115  23.913  1.00  0.00     0.192 C 
ATOM     12  C   UNL A   1      33.586  20.864  26.674  1.00  0.00     0.081 C 
ATOM     13  C   UNL A   1      34.659  21.999  24.639  1.00  0.00     0.067 A 
ATOM     14  O   UNL A   1      33.316  22.263  22.705  1.00  0.00    -0.289 OA
ATOM     15  C   UNL A   1      34.712  21.422  25.885  1.00  0.00     0.116 A 
ATOM     16  C   UNL A   1      35.976  22.446  24.352  1.00  0.00     0.014 A 
ATOM     17  O   UNL A   1      35.957  21.490  26.413  1.00  0.00    -0.453 OA
ATOM     18  C   UNL A   1      36.432  23.128  23.112  1.00  0.00     0.049 C 
BRANCH   8  19
ATOM     19  C   UNL A   1      31.187  24.333  24.297  1.00  0.00    -0.025 A 
ATOM     20  C   UNL A   1      31.195  26.900  23.077  1.00  0.00     0.041 A 
ATOM     21  C   UNL A   1      30.712  25.790  22.393  1.00  0.00     0.027 A 
ATOM     22  C   UNL A   1      31.638  26.741  24.389  1.00  0.00     0.027 A 
ATOM     23  C   UNL A   1      30.756  24.520  22.979  1.00  0.00     0.010 A 
ATOM     24  C   UNL A   1      31.622  25.473  24.994  1.00  0.00     0.010 A 
BRANCH  20  25
ATOM     25  N   UNL A   1      31.167  28.125  22.401  1.00  0.00    -0.326 N 
ATOM     26  C   UNL A   1      28.910  28.898  23.080  1.00  0.00     0.114 C 
ATOM     27  C   UNL A   1      30.154  29.027  22.244  1.00  0.00     0.221 C 
ATOM     28  O   UNL A   1      30.313  29.985  21.485  1.00  0.00    -0.275 OA
ATOM     29  H   UNL A   1      32.015  28.377  21.966  1.00  0.00     0.169 HD
ENDBRANCH  20  25
ENDBRANCH   8  19
ENDBRANCH   5   7
ENDBRANCH   4   5
ENDBRANCH   3   4
ENDBRANCH   2   3
ENDBRANCH   1   2
BRANCH   1  30
ATOM     30  C   UNL A   1      42.600  18.577  26.244  1.00  0.00     0.202 C 
BRANCH  30  31
ATOM     31  C   UNL A   1      43.939  18.752  25.545  1.00  0.00     0.261 C 
BRANCH  31  32
ATOM     32  O   UNL A   1      44.497  20.045  25.719  1.00  0.00    -0.460 OA
BRANCH  32  33
ATOM     33  C   UNL A   1      44.518  20.779  24.582  1.00  0.00     0.338 C 
ATOM     34  O   UNL A   1      44.692  20.380  23.446  1.00  0.00    -0.246 OA
BRANCH  33  35
ATOM     35  C   UNL A   1      44.491  22.198  24.950  1.00  0.00     0.060 A 
ATOM     36  C   UNL A   1      45.453  22.637  25.863  1.00  0.00     0.016 A 
ATOM     37  C   UNL A   1      43.379  22.984  24.610  1.00  0.00     0.016 A 
ATOM     38  C   UNL A   1      45.209  23.795  26.566  1.00  0.00     0.010 A 
ATOM     39  C   UNL A   1      43.124  24.125  25.330  1.00  0.00     0.010 A 
ATOM     40  C   UNL A   1      44.006  24.479  26.346  1.00  0.00    -0.014 A 
BRANCH  40  41
ATOM     41  C   UNL A   1      43.758  25.694  27.091  1.00  0.00     0.031 A 
ATOM     42  C   UNL A   1      44.758  26.739  26.783  1.00  0.00     0.074 A 
ATOM     43  C   UNL A   1      42.673  25.872  27.868  1.00  0.00     0.049 A 
ATOM     44  N   UNL A   1      45.690  27.175  27.561  1.00  0.00    -0.248 NA
ATOM     45  C   UNL A   1      44.868  27.207  25.389  1.00  0.00     0.031 C 
ATOM     46  C   UNL A   1      41.509  24.995  28.012  1.00  0.00     0.029 A 
ATOM     47  N   UNL A   1      42.332  26.951  28.624  1.00  0.00    -0.354 N 
ATOM     48  C   UNL A   1      46.358  28.145  26.827  1.00  0.00     0.074 A 
ATOM     49  C   UNL A   1      45.965  27.960  25.454  1.00  0.00     0.031 C 
ATOM     50  C   UNL A   1      40.501  25.685  28.598  1.00  0.00     0.029 A 
ATOM     51  C   UNL A   1      40.990  26.998  28.986  1.00  0.00     0.049 A 
ATOM     52  H   UNL A   1      42.981  27.641  28.893  1.00  0.00     0.167 HD
ATOM     53  C   UNL A   1      46.910  29.221  27.449  1.00  0.00     0.031 A 
ATOM     54  C   UNL A   1      40.328  28.065  29.503  1.00  0.00     0.031 A 
ATOM     55  C   UNL A   1      47.065  28.986  28.864  1.00  0.00     0.049 A 
ATOM     56  C   UNL A   1      41.340  29.010  30.028  1.00  0.00     0.074 A 
ATOM     57  C   UNL A   1      47.729  28.049  29.631  1.00  0.00     0.029 A 
ATOM     58  N   UNL A   1      46.127  29.558  29.689  1.00  0.00    -0.354 N 
ATOM     59  N   UNL A   1      42.067  28.767  31.078  1.00  0.00    -0.248 NA
ATOM     60  C   UNL A   1      41.871  30.016  29.120  1.00  0.00     0.031 C 
ATOM     61  C   UNL A   1      46.861  27.788  30.731  1.00  0.00     0.029 A 
ATOM     62  C   UNL A   1      45.757  28.636  30.629  1.00  0.00     0.049 A 
ATOM     63  H   UNL A   1      45.781  30.478  29.617  1.00  0.00     0.167 HD
ATOM     64  C   UNL A   1      43.335  29.207  30.730  1.00  0.00     0.074 A 
ATOM     65  C   UNL A   1      43.131  30.062  29.561  1.00  0.00     0.031 C 
ATOM     66  C   UNL A   1      44.447  28.599  31.239  1.00  0.00     0.031 A 
BRANCH  53  67
ATOM     67  C   UNL A   1      46.815  30.619  26.880  1.00  0.00    -0.014 A 
ATOM     68  C   UNL A   1      47.943  31.453  26.979  1.00  0.00     0.009 A 
ATOM     69  C   UNL A   1      45.599  31.245  26.541  1.00  0.00     0.009 A 
ATOM     70  C   UNL A   1      47.834  32.842  26.848  1.00  0.00     0.001 A 
ATOM     71  C   UNL A   1      45.495  32.625  26.366  1.00  0.00     0.001 A 
ATOM     72  C   UNL A   1      46.608  33.429  26.553  1.00  0.00     0.000 A 
ENDBRANCH  53  67
BRANCH  54  73
ATOM     73  C   UNL A   1      38.915  28.480  29.332  1.00  0.00    -0.014 A 
ATOM     74  C   UNL A   1      38.076  28.640  30.450  1.00  0.00     0.009 A 
ATOM     75  C   UNL A   1      38.474  29.009  28.107  1.00  0.00     0.009 A 
ATOM     76  C   UNL A   1      36.867  29.345  30.352  1.00  0.00     0.001 A 
ATOM     77  C   UNL A   1      37.267  29.711  28.009  1.00  0.00     0.001 A 
ATOM     78  C   UNL A   1      36.472  29.894  29.135  1.00  0.00     0.000 A 
ENDBRANCH  54  73
BRANCH  66  79
ATOM     79  C   UNL A   1      44.263  27.646  32.397  1.00  0.00    -0.014 A 
ATOM     80  C   UNL A   1      44.078  26.260  32.253  1.00  0.00     0.009 A 
ATOM     81  C   UNL A   1      44.398  28.167  33.692  1.00  0.00     0.009 A 
ATOM     82  C   UNL A   1      43.982  25.431  33.377  1.00  0.00     0.001 A 
ATOM     83  C   UNL A   1      44.328  27.337  34.812  1.00  0.00     0.001 A 
ATOM     84  C   UNL A   1      44.110  25.970  34.654  1.00  0.00     0.000 A 
ENDBRANCH  66  79
ENDBRANCH  40  41
ENDBRANCH  33  35
ENDBRANCH  32  33
ENDBRANCH  31  32
ENDBRANCH  30  31
ENDBRANCH   1  30
TORSDOF 16
ENDMDL
MODEL 2
REMARK VINA RESULT:     -11.5      4.039      9.880
REMARK SMILES CC(=O)Nc1ccc(/C=C2/CCc3oc(C(=O)OCCOCCOC(=O)c4ccc(-c5c6nc(c(-c7ccccc7)c7ccc([nH]7)c(-c7ccccc7)c7nc(c(-c8ccccc8)c8ccc5[nH]8)C=C7)C=C6)cc4)c(C)c3C2=O)cc1
REMARK SMILES IDX 21 1 20 2 19 3 18 4 16 5 17 6 15 7 9 8 10 9 11 10 78 11
REMARK SMILES IDX 12 12 77 13 79 14 13 15 75 16 14 17 76 18 8 19 5 20 6 21
REMARK SMILES IDX 81 22 7 23 80 24 4 25 1 26 2 27 3 28 22 30 23 31 24 32 25 33
REMARK SMILES IDX 26 34 27 35 28 36 74 37 29 38 73 39 30 40 31 41 32 42 67 43
REMARK SMILES IDX 33 44 72 45 66 46 68 47 34 48 71 49 65 50 64 51 35 53 57 54
REMARK SMILES IDX 42 55 56 56 43 57 46 58 55 59 69 60 44 61 45 62 54 64 70 65
REMARK SMILES IDX 47 66 36 67 37 68 41 69 38 70 40 71 39 72 58 73 59 74 63 75
REMARK SMILES IDX 60 76 62 77 61 78 48 79 49 80 53 81 50 82 52 83 51 84
REMARK H PARENT 4 29 68 52 46 63
REMARK Flexibility Score: inf
ROOT
ATOM      1  O   UNL A   1      34.477  34.121  27.870  1.00  0.00    -0.374 OA
ENDROOT
BRANCH   1   2
ATOM      2  C   UNL A   1      35.053  32.820  27.972  1.00  0.00     0.202 C 
BRANCH   2   3
ATOM      3  C   UNL A   1      34.111  31.637  28.221  1.00  0.00     0.261 C 
BRANCH   3   4
ATOM      4  O   UNL A   1      33.594  31.071  27.006  1.00  0.00    -0.457 OA
BRANCH   4   5
ATOM      5  C   UNL A   1      32.250  31.240  26.824  1.00  0.00     0.374 C 
ATOM      6  O   UNL A   1      31.619  32.234  27.151  1.00  0.00    -0.242 OA
BRANCH   5   7
ATOM      7  C   UNL A   1      31.712  30.148  26.041  1.00  0.00     0.215 A 
ATOM      8  C   UNL A   1      31.933  25.826  22.639  1.00  0.00     0.016 C 
ATOM      9  C   UNL A   1      31.061  26.623  23.288  1.00  0.00     0.001 C 
ATOM     10  C   UNL A   1      30.100  27.566  22.575  1.00  0.00     0.048 C 
ATOM     11  C   UNL A   1      31.016  26.771  24.782  1.00  0.00     0.192 C 
ATOM     12  C   UNL A   1      30.425  29.052  22.866  1.00  0.00     0.081 C 
ATOM     13  C   UNL A   1      31.175  28.161  25.153  1.00  0.00     0.067 A 
ATOM     14  O   UNL A   1      30.885  25.847  25.568  1.00  0.00    -0.289 OA
ATOM     15  C   UNL A   1      30.893  29.176  24.269  1.00  0.00     0.116 A 
ATOM     16  C   UNL A   1      31.662  28.785  26.331  1.00  0.00     0.014 A 
ATOM     17  O   UNL A   1      31.186  30.389  24.794  1.00  0.00    -0.453 OA
ATOM     18  C   UNL A   1      32.093  28.107  27.583  1.00  0.00     0.049 C 
BRANCH   8  19
ATOM     19  C   UNL A   1      33.058  24.997  23.137  1.00  0.00    -0.025 A 
ATOM     20  C   UNL A   1      35.289  23.391  23.852  1.00  0.00     0.041 A 
ATOM     21  C   UNL A   1      35.043  24.595  24.503  1.00  0.00     0.027 A 
ATOM     22  C   UNL A   1      34.399  22.963  22.870  1.00  0.00     0.027 A 
ATOM     23  C   UNL A   1      33.972  25.406  24.114  1.00  0.00     0.010 A 
ATOM     24  C   UNL A   1      33.289  23.753  22.526  1.00  0.00     0.010 A 
BRANCH  20  25
ATOM     25  N   UNL A   1      36.413  22.664  24.264  1.00  0.00    -0.326 N 
ATOM     26  C   UNL A   1      35.374  21.324  26.074  1.00  0.00     0.114 C 
ATOM     27  C   UNL A   1      36.579  21.812  25.317  1.00  0.00     0.221 C 
ATOM     28  O   UNL A   1      37.706  21.383  25.573  1.00  0.00    -0.275 OA
ATOM     29  H   UNL A   1      37.214  22.790  23.703  1.00  0.00     0.169 HD
ENDBRANCH  20  25
ENDBRANCH   8  19
ENDBRANCH   5   7
ENDBRANCH   4   5
ENDBRANCH   3   4
ENDBRANCH   2   3
ENDBRANCH   1   2
BRANCH   1  30
ATOM     30  C   UNL A   1      33.400  34.480  28.726  1.00  0.00     0.202 C 
BRANCH  30  31
ATOM     31  C   UNL A   1      33.707  35.240  30.006  1.00  0.00     0.261 C 
BRANCH  31  32
ATOM     32  O   UNL A   1      33.225  34.591  31.172  1.00  0.00    -0.460 OA
BRANCH  32  33
ATOM     33  C   UNL A   1      33.848  34.989  32.306  1.00  0.00     0.338 C 
ATOM     34  O   UNL A   1      33.639  35.999  32.951  1.00  0.00    -0.246 OA
BRANCH  33  35
ATOM     35  C   UNL A   1      34.982  34.092  32.547  1.00  0.00     0.060 A 
ATOM     36  C   UNL A   1      36.229  34.686  32.762  1.00  0.00     0.016 A 
ATOM     37  C   UNL A   1      34.850  32.719  32.290  1.00  0.00     0.016 A 
ATOM     38  C   UNL A   1      37.360  33.931  32.547  1.00  0.00     0.010 A 
ATOM     39  C   UNL A   1      35.979  31.974  32.052  1.00  0.00     0.010 A 
ATOM     40  C   UNL A   1      37.217  32.606  32.116  1.00  0.00    -0.014 A 
BRANCH  40  41
ATOM     41  C   UNL A   1      38.411  31.822  31.892  1.00  0.00     0.031 A 
ATOM     42  C   UNL A   1      39.119  31.528  33.157  1.00  0.00     0.074 A 
ATOM     43  C   UNL A   1      38.751  31.324  30.688  1.00  0.00     0.049 A 
ATOM     44  N   UNL A   1      40.247  32.016  33.546  1.00  0.00    -0.248 NA
ATOM     45  C   UNL A   1      38.399  30.769  34.197  1.00  0.00     0.031 C 
ATOM     46  C   UNL A   1      37.969  31.342  29.449  1.00  0.00     0.029 A 
ATOM     47  N   UNL A   1      39.843  30.590  30.343  1.00  0.00    -0.354 N 
ATOM     48  C   UNL A   1      40.491  31.439  34.785  1.00  0.00     0.074 A 
ATOM     49  C   UNL A   1      39.241  30.876  35.225  1.00  0.00     0.031 C 
ATOM     50  C   UNL A   1      38.494  30.447  28.578  1.00  0.00     0.029 A 
ATOM     51  C   UNL A   1      39.715  29.897  29.144  1.00  0.00     0.049 A 
ATOM     52  H   UNL A   1      40.656  30.552  30.897  1.00  0.00     0.167 HD
ATOM     53  C   UNL A   1      41.764  31.181  35.186  1.00  0.00     0.031 A 
ATOM     54  C   UNL A   1      40.523  28.902  28.694  1.00  0.00     0.031 A 
ATOM     55  C   UNL A   1      42.721  31.929  34.408  1.00  0.00     0.049 A 
ATOM     56  C   UNL A   1      41.792  28.975  29.455  1.00  0.00     0.074 A 
ATOM     57  C   UNL A   1      42.942  33.270  34.160  1.00  0.00     0.029 A 
ATOM     58  N   UNL A   1      43.376  31.244  33.414  1.00  0.00    -0.354 N 
ATOM     59  N   UNL A   1      42.654  29.938  29.313  1.00  0.00    -0.248 NA
ATOM     60  C   UNL A   1      41.884  28.232  30.702  1.00  0.00     0.031 C 
ATOM     61  C   UNL A   1      43.328  33.334  32.789  1.00  0.00     0.029 A 
ATOM     62  C   UNL A   1      43.407  32.030  32.295  1.00  0.00     0.049 A 
ATOM     63  H   UNL A   1      43.758  30.340  33.493  1.00  0.00     0.167 HD
ATOM     64  C   UNL A   1      43.058  30.233  30.607  1.00  0.00     0.074 A 
ATOM     65  C   UNL A   1      42.635  29.083  31.407  1.00  0.00     0.031 C 
ATOM     66  C   UNL A   1      43.424  31.504  30.949  1.00  0.00     0.031 A 
BRANCH  53  67
ATOM     67  C   UNL A   1      42.142  29.900  35.896  1.00  0.00    -0.014 A 
ATOM     68  C   UNL A   1      43.294  29.905  36.703  1.00  0.00     0.009 A 
ATOM     69  C   UNL A   1      41.610  28.637  35.568  1.00  0.00     0.009 A 
ATOM     70  C   UNL A   1      43.931  28.714  37.070  1.00  0.00     0.001 A 
ATOM     71  C   UNL A   1      42.217  27.446  35.969  1.00  0.00     0.001 A 
ATOM     72  C   UNL A   1      43.397  27.485  36.693  1.00  0.00     0.000 A 
ENDBRANCH  53  67
BRANCH  54  73
ATOM     73  C   UNL A   1      40.198  27.715  27.869  1.00  0.00    -0.014 A 
ATOM     74  C   UNL A   1      40.869  27.481  26.655  1.00  0.00     0.009 A 
ATOM     75  C   UNL A   1      39.448  26.657  28.412  1.00  0.00     0.009 A 
ATOM     76  C   UNL A   1      40.830  26.222  26.038  1.00  0.00     0.001 A 
ATOM     77  C   UNL A   1      39.408  25.401  27.796  1.00  0.00     0.001 A 
ATOM     78  C   UNL A   1      40.114  25.178  26.618  1.00  0.00     0.000 A 
ENDBRANCH  54  73
BRANCH  66  79
ATOM     79  C   UNL A   1      43.658  32.495  29.834  1.00  0.00    -0.014 A 
ATOM     80  C   UNL A   1      42.732  33.482  29.452  1.00  0.00     0.009 A 
ATOM     81  C   UNL A   1      44.920  32.497  29.222  1.00  0.00     0.009 A 
ATOM     82  C   UNL A   1      43.048  34.411  28.453  1.00  0.00     0.001 A 
ATOM     83  C   UNL A   1      45.244  33.438  28.245  1.00  0.00     0.001 A 
ATOM     84  C   UNL A   1      44.304  34.389  27.852  1.00  0.00     0.000 A 
ENDBRANCH  66  79
ENDBRANCH  40  41
ENDBRANCH  33  35
ENDBRANCH  32  33
ENDBRANCH  31  32
ENDBRANCH  30  31
ENDBRANCH   1  30
TORSDOF 16
ENDMDL
MODEL 3
REMARK VINA RESULT:     -11.5      3.372      8.196
REMARK SMILES CC(=O)Nc1ccc(/C=C2/CCc3oc(C(=O)OCCOCCOC(=O)c4ccc(-c5c6nc(c(-c7ccccc7)c7ccc([nH]7)c(-c7ccccc7)c7nc(c(-c8ccccc8)c8ccc5[nH]8)C=C7)C=C6)cc4)c(C)c3C2=O)cc1
REMARK SMILES IDX 21 1 20 2 19 3 18 4 16 5 17 6 15 7 9 8 10 9 11 10 78 11
REMARK SMILES IDX 12 12 77 13 79 14 13 15 75 16 14 17 76 18 8 19 5 20 6 21
REMARK SMILES IDX 81 22 7 23 80 24 4 25 1 26 2 27 3 28 22 30 23 31 24 32 25 33
REMARK SMILES IDX 26 34 27 35 28 36 74 37 29 38 73 39 30 40 31 41 32 42 67 43
REMARK SMILES IDX 33 44 72 45 66 46 68 47 34 48 71 49 65 50 64 51 35 53 57 54
REMARK SMILES IDX 42 55 56 56 43 57 46 58 55 59 69 60 44 61 45 62 54 64 70 65
REMARK SMILES IDX 47 66 36 67 37 68 41 69 38 70 40 71 39 72 58 73 59 74 63 75
REMARK SMILES IDX 60 76 62 77 61 78 48 79 49 80 53 81 50 82 52 83 51 84
REMARK H PARENT 4 29 68 52 46 63
REMARK Flexibility Score: inf
ROOT
ATOM      1  O   UNL A   1      34.851  32.194  27.381  1.00  0.00    -0.374 OA
ENDROOT
BRANCH   1   2
ATOM      2  C   UNL A   1      33.646  31.472  27.627  1.00  0.00     0.202 C 
BRANCH   2   3
ATOM      3  C   UNL A   1      33.565  30.023  27.136  1.00  0.00     0.261 C 
BRANCH   3   4
ATOM      4  O   UNL A   1      32.273  29.683  26.609  1.00  0.00    -0.457 OA
BRANCH   4   5
ATOM      5  C   UNL A   1      31.868  28.403  26.869  1.00  0.00     0.374 C 
ATOM      6  O   UNL A   1      31.436  28.009  27.942  1.00  0.00    -0.242 OA
BRANCH   5   7
ATOM      7  C   UNL A   1      31.869  27.623  25.649  1.00  0.00     0.215 A 
ATOM      8  C   UNL A   1      33.333  23.469  22.347  1.00  0.00     0.016 C 
ATOM      9  C   UNL A   1      32.612  24.609  22.365  1.00  0.00     0.001 C 
ATOM     10  C   UNL A   1      32.975  25.838  21.542  1.00  0.00     0.048 C 
ATOM     11  C   UNL A   1      31.449  24.848  23.283  1.00  0.00     0.192 C 
ATOM     12  C   UNL A   1      33.378  27.036  22.438  1.00  0.00     0.081 C 
ATOM     13  C   UNL A   1      31.672  26.039  24.075  1.00  0.00     0.067 A 
ATOM     14  O   UNL A   1      30.466  24.128  23.363  1.00  0.00    -0.289 OA
ATOM     15  C   UNL A   1      32.546  27.019  23.667  1.00  0.00     0.116 A 
ATOM     16  C   UNL A   1      31.185  26.446  25.345  1.00  0.00     0.014 A 
ATOM     17  O   UNL A   1      32.661  28.000  24.591  1.00  0.00    -0.453 OA
ATOM     18  C   UNL A   1      30.202  25.722  26.194  1.00  0.00     0.049 C 
BRANCH   8  19
ATOM     19  C   UNL A   1      33.262  22.255  23.197  1.00  0.00    -0.025 A 
ATOM     20  C   UNL A   1      33.147  19.794  24.612  1.00  0.00     0.041 A 
ATOM     21  C   UNL A   1      34.040  20.790  24.991  1.00  0.00     0.027 A 
ATOM     22  C   UNL A   1      32.278  20.038  23.550  1.00  0.00     0.027 A 
ATOM     23  C   UNL A   1      34.128  21.981  24.261  1.00  0.00     0.010 A 
ATOM     24  C   UNL A   1      32.329  21.261  22.860  1.00  0.00     0.010 A 
BRANCH  20  25
ATOM     25  N   UNL A   1      33.159  18.611  25.360  1.00  0.00    -0.326 N 
ATOM     26  C   UNL A   1      34.215  17.105  23.696  1.00  0.00     0.114 C 
ATOM     27  C   UNL A   1      33.504  17.340  25.000  1.00  0.00     0.221 C 
ATOM     28  O   UNL A   1      33.307  16.415  25.792  1.00  0.00    -0.275 OA
ATOM     29  H   UNL A   1      32.873  18.712  26.298  1.00  0.00     0.169 HD
ENDBRANCH  20  25
ENDBRANCH   8  19
ENDBRANCH   5   7
ENDBRANCH   4   5
ENDBRANCH   3   4
ENDBRANCH   2   3
ENDBRANCH   1   2
BRANCH   1  30
ATOM     30  C   UNL A   1      35.521  32.827  28.464  1.00  0.00     0.202 C 
BRANCH  30  31
ATOM     31  C   UNL A   1      36.009  31.972  29.621  1.00  0.00     0.261 C 
BRANCH  31  32
ATOM     32  O   UNL A   1      37.116  31.150  29.284  1.00  0.00    -0.460 OA
BRANCH  32  33
ATOM     33  C   UNL A   1      36.816  29.831  29.250  1.00  0.00     0.338 C 
ATOM     34  O   UNL A   1      35.787  29.295  29.618  1.00  0.00    -0.246 OA
BRANCH  33  35
ATOM     35  C   UNL A   1      38.024  29.094  28.869  1.00  0.00     0.060 A 
ATOM     36  C   UNL A   1      38.537  28.187  29.801  1.00  0.00     0.016 A 
ATOM     37  C   UNL A   1      38.762  29.500  27.746  1.00  0.00     0.016 A 
ATOM     38  C   UNL A   1      39.860  27.820  29.698  1.00  0.00     0.010 A 
ATOM     39  C   UNL A   1      40.088  29.153  27.660  1.00  0.00     0.010 A 
ATOM     40  C   UNL A   1      40.638  28.374  28.674  1.00  0.00    -0.014 A 
BRANCH  40  41
ATOM     41  C   UNL A   1      42.027  27.984  28.576  1.00  0.00     0.031 A 
ATOM     42  C   UNL A   1      42.184  26.690  27.876  1.00  0.00     0.074 A 
ATOM     43  C   UNL A   1      43.044  28.774  28.967  1.00  0.00     0.049 A 
ATOM     44  N   UNL A   1      42.536  25.564  28.398  1.00  0.00    -0.248 NA
ATOM     45  C   UNL A   1      41.698  26.586  26.488  1.00  0.00     0.031 C 
ATOM     46  C   UNL A   1      42.985  30.168  29.416  1.00  0.00     0.029 A 
ATOM     47  N   UNL A   1      44.381  28.523  28.941  1.00  0.00    -0.354 N 
ATOM     48  C   UNL A   1      42.542  24.657  27.347  1.00  0.00     0.074 A 
ATOM     49  C   UNL A   1      41.813  25.276  26.271  1.00  0.00     0.031 C 
ATOM     50  C   UNL A   1      44.230  30.701  29.376  1.00  0.00     0.029 A 
ATOM     51  C   UNL A   1      45.181  29.657  29.030  1.00  0.00     0.049 A 
ATOM     52  H   UNL A   1      44.751  27.614  28.866  1.00  0.00     0.167 HD
ATOM     53  C   UNL A   1      43.427  23.625  27.333  1.00  0.00     0.031 A 
ATOM     54  C   UNL A   1      46.512  29.731  28.771  1.00  0.00     0.031 A 
ATOM     55  C   UNL A   1      43.979  23.389  28.645  1.00  0.00     0.049 A 
ATOM     56  C   UNL A   1      47.055  28.353  28.812  1.00  0.00     0.074 A 
ATOM     57  C   UNL A   1      43.453  23.083  29.884  1.00  0.00     0.029 A 
ATOM     58  N   UNL A   1      45.243  23.876  28.877  1.00  0.00    -0.354 N 
ATOM     59  N   UNL A   1      47.158  27.659  29.908  1.00  0.00    -0.248 NA
ATOM     60  C   UNL A   1      47.048  27.579  27.581  1.00  0.00     0.031 C 
ATOM     61  C   UNL A   1      44.243  23.819  30.815  1.00  0.00     0.029 A 
ATOM     62  C   UNL A   1      45.259  24.467  30.110  1.00  0.00     0.049 A 
ATOM     63  H   UNL A   1      46.007  23.810  28.259  1.00  0.00     0.167 HD
ATOM     64  C   UNL A   1      46.746  26.385  29.549  1.00  0.00     0.074 A 
ATOM     65  C   UNL A   1      46.795  26.369  28.086  1.00  0.00     0.031 C 
ATOM     66  C   UNL A   1      46.124  25.573  30.455  1.00  0.00     0.031 A 
BRANCH  53  67
ATOM     67  C   UNL A   1      44.152  23.200  26.076  1.00  0.00    -0.014 A 
ATOM     68  C   UNL A   1      44.160  21.833  25.744  1.00  0.00     0.009 A 
ATOM     69  C   UNL A   1      45.072  24.018  25.389  1.00  0.00     0.009 A 
ATOM     70  C   UNL A   1      45.102  21.305  24.854  1.00  0.00     0.001 A 
ATOM     71  C   UNL A   1      45.984  23.502  24.468  1.00  0.00     0.001 A 
ATOM     72  C   UNL A   1      46.021  22.139  24.225  1.00  0.00     0.000 A 
ENDBRANCH  53  67
BRANCH  54  73
ATOM     73  C   UNL A   1      47.310  30.846  28.210  1.00  0.00    -0.014 A 
ATOM     74  C   UNL A   1      46.942  31.449  26.993  1.00  0.00     0.009 A 
ATOM     75  C   UNL A   1      48.252  31.517  29.009  1.00  0.00     0.009 A 
ATOM     76  C   UNL A   1      47.461  32.697  26.618  1.00  0.00     0.001 A 
ATOM     77  C   UNL A   1      48.771  32.762  28.634  1.00  0.00     0.001 A 
ATOM     78  C   UNL A   1      48.362  33.361  27.447  1.00  0.00     0.000 A 
ENDBRANCH  54  73
BRANCH  66  79
ATOM     79  C   UNL A   1      46.162  25.980  31.908  1.00  0.00    -0.014 A 
ATOM     80  C   UNL A   1      45.131  26.684  32.555  1.00  0.00     0.009 A 
ATOM     81  C   UNL A   1      47.242  25.527  32.680  1.00  0.00     0.009 A 
ATOM     82  C   UNL A   1      45.208  26.966  33.925  1.00  0.00     0.001 A 
ATOM     83  C   UNL A   1      47.306  25.786  34.050  1.00  0.00     0.001 A 
ATOM     84  C   UNL A   1      46.294  26.515  34.670  1.00  0.00     0.000 A 
ENDBRANCH  66  79
ENDBRANCH  40  41
ENDBRANCH  33  35
ENDBRANCH  32  33
ENDBRANCH  31  32
ENDBRANCH  30  31
ENDBRANCH   1  30
TORSDOF 16
ENDMDL
