MODEL 1
REMARK VINA RESULT:     -12.3      0.000      0.000
REMARK SMILES Cc1ccc([C@@]23C[C@@H]4C[C@@H](C[C@@](C(=O)N5CCC(C(=O)OCCOCCOC(=O)c6ccc(-c7c8nc(c(-c9ccccc9)c9ccc([nH]9)c(-c9ccccc9)c9nc(c(-c%10ccccc%10)c%10ccc7[nH]%10)C=C9)C=C8)cc6)CC5)(C4)C2)C3)cc1
REMARK SMILES IDX 24 1 23 2 22 3 21 4 19 5 20 6 18 7 13 8 14 9 15 10 16 11
REMARK SMILES IDX 79 12 17 13 78 14 12 15 6 16 7 17 81 18 82 19 8 20 10 21
REMARK SMILES IDX 9 22 80 23 11 24 5 25 1 26 2 27 3 28 84 29 4 30 83 31 25 32
REMARK SMILES IDX 26 33 27 34 28 35 29 36 30 37 31 38 77 39 32 40 76 41 33 42
REMARK SMILES IDX 34 43 35 44 70 45 36 46 75 47 69 48 71 49 37 50 74 51 68 52
REMARK SMILES IDX 67 53 38 55 60 56 45 57 59 58 46 59 49 60 58 61 72 62 47 63
REMARK SMILES IDX 48 64 57 66 73 67 50 68 39 69 40 70 44 71 41 72 43 73 42 74
REMARK SMILES IDX 61 75 62 76 66 77 63 78 65 79 64 80 51 81 52 82 56 83 53 84
REMARK SMILES IDX 55 85 54 86
REMARK H PARENT 71 54 49 65
REMARK Flexibility Score: inf
ROOT
ATOM      1  O   UNL A   1      34.794  33.653  27.854  1.00  0.00    -0.374 OA
ENDROOT
BRANCH   1   2
ATOM      2  C   UNL A   1      35.256  32.317  27.952  1.00  0.00     0.202 C 
BRANCH   2   3
ATOM      3  C   UNL A   1      34.023  31.479  27.973  1.00  0.00     0.261 C 
BRANCH   3   4
ATOM      4  O   UNL A   1      33.846  30.754  26.752  1.00  0.00    -0.463 OA
BRANCH   4   5
ATOM      5  C   UNL A   1      33.910  29.381  26.771  1.00  0.00     0.309 C 
ATOM      6  O   UNL A   1      34.734  28.687  27.316  1.00  0.00    -0.252 OA
BRANCH   5   7
ATOM      7  C   UNL A   1      32.711  28.862  26.013  1.00  0.00     0.103 C 
ATOM      8  C   UNL A   1      31.880  24.986  25.922  1.00  0.00     0.228 C 
ATOM      9  O   UNL A   1      31.637  24.629  27.076  1.00  0.00    -0.274 OA
ATOM     10  N   UNL A   1      31.622  26.297  25.482  1.00  0.00    -0.342 N 
ATOM     11  C   UNL A   1      30.825  27.176  26.315  1.00  0.00     0.120 C 
ATOM     12  C   UNL A   1      32.247  27.014  24.359  1.00  0.00     0.120 C 
ATOM     13  C   UNL A   1      31.744  28.175  26.991  1.00  0.00     0.037 C 
ATOM     14  C   UNL A   1      33.278  27.957  24.905  1.00  0.00     0.037 C 
BRANCH   8  15
ATOM     15  C   UNL A   1      32.400  23.973  24.887  1.00  0.00     0.051 C 
ATOM     16  C   UNL A   1      34.622  22.785  24.378  1.00  0.00    -0.003 C 
ATOM     17  C   UNL A   1      33.832  21.460  24.613  1.00  0.00     0.015 C 
ATOM     18  C   UNL A   1      33.912  23.905  25.129  1.00  0.00     0.028 C 
ATOM     19  C   UNL A   1      34.503  23.187  22.888  1.00  0.00     0.015 C 
ATOM     20  C   UNL A   1      32.369  21.571  24.140  1.00  0.00    -0.009 C 
ATOM     21  C   UNL A   1      33.009  23.357  22.495  1.00  0.00    -0.009 C 
ATOM     22  C   UNL A   1      32.324  21.991  22.664  1.00  0.00     0.007 C 
ATOM     23  C   UNL A   1      31.648  22.630  24.977  1.00  0.00     0.020 C 
ATOM     24  C   UNL A   1      32.290  24.406  23.398  1.00  0.00     0.020 C 
BRANCH  16  25
ATOM     25  C   UNL A   1      36.068  22.655  24.899  1.00  0.00    -0.042 A 
ATOM     26  C   UNL A   1      40.037  22.209  26.609  1.00  0.00     0.044 C 
ATOM     27  C   UNL A   1      38.670  22.343  26.013  1.00  0.00    -0.051 A 
ATOM     28  C   UNL A   1      38.002  23.554  26.129  1.00  0.00     0.004 A 
ATOM     29  C   UNL A   1      38.044  21.291  25.336  1.00  0.00     0.004 A 
ATOM     30  C   UNL A   1      36.736  23.708  25.568  1.00  0.00     0.004 A 
ATOM     31  C   UNL A   1      36.760  21.443  24.789  1.00  0.00     0.004 A 
ENDBRANCH  16  25
ENDBRANCH   8  15
ENDBRANCH   5   7
ENDBRANCH   4   5
ENDBRANCH   3   4
ENDBRANCH   2   3
ENDBRANCH   1   2
BRANCH   1  32
ATOM     32  C   UNL A   1      33.425  33.849  28.138  1.00  0.00     0.202 C 
BRANCH  32  33
ATOM     33  C   UNL A   1      33.176  34.798  29.321  1.00  0.00     0.261 C 
BRANCH  33  34
ATOM     34  O   UNL A   1      34.388  34.924  30.097  1.00  0.00    -0.460 OA
BRANCH  34  35
ATOM     35  C   UNL A   1      34.455  34.204  31.251  1.00  0.00     0.338 C 
ATOM     36  O   UNL A   1      33.514  33.950  31.985  1.00  0.00    -0.246 OA
BRANCH  35  37
ATOM     37  C   UNL A   1      35.886  34.035  31.650  1.00  0.00     0.060 A 
ATOM     38  C   UNL A   1      36.913  34.359  30.742  1.00  0.00     0.016 A 
ATOM     39  C   UNL A   1      36.169  33.243  32.759  1.00  0.00     0.016 A 
ATOM     40  C   UNL A   1      38.173  33.747  30.850  1.00  0.00     0.010 A 
ATOM     41  C   UNL A   1      37.374  32.573  32.806  1.00  0.00     0.010 A 
ATOM     42  C   UNL A   1      38.369  32.778  31.832  1.00  0.00    -0.014 A 
BRANCH  42  43
ATOM     43  C   UNL A   1      39.469  31.805  31.886  1.00  0.00     0.031 A 
ATOM     44  C   UNL A   1      39.346  30.590  31.058  1.00  0.00     0.074 A 
ATOM     45  C   UNL A   1      40.678  32.116  32.423  1.00  0.00     0.049 A 
ATOM     46  N   UNL A   1      40.168  29.607  31.127  1.00  0.00    -0.248 NA
ATOM     47  C   UNL A   1      38.271  30.347  30.095  1.00  0.00     0.031 C 
ATOM     48  C   UNL A   1      41.992  31.517  32.168  1.00  0.00     0.029 A 
ATOM     49  N   UNL A   1      40.984  33.078  33.385  1.00  0.00    -0.354 N 
ATOM     50  C   UNL A   1      39.994  28.852  29.998  1.00  0.00     0.074 A 
ATOM     51  C   UNL A   1      38.711  29.246  29.480  1.00  0.00     0.031 C 
ATOM     52  C   UNL A   1      42.848  31.867  33.149  1.00  0.00     0.029 A 
ATOM     53  C   UNL A   1      42.099  32.653  34.113  1.00  0.00     0.049 A 
ATOM     54  H   UNL A   1      40.493  33.918  33.528  1.00  0.00     0.167 HD
ATOM     55  C   UNL A   1      41.046  28.104  29.569  1.00  0.00     0.031 A 
ATOM     56  C   UNL A   1      42.000  32.488  35.454  1.00  0.00     0.031 A 
ATOM     57  C   UNL A   1      42.126  28.083  30.576  1.00  0.00     0.049 A 
ATOM     58  C   UNL A   1      42.128  31.011  35.697  1.00  0.00     0.074 A 
ATOM     59  C   UNL A   1      43.426  28.558  30.613  1.00  0.00     0.029 A 
ATOM     60  N   UNL A   1      41.792  27.789  31.905  1.00  0.00    -0.354 N 
ATOM     61  N   UNL A   1      41.875  30.121  34.768  1.00  0.00    -0.248 NA
ATOM     62  C   UNL A   1      42.735  30.426  36.884  1.00  0.00     0.031 C 
ATOM     63  C   UNL A   1      43.819  28.647  31.990  1.00  0.00     0.029 A 
ATOM     64  C   UNL A   1      42.779  28.190  32.789  1.00  0.00     0.049 A 
ATOM     65  H   UNL A   1      40.956  27.349  32.179  1.00  0.00     0.167 HD
ATOM     66  C   UNL A   1      42.471  28.944  35.102  1.00  0.00     0.074 A 
ATOM     67  C   UNL A   1      42.922  29.158  36.473  1.00  0.00     0.031 C 
ATOM     68  C   UNL A   1      42.648  27.910  34.227  1.00  0.00     0.031 A 
BRANCH  55  69
ATOM     69  C   UNL A   1      41.151  27.549  28.163  1.00  0.00    -0.014 A 
ATOM     70  C   UNL A   1      41.740  28.320  27.147  1.00  0.00     0.009 A 
ATOM     71  C   UNL A   1      40.628  26.304  27.750  1.00  0.00     0.009 A 
ATOM     72  C   UNL A   1      41.827  27.860  25.820  1.00  0.00     0.001 A 
ATOM     73  C   UNL A   1      40.744  25.822  26.439  1.00  0.00     0.001 A 
ATOM     74  C   UNL A   1      41.346  26.604  25.470  1.00  0.00     0.000 A 
ENDBRANCH  55  69
BRANCH  56  75
ATOM     75  C   UNL A   1      41.144  33.555  36.070  1.00  0.00    -0.014 A 
ATOM     76  C   UNL A   1      39.895  33.125  36.595  1.00  0.00     0.009 A 
ATOM     77  C   UNL A   1      41.686  34.737  36.593  1.00  0.00     0.009 A 
ATOM     78  C   UNL A   1      39.292  33.769  37.688  1.00  0.00     0.001 A 
ATOM     79  C   UNL A   1      41.076  35.381  37.690  1.00  0.00     0.001 A 
ATOM     80  C   UNL A   1      39.904  34.879  38.259  1.00  0.00     0.000 A 
ENDBRANCH  56  75
BRANCH  68  81
ATOM     81  C   UNL A   1      42.725  26.475  34.679  1.00  0.00    -0.014 A 
ATOM     82  C   UNL A   1      41.723  25.835  35.421  1.00  0.00     0.009 A 
ATOM     83  C   UNL A   1      43.756  25.655  34.170  1.00  0.00     0.009 A 
ATOM     84  C   UNL A   1      41.768  24.462  35.671  1.00  0.00     0.001 A 
ATOM     85  C   UNL A   1      43.765  24.274  34.356  1.00  0.00     0.001 A 
ATOM     86  C   UNL A   1      42.775  23.679  35.121  1.00  0.00     0.000 A 
ENDBRANCH  68  81
ENDBRANCH  42  43
ENDBRANCH  35  37
ENDBRANCH  34  35
ENDBRANCH  33  34
ENDBRANCH  32  33
ENDBRANCH   1  32
TORSDOF 16
ENDMDL
MODEL 2
REMARK VINA RESULT:     -12.2      1.302      1.791
REMARK SMILES Cc1ccc([C@@]23C[C@@H]4C[C@@H](C[C@@](C(=O)N5CCC(C(=O)OCCOCCOC(=O)c6ccc(-c7c8nc(c(-c9ccccc9)c9ccc([nH]9)c(-c9ccccc9)c9nc(c(-c%10ccccc%10)c%10ccc7[nH]%10)C=C9)C=C8)cc6)CC5)(C4)C2)C3)cc1
REMARK SMILES IDX 24 1 23 2 22 3 21 4 19 5 20 6 18 7 13 8 14 9 15 10 16 11
REMARK SMILES IDX 79 12 17 13 78 14 12 15 6 16 7 17 81 18 82 19 8 20 10 21
REMARK SMILES IDX 9 22 80 23 11 24 5 25 1 26 2 27 3 28 84 29 4 30 83 31 25 32
REMARK SMILES IDX 26 33 27 34 28 35 29 36 30 37 31 38 77 39 32 40 76 41 33 42
REMARK SMILES IDX 34 43 35 44 70 45 36 46 75 47 69 48 71 49 37 50 74 51 68 52
REMARK SMILES IDX 67 53 38 55 60 56 45 57 59 58 46 59 49 60 58 61 72 62 47 63
REMARK SMILES IDX 48 64 57 66 73 67 50 68 39 69 40 70 44 71 41 72 43 73 42 74
REMARK SMILES IDX 61 75 62 76 66 77 63 78 65 79 64 80 51 81 52 82 56 83 53 84
REMARK SMILES IDX 55 85 54 86
REMARK H PARENT 71 54 49 65
REMARK Flexibility Score: inf
ROOT
ATOM      1  O   UNL A   1      34.968  33.217  27.796  1.00  0.00    -0.374 OA
ENDROOT
BRANCH   1   2
ATOM      2  C   UNL A   1      35.113  31.826  27.569  1.00  0.00     0.202 C 
BRANCH   2   3
ATOM      3  C   UNL A   1      33.734  31.269  27.660  1.00  0.00     0.261 C 
BRANCH   3   4
ATOM      4  O   UNL A   1      33.417  30.433  26.543  1.00  0.00    -0.463 OA
BRANCH   4   5
ATOM      5  C   UNL A   1      33.630  29.079  26.635  1.00  0.00     0.309 C 
ATOM      6  O   UNL A   1      34.490  28.507  27.260  1.00  0.00    -0.252 OA
BRANCH   5   7
ATOM      7  C   UNL A   1      32.544  28.395  25.839  1.00  0.00     0.103 C 
ATOM      8  C   UNL A   1      31.906  24.497  26.191  1.00  0.00     0.228 C 
ATOM      9  O   UNL A   1      31.558  24.279  27.353  1.00  0.00    -0.274 OA
ATOM     10  N   UNL A   1      31.637  25.722  25.554  1.00  0.00    -0.342 N 
ATOM     11  C   UNL A   1      30.715  26.653  26.178  1.00  0.00     0.120 C 
ATOM     12  C   UNL A   1      32.343  26.324  24.413  1.00  0.00     0.120 C 
ATOM     13  C   UNL A   1      31.510  27.784  26.800  1.00  0.00     0.037 C 
ATOM     14  C   UNL A   1      33.266  27.389  24.925  1.00  0.00     0.037 C 
BRANCH   8  15
ATOM     15  C   UNL A   1      32.580  23.391  25.360  1.00  0.00     0.051 C 
ATOM     16  C   UNL A   1      34.968  22.515  24.989  1.00  0.00    -0.003 C 
ATOM     17  C   UNL A   1      34.428  21.157  25.532  1.00  0.00     0.015 C 
ATOM     18  C   UNL A   1      34.084  23.632  25.530  1.00  0.00     0.028 C 
ATOM     19  C   UNL A   1      34.754  22.568  23.456  1.00  0.00     0.015 C 
ATOM     20  C   UNL A   1      32.961  20.916  25.125  1.00  0.00    -0.009 C 
ATOM     21  C   UNL A   1      33.248  22.396  23.116  1.00  0.00    -0.009 C 
ATOM     22  C   UNL A   1      32.817  21.001  23.599  1.00  0.00     0.007 C 
ATOM     23  C   UNL A   1      32.078  21.990  25.764  1.00  0.00     0.020 C 
ATOM     24  C   UNL A   1      32.370  23.475  23.822  1.00  0.00     0.020 C 
BRANCH  16  25
ATOM     25  C   UNL A   1      36.422  22.744  25.448  1.00  0.00    -0.042 A 
ATOM     26  C   UNL A   1      40.443  23.313  26.993  1.00  0.00     0.044 C 
ATOM     27  C   UNL A   1      39.062  23.098  26.456  1.00  0.00    -0.051 A 
ATOM     28  C   UNL A   1      38.152  24.145  26.502  1.00  0.00     0.004 A 
ATOM     29  C   UNL A   1      38.658  21.879  25.901  1.00  0.00     0.004 A 
ATOM     30  C   UNL A   1      36.867  23.973  25.992  1.00  0.00     0.004 A 
ATOM     31  C   UNL A   1      37.357  21.703  25.406  1.00  0.00     0.004 A 
ENDBRANCH  16  25
ENDBRANCH   8  15
ENDBRANCH   5   7
ENDBRANCH   4   5
ENDBRANCH   3   4
ENDBRANCH   2   3
ENDBRANCH   1   2
BRANCH   1  32
ATOM     32  C   UNL A   1      33.754  33.615  28.399  1.00  0.00     0.202 C 
BRANCH  32  33
ATOM     33  C   UNL A   1      33.950  34.458  29.668  1.00  0.00     0.261 C 
BRANCH  33  34
ATOM     34  O   UNL A   1      34.086  33.584  30.810  1.00  0.00    -0.460 OA
BRANCH  34  35
ATOM     35  C   UNL A   1      35.287  33.594  31.451  1.00  0.00     0.338 C 
ATOM     36  O   UNL A   1      35.745  34.530  32.087  1.00  0.00    -0.246 OA
BRANCH  35  37
ATOM     37  C   UNL A   1      36.099  32.419  31.008  1.00  0.00     0.060 A 
ATOM     38  C   UNL A   1      35.983  31.189  31.684  1.00  0.00     0.016 A 
ATOM     39  C   UNL A   1      37.194  32.651  30.180  1.00  0.00     0.016 A 
ATOM     40  C   UNL A   1      37.046  30.269  31.669  1.00  0.00     0.010 A 
ATOM     41  C   UNL A   1      38.269  31.791  30.245  1.00  0.00     0.010 A 
ATOM     42  C   UNL A   1      38.229  30.619  31.023  1.00  0.00    -0.014 A 
BRANCH  42  43
ATOM     43  C   UNL A   1      39.534  29.963  31.183  1.00  0.00     0.031 A 
ATOM     44  C   UNL A   1      39.807  28.775  30.351  1.00  0.00     0.074 A 
ATOM     45  C   UNL A   1      40.567  30.564  31.832  1.00  0.00     0.049 A 
ATOM     46  N   UNL A   1      40.846  28.037  30.499  1.00  0.00    -0.248 NA
ATOM     47  C   UNL A   1      38.925  28.284  29.290  1.00  0.00     0.031 C 
ATOM     48  C   UNL A   1      42.009  30.330  31.704  1.00  0.00     0.029 A 
ATOM     49  N   UNL A   1      40.522  31.550  32.815  1.00  0.00    -0.354 N 
ATOM     50  C   UNL A   1      40.979  27.288  29.362  1.00  0.00     0.074 A 
ATOM     51  C   UNL A   1      39.691  27.348  28.723  1.00  0.00     0.031 C 
ATOM     52  C   UNL A   1      42.650  30.868  32.760  1.00  0.00     0.029 A 
ATOM     53  C   UNL A   1      41.637  31.413  33.647  1.00  0.00     0.049 A 
ATOM     54  H   UNL A   1      39.819  32.232  32.909  1.00  0.00     0.167 HD
ATOM     55  C   UNL A   1      42.224  26.846  29.036  1.00  0.00     0.031 A 
ATOM     56  C   UNL A   1      41.462  31.198  34.973  1.00  0.00     0.031 A 
ATOM     57  C   UNL A   1      43.174  27.083  30.140  1.00  0.00     0.049 A 
ATOM     58  C   UNL A   1      41.945  29.799  35.231  1.00  0.00     0.074 A 
ATOM     59  C   UNL A   1      44.297  27.878  30.299  1.00  0.00     0.029 A 
ATOM     60  N   UNL A   1      42.808  26.684  31.433  1.00  0.00    -0.354 N 
ATOM     61  N   UNL A   1      42.019  28.895  34.285  1.00  0.00    -0.248 NA
ATOM     62  C   UNL A   1      42.571  29.365  36.472  1.00  0.00     0.031 C 
ATOM     63  C   UNL A   1      44.526  28.035  31.707  1.00  0.00     0.029 A 
ATOM     64  C   UNL A   1      43.571  27.307  32.405  1.00  0.00     0.049 A 
ATOM     65  H   UNL A   1      42.092  26.037  31.627  1.00  0.00     0.167 HD
ATOM     66  C   UNL A   1      42.866  27.905  34.677  1.00  0.00     0.074 A 
ATOM     67  C   UNL A   1      43.118  28.198  36.083  1.00  0.00     0.031 C 
ATOM     68  C   UNL A   1      43.385  26.971  33.825  1.00  0.00     0.031 A 
BRANCH  55  69
ATOM     69  C   UNL A   1      42.598  26.369  27.647  1.00  0.00    -0.014 A 
ATOM     70  C   UNL A   1      43.464  25.275  27.491  1.00  0.00     0.009 A 
ATOM     71  C   UNL A   1      42.191  26.994  26.448  1.00  0.00     0.009 A 
ATOM     72  C   UNL A   1      43.867  24.819  26.223  1.00  0.00     0.001 A 
ATOM     73  C   UNL A   1      42.558  26.524  25.178  1.00  0.00     0.001 A 
ATOM     74  C   UNL A   1      43.399  25.432  25.066  1.00  0.00     0.000 A 
ENDBRANCH  55  69
BRANCH  56  75
ATOM     75  C   UNL A   1      40.305  31.993  35.502  1.00  0.00    -0.014 A 
ATOM     76  C   UNL A   1      40.497  33.400  35.575  1.00  0.00     0.009 A 
ATOM     77  C   UNL A   1      38.984  31.531  35.424  1.00  0.00     0.009 A 
ATOM     78  C   UNL A   1      39.429  34.300  35.434  1.00  0.00     0.001 A 
ATOM     79  C   UNL A   1      37.914  32.439  35.283  1.00  0.00     0.001 A 
ATOM     80  C   UNL A   1      38.138  33.816  35.250  1.00  0.00     0.000 A 
ENDBRANCH  56  75
BRANCH  68  81
ATOM     81  C   UNL A   1      43.790  25.595  34.286  1.00  0.00    -0.014 A 
ATOM     82  C   UNL A   1      42.922  24.699  34.923  1.00  0.00     0.009 A 
ATOM     83  C   UNL A   1      45.044  25.085  33.888  1.00  0.00     0.009 A 
ATOM     84  C   UNL A   1      43.299  23.379  35.181  1.00  0.00     0.001 A 
ATOM     85  C   UNL A   1      45.396  23.750  34.077  1.00  0.00     0.001 A 
ATOM     86  C   UNL A   1      44.526  22.899  34.739  1.00  0.00     0.000 A 
ENDBRANCH  68  81
ENDBRANCH  42  43
ENDBRANCH  35  37
ENDBRANCH  34  35
ENDBRANCH  33  34
ENDBRANCH  32  33
ENDBRANCH   1  32
TORSDOF 16
ENDMDL
MODEL 3
REMARK VINA RESULT:     -12.0      4.121      9.710
REMARK SMILES Cc1ccc([C@@]23C[C@@H]4C[C@@H](C[C@@](C(=O)N5CCC(C(=O)OCCOCCOC(=O)c6ccc(-c7c8nc(c(-c9ccccc9)c9ccc([nH]9)c(-c9ccccc9)c9nc(c(-c%10ccccc%10)c%10ccc7[nH]%10)C=C9)C=C8)cc6)CC5)(C4)C2)C3)cc1
REMARK SMILES IDX 24 1 23 2 22 3 21 4 19 5 20 6 18 7 13 8 14 9 15 10 16 11
REMARK SMILES IDX 79 12 17 13 78 14 12 15 6 16 7 17 81 18 82 19 8 20 10 21
REMARK SMILES IDX 9 22 80 23 11 24 5 25 1 26 2 27 3 28 84 29 4 30 83 31 25 32
REMARK SMILES IDX 26 33 27 34 28 35 29 36 30 37 31 38 77 39 32 40 76 41 33 42
REMARK SMILES IDX 34 43 35 44 70 45 36 46 75 47 69 48 71 49 37 50 74 51 68 52
REMARK SMILES IDX 67 53 38 55 60 56 45 57 59 58 46 59 49 60 58 61 72 62 47 63
REMARK SMILES IDX 48 64 57 66 73 67 50 68 39 69 40 70 44 71 41 72 43 73 42 74
REMARK SMILES IDX 61 75 62 76 66 77 63 78 65 79 64 80 51 81 52 82 56 83 53 84
REMARK SMILES IDX 55 85 54 86
REMARK H PARENT 71 54 49 65
REMARK Flexibility Score: inf
ROOT
ATOM      1  O   UNL A   1      40.204  20.306  26.215  1.00  0.00    -0.374 OA
ENDROOT
BRANCH   1   2
ATOM      2  C   UNL A   1      39.611  21.559  26.510  1.00  0.00     0.202 C 
BRANCH   2   3
ATOM      3  C   UNL A   1      38.643  21.805  25.404  1.00  0.00     0.261 C 
BRANCH   3   4
ATOM      4  O   UNL A   1      37.287  21.777  25.859  1.00  0.00    -0.463 OA
BRANCH   4   5
ATOM      5  C   UNL A   1      36.516  22.908  25.742  1.00  0.00     0.309 C 
ATOM      6  O   UNL A   1      36.795  24.032  26.084  1.00  0.00    -0.252 OA
BRANCH   5   7
ATOM      7  C   UNL A   1      35.237  22.512  25.043  1.00  0.00     0.103 C 
ATOM      8  C   UNL A   1      33.218  25.128  22.850  1.00  0.00     0.228 C 
ATOM      9  O   UNL A   1      33.941  25.463  21.910  1.00  0.00    -0.274 OA
ATOM     10  N   UNL A   1      33.317  23.857  23.445  1.00  0.00    -0.342 N 
ATOM     11  C   UNL A   1      34.099  22.829  22.784  1.00  0.00     0.120 C 
ATOM     12  C   UNL A   1      32.911  23.457  24.801  1.00  0.00     0.120 C 
ATOM     13  C   UNL A   1      35.414  22.666  23.522  1.00  0.00     0.037 C 
ATOM     14  C   UNL A   1      34.133  23.383  25.667  1.00  0.00     0.037 C 
BRANCH   8  15
ATOM     15  C   UNL A   1      32.113  26.071  23.357  1.00  0.00     0.051 C 
ATOM     16  C   UNL A   1      31.950  28.093  24.937  1.00  0.00    -0.003 C 
ATOM     17  C   UNL A   1      31.425  28.873  23.693  1.00  0.00     0.015 C 
ATOM     18  C   UNL A   1      32.784  26.916  24.446  1.00  0.00     0.028 C 
ATOM     19  C   UNL A   1      30.752  27.434  25.664  1.00  0.00     0.015 C 
ATOM     20  C   UNL A   1      30.582  27.977  22.765  1.00  0.00    -0.009 C 
ATOM     21  C   UNL A   1      29.990  26.486  24.697  1.00  0.00    -0.009 C 
ATOM     22  C   UNL A   1      29.426  27.343  23.552  1.00  0.00     0.007 C 
ATOM     23  C   UNL A   1      31.466  26.862  22.202  1.00  0.00     0.020 C 
ATOM     24  C   UNL A   1      30.930  25.391  24.103  1.00  0.00     0.020 C 
BRANCH  16  25
ATOM     25  C   UNL A   1      32.822  29.005  25.823  1.00  0.00    -0.042 A 
ATOM     26  C   UNL A   1      35.179  31.445  28.538  1.00  0.00     0.044 C 
ATOM     27  C   UNL A   1      34.382  30.591  27.601  1.00  0.00    -0.051 A 
ATOM     28  C   UNL A   1      33.099  30.989  27.254  1.00  0.00     0.004 A 
ATOM     29  C   UNL A   1      34.890  29.407  27.055  1.00  0.00     0.004 A 
ATOM     30  C   UNL A   1      32.345  30.220  26.371  1.00  0.00     0.004 A 
ATOM     31  C   UNL A   1      34.121  28.623  26.181  1.00  0.00     0.004 A 
ENDBRANCH  16  25
ENDBRANCH   8  15
ENDBRANCH   5   7
ENDBRANCH   4   5
ENDBRANCH   3   4
ENDBRANCH   2   3
ENDBRANCH   1   2
BRANCH   1  32
ATOM     32  C   UNL A   1      41.339  19.970  26.984  1.00  0.00     0.202 C 
BRANCH  32  33
ATOM     33  C   UNL A   1      42.612  19.784  26.144  1.00  0.00     0.261 C 
BRANCH  33  34
ATOM     34  O   UNL A   1      42.802  20.938  25.298  1.00  0.00    -0.460 OA
BRANCH  34  35
ATOM     35  C   UNL A   1      43.698  21.871  25.724  1.00  0.00     0.338 C 
ATOM     36  O   UNL A   1      44.866  21.656  26.008  1.00  0.00    -0.246 OA
BRANCH  35  37
ATOM     37  C   UNL A   1      42.974  23.126  26.093  1.00  0.00     0.060 A 
ATOM     38  C   UNL A   1      42.942  24.210  25.193  1.00  0.00     0.016 A 
ATOM     39  C   UNL A   1      42.655  23.331  27.432  1.00  0.00     0.016 A 
ATOM     40  C   UNL A   1      42.763  25.520  25.669  1.00  0.00     0.010 A 
ATOM     41  C   UNL A   1      42.575  24.624  27.905  1.00  0.00     0.010 A 
ATOM     42  C   UNL A   1      42.674  25.731  27.043  1.00  0.00    -0.014 A 
BRANCH  42  43
ATOM     43  C   UNL A   1      42.828  27.017  27.736  1.00  0.00     0.031 A 
ATOM     44  C   UNL A   1      41.601  27.775  28.050  1.00  0.00     0.074 A 
ATOM     45  C   UNL A   1      43.994  27.377  28.336  1.00  0.00     0.049 A 
ATOM     46  N   UNL A   1      41.612  28.967  28.523  1.00  0.00    -0.248 NA
ATOM     47  C   UNL A   1      40.241  27.277  27.834  1.00  0.00     0.031 C 
ATOM     48  C   UNL A   1      44.225  28.325  29.431  1.00  0.00     0.029 A 
ATOM     49  N   UNL A   1      45.290  26.952  28.047  1.00  0.00    -0.354 N 
ATOM     50  C   UNL A   1      40.369  29.212  29.041  1.00  0.00     0.074 A 
ATOM     51  C   UNL A   1      39.516  28.217  28.448  1.00  0.00     0.031 C 
ATOM     52  C   UNL A   1      45.531  28.650  29.481  1.00  0.00     0.029 A 
ATOM     53  C   UNL A   1      46.186  27.973  28.375  1.00  0.00     0.049 A 
ATOM     54  H   UNL A   1      45.533  26.075  27.672  1.00  0.00     0.167 HD
ATOM     55  C   UNL A   1      40.268  30.136  30.033  1.00  0.00     0.031 A 
ATOM     56  C   UNL A   1      46.991  28.490  27.416  1.00  0.00     0.031 A 
ATOM     57  C   UNL A   1      41.534  30.877  30.197  1.00  0.00     0.049 A 
ATOM     58  C   UNL A   1      46.519  29.900  27.199  1.00  0.00     0.074 A 
ATOM     59  C   UNL A   1      42.477  30.975  31.206  1.00  0.00     0.029 A 
ATOM     60  N   UNL A   1      42.145  31.414  29.055  1.00  0.00    -0.354 N 
ATOM     61  N   UNL A   1      45.309  30.293  27.514  1.00  0.00    -0.248 NA
ATOM     62  C   UNL A   1      47.389  31.007  26.829  1.00  0.00     0.031 C 
ATOM     63  C   UNL A   1      43.690  31.471  30.623  1.00  0.00     0.029 A 
ATOM     64  C   UNL A   1      43.478  31.715  29.272  1.00  0.00     0.049 A 
ATOM     65  H   UNL A   1      41.681  31.559  28.199  1.00  0.00     0.167 HD
ATOM     66  C   UNL A   1      45.293  31.649  27.624  1.00  0.00     0.074 A 
ATOM     67  C   UNL A   1      46.593  32.057  27.102  1.00  0.00     0.031 C 
ATOM     68  C   UNL A   1      44.279  32.349  28.214  1.00  0.00     0.031 A 
BRANCH  55  69
ATOM     69  C   UNL A   1      39.074  30.227  30.964  1.00  0.00    -0.014 A 
ATOM     70  C   UNL A   1      38.888  29.259  31.963  1.00  0.00     0.009 A 
ATOM     71  C   UNL A   1      38.056  31.201  30.868  1.00  0.00     0.009 A 
ATOM     72  C   UNL A   1      37.776  29.284  32.825  1.00  0.00     0.001 A 
ATOM     73  C   UNL A   1      36.965  31.256  31.747  1.00  0.00     0.001 A 
ATOM     74  C   UNL A   1      36.825  30.293  32.729  1.00  0.00     0.000 A 
ENDBRANCH  55  69
BRANCH  56  75
ATOM     75  C   UNL A   1      47.480  27.422  26.484  1.00  0.00    -0.014 A 
ATOM     76  C   UNL A   1      47.067  27.541  25.128  1.00  0.00     0.009 A 
ATOM     77  C   UNL A   1      48.648  26.689  26.735  1.00  0.00     0.009 A 
ATOM     78  C   UNL A   1      47.862  27.072  24.070  1.00  0.00     0.001 A 
ATOM     79  C   UNL A   1      49.442  26.219  25.669  1.00  0.00     0.001 A 
ATOM     80  C   UNL A   1      49.072  26.441  24.342  1.00  0.00     0.000 A 
ENDBRANCH  56  75
BRANCH  68  81
ATOM     81  C   UNL A   1      43.946  33.767  27.828  1.00  0.00    -0.014 A 
ATOM     82  C   UNL A   1      43.796  34.201  26.505  1.00  0.00     0.009 A 
ATOM     83  C   UNL A   1      43.564  34.676  28.839  1.00  0.00     0.009 A 
ATOM     84  C   UNL A   1      43.327  35.483  26.208  1.00  0.00     0.001 A 
ATOM     85  C   UNL A   1      43.026  35.927  28.546  1.00  0.00     0.001 A 
ATOM     86  C   UNL A   1      42.921  36.336  27.226  1.00  0.00     0.000 A 
ENDBRANCH  68  81
ENDBRANCH  42  43
ENDBRANCH  35  37
ENDBRANCH  34  35
ENDBRANCH  33  34
ENDBRANCH  32  33
ENDBRANCH   1  32
TORSDOF 16
ENDMDL
