MODEL 1
REMARK VINA RESULT:     -10.9      0.000      0.000
REMARK SMILES C[NH2+][C@]1(C(=O)OCCOCCOC(=O)c2ccc(-c3c4nc(c(-c5ccccc5)c5ccc([nH]5)c(-c5ccccc5)c5nc(c(-c6ccccc6)c6ccc3[nH]6)C=C5)C=C4)cc2)CC[C@@H](OCCCc2ccccc2)C1
REMARK SMILES IDX 7 1 6 2 4 3 5 4 3 5 63 6 76 7 64 8 65 9 2 10 1 11 66 14
REMARK SMILES IDX 67 15 68 16 69 17 70 18 71 19 75 20 72 21 74 22 73 23 8 24
REMARK SMILES IDX 9 25 10 26 11 27 12 28 13 29 14 30 15 31 16 32 62 33 17 34
REMARK SMILES IDX 61 35 18 36 19 37 20 38 55 39 21 40 60 41 54 42 56 43 22 44
REMARK SMILES IDX 59 45 53 46 52 47 23 49 45 50 30 51 44 52 31 53 34 54 43 55
REMARK SMILES IDX 57 56 32 57 33 58 42 60 58 61 35 62 24 63 25 64 29 65 26 66
REMARK SMILES IDX 28 67 27 68 46 69 47 70 51 71 48 72 50 73 49 74 36 75 37 76
REMARK SMILES IDX 41 77 38 78 40 79 39 80
REMARK H PARENT 2 12 2 13 56 48 34 59
REMARK Flexibility Score: inf
ROOT
ATOM      1  C   UNL A   1      37.426  22.923  25.725  1.00  0.00     0.261 C 
ENDROOT
BRANCH   1   2
ATOM      2  O   UNL A   1      35.728  23.013  25.888  1.00  0.00    -0.459 OA
BRANCH   2   3
ATOM      3  C   UNL A   1      34.041  22.344  26.382  1.00  0.00     0.368 C 
ATOM      4  O   UNL A   1      33.601  22.252  27.574  1.00  0.00    -0.245 OA
BRANCH   3   5
ATOM      5  C   UNL A   1      32.677  22.113  25.305  1.00  0.00     0.196 C 
ATOM      6  C   UNL A   1      31.535  23.022  24.760  1.00  0.00     0.084 C 
ATOM      7  C   UNL A   1      33.475  21.818  23.966  1.00  0.00     0.113 C 
ATOM      8  C   UNL A   1      31.457  22.845  23.252  1.00  0.00     0.039 C 
ATOM      9  C   UNL A   1      32.912  22.681  22.854  1.00  0.00     0.125 C 
BRANCH   5  10
ATOM     10  N   UNL A   1      32.158  20.719  25.656  1.00  0.00    -0.334 N 
ATOM     11  C   UNL A   1      32.551  19.579  24.856  1.00  0.00     0.331 C 
ATOM     12  H   UNL A   1      32.458  20.524  26.612  1.00  0.00     0.347 HD
ATOM     13  H   UNL A   1      31.156  20.792  25.485  1.00  0.00     0.347 HD
ENDBRANCH   5  10
BRANCH   9  14
ATOM     14  O   UNL A   1      33.388  24.011  22.687  1.00  0.00    -0.378 OA
BRANCH  14  15
ATOM     15  C   UNL A   1      32.795  24.913  21.777  1.00  0.00     0.161 C 
BRANCH  15  16
ATOM     16  C   UNL A   1      33.422  26.289  22.019  1.00  0.00     0.033 C 
BRANCH  16  17
ATOM     17  C   UNL A   1      32.500  27.436  22.499  1.00  0.00     0.038 C 
BRANCH  17  18
ATOM     18  C   UNL A   1      32.376  27.753  23.980  1.00  0.00    -0.048 A 
ATOM     19  C   UNL A   1      31.466  26.671  25.095  1.00  0.00     0.004 A 
ATOM     20  C   UNL A   1      33.121  29.290  24.611  1.00  0.00     0.004 A 
ATOM     21  C   UNL A   1      31.232  27.107  26.835  1.00  0.00     0.000 A 
ATOM     22  C   UNL A   1      32.766  29.822  26.313  1.00  0.00     0.000 A 
ATOM     23  C   UNL A   1      31.835  28.726  27.448  1.00  0.00     0.000 A 
ENDBRANCH  17  18
ENDBRANCH  16  17
ENDBRANCH  15  16
ENDBRANCH  14  15
ENDBRANCH   9  14
ENDBRANCH   3   5
ENDBRANCH   2   3
ENDBRANCH   1   2
BRANCH   1  24
ATOM     24  C   UNL A   1      38.080  21.513  25.401  1.00  0.00     0.202 C 
BRANCH  24  25
ATOM     25  O   UNL A   1      39.322  21.116  25.977  1.00  0.00    -0.374 OA
BRANCH  25  26
ATOM     26  C   UNL A   1      40.204  21.970  26.726  1.00  0.00     0.202 C 
BRANCH  26  27
ATOM     27  C   UNL A   1      41.048  23.184  26.224  1.00  0.00     0.261 C 
BRANCH  27  28
ATOM     28  O   UNL A   1      40.359  24.405  25.981  1.00  0.00    -0.460 OA
BRANCH  28  29
ATOM     29  C   UNL A   1      41.170  25.480  25.938  1.00  0.00     0.338 C 
ATOM     30  O   UNL A   1      41.997  25.742  25.068  1.00  0.00    -0.246 OA
BRANCH  29  31
ATOM     31  C   UNL A   1      40.733  26.455  26.952  1.00  0.00     0.060 A 
ATOM     32  C   UNL A   1      41.265  27.745  26.839  1.00  0.00     0.016 A 
ATOM     33  C   UNL A   1      39.820  26.143  27.963  1.00  0.00     0.016 A 
ATOM     34  C   UNL A   1      40.946  28.713  27.780  1.00  0.00     0.010 A 
ATOM     35  C   UNL A   1      39.519  27.113  28.927  1.00  0.00     0.010 A 
ATOM     36  C   UNL A   1      40.121  28.383  28.861  1.00  0.00    -0.014 A 
BRANCH  36  37
ATOM     37  C   UNL A   1      40.116  29.301  30.024  1.00  0.00     0.031 A 
ATOM     38  C   UNL A   1      39.071  30.383  30.062  1.00  0.00     0.074 A 
ATOM     39  C   UNL A   1      40.931  29.110  31.075  1.00  0.00     0.049 A 
ATOM     40  N   UNL A   1      38.819  31.263  30.997  1.00  0.00    -0.248 NA
ATOM     41  C   UNL A   1      38.179  30.475  28.892  1.00  0.00     0.031 C 
ATOM     42  C   UNL A   1      41.929  28.049  31.194  1.00  0.00     0.029 A 
ATOM     43  N   UNL A   1      41.031  29.804  32.254  1.00  0.00    -0.354 N 
ATOM     44  C   UNL A   1      37.746  32.010  30.527  1.00  0.00     0.074 A 
ATOM     45  C   UNL A   1      37.415  31.505  29.215  1.00  0.00     0.031 C 
ATOM     46  C   UNL A   1      42.541  28.162  32.386  1.00  0.00     0.029 A 
ATOM     47  C   UNL A   1      42.001  29.321  33.097  1.00  0.00     0.049 A 
ATOM     48  H   UNL A   1      40.460  30.576  32.476  1.00  0.00     0.167 HD
ATOM     49  C   UNL A   1      37.088  33.024  31.137  1.00  0.00     0.031 A 
ATOM     50  C   UNL A   1      42.415  29.774  34.296  1.00  0.00     0.031 A 
ATOM     51  C   UNL A   1      37.429  33.541  32.434  1.00  0.00     0.049 A 
ATOM     52  C   UNL A   1      41.739  30.977  34.905  1.00  0.00     0.074 A 
ATOM     53  C   UNL A   1      36.826  34.571  33.135  1.00  0.00     0.029 A 
ATOM     54  N   UNL A   1      38.471  33.077  33.219  1.00  0.00    -0.354 N 
ATOM     55  N   UNL A   1      40.717  31.668  34.459  1.00  0.00    -0.248 NA
ATOM     56  C   UNL A   1      42.272  31.455  36.190  1.00  0.00     0.031 C 
ATOM     57  C   UNL A   1      37.549  34.775  34.314  1.00  0.00     0.029 A 
ATOM     58  C   UNL A   1      38.553  33.822  34.384  1.00  0.00     0.049 A 
ATOM     59  H   UNL A   1      39.067  32.328  32.984  1.00  0.00     0.167 HD
ATOM     60  C   UNL A   1      40.466  32.640  35.422  1.00  0.00     0.074 A 
ATOM     61  C   UNL A   1      41.431  32.437  36.483  1.00  0.00     0.031 C 
ATOM     62  C   UNL A   1      39.519  33.610  35.431  1.00  0.00     0.031 A 
BRANCH  49  63
ATOM     63  C   UNL A   1      35.965  33.672  30.377  1.00  0.00    -0.014 A 
ATOM     64  C   UNL A   1      36.135  34.127  29.060  1.00  0.00     0.009 A 
ATOM     65  C   UNL A   1      34.708  33.811  30.987  1.00  0.00     0.009 A 
ATOM     66  C   UNL A   1      35.076  34.738  28.383  1.00  0.00     0.001 A 
ATOM     67  C   UNL A   1      33.645  34.392  30.297  1.00  0.00     0.001 A 
ATOM     68  C   UNL A   1      33.832  34.865  28.999  1.00  0.00     0.000 A 
ENDBRANCH  49  63
BRANCH  50  69
ATOM     69  C   UNL A   1      43.552  29.116  34.993  1.00  0.00    -0.014 A 
ATOM     70  C   UNL A   1      43.332  28.213  36.044  1.00  0.00     0.009 A 
ATOM     71  C   UNL A   1      44.874  29.422  34.633  1.00  0.00     0.009 A 
ATOM     72  C   UNL A   1      44.409  27.654  36.737  1.00  0.00     0.001 A 
ATOM     73  C   UNL A   1      45.950  28.837  35.304  1.00  0.00     0.001 A 
ATOM     74  C   UNL A   1      45.716  27.963  36.363  1.00  0.00     0.000 A 
ENDBRANCH  50  69
BRANCH  62  75
ATOM     75  C   UNL A   1      39.447  34.503  36.640  1.00  0.00    -0.014 A 
ATOM     76  C   UNL A   1      38.761  34.116  37.802  1.00  0.00     0.009 A 
ATOM     77  C   UNL A   1      40.123  35.735  36.631  1.00  0.00     0.009 A 
ATOM     78  C   UNL A   1      38.723  34.959  38.914  1.00  0.00     0.001 A 
ATOM     79  C   UNL A   1      40.113  36.559  37.757  1.00  0.00     0.001 A 
ATOM     80  C   UNL A   1      39.404  36.175  38.893  1.00  0.00     0.000 A 
ENDBRANCH  62  75
ENDBRANCH  36  37
ENDBRANCH  29  31
ENDBRANCH  28  29
ENDBRANCH  27  28
ENDBRANCH  26  27
ENDBRANCH  25  26
ENDBRANCH  24  25
ENDBRANCH   1  24
TORSDOF 20
ENDMDL
MODEL 2
REMARK VINA RESULT:     -10.4      4.877     10.243
REMARK SMILES C[NH2+][C@]1(C(=O)OCCOCCOC(=O)c2ccc(-c3c4nc(c(-c5ccccc5)c5ccc([nH]5)c(-c5ccccc5)c5nc(c(-c6ccccc6)c6ccc3[nH]6)C=C5)C=C4)cc2)CC[C@@H](OCCCc2ccccc2)C1
REMARK SMILES IDX 7 1 6 2 4 3 5 4 3 5 63 6 76 7 64 8 65 9 2 10 1 11 66 14
REMARK SMILES IDX 67 15 68 16 69 17 70 18 71 19 75 20 72 21 74 22 73 23 8 24
REMARK SMILES IDX 9 25 10 26 11 27 12 28 13 29 14 30 15 31 16 32 62 33 17 34
REMARK SMILES IDX 61 35 18 36 19 37 20 38 55 39 21 40 60 41 54 42 56 43 22 44
REMARK SMILES IDX 59 45 53 46 52 47 23 49 45 50 30 51 44 52 31 53 34 54 43 55
REMARK SMILES IDX 57 56 32 57 33 58 42 60 58 61 35 62 24 63 25 64 29 65 26 66
REMARK SMILES IDX 28 67 27 68 46 69 47 70 51 71 48 72 50 73 49 74 36 75 37 76
REMARK SMILES IDX 41 77 38 78 40 79 39 80
REMARK H PARENT 2 12 2 13 56 48 34 59
REMARK Flexibility Score: inf
ROOT
ATOM      1  C   UNL A   1      34.579  29.853  27.497  1.00  0.00     0.261 C 
ENDROOT
BRANCH   1   2
ATOM      2  O   UNL A   1      34.428  28.974  26.040  1.00  0.00    -0.459 OA
BRANCH   2   3
ATOM      3  C   UNL A   1      33.647  27.680  24.922  1.00  0.00     0.368 C 
ATOM      4  O   UNL A   1      33.982  26.452  24.862  1.00  0.00    -0.245 OA
BRANCH   3   5
ATOM      5  C   UNL A   1      32.112  27.840  24.090  1.00  0.00     0.196 C 
ATOM      6  C   UNL A   1      31.416  27.103  22.906  1.00  0.00     0.084 C 
ATOM      7  C   UNL A   1      31.147  27.441  25.285  1.00  0.00     0.113 C 
ATOM      8  C   UNL A   1      29.998  26.750  23.325  1.00  0.00     0.039 C 
ATOM      9  C   UNL A   1      30.155  26.405  24.794  1.00  0.00     0.125 C 
BRANCH   5  10
ATOM     10  N   UNL A   1      31.885  29.349  24.015  1.00  0.00    -0.334 N 
ATOM     11  C   UNL A   1      31.262  30.042  25.122  1.00  0.00     0.331 C 
ATOM     12  H   UNL A   1      32.799  29.779  23.877  1.00  0.00     0.347 HD
ATOM     13  H   UNL A   1      31.203  29.447  23.263  1.00  0.00     0.347 HD
ENDBRANCH   5  10
BRANCH   9  14
ATOM     14  O   UNL A   1      30.514  25.029  24.802  1.00  0.00    -0.378 OA
BRANCH  14  15
ATOM     15  C   UNL A   1      31.200  24.437  25.885  1.00  0.00     0.161 C 
BRANCH  15  16
ATOM     16  C   UNL A   1      31.282  22.933  25.610  1.00  0.00     0.033 C 
BRANCH  16  17
ATOM     17  C   UNL A   1      31.939  22.467  24.289  1.00  0.00     0.038 C 
BRANCH  17  18
ATOM     18  C   UNL A   1      32.957  21.338  24.294  1.00  0.00    -0.048 A 
ATOM     19  C   UNL A   1      32.470  19.639  23.948  1.00  0.00     0.004 A 
ATOM     20  C   UNL A   1      34.686  21.720  24.715  1.00  0.00     0.004 A 
ATOM     21  C   UNL A   1      33.665  18.285  24.058  1.00  0.00     0.000 A 
ATOM     22  C   UNL A   1      35.863  20.360  24.983  1.00  0.00     0.000 A 
ATOM     23  C   UNL A   1      35.369  18.631  24.638  1.00  0.00     0.000 A 
ENDBRANCH  17  18
ENDBRANCH  16  17
ENDBRANCH  15  16
ENDBRANCH  14  15
ENDBRANCH   9  14
ENDBRANCH   3   5
ENDBRANCH   2   3
ENDBRANCH   1   2
BRANCH   1  24
ATOM     24  C   UNL A   1      33.860  31.265  27.605  1.00  0.00     0.202 C 
BRANCH  24  25
ATOM     25  O   UNL A   1      34.585  32.484  27.468  1.00  0.00    -0.374 OA
BRANCH  25  26
ATOM     26  C   UNL A   1      35.527  33.006  28.422  1.00  0.00     0.202 C 
BRANCH  26  27
ATOM     27  C   UNL A   1      35.663  32.675  29.942  1.00  0.00     0.261 C 
BRANCH  27  28
ATOM     28  O   UNL A   1      35.513  31.315  30.331  1.00  0.00    -0.460 OA
BRANCH  28  29
ATOM     29  C   UNL A   1      36.363  30.938  31.307  1.00  0.00     0.338 C 
ATOM     30  O   UNL A   1      36.147  30.957  32.516  1.00  0.00    -0.246 OA
BRANCH  29  31
ATOM     31  C   UNL A   1      37.506  30.233  30.704  1.00  0.00     0.060 A 
ATOM     32  C   UNL A   1      38.475  29.753  31.593  1.00  0.00     0.016 A 
ATOM     33  C   UNL A   1      37.628  30.017  29.328  1.00  0.00     0.016 A 
ATOM     34  C   UNL A   1      39.610  29.119  31.109  1.00  0.00     0.010 A 
ATOM     35  C   UNL A   1      38.787  29.402  28.839  1.00  0.00     0.010 A 
ATOM     36  C   UNL A   1      39.800  28.996  29.728  1.00  0.00    -0.014 A 
BRANCH  36  37
ATOM     37  C   UNL A   1      41.164  28.675  29.248  1.00  0.00     0.031 A 
ATOM     38  C   UNL A   1      41.423  27.281  28.745  1.00  0.00     0.074 A 
ATOM     39  C   UNL A   1      42.114  29.619  29.148  1.00  0.00     0.049 A 
ATOM     40  N   UNL A   1      42.508  26.777  28.215  1.00  0.00    -0.248 NA
ATOM     41  C   UNL A   1      40.300  26.332  28.837  1.00  0.00     0.031 C 
ATOM     42  C   UNL A   1      41.961  31.023  29.525  1.00  0.00     0.029 A 
ATOM     43  N   UNL A   1      43.400  29.533  28.676  1.00  0.00    -0.354 N 
ATOM     44  C   UNL A   1      42.198  25.456  27.915  1.00  0.00     0.074 A 
ATOM     45  C   UNL A   1      40.839  25.227  28.349  1.00  0.00     0.031 C 
ATOM     46  C   UNL A   1      43.112  31.669  29.267  1.00  0.00     0.029 A 
ATOM     47  C   UNL A   1      44.090  30.718  28.739  1.00  0.00     0.049 A 
ATOM     48  H   UNL A   1      43.790  28.700  28.324  1.00  0.00     0.167 HD
ATOM     49  C   UNL A   1      42.973  24.518  27.323  1.00  0.00     0.031 A 
ATOM     50  C   UNL A   1      45.370  30.996  28.422  1.00  0.00     0.031 A 
ATOM     51  C   UNL A   1      44.332  24.739  26.909  1.00  0.00     0.049 A 
ATOM     52  C   UNL A   1      46.248  29.902  27.869  1.00  0.00     0.074 A 
ATOM     53  C   UNL A   1      45.203  23.849  26.306  1.00  0.00     0.029 A 
ATOM     54  N   UNL A   1      45.020  25.930  27.066  1.00  0.00    -0.354 N 
ATOM     55  N   UNL A   1      45.943  28.661  27.576  1.00  0.00    -0.248 NA
ATOM     56  C   UNL A   1      47.649  30.256  27.593  1.00  0.00     0.031 C 
ATOM     57  C   UNL A   1      46.441  24.482  26.162  1.00  0.00     0.029 A 
ATOM     58  C   UNL A   1      46.318  25.789  26.604  1.00  0.00     0.049 A 
ATOM     59  H   UNL A   1      44.643  26.755  27.451  1.00  0.00     0.167 HD
ATOM     60  C   UNL A   1      47.102  28.096  27.054  1.00  0.00     0.074 A 
ATOM     61  C   UNL A   1      48.110  29.136  27.054  1.00  0.00     0.031 C 
ATOM     62  C   UNL A   1      47.312  26.832  26.610  1.00  0.00     0.031 A 
BRANCH  49  63
ATOM     63  C   UNL A   1      42.380  23.149  27.140  1.00  0.00    -0.014 A 
ATOM     64  C   UNL A   1      41.707  22.791  25.962  1.00  0.00     0.009 A 
ATOM     65  C   UNL A   1      42.516  22.195  28.161  1.00  0.00     0.009 A 
ATOM     66  C   UNL A   1      41.153  21.515  25.825  1.00  0.00     0.001 A 
ATOM     67  C   UNL A   1      41.991  20.912  28.009  1.00  0.00     0.001 A 
ATOM     68  C   UNL A   1      41.301  20.576  26.845  1.00  0.00     0.000 A 
ENDBRANCH  49  63
BRANCH  50  69
ATOM     69  C   UNL A   1      45.919  32.359  28.652  1.00  0.00    -0.014 A 
ATOM     70  C   UNL A   1      45.882  33.333  27.643  1.00  0.00     0.009 A 
ATOM     71  C   UNL A   1      46.521  32.680  29.879  1.00  0.00     0.009 A 
ATOM     72  C   UNL A   1      46.463  34.588  27.848  1.00  0.00     0.001 A 
ATOM     73  C   UNL A   1      47.072  33.945  30.093  1.00  0.00     0.001 A 
ATOM     74  C   UNL A   1      47.052  34.894  29.074  1.00  0.00     0.000 A 
ENDBRANCH  50  69
BRANCH  62  75
ATOM     75  C   UNL A   1      48.670  26.509  26.047  1.00  0.00    -0.014 A 
ATOM     76  C   UNL A   1      49.008  26.815  24.720  1.00  0.00     0.009 A 
ATOM     77  C   UNL A   1      49.644  25.931  26.879  1.00  0.00     0.009 A 
ATOM     78  C   UNL A   1      50.280  26.515  24.228  1.00  0.00     0.001 A 
ATOM     79  C   UNL A   1      50.925  25.666  26.394  1.00  0.00     0.001 A 
ATOM     80  C   UNL A   1      51.239  25.949  25.067  1.00  0.00     0.000 A 
ENDBRANCH  62  75
ENDBRANCH  36  37
ENDBRANCH  29  31
ENDBRANCH  28  29
ENDBRANCH  27  28
ENDBRANCH  26  27
ENDBRANCH  25  26
ENDBRANCH  24  25
ENDBRANCH   1  24
TORSDOF 20
ENDMDL
MODEL 3
REMARK VINA RESULT:     -10.2      7.257      9.897
REMARK SMILES C[NH2+][C@]1(C(=O)OCCOCCOC(=O)c2ccc(-c3c4nc(c(-c5ccccc5)c5ccc([nH]5)c(-c5ccccc5)c5nc(c(-c6ccccc6)c6ccc3[nH]6)C=C5)C=C4)cc2)CC[C@@H](OCCCc2ccccc2)C1
REMARK SMILES IDX 7 1 6 2 4 3 5 4 3 5 63 6 76 7 64 8 65 9 2 10 1 11 66 14
REMARK SMILES IDX 67 15 68 16 69 17 70 18 71 19 75 20 72 21 74 22 73 23 8 24
REMARK SMILES IDX 9 25 10 26 11 27 12 28 13 29 14 30 15 31 16 32 62 33 17 34
REMARK SMILES IDX 61 35 18 36 19 37 20 38 55 39 21 40 60 41 54 42 56 43 22 44
REMARK SMILES IDX 59 45 53 46 52 47 23 49 45 50 30 51 44 52 31 53 34 54 43 55
REMARK SMILES IDX 57 56 32 57 33 58 42 60 58 61 35 62 24 63 25 64 29 65 26 66
REMARK SMILES IDX 28 67 27 68 46 69 47 70 51 71 48 72 50 73 49 74 36 75 37 76
REMARK SMILES IDX 41 77 38 78 40 79 39 80
REMARK H PARENT 2 12 2 13 56 48 34 59
REMARK Flexibility Score: inf
ROOT
ATOM      1  C   UNL A   1      39.140  20.341  25.632  1.00  0.00     0.261 C 
ENDROOT
BRANCH   1   2
ATOM      2  O   UNL A   1      37.585  20.140  24.953  1.00  0.00    -0.459 OA
BRANCH   2   3
ATOM      3  C   UNL A   1      35.740  20.480  24.831  1.00  0.00     0.368 C 
ATOM      4  O   UNL A   1      34.818  19.603  24.902  1.00  0.00    -0.245 OA
BRANCH   3   5
ATOM      5  C   UNL A   1      34.976  22.049  24.993  1.00  0.00     0.196 C 
ATOM      6  C   UNL A   1      34.523  22.937  26.191  1.00  0.00     0.084 C 
ATOM      7  C   UNL A   1      36.139  22.947  24.393  1.00  0.00     0.113 C 
ATOM      8  C   UNL A   1      35.052  24.346  25.973  1.00  0.00     0.039 C 
ATOM      9  C   UNL A   1      36.407  24.104  25.335  1.00  0.00     0.125 C 
BRANCH   5  10
ATOM     10  N   UNL A   1      33.955  22.086  23.858  1.00  0.00    -0.334 N 
ATOM     11  C   UNL A   1      33.909  23.222  22.962  1.00  0.00     0.331 C 
ATOM     12  H   UNL A   1      34.127  21.264  23.279  1.00  0.00     0.347 HD
ATOM     13  H   UNL A   1      33.061  22.136  24.346  1.00  0.00     0.347 HD
ENDBRANCH   5  10
BRANCH   9  14
ATOM     14  O   UNL A   1      37.293  23.926  26.433  1.00  0.00    -0.378 OA
BRANCH  14  15
ATOM     15  C   UNL A   1      38.670  24.224  26.343  1.00  0.00     0.161 C 
BRANCH  15  16
ATOM     16  C   UNL A   1      39.011  25.171  27.497  1.00  0.00     0.033 C 
BRANCH  16  17
ATOM     17  C   UNL A   1      40.055  26.284  27.243  1.00  0.00     0.038 C 
BRANCH  17  18
ATOM     18  C   UNL A   1      40.075  27.532  28.111  1.00  0.00    -0.048 A 
ATOM     19  C   UNL A   1      38.780  28.777  27.987  1.00  0.00     0.004 A 
ATOM     20  C   UNL A   1      41.471  27.782  29.252  1.00  0.00     0.004 A 
ATOM     21  C   UNL A   1      38.864  30.309  28.947  1.00  0.00     0.000 A 
ATOM     22  C   UNL A   1      41.655  29.378  30.105  1.00  0.00     0.000 A 
ATOM     23  C   UNL A   1      40.342  30.649  29.976  1.00  0.00     0.000 A 
ENDBRANCH  17  18
ENDBRANCH  16  17
ENDBRANCH  15  16
ENDBRANCH  14  15
ENDBRANCH   9  14
ENDBRANCH   3   5
ENDBRANCH   2   3
ENDBRANCH   1   2
BRANCH   1  24
ATOM     24  C   UNL A   1      40.034  19.049  25.866  1.00  0.00     0.202 C 
BRANCH  24  25
ATOM     25  O   UNL A   1      41.453  19.093  25.747  1.00  0.00    -0.374 OA
BRANCH  25  26
ATOM     26  C   UNL A   1      42.312  20.068  26.364  1.00  0.00     0.202 C 
BRANCH  26  27
ATOM     27  C   UNL A   1      42.580  21.545  25.933  1.00  0.00     0.261 C 
BRANCH  27  28
ATOM     28  O   UNL A   1      43.345  22.356  26.816  1.00  0.00    -0.460 OA
BRANCH  28  29
ATOM     29  C   UNL A   1      42.622  23.313  27.430  1.00  0.00     0.338 C 
ATOM     30  O   UNL A   1      41.624  23.146  28.126  1.00  0.00    -0.246 OA
BRANCH  29  31
ATOM     31  C   UNL A   1      43.361  24.586  27.375  1.00  0.00     0.060 A 
ATOM     32  C   UNL A   1      43.508  25.161  26.107  1.00  0.00     0.016 A 
ATOM     33  C   UNL A   1      43.874  25.218  28.510  1.00  0.00     0.016 A 
ATOM     34  C   UNL A   1      44.232  26.334  25.954  1.00  0.00     0.010 A 
ATOM     35  C   UNL A   1      44.628  26.388  28.353  1.00  0.00     0.010 A 
ATOM     36  C   UNL A   1      44.847  26.918  27.068  1.00  0.00    -0.014 A 
BRANCH  36  37
ATOM     37  C   UNL A   1      45.906  27.923  26.818  1.00  0.00     0.031 A 
ATOM     38  C   UNL A   1      45.516  29.376  26.834  1.00  0.00     0.074 A 
ATOM     39  C   UNL A   1      47.197  27.569  26.700  1.00  0.00     0.049 A 
ATOM     40  N   UNL A   1      46.267  30.439  26.709  1.00  0.00    -0.248 NA
ATOM     41  C   UNL A   1      44.086  29.669  27.033  1.00  0.00     0.031 C 
ATOM     42  C   UNL A   1      47.712  26.203  26.751  1.00  0.00     0.029 A 
ATOM     43  N   UNL A   1      48.314  28.347  26.531  1.00  0.00    -0.354 N 
ATOM     44  C   UNL A   1      45.402  31.522  26.812  1.00  0.00     0.074 A 
ATOM     45  C   UNL A   1      44.069  30.990  26.977  1.00  0.00     0.031 C 
ATOM     46  C   UNL A   1      49.049  26.238  26.616  1.00  0.00     0.029 A 
ATOM     47  C   UNL A   1      49.478  27.625  26.437  1.00  0.00     0.049 A 
ATOM     48  H   UNL A   1      48.285  29.330  26.481  1.00  0.00     0.167 HD
ATOM     49  C   UNL A   1      45.692  32.844  26.780  1.00  0.00     0.031 A 
ATOM     50  C   UNL A   1      50.742  28.037  26.216  1.00  0.00     0.031 A 
ATOM     51  C   UNL A   1      47.015  33.375  26.596  1.00  0.00     0.049 A 
ATOM     52  C   UNL A   1      51.023  29.512  26.071  1.00  0.00     0.074 A 
ATOM     53  C   UNL A   1      47.411  34.700  26.543  1.00  0.00     0.029 A 
ATOM     54  N   UNL A   1      48.155  32.608  26.424  1.00  0.00    -0.354 N 
ATOM     55  N   UNL A   1      50.201  30.528  26.183  1.00  0.00    -0.248 NA
ATOM     56  C   UNL A   1      52.412  29.895  25.778  1.00  0.00     0.031 C 
ATOM     57  C   UNL A   1      48.781  34.734  26.268  1.00  0.00     0.029 A 
ATOM     58  C   UNL A   1      49.252  33.431  26.228  1.00  0.00     0.049 A 
ATOM     59  H   UNL A   1      48.183  31.623  26.437  1.00  0.00     0.167 HD
ATOM     60  C   UNL A   1      50.978  31.668  26.006  1.00  0.00     0.074 A 
ATOM     61  C   UNL A   1      52.338  31.218  25.797  1.00  0.00     0.031 C 
ATOM     62  C   UNL A   1      50.601  32.970  26.020  1.00  0.00     0.031 A 
BRANCH  49  63
ATOM     63  C   UNL A   1      44.542  33.804  26.895  1.00  0.00    -0.014 A 
ATOM     64  C   UNL A   1      43.899  34.320  25.759  1.00  0.00     0.009 A 
ATOM     65  C   UNL A   1      44.082  34.182  28.167  1.00  0.00     0.009 A 
ATOM     66  C   UNL A   1      42.840  35.222  25.896  1.00  0.00     0.001 A 
ATOM     67  C   UNL A   1      43.004  35.057  28.300  1.00  0.00     0.001 A 
ATOM     68  C   UNL A   1      42.390  35.585  27.165  1.00  0.00     0.000 A 
ENDBRANCH  49  63
BRANCH  50  69
ATOM     69  C   UNL A   1      51.841  27.045  26.079  1.00  0.00    -0.014 A 
ATOM     70  C   UNL A   1      52.638  26.692  27.178  1.00  0.00     0.009 A 
ATOM     71  C   UNL A   1      52.122  26.470  24.829  1.00  0.00     0.009 A 
ATOM     72  C   UNL A   1      53.711  25.811  27.021  1.00  0.00     0.001 A 
ATOM     73  C   UNL A   1      53.174  25.564  24.681  1.00  0.00     0.001 A 
ATOM     74  C   UNL A   1      53.975  25.244  25.775  1.00  0.00     0.000 A 
ENDBRANCH  50  69
BRANCH  62  75
ATOM     75  C   UNL A   1      51.676  34.009  25.846  1.00  0.00    -0.014 A 
ATOM     76  C   UNL A   1      52.406  34.503  26.938  1.00  0.00     0.009 A 
ATOM     77  C   UNL A   1      51.997  34.462  24.555  1.00  0.00     0.009 A 
ATOM     78  C   UNL A   1      53.408  35.457  26.744  1.00  0.00     0.001 A 
ATOM     79  C   UNL A   1      53.022  35.388  24.362  1.00  0.00     0.001 A 
ATOM     80  C   UNL A   1      53.720  35.892  25.457  1.00  0.00     0.000 A 
ENDBRANCH  62  75
ENDBRANCH  36  37
ENDBRANCH  29  31
ENDBRANCH  28  29
ENDBRANCH  27  28
ENDBRANCH  26  27
ENDBRANCH  25  26
ENDBRANCH  24  25
ENDBRANCH   1  24
TORSDOF 20
ENDMDL
