MODEL 1
REMARK VINA RESULT:      -9.6      0.000      0.000
REMARK SMILES CCCC[C@@H](C(=O)OCCOCCOC(=O)c1ccc(-c2c3nc(c(-c4ccccc4)c4ccc([nH]4)c(-c4ccccc4)c4nc(c(-c5ccccc5)c5ccc2[nH]5)C=C4)C=C3)cc1)[C@@H](O)c1cccc(C(F)(F)F)c1
REMARK SMILES IDX 10 1 9 2 8 3 6 4 7 5 5 6 4 7 3 8 2 9 1 10 65 11 66 12 67 14
REMARK SMILES IDX 68 15 76 16 69 17 71 18 70 19 72 20 73 21 74 22 75 23 11 24
REMARK SMILES IDX 12 25 13 26 14 27 15 28 16 29 17 30 18 31 64 32 19 33 63 34
REMARK SMILES IDX 20 35 21 36 22 37 57 38 23 39 62 40 56 41 58 42 24 43 61 44
REMARK SMILES IDX 55 45 54 46 25 48 47 49 32 50 46 51 33 52 36 53 45 54 59 55
REMARK SMILES IDX 34 56 35 57 44 59 60 60 37 61 26 62 27 63 31 64 28 65 30 66
REMARK SMILES IDX 29 67 48 68 49 69 53 70 50 71 52 72 51 73 38 74 39 75 43 76
REMARK SMILES IDX 40 77 42 78 41 79
REMARK H PARENT 66 13 58 47 36 58
REMARK Flexibility Score: inf
ROOT
ATOM      1  C   UNL A   1      34.094  33.708  28.467  1.00  0.00     0.202 C 
ENDROOT
BRANCH   1   2
ATOM      2  C   UNL A   1      34.334  32.196  28.366  1.00  0.00     0.261 C 
BRANCH   2   3
ATOM      3  O   UNL A   1      33.331  31.517  27.585  1.00  0.00    -0.463 OA
BRANCH   3   4
ATOM      4  C   UNL A   1      33.693  30.272  27.187  1.00  0.00     0.312 C 
ATOM      5  O   UNL A   1      34.805  29.801  27.389  1.00  0.00    -0.252 OA
BRANCH   4   6
ATOM      6  C   UNL A   1      32.559  29.529  26.490  1.00  0.00     0.132 C 
BRANCH   6   7
ATOM      7  C   UNL A   1      32.466  28.036  26.906  1.00  0.00     0.018 C 
BRANCH   7   8
ATOM      8  C   UNL A   1      31.065  27.405  26.958  1.00  0.00     0.001 C 
BRANCH   8   9
ATOM      9  C   UNL A   1      30.893  26.111  26.159  1.00  0.00    -0.003 C 
ATOM     10  C   UNL A   1      32.194  25.349  25.952  1.00  0.00     0.004 C 
ENDBRANCH   8   9
ENDBRANCH   7   8
ENDBRANCH   6   7
BRANCH   6  11
ATOM     11  C   UNL A   1      32.829  29.643  24.961  1.00  0.00     0.158 C 
BRANCH  11  12
ATOM     12  O   UNL A   1      34.037  28.962  24.618  1.00  0.00    -0.388 OA
ATOM     13  H   UNL A   1      34.799  29.501  24.881  1.00  0.00     0.211 HD
ENDBRANCH  11  12
BRANCH  11  14
ATOM     14  C   UNL A   1      31.753  29.126  24.014  1.00  0.00    -0.018 A 
ATOM     15  C   UNL A   1      31.893  27.956  23.252  1.00  0.00     0.006 A 
ATOM     16  C   UNL A   1      30.519  29.800  23.976  1.00  0.00     0.019 A 
ATOM     17  C   UNL A   1      30.808  27.423  22.554  1.00  0.00     0.001 A 
ATOM     18  C   UNL A   1      29.431  29.292  23.248  1.00  0.00     0.056 A 
ATOM     19  C   UNL A   1      29.582  28.082  22.559  1.00  0.00     0.013 A 
BRANCH  18  20
ATOM     20  C   UNL A   1      28.112  30.018  23.209  1.00  0.00     0.416 C 
ATOM     21  F   UNL A   1      27.082  29.249  23.661  1.00  0.00    -0.166 F 
ATOM     22  F   UNL A   1      28.106  31.138  23.985  1.00  0.00    -0.166 F 
ATOM     23  F   UNL A   1      27.747  30.430  21.962  1.00  0.00    -0.166 F 
ENDBRANCH  18  20
ENDBRANCH  11  14
ENDBRANCH   6  11
ENDBRANCH   4   6
ENDBRANCH   3   4
ENDBRANCH   2   3
ENDBRANCH   1   2
BRANCH   1  24
ATOM     24  O   UNL A   1      33.335  34.192  29.575  1.00  0.00    -0.374 OA
BRANCH  24  25
ATOM     25  C   UNL A   1      34.002  35.038  30.511  1.00  0.00     0.202 C 
BRANCH  25  26
ATOM     26  C   UNL A   1      34.531  34.376  31.785  1.00  0.00     0.261 C 
BRANCH  26  27
ATOM     27  O   UNL A   1      35.850  33.842  31.580  1.00  0.00    -0.460 OA
BRANCH  27  28
ATOM     28  C   UNL A   1      36.116  32.728  32.297  1.00  0.00     0.338 C 
ATOM     29  O   UNL A   1      35.571  32.366  33.333  1.00  0.00    -0.246 OA
BRANCH  28  30
ATOM     30  C   UNL A   1      37.043  31.856  31.554  1.00  0.00     0.060 A 
ATOM     31  C   UNL A   1      37.827  30.976  32.311  1.00  0.00     0.016 A 
ATOM     32  C   UNL A   1      37.188  31.926  30.166  1.00  0.00     0.016 A 
ATOM     33  C   UNL A   1      38.817  30.218  31.696  1.00  0.00     0.010 A 
ATOM     34  C   UNL A   1      38.192  31.173  29.550  1.00  0.00     0.010 A 
ATOM     35  C   UNL A   1      39.041  30.357  30.321  1.00  0.00    -0.014 A 
BRANCH  35  36
ATOM     36  C   UNL A   1      40.291  29.811  29.744  1.00  0.00     0.031 A 
ATOM     37  C   UNL A   1      41.500  30.707  29.678  1.00  0.00     0.074 A 
ATOM     38  C   UNL A   1      40.374  28.530  29.348  1.00  0.00     0.049 A 
ATOM     39  N   UNL A   1      42.698  30.451  29.217  1.00  0.00    -0.248 NA
ATOM     40  C   UNL A   1      41.335  32.073  30.203  1.00  0.00     0.031 C 
ATOM     41  C   UNL A   1      39.292  27.550  29.421  1.00  0.00     0.029 A 
ATOM     42  N   UNL A   1      41.426  27.836  28.808  1.00  0.00    -0.354 N 
ATOM     43  C   UNL A   1      43.424  31.623  29.391  1.00  0.00     0.074 A 
ATOM     44  C   UNL A   1      42.528  32.599  29.969  1.00  0.00     0.031 C 
ATOM     45  C   UNL A   1      39.738  26.376  28.938  1.00  0.00     0.029 A 
ATOM     46  C   UNL A   1      41.122  26.535  28.494  1.00  0.00     0.049 A 
ATOM     47  H   UNL A   1      42.314  28.233  28.659  1.00  0.00     0.167 HD
ATOM     48  C   UNL A   1      44.724  31.864  29.102  1.00  0.00     0.031 A 
ATOM     49  C   UNL A   1      41.872  25.587  27.900  1.00  0.00     0.031 A 
ATOM     50  C   UNL A   1      45.613  30.898  28.517  1.00  0.00     0.049 A 
ATOM     51  C   UNL A   1      43.289  25.908  27.505  1.00  0.00     0.074 A 
ATOM     52  C   UNL A   1      46.951  31.043  28.193  1.00  0.00     0.029 A 
ATOM     53  N   UNL A   1      45.251  29.607  28.165  1.00  0.00    -0.354 N 
ATOM     54  N   UNL A   1      43.970  27.014  27.689  1.00  0.00    -0.248 NA
ATOM     55  C   UNL A   1      44.043  24.844  26.827  1.00  0.00     0.031 C 
ATOM     56  C   UNL A   1      47.383  29.856  27.590  1.00  0.00     0.029 A 
ATOM     57  C   UNL A   1      46.332  28.954  27.597  1.00  0.00     0.049 A 
ATOM     58  H   UNL A   1      44.358  29.214  28.297  1.00  0.00     0.167 HD
ATOM     59  C   UNL A   1      45.238  26.769  27.176  1.00  0.00     0.074 A 
ATOM     60  C   UNL A   1      45.236  25.406  26.687  1.00  0.00     0.031 C 
ATOM     61  C   UNL A   1      46.310  27.597  27.115  1.00  0.00     0.031 A 
BRANCH  48  62
ATOM     62  C   UNL A   1      45.249  33.244  29.379  1.00  0.00    -0.014 A 
ATOM     63  C   UNL A   1      45.166  34.265  28.419  1.00  0.00     0.009 A 
ATOM     64  C   UNL A   1      45.812  33.535  30.631  1.00  0.00     0.009 A 
ATOM     65  C   UNL A   1      45.664  35.540  28.697  1.00  0.00     0.001 A 
ATOM     66  C   UNL A   1      46.283  34.817  30.917  1.00  0.00     0.001 A 
ATOM     67  C   UNL A   1      46.217  35.816  29.947  1.00  0.00     0.000 A 
ENDBRANCH  48  62
BRANCH  49  68
ATOM     68  C   UNL A   1      41.293  24.249  27.613  1.00  0.00    -0.014 A 
ATOM     69  C   UNL A   1      40.235  24.103  26.703  1.00  0.00     0.009 A 
ATOM     70  C   UNL A   1      41.781  23.110  28.274  1.00  0.00     0.009 A 
ATOM     71  C   UNL A   1      39.661  22.849  26.481  1.00  0.00     0.001 A 
ATOM     72  C   UNL A   1      41.225  21.853  28.027  1.00  0.00     0.001 A 
ATOM     73  C   UNL A   1      40.160  21.725  27.138  1.00  0.00     0.000 A 
ENDBRANCH  49  68
BRANCH  61  74
ATOM     74  C   UNL A   1      47.580  27.041  26.533  1.00  0.00    -0.014 A 
ATOM     75  C   UNL A   1      47.896  27.209  25.177  1.00  0.00     0.009 A 
ATOM     76  C   UNL A   1      48.493  26.378  27.369  1.00  0.00     0.009 A 
ATOM     77  C   UNL A   1      49.088  26.695  24.662  1.00  0.00     0.001 A 
ATOM     78  C   UNL A   1      49.698  25.892  26.858  1.00  0.00     0.001 A 
ATOM     79  C   UNL A   1      49.988  26.041  25.503  1.00  0.00     0.000 A 
ENDBRANCH  61  74
ENDBRANCH  35  36
ENDBRANCH  28  30
ENDBRANCH  27  28
ENDBRANCH  26  27
ENDBRANCH  25  26
ENDBRANCH  24  25
ENDBRANCH   1  24
TORSDOF 21
ENDMDL
MODEL 2
REMARK VINA RESULT:      -9.2      5.199     10.236
REMARK SMILES CCCC[C@@H](C(=O)OCCOCCOC(=O)c1ccc(-c2c3nc(c(-c4ccccc4)c4ccc([nH]4)c(-c4ccccc4)c4nc(c(-c5ccccc5)c5ccc2[nH]5)C=C4)C=C3)cc1)[C@@H](O)c1cccc(C(F)(F)F)c1
REMARK SMILES IDX 10 1 9 2 8 3 6 4 7 5 5 6 4 7 3 8 2 9 1 10 65 11 66 12 67 14
REMARK SMILES IDX 68 15 76 16 69 17 71 18 70 19 72 20 73 21 74 22 75 23 11 24
REMARK SMILES IDX 12 25 13 26 14 27 15 28 16 29 17 30 18 31 64 32 19 33 63 34
REMARK SMILES IDX 20 35 21 36 22 37 57 38 23 39 62 40 56 41 58 42 24 43 61 44
REMARK SMILES IDX 55 45 54 46 25 48 47 49 32 50 46 51 33 52 36 53 45 54 59 55
REMARK SMILES IDX 34 56 35 57 44 59 60 60 37 61 26 62 27 63 31 64 28 65 30 66
REMARK SMILES IDX 29 67 48 68 49 69 53 70 50 71 52 72 51 73 38 74 39 75 43 76
REMARK SMILES IDX 40 77 42 78 41 79
REMARK H PARENT 66 13 58 47 36 58
REMARK Flexibility Score: inf
ROOT
ATOM      1  C   UNL A   1      39.863  20.954  26.452  1.00  0.00     0.202 C 
ENDROOT
BRANCH   1   2
ATOM      2  C   UNL A   1      39.054  22.183  26.018  1.00  0.00     0.261 C 
BRANCH   2   3
ATOM      3  O   UNL A   1      37.676  21.877  25.730  1.00  0.00    -0.463 OA
BRANCH   3   4
ATOM      4  C   UNL A   1      36.892  22.972  25.563  1.00  0.00     0.312 C 
ATOM      5  O   UNL A   1      37.304  24.117  25.698  1.00  0.00    -0.252 OA
BRANCH   4   6
ATOM      6  C   UNL A   1      35.465  22.613  25.169  1.00  0.00     0.132 C 
BRANCH   6   7
ATOM      7  C   UNL A   1      34.413  23.616  25.718  1.00  0.00     0.018 C 
BRANCH   7   8
ATOM      8  C   UNL A   1      34.076  24.831  24.840  1.00  0.00     0.001 C 
BRANCH   8   9
ATOM      9  C   UNL A   1      34.235  24.622  23.332  1.00  0.00    -0.003 C 
ATOM     10  C   UNL A   1      33.066  23.883  22.697  1.00  0.00     0.004 C 
ENDBRANCH   8   9
ENDBRANCH   7   8
ENDBRANCH   6   7
BRANCH   6  11
ATOM     11  C   UNL A   1      35.194  21.189  25.738  1.00  0.00     0.158 C 
BRANCH  11  12
ATOM     12  O   UNL A   1      34.731  21.273  27.087  1.00  0.00    -0.388 OA
ATOM     13  H   UNL A   1      34.965  22.138  27.457  1.00  0.00     0.211 HD
ENDBRANCH  11  12
BRANCH  11  14
ATOM     14  C   UNL A   1      34.201  20.308  24.991  1.00  0.00    -0.018 A 
ATOM     15  C   UNL A   1      33.038  20.801  24.378  1.00  0.00     0.006 A 
ATOM     16  C   UNL A   1      34.514  18.947  24.820  1.00  0.00     0.019 A 
ATOM     17  C   UNL A   1      32.269  19.988  23.544  1.00  0.00     0.001 A 
ATOM     18  C   UNL A   1      33.728  18.111  24.011  1.00  0.00     0.056 A 
ATOM     19  C   UNL A   1      32.617  18.654  23.354  1.00  0.00     0.013 A 
BRANCH  18  20
ATOM     20  C   UNL A   1      34.068  16.654  23.834  1.00  0.00     0.416 C 
ATOM     21  F   UNL A   1      35.110  16.265  24.620  1.00  0.00    -0.166 F 
ATOM     22  F   UNL A   1      33.032  15.830  24.156  1.00  0.00    -0.166 F 
ATOM     23  F   UNL A   1      34.421  16.323  22.559  1.00  0.00    -0.166 F 
ENDBRANCH  18  20
ENDBRANCH  11  14
ENDBRANCH   6  11
ENDBRANCH   4   6
ENDBRANCH   3   4
ENDBRANCH   2   3
ENDBRANCH   1   2
BRANCH   1  24
ATOM     24  O   UNL A   1      40.841  21.123  27.478  1.00  0.00    -0.374 OA
BRANCH  24  25
ATOM     25  C   UNL A   1      42.116  20.514  27.280  1.00  0.00     0.202 C 
BRANCH  25  26
ATOM     26  C   UNL A   1      42.187  19.378  26.257  1.00  0.00     0.261 C 
BRANCH  26  27
ATOM     27  O   UNL A   1      42.699  19.849  24.998  1.00  0.00    -0.460 OA
BRANCH  27  28
ATOM     28  C   UNL A   1      44.047  19.843  24.910  1.00  0.00     0.338 C 
ATOM     29  O   UNL A   1      44.766  18.893  24.622  1.00  0.00    -0.246 OA
BRANCH  28  30
ATOM     30  C   UNL A   1      44.568  21.217  25.012  1.00  0.00     0.060 A 
ATOM     31  C   UNL A   1      45.553  21.450  25.981  1.00  0.00     0.016 A 
ATOM     32  C   UNL A   1      44.080  22.264  24.226  1.00  0.00     0.016 A 
ATOM     33  C   UNL A   1      45.996  22.745  26.227  1.00  0.00     0.010 A 
ATOM     34  C   UNL A   1      44.518  23.567  24.483  1.00  0.00     0.010 A 
ATOM     35  C   UNL A   1      45.438  23.814  25.518  1.00  0.00    -0.014 A 
BRANCH  35  36
ATOM     36  C   UNL A   1      45.667  25.193  26.011  1.00  0.00     0.031 A 
ATOM     37  C   UNL A   1      44.507  25.939  26.614  1.00  0.00     0.074 A 
ATOM     38  C   UNL A   1      46.890  25.747  25.984  1.00  0.00     0.049 A 
ATOM     39  N   UNL A   1      44.467  27.149  27.110  1.00  0.00    -0.248 NA
ATOM     40  C   UNL A   1      43.221  25.224  26.667  1.00  0.00     0.031 C 
ATOM     41  C   UNL A   1      48.102  25.102  25.484  1.00  0.00     0.029 A 
ATOM     42  N   UNL A   1      47.311  26.985  26.397  1.00  0.00    -0.354 N 
ATOM     43  C   UNL A   1      43.154  27.341  27.526  1.00  0.00     0.074 A 
ATOM     44  C   UNL A   1      42.423  26.138  27.198  1.00  0.00     0.031 C 
ATOM     45  C   UNL A   1      49.134  25.955  25.616  1.00  0.00     0.029 A 
ATOM     46  C   UNL A   1      48.647  27.212  26.179  1.00  0.00     0.049 A 
ATOM     47  H   UNL A   1      46.711  27.648  26.811  1.00  0.00     0.167 HD
ATOM     48  C   UNL A   1      42.607  28.419  28.134  1.00  0.00     0.031 A 
ATOM     49  C   UNL A   1      49.386  28.318  26.394  1.00  0.00     0.031 A 
ATOM     50  C   UNL A   1      43.331  29.620  28.451  1.00  0.00     0.049 A 
ATOM     51  C   UNL A   1      48.733  29.537  26.989  1.00  0.00     0.074 A 
ATOM     52  C   UNL A   1      42.869  30.766  29.073  1.00  0.00     0.029 A 
ATOM     53  N   UNL A   1      44.671  29.830  28.164  1.00  0.00    -0.354 N 
ATOM     54  N   UNL A   1      47.496  29.701  27.393  1.00  0.00    -0.248 NA
ATOM     55  C   UNL A   1      49.584  30.723  27.164  1.00  0.00     0.031 C 
ATOM     56  C   UNL A   1      43.916  31.693  29.111  1.00  0.00     0.029 A 
ATOM     57  C   UNL A   1      45.045  31.100  28.569  1.00  0.00     0.049 A 
ATOM     58  H   UNL A   1      45.267  29.175  27.735  1.00  0.00     0.167 HD
ATOM     59  C   UNL A   1      47.428  30.995  27.895  1.00  0.00     0.074 A 
ATOM     60  C   UNL A   1      48.752  31.567  27.758  1.00  0.00     0.031 C 
ATOM     61  C   UNL A   1      46.367  31.652  28.424  1.00  0.00     0.031 A 
BRANCH  48  62
ATOM     62  C   UNL A   1      41.141  28.360  28.458  1.00  0.00    -0.014 A 
ATOM     63  C   UNL A   1      40.181  28.925  27.605  1.00  0.00     0.009 A 
ATOM     64  C   UNL A   1      40.714  27.705  29.623  1.00  0.00     0.009 A 
ATOM     65  C   UNL A   1      38.823  28.862  27.928  1.00  0.00     0.001 A 
ATOM     66  C   UNL A   1      39.356  27.618  29.930  1.00  0.00     0.001 A 
ATOM     67  C   UNL A   1      38.412  28.203  29.086  1.00  0.00     0.000 A 
ENDBRANCH  48  62
BRANCH  49  68
ATOM     68  C   UNL A   1      50.824  28.337  26.021  1.00  0.00    -0.014 A 
ATOM     69  C   UNL A   1      51.224  28.683  24.722  1.00  0.00     0.009 A 
ATOM     70  C   UNL A   1      51.805  27.982  26.961  1.00  0.00     0.009 A 
ATOM     71  C   UNL A   1      52.575  28.646  24.364  1.00  0.00     0.001 A 
ATOM     72  C   UNL A   1      53.156  27.976  26.609  1.00  0.00     0.001 A 
ATOM     73  C   UNL A   1      53.539  28.298  25.308  1.00  0.00     0.000 A 
ENDBRANCH  49  68
BRANCH  61  74
ATOM     74  C   UNL A   1      46.601  33.050  28.927  1.00  0.00    -0.014 A 
ATOM     75  C   UNL A   1      46.401  34.166  28.101  1.00  0.00     0.009 A 
ATOM     76  C   UNL A   1      46.984  33.249  30.263  1.00  0.00     0.009 A 
ATOM     77  C   UNL A   1      46.611  35.455  28.595  1.00  0.00     0.001 A 
ATOM     78  C   UNL A   1      47.164  34.541  30.763  1.00  0.00     0.001 A 
ATOM     79  C   UNL A   1      46.989  35.641  29.926  1.00  0.00     0.000 A 
ENDBRANCH  61  74
ENDBRANCH  35  36
ENDBRANCH  28  30
ENDBRANCH  27  28
ENDBRANCH  26  27
ENDBRANCH  25  26
ENDBRANCH  24  25
ENDBRANCH   1  24
TORSDOF 21
ENDMDL
MODEL 3
REMARK VINA RESULT:      -9.2      3.648      5.070
REMARK SMILES CCCC[C@@H](C(=O)OCCOCCOC(=O)c1ccc(-c2c3nc(c(-c4ccccc4)c4ccc([nH]4)c(-c4ccccc4)c4nc(c(-c5ccccc5)c5ccc2[nH]5)C=C4)C=C3)cc1)[C@@H](O)c1cccc(C(F)(F)F)c1
REMARK SMILES IDX 10 1 9 2 8 3 6 4 7 5 5 6 4 7 3 8 2 9 1 10 65 11 66 12 67 14
REMARK SMILES IDX 68 15 76 16 69 17 71 18 70 19 72 20 73 21 74 22 75 23 11 24
REMARK SMILES IDX 12 25 13 26 14 27 15 28 16 29 17 30 18 31 64 32 19 33 63 34
REMARK SMILES IDX 20 35 21 36 22 37 57 38 23 39 62 40 56 41 58 42 24 43 61 44
REMARK SMILES IDX 55 45 54 46 25 48 47 49 32 50 46 51 33 52 36 53 45 54 59 55
REMARK SMILES IDX 34 56 35 57 44 59 60 60 37 61 26 62 27 63 31 64 28 65 30 66
REMARK SMILES IDX 29 67 48 68 49 69 53 70 50 71 52 72 51 73 38 74 39 75 43 76
REMARK SMILES IDX 40 77 42 78 41 79
REMARK H PARENT 66 13 58 47 36 58
REMARK Flexibility Score: inf
ROOT
ATOM      1  C   UNL A   1      32.395  29.578  27.231  1.00  0.00     0.202 C 
ENDROOT
BRANCH   1   2
ATOM      2  C   UNL A   1      31.516  29.035  26.097  1.00  0.00     0.261 C 
BRANCH   2   3
ATOM      3  O   UNL A   1      32.046  27.837  25.499  1.00  0.00    -0.463 OA
BRANCH   3   4
ATOM      4  C   UNL A   1      31.158  26.813  25.436  1.00  0.00     0.312 C 
ATOM      5  O   UNL A   1      30.559  26.386  26.414  1.00  0.00    -0.252 OA
BRANCH   4   6
ATOM      6  C   UNL A   1      30.978  26.283  24.018  1.00  0.00     0.132 C 
BRANCH   6   7
ATOM      7  C   UNL A   1      32.123  25.331  23.577  1.00  0.00     0.018 C 
BRANCH   7   8
ATOM      8  C   UNL A   1      32.785  24.475  24.668  1.00  0.00     0.001 C 
BRANCH   8   9
ATOM      9  C   UNL A   1      34.145  23.876  24.302  1.00  0.00    -0.003 C 
ATOM     10  C   UNL A   1      35.263  24.286  25.251  1.00  0.00     0.004 C 
ENDBRANCH   8   9
ENDBRANCH   7   8
ENDBRANCH   6   7
BRANCH   6  11
ATOM     11  C   UNL A   1      30.928  27.528  23.084  1.00  0.00     0.158 C 
BRANCH  11  12
ATOM     12  O   UNL A   1      31.224  27.152  21.738  1.00  0.00    -0.388 OA
ATOM     13  H   UNL A   1      31.838  26.402  21.739  1.00  0.00     0.211 HD
ENDBRANCH  11  12
BRANCH  11  14
ATOM     14  C   UNL A   1      29.629  28.323  23.038  1.00  0.00    -0.018 A 
ATOM     15  C   UNL A   1      28.359  27.736  23.140  1.00  0.00     0.006 A 
ATOM     16  C   UNL A   1      29.709  29.727  22.991  1.00  0.00     0.019 A 
ATOM     17  C   UNL A   1      27.216  28.523  23.288  1.00  0.00     0.001 A 
ATOM     18  C   UNL A   1      28.562  30.529  23.104  1.00  0.00     0.056 A 
ATOM     19  C   UNL A   1      27.318  29.911  23.280  1.00  0.00     0.013 A 
BRANCH  18  20
ATOM     20  C   UNL A   1      28.653  32.032  23.052  1.00  0.00     0.416 C 
ATOM     21  F   UNL A   1      27.443  32.631  23.231  1.00  0.00    -0.166 F 
ATOM     22  F   UNL A   1      29.466  32.543  24.017  1.00  0.00    -0.166 F 
ATOM     23  F   UNL A   1      29.133  32.513  21.870  1.00  0.00    -0.166 F 
ENDBRANCH  18  20
ENDBRANCH  11  14
ENDBRANCH   6  11
ENDBRANCH   4   6
ENDBRANCH   3   4
ENDBRANCH   2   3
ENDBRANCH   1   2
BRANCH   1  24
ATOM     24  O   UNL A   1      33.705  30.040  26.902  1.00  0.00    -0.374 OA
BRANCH  24  25
ATOM     25  C   UNL A   1      34.129  31.279  27.468  1.00  0.00     0.202 C 
BRANCH  25  26
ATOM     26  C   UNL A   1      33.050  32.341  27.691  1.00  0.00     0.261 C 
BRANCH  26  27
ATOM     27  O   UNL A   1      33.631  33.653  27.790  1.00  0.00    -0.460 OA
BRANCH  27  28
ATOM     28  C   UNL A   1      33.664  34.151  29.046  1.00  0.00     0.338 C 
ATOM     29  O   UNL A   1      32.775  34.766  29.623  1.00  0.00    -0.246 OA
BRANCH  28  30
ATOM     30  C   UNL A   1      34.872  33.679  29.746  1.00  0.00     0.060 A 
ATOM     31  C   UNL A   1      36.107  34.073  29.214  1.00  0.00     0.016 A 
ATOM     32  C   UNL A   1      34.812  32.834  30.857  1.00  0.00     0.016 A 
ATOM     33  C   UNL A   1      37.288  33.561  29.739  1.00  0.00     0.010 A 
ATOM     34  C   UNL A   1      36.000  32.309  31.376  1.00  0.00     0.010 A 
ATOM     35  C   UNL A   1      37.235  32.632  30.784  1.00  0.00    -0.014 A 
BRANCH  35  36
ATOM     36  C   UNL A   1      38.453  31.852  31.107  1.00  0.00     0.031 A 
ATOM     37  C   UNL A   1      39.284  32.277  32.288  1.00  0.00     0.074 A 
ATOM     38  C   UNL A   1      38.779  30.751  30.408  1.00  0.00     0.049 A 
ATOM     39  N   UNL A   1      40.385  31.751  32.760  1.00  0.00    -0.248 NA
ATOM     40  C   UNL A   1      38.808  33.452  33.038  1.00  0.00     0.031 C 
ATOM     41  C   UNL A   1      38.020  30.204  29.286  1.00  0.00     0.029 A 
ATOM     42  N   UNL A   1      39.839  29.894  30.551  1.00  0.00    -0.354 N 
ATOM     43  C   UNL A   1      40.735  32.533  33.854  1.00  0.00     0.074 A 
ATOM     44  C   UNL A   1      39.750  33.585  33.959  1.00  0.00     0.031 C 
ATOM     45  C   UNL A   1      38.644  29.100  28.837  1.00  0.00     0.029 A 
ATOM     46  C   UNL A   1      39.859  28.885  29.620  1.00  0.00     0.049 A 
ATOM     47  H   UNL A   1      40.522  29.992  31.255  1.00  0.00     0.167 HD
ATOM     48  C   UNL A   1      41.780  32.384  34.702  1.00  0.00     0.031 A 
ATOM     49  C   UNL A   1      40.766  27.911  29.415  1.00  0.00     0.031 A 
ATOM     50  C   UNL A   1      42.766  31.344  34.592  1.00  0.00     0.049 A 
ATOM     51  C   UNL A   1      41.969  27.821  30.317  1.00  0.00     0.074 A 
ATOM     52  C   UNL A   1      43.858  31.103  35.406  1.00  0.00     0.029 A 
ATOM     53  N   UNL A   1      42.779  30.374  33.602  1.00  0.00    -0.354 N 
ATOM     54  N   UNL A   1      42.281  28.555  31.358  1.00  0.00    -0.248 NA
ATOM     55  C   UNL A   1      42.941  26.759  30.018  1.00  0.00     0.031 C 
ATOM     56  C   UNL A   1      44.567  30.020  34.874  1.00  0.00     0.029 A 
ATOM     57  C   UNL A   1      43.880  29.550  33.766  1.00  0.00     0.049 A 
ATOM     58  H   UNL A   1      42.108  30.285  32.888  1.00  0.00     0.167 HD
ATOM     59  C   UNL A   1      43.467  28.028  31.853  1.00  0.00     0.074 A 
ATOM     60  C   UNL A   1      43.811  26.903  31.008  1.00  0.00     0.031 C 
ATOM     61  C   UNL A   1      44.206  28.436  32.914  1.00  0.00     0.031 A 
BRANCH  48  62
ATOM     62  C   UNL A   1      41.929  33.399  35.800  1.00  0.00    -0.014 A 
ATOM     63  C   UNL A   1      42.631  34.597  35.597  1.00  0.00     0.009 A 
ATOM     64  C   UNL A   1      41.333  33.163  37.049  1.00  0.00     0.009 A 
ATOM     65  C   UNL A   1      42.759  35.524  36.634  1.00  0.00     0.001 A 
ATOM     66  C   UNL A   1      41.439  34.103  38.074  1.00  0.00     0.001 A 
ATOM     67  C   UNL A   1      42.159  35.280  37.868  1.00  0.00     0.000 A 
ENDBRANCH  48  62
BRANCH  49  68
ATOM     68  C   UNL A   1      40.592  26.955  28.291  1.00  0.00    -0.014 A 
ATOM     69  C   UNL A   1      41.167  27.208  27.037  1.00  0.00     0.009 A 
ATOM     70  C   UNL A   1      39.823  25.792  28.462  1.00  0.00     0.009 A 
ATOM     71  C   UNL A   1      40.953  26.330  25.970  1.00  0.00     0.001 A 
ATOM     72  C   UNL A   1      39.636  24.902  27.404  1.00  0.00     0.001 A 
ATOM     73  C   UNL A   1      40.192  25.177  26.156  1.00  0.00     0.000 A 
ENDBRANCH  49  68
BRANCH  61  74
ATOM     74  C   UNL A   1      45.439  27.641  33.243  1.00  0.00    -0.014 A 
ATOM     75  C   UNL A   1      46.693  27.988  32.717  1.00  0.00     0.009 A 
ATOM     76  C   UNL A   1      45.348  26.556  34.129  1.00  0.00     0.009 A 
ATOM     77  C   UNL A   1      47.827  27.242  33.048  1.00  0.00     0.001 A 
ATOM     78  C   UNL A   1      46.488  25.831  34.481  1.00  0.00     0.001 A 
ATOM     79  C   UNL A   1      47.723  26.168  33.932  1.00  0.00     0.000 A 
ENDBRANCH  61  74
ENDBRANCH  35  36
ENDBRANCH  28  30
ENDBRANCH  27  28
ENDBRANCH  26  27
ENDBRANCH  25  26
ENDBRANCH  24  25
ENDBRANCH   1  24
TORSDOF 21
ENDMDL
