MODEL 1
REMARK VINA RESULT:     -10.5      0.000      0.000
REMARK SMILES O=C(OCCOCCOC(=O)c1ccccc1C(=O)N1CCS[C@H]1c1ccccc1)c1ccc(-c2c3nc(c(-c4ccccc4)c4ccc([nH]4)c(-c4ccccc4)c4nc(c(-c5ccccc5)c5ccc2[nH]5)C=C4)C=C3)cc1
REMARK SMILES IDX 7 1 6 2 5 3 4 4 3 5 2 6 1 7 31 8 32 9 78 10 33 11 77 12
REMARK SMILES IDX 34 13 35 14 36 15 71 16 37 17 76 18 70 19 72 20 38 21 75 22
REMARK SMILES IDX 69 23 68 24 39 26 61 27 46 28 60 29 47 30 50 31 59 32 73 33
REMARK SMILES IDX 48 34 49 35 58 37 74 38 51 39 40 40 41 41 45 42 42 43 44 44
REMARK SMILES IDX 43 45 62 46 63 47 67 48 64 49 66 50 65 51 52 52 53 53 57 54
REMARK SMILES IDX 54 55 56 56 55 57 8 58 9 59 10 60 11 61 12 62 13 63 17 64
REMARK SMILES IDX 14 65 16 66 15 67 18 68 19 69 20 70 21 71 24 72 22 73 23 74
REMARK SMILES IDX 25 75 26 76 30 77 27 78 29 79 28 80
REMARK H PARENT 72 25 50 36
REMARK Flexibility Score: inf
ROOT
ATOM      1  C   UNL A   1      33.837  29.709  26.130  1.00  0.00     0.202 C 
ENDROOT
BRANCH   1   2
ATOM      2  O   UNL A   1      33.277  30.833  26.797  1.00  0.00    -0.374 OA
BRANCH   2   3
ATOM      3  C   UNL A   1      31.910  31.095  26.538  1.00  0.00     0.202 C 
BRANCH   3   4
ATOM      4  C   UNL A   1      31.351  32.318  27.271  1.00  0.00     0.261 C 
BRANCH   4   5
ATOM      5  O   UNL A   1      32.220  33.464  27.159  1.00  0.00    -0.460 OA
BRANCH   5   6
ATOM      6  C   UNL A   1      32.958  34.026  28.150  1.00  0.00     0.338 C 
ATOM      7  O   UNL A   1      32.595  35.083  28.659  1.00  0.00    -0.246 OA
BRANCH   6   8
ATOM      8  C   UNL A   1      34.215  33.405  28.648  1.00  0.00     0.060 A 
ATOM      9  C   UNL A   1      34.246  32.384  29.599  1.00  0.00     0.016 A 
ATOM     10  C   UNL A   1      35.420  33.806  28.059  1.00  0.00     0.016 A 
ATOM     11  C   UNL A   1      35.440  31.860  30.060  1.00  0.00     0.010 A 
ATOM     12  C   UNL A   1      36.630  33.249  28.481  1.00  0.00     0.010 A 
ATOM     13  C   UNL A   1      36.639  32.299  29.512  1.00  0.00    -0.014 A 
BRANCH  13  14
ATOM     14  C   UNL A   1      37.884  31.866  30.164  1.00  0.00     0.031 A 
ATOM     15  C   UNL A   1      38.653  30.754  29.521  1.00  0.00     0.074 A 
ATOM     16  C   UNL A   1      38.376  32.556  31.208  1.00  0.00     0.049 A 
ATOM     17  N   UNL A   1      39.699  30.109  29.958  1.00  0.00    -0.248 NA
ATOM     18  C   UNL A   1      38.184  30.314  28.193  1.00  0.00     0.031 C 
ATOM     19  C   UNL A   1      37.779  33.765  31.784  1.00  0.00     0.029 A 
ATOM     20  N   UNL A   1      39.511  32.360  31.948  1.00  0.00    -0.354 N 
ATOM     21  C   UNL A   1      39.973  29.151  28.992  1.00  0.00     0.074 A 
ATOM     22  C   UNL A   1      39.006  29.311  27.931  1.00  0.00     0.031 C 
ATOM     23  C   UNL A   1      38.568  34.215  32.774  1.00  0.00     0.029 A 
ATOM     24  C   UNL A   1      39.668  33.277  32.961  1.00  0.00     0.049 A 
ATOM     25  H   UNL A   1      40.152  31.635  31.772  1.00  0.00     0.167 HD
ATOM     26  C   UNL A   1      40.936  28.203  29.016  1.00  0.00     0.031 A 
ATOM     27  C   UNL A   1      40.570  33.305  33.958  1.00  0.00     0.031 A 
ATOM     28  C   UNL A   1      41.882  28.084  30.089  1.00  0.00     0.049 A 
ATOM     29  C   UNL A   1      41.569  32.179  34.019  1.00  0.00     0.074 A 
ATOM     30  C   UNL A   1      42.855  27.126  30.288  1.00  0.00     0.029 A 
ATOM     31  N   UNL A   1      41.965  28.979  31.149  1.00  0.00    -0.354 N 
ATOM     32  N   UNL A   1      41.761  31.199  33.165  1.00  0.00    -0.248 NA
ATOM     33  C   UNL A   1      42.447  32.137  35.194  1.00  0.00     0.031 C 
ATOM     34  C   UNL A   1      43.499  27.417  31.497  1.00  0.00     0.029 A 
ATOM     35  C   UNL A   1      42.959  28.584  32.020  1.00  0.00     0.049 A 
ATOM     36  H   UNL A   1      41.399  29.777  31.260  1.00  0.00     0.167 HD
ATOM     37  C   UNL A   1      42.781  30.425  33.698  1.00  0.00     0.074 A 
ATOM     38  C   UNL A   1      43.188  31.070  34.932  1.00  0.00     0.031 C 
ATOM     39  C   UNL A   1      43.324  29.274  33.231  1.00  0.00     0.031 A 
BRANCH  26  40
ATOM     40  C   UNL A   1      40.919  27.184  27.916  1.00  0.00    -0.014 A 
ATOM     41  C   UNL A   1      40.175  25.997  28.011  1.00  0.00     0.009 A 
ATOM     42  C   UNL A   1      41.702  27.404  26.772  1.00  0.00     0.009 A 
ATOM     43  C   UNL A   1      40.244  25.039  26.996  1.00  0.00     0.001 A 
ATOM     44  C   UNL A   1      41.753  26.455  25.751  1.00  0.00     0.001 A 
ATOM     45  C   UNL A   1      41.031  25.270  25.867  1.00  0.00     0.000 A 
ENDBRANCH  26  40
BRANCH  27  46
ATOM     46  C   UNL A   1      40.501  34.340  35.026  1.00  0.00    -0.014 A 
ATOM     47  C   UNL A   1      39.723  34.148  36.178  1.00  0.00     0.009 A 
ATOM     48  C   UNL A   1      41.190  35.557  34.879  1.00  0.00     0.009 A 
ATOM     49  C   UNL A   1      39.613  35.160  37.139  1.00  0.00     0.001 A 
ATOM     50  C   UNL A   1      41.108  36.552  35.856  1.00  0.00     0.001 A 
ATOM     51  C   UNL A   1      40.308  36.358  36.979  1.00  0.00     0.000 A 
ENDBRANCH  27  46
BRANCH  39  52
ATOM     52  C   UNL A   1      44.424  28.672  34.050  1.00  0.00    -0.014 A 
ATOM     53  C   UNL A   1      45.757  29.069  33.867  1.00  0.00     0.009 A 
ATOM     54  C   UNL A   1      44.112  27.742  35.051  1.00  0.00     0.009 A 
ATOM     55  C   UNL A   1      46.765  28.521  34.660  1.00  0.00     0.001 A 
ATOM     56  C   UNL A   1      45.118  27.218  35.860  1.00  0.00     0.001 A 
ATOM     57  C   UNL A   1      46.443  27.603  35.660  1.00  0.00     0.000 A 
ENDBRANCH  39  52
ENDBRANCH  13  14
ENDBRANCH   6   8
ENDBRANCH   5   6
ENDBRANCH   4   5
ENDBRANCH   3   4
ENDBRANCH   2   3
ENDBRANCH   1   2
BRANCH   1  58
ATOM     58  C   UNL A   1      33.739  28.510  27.042  1.00  0.00     0.261 C 
BRANCH  58  59
ATOM     59  O   UNL A   1      33.033  27.459  26.390  1.00  0.00    -0.460 OA
BRANCH  59  60
ATOM     60  C   UNL A   1      31.787  27.231  26.863  1.00  0.00     0.339 C 
ATOM     61  O   UNL A   1      31.273  27.625  27.890  1.00  0.00    -0.246 OA
BRANCH  60  62
ATOM     62  C   UNL A   1      31.060  26.520  25.819  1.00  0.00     0.072 A 
ATOM     63  C   UNL A   1      30.311  27.349  24.956  1.00  0.00     0.016 A 
ATOM     64  C   UNL A   1      31.148  25.140  25.615  1.00  0.00     0.054 A 
ATOM     65  C   UNL A   1      29.688  26.815  23.835  1.00  0.00     0.001 A 
ATOM     66  C   UNL A   1      30.508  24.629  24.466  1.00  0.00     0.015 A 
ATOM     67  C   UNL A   1      29.799  25.454  23.582  1.00  0.00     0.001 A 
BRANCH  64  68
ATOM     68  C   UNL A   1      31.910  24.136  26.442  1.00  0.00     0.255 C 
ATOM     69  O   UNL A   1      31.437  23.823  27.537  1.00  0.00    -0.269 OA
BRANCH  68  70
ATOM     70  N   UNL A   1      33.079  23.508  25.988  1.00  0.00    -0.322 N 
ATOM     71  C   UNL A   1      33.700  22.641  26.990  1.00  0.00     0.132 C 
ATOM     72  C   UNL A   1      34.099  24.306  25.303  1.00  0.00     0.174 C 
ATOM     73  C   UNL A   1      35.003  22.070  26.470  1.00  0.00     0.093 C 
ATOM     74  S   UNL A   1      35.675  23.370  25.420  1.00  0.00    -0.130 SA
BRANCH  72  75
ATOM     75  C   UNL A   1      33.745  24.757  23.898  1.00  0.00    -0.015 A 
ATOM     76  C   UNL A   1      33.377  23.884  22.858  1.00  0.00     0.007 A 
ATOM     77  C   UNL A   1      33.759  26.136  23.619  1.00  0.00     0.007 A 
ATOM     78  C   UNL A   1      33.016  24.377  21.597  1.00  0.00     0.000 A 
ATOM     79  C   UNL A   1      33.381  26.627  22.368  1.00  0.00     0.000 A 
ATOM     80  C   UNL A   1      33.007  25.748  21.358  1.00  0.00     0.000 A 
ENDBRANCH  72  75
ENDBRANCH  68  70
ENDBRANCH  64  68
ENDBRANCH  60  62
ENDBRANCH  59  60
ENDBRANCH  58  59
ENDBRANCH   1  58
TORSDOF 17
ENDMDL
MODEL 2
REMARK VINA RESULT:     -10.4      4.007      8.489
REMARK SMILES O=C(OCCOCCOC(=O)c1ccccc1C(=O)N1CCS[C@H]1c1ccccc1)c1ccc(-c2c3nc(c(-c4ccccc4)c4ccc([nH]4)c(-c4ccccc4)c4nc(c(-c5ccccc5)c5ccc2[nH]5)C=C4)C=C3)cc1
REMARK SMILES IDX 7 1 6 2 5 3 4 4 3 5 2 6 1 7 31 8 32 9 78 10 33 11 77 12
REMARK SMILES IDX 34 13 35 14 36 15 71 16 37 17 76 18 70 19 72 20 38 21 75 22
REMARK SMILES IDX 69 23 68 24 39 26 61 27 46 28 60 29 47 30 50 31 59 32 73 33
REMARK SMILES IDX 48 34 49 35 58 37 74 38 51 39 40 40 41 41 45 42 42 43 44 44
REMARK SMILES IDX 43 45 62 46 63 47 67 48 64 49 66 50 65 51 52 52 53 53 57 54
REMARK SMILES IDX 54 55 56 56 55 57 8 58 9 59 10 60 11 61 12 62 13 63 17 64
REMARK SMILES IDX 14 65 16 66 15 67 18 68 19 69 20 70 21 71 24 72 22 73 23 74
REMARK SMILES IDX 25 75 26 76 30 77 27 78 29 79 28 80
REMARK H PARENT 72 25 50 36
REMARK Flexibility Score: inf
ROOT
ATOM      1  C   UNL A   1      35.114  24.055  24.481  1.00  0.00     0.202 C 
ENDROOT
BRANCH   1   2
ATOM      2  O   UNL A   1      36.470  23.689  24.261  1.00  0.00    -0.374 OA
BRANCH   2   3
ATOM      3  C   UNL A   1      36.683  22.497  23.527  1.00  0.00     0.202 C 
BRANCH   3   4
ATOM      4  C   UNL A   1      36.984  21.268  24.390  1.00  0.00     0.261 C 
BRANCH   4   5
ATOM      5  O   UNL A   1      37.467  21.629  25.700  1.00  0.00    -0.460 OA
BRANCH   5   6
ATOM      6  C   UNL A   1      38.761  21.681  26.106  1.00  0.00     0.338 C 
ATOM      7  O   UNL A   1      39.444  20.659  26.105  1.00  0.00    -0.246 OA
BRANCH   6   8
ATOM      8  C   UNL A   1      39.397  22.946  26.563  1.00  0.00     0.060 A 
ATOM      9  C   UNL A   1      38.911  24.214  26.241  1.00  0.00     0.016 A 
ATOM     10  C   UNL A   1      40.486  22.849  27.439  1.00  0.00     0.016 A 
ATOM     11  C   UNL A   1      39.555  25.363  26.660  1.00  0.00     0.010 A 
ATOM     12  C   UNL A   1      41.115  24.005  27.908  1.00  0.00     0.010 A 
ATOM     13  C   UNL A   1      40.668  25.265  27.486  1.00  0.00    -0.014 A 
BRANCH  13  14
ATOM     14  C   UNL A   1      41.437  26.493  27.743  1.00  0.00     0.031 A 
ATOM     15  C   UNL A   1      40.865  27.477  28.715  1.00  0.00     0.074 A 
ATOM     16  C   UNL A   1      42.673  26.636  27.234  1.00  0.00     0.049 A 
ATOM     17  N   UNL A   1      41.274  28.678  29.015  1.00  0.00    -0.248 NA
ATOM     18  C   UNL A   1      39.670  27.042  29.463  1.00  0.00     0.031 C 
ATOM     19  C   UNL A   1      43.377  25.639  26.422  1.00  0.00     0.029 A 
ATOM     20  N   UNL A   1      43.571  27.662  27.355  1.00  0.00    -0.354 N 
ATOM     21  C   UNL A   1      40.355  29.163  29.935  1.00  0.00     0.074 A 
ATOM     22  C   UNL A   1      39.381  28.123  30.170  1.00  0.00     0.031 C 
ATOM     23  C   UNL A   1      44.608  26.096  26.137  1.00  0.00     0.029 A 
ATOM     24  C   UNL A   1      44.740  27.449  26.664  1.00  0.00     0.049 A 
ATOM     25  H   UNL A   1      43.396  28.473  27.885  1.00  0.00     0.167 HD
ATOM     26  C   UNL A   1      40.323  30.388  30.506  1.00  0.00     0.031 A 
ATOM     27  C   UNL A   1      45.768  28.287  26.441  1.00  0.00     0.031 A 
ATOM     28  C   UNL A   1      41.317  31.391  30.249  1.00  0.00     0.049 A 
ATOM     29  C   UNL A   1      45.658  29.680  27.003  1.00  0.00     0.074 A 
ATOM     30  C   UNL A   1      41.367  32.698  30.689  1.00  0.00     0.029 A 
ATOM     31  N   UNL A   1      42.451  31.174  29.477  1.00  0.00    -0.354 N 
ATOM     32  N   UNL A   1      44.730  30.184  27.785  1.00  0.00    -0.248 NA
ATOM     33  C   UNL A   1      46.711  30.630  26.626  1.00  0.00     0.031 C 
ATOM     34  C   UNL A   1      42.513  33.288  30.142  1.00  0.00     0.029 A 
ATOM     35  C   UNL A   1      43.199  32.332  29.406  1.00  0.00     0.049 A 
ATOM     36  H   UNL A   1      42.686  30.322  29.045  1.00  0.00     0.167 HD
ATOM     37  C   UNL A   1      45.086  31.509  27.993  1.00  0.00     0.074 A 
ATOM     38  C   UNL A   1      46.334  31.718  27.283  1.00  0.00     0.031 C 
ATOM     39  C   UNL A   1      44.438  32.477  28.687  1.00  0.00     0.031 A 
BRANCH  26  40
ATOM     40  C   UNL A   1      39.128  30.716  31.350  1.00  0.00    -0.014 A 
ATOM     41  C   UNL A   1      39.112  30.497  32.737  1.00  0.00     0.009 A 
ATOM     42  C   UNL A   1      37.974  31.219  30.730  1.00  0.00     0.009 A 
ATOM     43  C   UNL A   1      37.952  30.746  33.477  1.00  0.00     0.001 A 
ATOM     44  C   UNL A   1      36.824  31.486  31.474  1.00  0.00     0.001 A 
ATOM     45  C   UNL A   1      36.812  31.242  32.845  1.00  0.00     0.000 A 
ENDBRANCH  26  40
BRANCH  27  46
ATOM     46  C   UNL A   1      46.908  27.890  25.569  1.00  0.00    -0.014 A 
ATOM     47  C   UNL A   1      48.119  27.438  26.114  1.00  0.00     0.009 A 
ATOM     48  C   UNL A   1      46.802  28.000  24.172  1.00  0.00     0.009 A 
ATOM     49  C   UNL A   1      49.204  27.136  25.283  1.00  0.00     0.001 A 
ATOM     50  C   UNL A   1      47.874  27.663  23.342  1.00  0.00     0.001 A 
ATOM     51  C   UNL A   1      49.080  27.244  23.898  1.00  0.00     0.000 A 
ENDBRANCH  27  46
BRANCH  39  52
ATOM     52  C   UNL A   1      45.090  33.825  28.722  1.00  0.00    -0.014 A 
ATOM     53  C   UNL A   1      44.767  34.804  27.770  1.00  0.00     0.009 A 
ATOM     54  C   UNL A   1      45.991  34.133  29.751  1.00  0.00     0.009 A 
ATOM     55  C   UNL A   1      45.359  36.065  27.836  1.00  0.00     0.001 A 
ATOM     56  C   UNL A   1      46.559  35.402  29.829  1.00  0.00     0.001 A 
ATOM     57  C   UNL A   1      46.248  36.364  28.869  1.00  0.00     0.000 A 
ENDBRANCH  39  52
ENDBRANCH  13  14
ENDBRANCH   6   8
ENDBRANCH   5   6
ENDBRANCH   4   5
ENDBRANCH   3   4
ENDBRANCH   2   3
ENDBRANCH   1   2
BRANCH   1  58
ATOM     58  C   UNL A   1      34.482  24.380  23.149  1.00  0.00     0.261 C 
BRANCH  58  59
ATOM     59  O   UNL A   1      33.991  25.718  23.156  1.00  0.00    -0.460 OA
BRANCH  59  60
ATOM     60  C   UNL A   1      33.209  26.044  22.104  1.00  0.00     0.339 C 
ATOM     61  O   UNL A   1      33.290  25.682  20.947  1.00  0.00    -0.246 OA
BRANCH  60  62
ATOM     62  C   UNL A   1      32.095  26.825  22.628  1.00  0.00     0.072 A 
ATOM     63  C   UNL A   1      32.149  28.202  22.324  1.00  0.00     0.016 A 
ATOM     64  C   UNL A   1      31.007  26.266  23.304  1.00  0.00     0.054 A 
ATOM     65  C   UNL A   1      31.082  29.034  22.639  1.00  0.00     0.001 A 
ATOM     66  C   UNL A   1      29.938  27.134  23.607  1.00  0.00     0.015 A 
ATOM     67  C   UNL A   1      29.967  28.495  23.269  1.00  0.00     0.001 A 
BRANCH  64  68
ATOM     68  C   UNL A   1      30.807  24.822  23.689  1.00  0.00     0.255 C 
ATOM     69  O   UNL A   1      30.021  24.155  23.013  1.00  0.00    -0.269 OA
BRANCH  68  70
ATOM     70  N   UNL A   1      31.521  24.207  24.729  1.00  0.00    -0.322 N 
ATOM     71  C   UNL A   1      31.481  22.745  24.676  1.00  0.00     0.132 C 
ATOM     72  C   UNL A   1      31.325  24.673  26.104  1.00  0.00     0.174 C 
ATOM     73  C   UNL A   1      32.189  22.147  25.874  1.00  0.00     0.093 C 
ATOM     74  S   UNL A   1      31.873  23.313  27.210  1.00  0.00    -0.130 SA
BRANCH  72  75
ATOM     75  C   UNL A   1      31.930  26.025  26.431  1.00  0.00    -0.015 A 
ATOM     76  C   UNL A   1      33.267  26.377  26.167  1.00  0.00     0.007 A 
ATOM     77  C   UNL A   1      31.100  27.002  27.012  1.00  0.00     0.007 A 
ATOM     78  C   UNL A   1      33.744  27.661  26.454  1.00  0.00     0.000 A 
ATOM     79  C   UNL A   1      31.572  28.288  27.279  1.00  0.00     0.000 A 
ATOM     80  C   UNL A   1      32.893  28.619  26.998  1.00  0.00     0.000 A 
ENDBRANCH  72  75
ENDBRANCH  68  70
ENDBRANCH  64  68
ENDBRANCH  60  62
ENDBRANCH  59  60
ENDBRANCH  58  59
ENDBRANCH   1  58
TORSDOF 17
ENDMDL
MODEL 3
REMARK VINA RESULT:     -10.4      4.199      8.462
REMARK SMILES O=C(OCCOCCOC(=O)c1ccccc1C(=O)N1CCS[C@H]1c1ccccc1)c1ccc(-c2c3nc(c(-c4ccccc4)c4ccc([nH]4)c(-c4ccccc4)c4nc(c(-c5ccccc5)c5ccc2[nH]5)C=C4)C=C3)cc1
REMARK SMILES IDX 7 1 6 2 5 3 4 4 3 5 2 6 1 7 31 8 32 9 78 10 33 11 77 12
REMARK SMILES IDX 34 13 35 14 36 15 71 16 37 17 76 18 70 19 72 20 38 21 75 22
REMARK SMILES IDX 69 23 68 24 39 26 61 27 46 28 60 29 47 30 50 31 59 32 73 33
REMARK SMILES IDX 48 34 49 35 58 37 74 38 51 39 40 40 41 41 45 42 42 43 44 44
REMARK SMILES IDX 43 45 62 46 63 47 67 48 64 49 66 50 65 51 52 52 53 53 57 54
REMARK SMILES IDX 54 55 56 56 55 57 8 58 9 59 10 60 11 61 12 62 13 63 17 64
REMARK SMILES IDX 14 65 16 66 15 67 18 68 19 69 20 70 21 71 24 72 22 73 23 74
REMARK SMILES IDX 25 75 26 76 30 77 27 78 29 79 28 80
REMARK H PARENT 72 25 50 36
REMARK Flexibility Score: inf
ROOT
ATOM      1  C   UNL A   1      37.808  22.121  26.041  1.00  0.00     0.202 C 
ENDROOT
BRANCH   1   2
ATOM      2  O   UNL A   1      38.958  21.603  25.384  1.00  0.00    -0.374 OA
BRANCH   2   3
ATOM      3  C   UNL A   1      38.936  20.218  25.088  1.00  0.00     0.202 C 
BRANCH   3   4
ATOM      4  C   UNL A   1      39.705  19.347  26.085  1.00  0.00     0.261 C 
BRANCH   4   5
ATOM      5  O   UNL A   1      41.022  19.005  25.605  1.00  0.00    -0.460 OA
BRANCH   5   6
ATOM      6  C   UNL A   1      42.192  19.608  25.939  1.00  0.00     0.338 C 
ATOM      7  O   UNL A   1      43.245  18.978  25.873  1.00  0.00    -0.246 OA
BRANCH   6   8
ATOM      8  C   UNL A   1      42.251  21.023  26.393  1.00  0.00     0.060 A 
ATOM      9  C   UNL A   1      42.385  22.107  25.525  1.00  0.00     0.016 A 
ATOM     10  C   UNL A   1      42.067  21.278  27.758  1.00  0.00     0.016 A 
ATOM     11  C   UNL A   1      42.471  23.404  25.994  1.00  0.00     0.010 A 
ATOM     12  C   UNL A   1      42.103  22.590  28.239  1.00  0.00     0.010 A 
ATOM     13  C   UNL A   1      42.342  23.652  27.356  1.00  0.00    -0.014 A 
BRANCH  13  14
ATOM     14  C   UNL A   1      42.637  25.012  27.832  1.00  0.00     0.031 A 
ATOM     15  C   UNL A   1      44.077  25.405  27.957  1.00  0.00     0.074 A 
ATOM     16  C   UNL A   1      41.643  25.902  27.995  1.00  0.00     0.049 A 
ATOM     17  N   UNL A   1      44.598  26.485  28.468  1.00  0.00    -0.248 NA
ATOM     18  C   UNL A   1      45.067  24.452  27.420  1.00  0.00     0.031 C 
ATOM     19  C   UNL A   1      40.225  25.651  27.719  1.00  0.00     0.029 A 
ATOM     20  N   UNL A   1      41.677  27.210  28.398  1.00  0.00    -0.354 N 
ATOM     21  C   UNL A   1      45.973  26.313  28.371  1.00  0.00     0.074 A 
ATOM     22  C   UNL A   1      46.210  25.042  27.729  1.00  0.00     0.031 C 
ATOM     23  C   UNL A   1      39.529  26.779  27.940  1.00  0.00     0.029 A 
ATOM     24  C   UNL A   1      40.435  27.795  28.461  1.00  0.00     0.049 A 
ATOM     25  H   UNL A   1      42.510  27.685  28.620  1.00  0.00     0.167 HD
ATOM     26  C   UNL A   1      46.944  27.143  28.813  1.00  0.00     0.031 A 
ATOM     27  C   UNL A   1      40.079  28.998  28.945  1.00  0.00     0.031 A 
ATOM     28  C   UNL A   1      46.663  28.403  29.441  1.00  0.00     0.049 A 
ATOM     29  C   UNL A   1      41.169  29.860  29.526  1.00  0.00     0.074 A 
ATOM     30  C   UNL A   1      47.538  29.305  30.011  1.00  0.00     0.029 A 
ATOM     31  N   UNL A   1      45.386  28.935  29.567  1.00  0.00    -0.354 N 
ATOM     32  N   UNL A   1      42.466  29.652  29.540  1.00  0.00    -0.248 NA
ATOM     33  C   UNL A   1      40.749  31.100  30.188  1.00  0.00     0.031 C 
ATOM     34  C   UNL A   1      46.782  30.366  30.525  1.00  0.00     0.029 A 
ATOM     35  C   UNL A   1      45.445  30.145  30.228  1.00  0.00     0.049 A 
ATOM     36  H   UNL A   1      44.562  28.512  29.234  1.00  0.00     0.167 HD
ATOM     37  C   UNL A   1      43.018  30.733  30.212  1.00  0.00     0.074 A 
ATOM     38  C   UNL A   1      41.915  31.611  30.558  1.00  0.00     0.031 C 
ATOM     39  C   UNL A   1      44.311  30.978  30.537  1.00  0.00     0.031 A 
BRANCH  26  40
ATOM     40  C   UNL A   1      48.356  26.647  28.727  1.00  0.00    -0.014 A 
ATOM     41  C   UNL A   1      49.162  26.884  27.602  1.00  0.00     0.009 A 
ATOM     42  C   UNL A   1      48.876  25.887  29.786  1.00  0.00     0.009 A 
ATOM     43  C   UNL A   1      50.449  26.341  27.530  1.00  0.00     0.001 A 
ATOM     44  C   UNL A   1      50.168  25.364  29.720  1.00  0.00     0.001 A 
ATOM     45  C   UNL A   1      50.950  25.584  28.589  1.00  0.00     0.000 A 
ENDBRANCH  26  40
BRANCH  27  46
ATOM     46  C   UNL A   1      38.648  29.404  29.017  1.00  0.00    -0.014 A 
ATOM     47  C   UNL A   1      37.863  29.110  30.143  1.00  0.00     0.009 A 
ATOM     48  C   UNL A   1      38.042  30.058  27.931  1.00  0.00     0.009 A 
ATOM     49  C   UNL A   1      36.502  29.436  30.165  1.00  0.00     0.001 A 
ATOM     50  C   UNL A   1      36.692  30.414  27.968  1.00  0.00     0.001 A 
ATOM     51  C   UNL A   1      35.919  30.091  29.080  1.00  0.00     0.000 A 
ENDBRANCH  27  46
BRANCH  39  52
ATOM     52  C   UNL A   1      44.586  32.251  31.277  1.00  0.00    -0.014 A 
ATOM     53  C   UNL A   1      44.802  33.453  30.585  1.00  0.00     0.009 A 
ATOM     54  C   UNL A   1      44.570  32.254  32.679  1.00  0.00     0.009 A 
ATOM     55  C   UNL A   1      45.025  34.635  31.290  1.00  0.00     0.001 A 
ATOM     56  C   UNL A   1      44.765  33.443  33.379  1.00  0.00     0.001 A 
ATOM     57  C   UNL A   1      44.999  34.629  32.686  1.00  0.00     0.000 A 
ENDBRANCH  39  52
ENDBRANCH  13  14
ENDBRANCH   6   8
ENDBRANCH   5   6
ENDBRANCH   4   5
ENDBRANCH   3   4
ENDBRANCH   2   3
ENDBRANCH   1   2
BRANCH   1  58
ATOM     58  C   UNL A   1      37.477  23.467  25.442  1.00  0.00     0.261 C 
BRANCH  58  59
ATOM     59  O   UNL A   1      36.130  23.475  24.979  1.00  0.00    -0.460 OA
BRANCH  59  60
ATOM     60  C   UNL A   1      35.954  23.001  23.726  1.00  0.00     0.339 C 
ATOM     61  O   UNL A   1      36.704  23.058  22.773  1.00  0.00    -0.246 OA
BRANCH  60  62
ATOM     62  C   UNL A   1      34.716  22.232  23.732  1.00  0.00     0.072 A 
ATOM     63  C   UNL A   1      34.761  21.051  24.502  1.00  0.00     0.016 A 
ATOM     64  C   UNL A   1      33.539  22.653  23.104  1.00  0.00     0.054 A 
ATOM     65  C   UNL A   1      33.609  20.302  24.709  1.00  0.00     0.001 A 
ATOM     66  C   UNL A   1      32.387  21.875  23.336  1.00  0.00     0.015 A 
ATOM     67  C   UNL A   1      32.416  20.723  24.136  1.00  0.00     0.001 A 
BRANCH  64  68
ATOM     68  C   UNL A   1      33.339  23.887  22.262  1.00  0.00     0.255 C 
ATOM     69  O   UNL A   1      33.472  23.772  21.041  1.00  0.00    -0.269 OA
BRANCH  68  70
ATOM     70  N   UNL A   1      32.948  25.121  22.802  1.00  0.00    -0.322 N 
ATOM     71  C   UNL A   1      33.300  26.263  21.958  1.00  0.00     0.132 C 
ATOM     72  C   UNL A   1      33.249  25.414  24.206  1.00  0.00     0.174 C 
ATOM     73  C   UNL A   1      32.936  27.565  22.641  1.00  0.00     0.093 C 
ATOM     74  S   UNL A   1      33.192  27.240  24.394  1.00  0.00    -0.130 SA
BRANCH  72  75
ATOM     75  C   UNL A   1      32.420  24.656  25.226  1.00  0.00    -0.015 A 
ATOM     76  C   UNL A   1      31.018  24.547  25.181  1.00  0.00     0.007 A 
ATOM     77  C   UNL A   1      33.092  23.997  26.272  1.00  0.00     0.007 A 
ATOM     78  C   UNL A   1      30.322  23.791  26.131  1.00  0.00     0.000 A 
ATOM     79  C   UNL A   1      32.399  23.227  27.208  1.00  0.00     0.000 A 
ATOM     80  C   UNL A   1      31.014  23.122  27.136  1.00  0.00     0.000 A 
ENDBRANCH  72  75
ENDBRANCH  68  70
ENDBRANCH  64  68
ENDBRANCH  60  62
ENDBRANCH  59  60
ENDBRANCH  58  59
ENDBRANCH   1  58
TORSDOF 17
ENDMDL
