MODEL 1
REMARK VINA RESULT:      -9.5      0.000      0.000
REMARK SMILES COC[C@@H](C)Nc1ccc([N+](=O)[O-])c(C(=O)OCCOCCOC(=O)c2ccc(-c3c4nc(c(-c5ccccc5)c5ccc([nH]5)c(-c5ccccc5)c5nc(c(-c6ccccc6)c6ccc3[nH]6)C=C5)C=C4)cc2)c1
REMARK SMILES IDX 19 1 18 2 17 3 15 4 16 5 14 6 7 7 8 8 74 9 9 10 10 11 6 12
REMARK SMILES IDX 4 14 5 15 3 16 2 17 1 18 11 19 12 20 13 21 20 22 21 23 22 24
REMARK SMILES IDX 23 25 24 26 25 27 26 28 27 29 73 30 28 31 72 32 29 33 30 34
REMARK SMILES IDX 31 35 66 36 32 37 71 38 65 39 67 40 33 41 70 42 64 43 63 44
REMARK SMILES IDX 34 46 56 47 41 48 55 49 42 50 45 51 54 52 68 53 43 54 44 55
REMARK SMILES IDX 53 57 69 58 46 59 35 60 36 61 40 62 37 63 39 64 38 65 57 66
REMARK SMILES IDX 58 67 62 68 59 69 61 70 60 71 47 72 48 73 52 74 49 75 51 76
REMARK SMILES IDX 50 77
REMARK H PARENT 6 13 67 45 45 56
REMARK Flexibility Score: inf
ROOT
ATOM      1  C   UNL A   1      37.365  23.279  25.714  1.00  0.00     0.202 C 
ENDROOT
BRANCH   1   2
ATOM      2  C   UNL A   1      36.759  23.462  24.319  1.00  0.00     0.261 C 
BRANCH   2   3
ATOM      3  O   UNL A   1      35.376  23.830  24.402  1.00  0.00    -0.459 OA
BRANCH   3   4
ATOM      4  C   UNL A   1      34.565  23.294  23.459  1.00  0.00     0.345 C 
ATOM      5  O   UNL A   1      34.522  23.552  22.268  1.00  0.00    -0.246 OA
BRANCH   4   6
ATOM      6  C   UNL A   1      33.739  22.253  24.091  1.00  0.00     0.139 A 
ATOM      7  C   UNL A   1      33.596  19.952  24.909  1.00  0.00     0.036 A 
ATOM      8  C   UNL A   1      32.309  20.240  25.387  1.00  0.00     0.033 A 
ATOM      9  C   UNL A   1      34.292  20.972  24.253  1.00  0.00     0.048 A 
ATOM     10  C   UNL A   1      31.729  21.501  25.215  1.00  0.00     0.089 A 
ATOM     11  C   UNL A   1      32.452  22.507  24.567  1.00  0.00     0.284 A 
BRANCH   7  12
ATOM     12  N   UNL A   1      34.133  18.708  25.165  1.00  0.00    -0.380 N 
ATOM     13  H   UNL A   1      34.418  18.519  26.088  1.00  0.00     0.160 HD
BRANCH  12  14
ATOM     14  C   UNL A   1      34.313  17.644  24.174  1.00  0.00     0.102 C 
ATOM     15  C   UNL A   1      33.129  17.690  23.210  1.00  0.00     0.033 C 
BRANCH  14  16
ATOM     16  C   UNL A   1      34.447  16.291  24.912  1.00  0.00     0.184 C 
BRANCH  16  17
ATOM     17  O   UNL A   1      33.401  15.361  24.628  1.00  0.00    -0.383 OA
ATOM     18  C   UNL A   1      32.530  15.104  25.718  1.00  0.00     0.194 C 
ENDBRANCH  16  17
ENDBRANCH  14  16
ENDBRANCH  12  14
ENDBRANCH   7  12
BRANCH  11  19
ATOM     19  N   UNL A   1      31.783  23.781  24.332  1.00  0.00     0.063 N 
ATOM     20  O   UNL A   1      31.776  24.594  25.266  1.00  0.00    -0.258 OA
ATOM     21  O   UNL A   1      31.174  23.920  23.265  1.00  0.00    -0.258 OA
ENDBRANCH  11  19
ENDBRANCH   4   6
ENDBRANCH   3   4
ENDBRANCH   2   3
ENDBRANCH   1   2
BRANCH   1  22
ATOM     22  O   UNL A   1      37.959  22.020  26.024  1.00  0.00    -0.374 OA
BRANCH  22  23
ATOM     23  C   UNL A   1      37.976  21.015  25.013  1.00  0.00     0.202 C 
BRANCH  23  24
ATOM     24  C   UNL A   1      38.817  19.758  25.259  1.00  0.00     0.261 C 
BRANCH  24  25
ATOM     25  O   UNL A   1      39.638  19.845  26.433  1.00  0.00    -0.460 OA
BRANCH  25  26
ATOM     26  C   UNL A   1      40.948  19.578  26.213  1.00  0.00     0.338 C 
ATOM     27  O   UNL A   1      41.436  18.561  25.750  1.00  0.00    -0.246 OA
BRANCH  26  28
ATOM     28  C   UNL A   1      41.747  20.787  26.471  1.00  0.00     0.060 A 
ATOM     29  C   UNL A   1      42.033  21.106  27.804  1.00  0.00     0.016 A 
ATOM     30  C   UNL A   1      42.130  21.637  25.432  1.00  0.00     0.016 A 
ATOM     31  C   UNL A   1      42.670  22.304  28.109  1.00  0.00     0.010 A 
ATOM     32  C   UNL A   1      42.762  22.844  25.742  1.00  0.00     0.010 A 
ATOM     33  C   UNL A   1      43.003  23.197  27.084  1.00  0.00    -0.014 A 
BRANCH  33  34
ATOM     34  C   UNL A   1      43.484  24.557  27.422  1.00  0.00     0.031 A 
ATOM     35  C   UNL A   1      42.491  25.593  27.872  1.00  0.00     0.074 A 
ATOM     36  C   UNL A   1      44.791  24.857  27.347  1.00  0.00     0.049 A 
ATOM     37  N   UNL A   1      42.686  26.851  28.170  1.00  0.00    -0.248 NA
ATOM     38  C   UNL A   1      41.092  25.152  27.997  1.00  0.00     0.031 C 
ATOM     39  C   UNL A   1      45.854  23.925  26.972  1.00  0.00     0.029 A 
ATOM     40  N   UNL A   1      45.447  26.038  27.582  1.00  0.00    -0.354 N 
ATOM     41  C   UNL A   1      41.436  27.356  28.508  1.00  0.00     0.074 A 
ATOM     42  C   UNL A   1      40.485  26.278  28.344  1.00  0.00     0.031 C 
ATOM     43  C   UNL A   1      47.031  24.573  27.000  1.00  0.00     0.029 A 
ATOM     44  C   UNL A   1      46.798  25.971  27.354  1.00  0.00     0.049 A 
ATOM     45  H   UNL A   1      44.991  26.856  27.888  1.00  0.00     0.167 HD
ATOM     46  C   UNL A   1      41.110  28.603  28.922  1.00  0.00     0.031 A 
ATOM     47  C   UNL A   1      47.737  26.935  27.400  1.00  0.00     0.031 A 
ATOM     48  C   UNL A   1      42.057  29.677  29.070  1.00  0.00     0.049 A 
ATOM     49  C   UNL A   1      47.335  28.336  27.778  1.00  0.00     0.074 A 
ATOM     50  C   UNL A   1      41.830  30.973  29.499  1.00  0.00     0.029 A 
ATOM     51  N   UNL A   1      43.410  29.581  28.786  1.00  0.00    -0.354 N 
ATOM     52  N   UNL A   1      46.154  28.796  28.118  1.00  0.00    -0.248 NA
ATOM     53  C   UNL A   1      48.400  29.350  27.785  1.00  0.00     0.031 C 
ATOM     54  C   UNL A   1      43.033  31.679  29.408  1.00  0.00     0.029 A 
ATOM     55  C   UNL A   1      44.025  30.803  28.995  1.00  0.00     0.049 A 
ATOM     56  H   UNL A   1      43.867  28.763  28.480  1.00  0.00     0.167 HD
ATOM     57  C   UNL A   1      46.341  30.142  28.410  1.00  0.00     0.074 A 
ATOM     58  C   UNL A   1      47.751  30.419  28.224  1.00  0.00     0.031 C 
ATOM     59  C   UNL A   1      45.429  31.065  28.803  1.00  0.00     0.031 A 
BRANCH  46  60
ATOM     60  C   UNL A   1      39.659  28.885  29.204  1.00  0.00    -0.014 A 
ATOM     61  C   UNL A   1      38.788  29.330  28.197  1.00  0.00     0.009 A 
ATOM     62  C   UNL A   1      39.149  28.671  30.494  1.00  0.00     0.009 A 
ATOM     63  C   UNL A   1      37.445  29.586  28.484  1.00  0.00     0.001 A 
ATOM     64  C   UNL A   1      37.800  28.897  30.772  1.00  0.00     0.001 A 
ATOM     65  C   UNL A   1      36.951  29.365  29.768  1.00  0.00     0.000 A 
ENDBRANCH  46  60
BRANCH  47  66
ATOM     66  C   UNL A   1      49.149  26.618  27.059  1.00  0.00    -0.014 A 
ATOM     67  C   UNL A   1      49.597  26.676  25.730  1.00  0.00     0.009 A 
ATOM     68  C   UNL A   1      50.054  26.233  28.061  1.00  0.00     0.009 A 
ATOM     69  C   UNL A   1      50.911  26.327  25.409  1.00  0.00     0.001 A 
ATOM     70  C   UNL A   1      51.376  25.917  27.743  1.00  0.00     0.001 A 
ATOM     71  C   UNL A   1      51.801  25.953  26.416  1.00  0.00     0.000 A 
ENDBRANCH  47  66
BRANCH  59  72
ATOM     72  C   UNL A   1      45.932  32.453  29.096  1.00  0.00    -0.014 A 
ATOM     73  C   UNL A   1      45.949  33.452  28.111  1.00  0.00     0.009 A 
ATOM     74  C   UNL A   1      46.358  32.774  30.395  1.00  0.00     0.009 A 
ATOM     75  C   UNL A   1      46.417  34.733  28.411  1.00  0.00     0.001 A 
ATOM     76  C   UNL A   1      46.792  34.064  30.702  1.00  0.00     0.001 A 
ATOM     77  C   UNL A   1      46.832  35.039  29.707  1.00  0.00     0.000 A 
ENDBRANCH  59  72
ENDBRANCH  33  34
ENDBRANCH  26  28
ENDBRANCH  25  26
ENDBRANCH  24  25
ENDBRANCH  23  24
ENDBRANCH  22  23
ENDBRANCH   1  22
TORSDOF 19
ENDMDL
MODEL 2
REMARK VINA RESULT:      -9.3      2.716      7.815
REMARK SMILES COC[C@@H](C)Nc1ccc([N+](=O)[O-])c(C(=O)OCCOCCOC(=O)c2ccc(-c3c4nc(c(-c5ccccc5)c5ccc([nH]5)c(-c5ccccc5)c5nc(c(-c6ccccc6)c6ccc3[nH]6)C=C5)C=C4)cc2)c1
REMARK SMILES IDX 19 1 18 2 17 3 15 4 16 5 14 6 7 7 8 8 74 9 9 10 10 11 6 12
REMARK SMILES IDX 4 14 5 15 3 16 2 17 1 18 11 19 12 20 13 21 20 22 21 23 22 24
REMARK SMILES IDX 23 25 24 26 25 27 26 28 27 29 73 30 28 31 72 32 29 33 30 34
REMARK SMILES IDX 31 35 66 36 32 37 71 38 65 39 67 40 33 41 70 42 64 43 63 44
REMARK SMILES IDX 34 46 56 47 41 48 55 49 42 50 45 51 54 52 68 53 43 54 44 55
REMARK SMILES IDX 53 57 69 58 46 59 35 60 36 61 40 62 37 63 39 64 38 65 57 66
REMARK SMILES IDX 58 67 62 68 59 69 61 70 60 71 47 72 48 73 52 74 49 75 51 76
REMARK SMILES IDX 50 77
REMARK H PARENT 6 13 67 45 45 56
REMARK Flexibility Score: inf
ROOT
ATOM      1  C   UNL A   1      33.854  22.030  24.550  1.00  0.00     0.202 C 
ENDROOT
BRANCH   1   2
ATOM      2  C   UNL A   1      33.175  22.738  25.728  1.00  0.00     0.261 C 
BRANCH   2   3
ATOM      3  O   UNL A   1      33.611  24.100  25.830  1.00  0.00    -0.459 OA
BRANCH   3   4
ATOM      4  C   UNL A   1      32.631  25.023  25.970  1.00  0.00     0.345 C 
ATOM      5  O   UNL A   1      31.596  24.932  26.608  1.00  0.00    -0.246 OA
BRANCH   4   6
ATOM      6  C   UNL A   1      33.035  26.247  25.258  1.00  0.00     0.139 A 
ATOM      7  C   UNL A   1      33.831  28.554  25.416  1.00  0.00     0.036 A 
ATOM      8  C   UNL A   1      33.936  28.576  24.018  1.00  0.00     0.033 A 
ATOM      9  C   UNL A   1      33.368  27.380  26.019  1.00  0.00     0.048 A 
ATOM     10  C   UNL A   1      33.588  27.467  23.240  1.00  0.00     0.089 A 
ATOM     11  C   UNL A   1      33.140  26.301  23.868  1.00  0.00     0.284 A 
BRANCH   7  12
ATOM     12  N   UNL A   1      34.248  29.659  26.129  1.00  0.00    -0.380 N 
ATOM     13  H   UNL A   1      35.073  30.105  25.830  1.00  0.00     0.160 HD
BRANCH  12  14
ATOM     14  C   UNL A   1      33.562  30.224  27.293  1.00  0.00     0.102 C 
ATOM     15  C   UNL A   1      32.209  30.763  26.831  1.00  0.00     0.033 C 
BRANCH  14  16
ATOM     16  C   UNL A   1      34.465  31.306  27.929  1.00  0.00     0.184 C 
BRANCH  16  17
ATOM     17  O   UNL A   1      33.900  32.618  27.929  1.00  0.00    -0.383 OA
ATOM     18  C   UNL A   1      34.284  33.425  29.030  1.00  0.00     0.194 C 
ENDBRANCH  16  17
ENDBRANCH  14  16
ENDBRANCH  12  14
ENDBRANCH   7  12
BRANCH  11  19
ATOM     19  N   UNL A   1      32.707  25.197  23.019  1.00  0.00     0.063 N 
ATOM     20  O   UNL A   1      33.580  24.618  22.359  1.00  0.00    -0.258 OA
ATOM     21  O   UNL A   1      31.492  24.986  22.930  1.00  0.00    -0.258 OA
ENDBRANCH  11  19
ENDBRANCH   4   6
ENDBRANCH   3   4
ENDBRANCH   2   3
ENDBRANCH   1   2
BRANCH   1  22
ATOM     22  O   UNL A   1      34.617  20.857  24.826  1.00  0.00    -0.374 OA
BRANCH  22  23
ATOM     23  C   UNL A   1      35.811  20.994  25.593  1.00  0.00     0.202 C 
BRANCH  23  24
ATOM     24  C   UNL A   1      37.115  20.442  25.005  1.00  0.00     0.261 C 
BRANCH  24  25
ATOM     25  O   UNL A   1      38.188  21.393  25.010  1.00  0.00    -0.460 OA
BRANCH  25  26
ATOM     26  C   UNL A   1      39.139  21.149  25.944  1.00  0.00     0.338 C 
ATOM     27  O   UNL A   1      39.678  20.087  26.200  1.00  0.00    -0.246 OA
BRANCH  26  28
ATOM     28  C   UNL A   1      39.579  22.420  26.542  1.00  0.00     0.060 A 
ATOM     29  C   UNL A   1      38.924  23.591  26.140  1.00  0.00     0.016 A 
ATOM     30  C   UNL A   1      40.669  22.472  27.411  1.00  0.00     0.016 A 
ATOM     31  C   UNL A   1      39.385  24.828  26.574  1.00  0.00     0.010 A 
ATOM     32  C   UNL A   1      41.136  23.717  27.839  1.00  0.00     0.010 A 
ATOM     33  C   UNL A   1      40.517  24.901  27.395  1.00  0.00    -0.014 A 
BRANCH  33  34
ATOM     34  C   UNL A   1      41.133  26.218  27.682  1.00  0.00     0.031 A 
ATOM     35  C   UNL A   1      42.479  26.539  27.094  1.00  0.00     0.074 A 
ATOM     36  C   UNL A   1      40.489  27.121  28.440  1.00  0.00     0.049 A 
ATOM     37  N   UNL A   1      43.218  27.607  27.253  1.00  0.00    -0.248 NA
ATOM     38  C   UNL A   1      43.073  25.519  26.215  1.00  0.00     0.031 C 
ATOM     39  C   UNL A   1      39.160  26.945  29.023  1.00  0.00     0.029 A 
ATOM     40  N   UNL A   1      40.874  28.372  28.851  1.00  0.00    -0.354 N 
ATOM     41  C   UNL A   1      44.367  27.384  26.505  1.00  0.00     0.074 A 
ATOM     42  C   UNL A   1      44.243  26.066  25.920  1.00  0.00     0.031 C 
ATOM     43  C   UNL A   1      38.841  28.048  29.721  1.00  0.00     0.029 A 
ATOM     44  C   UNL A   1      39.959  28.988  29.666  1.00  0.00     0.049 A 
ATOM     45  H   UNL A   1      41.726  28.788  28.585  1.00  0.00     0.167 HD
ATOM     46  C   UNL A   1      45.428  28.204  26.317  1.00  0.00     0.031 A 
ATOM     47  C   UNL A   1      40.026  30.165  30.316  1.00  0.00     0.031 A 
ATOM     48  C   UNL A   1      45.553  29.509  26.912  1.00  0.00     0.049 A 
ATOM     49  C   UNL A   1      41.255  31.021  30.161  1.00  0.00     0.074 A 
ATOM     50  C   UNL A   1      46.581  30.426  26.772  1.00  0.00     0.029 A 
ATOM     51  N   UNL A   1      44.624  30.078  27.769  1.00  0.00    -0.354 N 
ATOM     52  N   UNL A   1      42.325  30.811  29.433  1.00  0.00    -0.248 NA
ATOM     53  C   UNL A   1      41.280  32.283  30.917  1.00  0.00     0.031 C 
ATOM     54  C   UNL A   1      46.305  31.520  27.597  1.00  0.00     0.029 A 
ATOM     55  C   UNL A   1      45.070  31.319  28.193  1.00  0.00     0.049 A 
ATOM     56  H   UNL A   1      43.772  29.663  28.036  1.00  0.00     0.167 HD
ATOM     57  C   UNL A   1      43.133  31.926  29.615  1.00  0.00     0.074 A 
ATOM     58  C   UNL A   1      42.423  32.817  30.510  1.00  0.00     0.031 C 
ATOM     59  C   UNL A   1      44.353  32.193  29.086  1.00  0.00     0.031 A 
BRANCH  46  60
ATOM     60  C   UNL A   1      46.558  27.696  25.463  1.00  0.00    -0.014 A 
ATOM     61  C   UNL A   1      46.670  28.049  24.109  1.00  0.00     0.009 A 
ATOM     62  C   UNL A   1      47.545  26.879  26.034  1.00  0.00     0.009 A 
ATOM     63  C   UNL A   1      47.728  27.563  23.336  1.00  0.00     0.001 A 
ATOM     64  C   UNL A   1      48.619  26.420  25.268  1.00  0.00     0.001 A 
ATOM     65  C   UNL A   1      48.703  26.755  23.917  1.00  0.00     0.000 A 
ENDBRANCH  46  60
BRANCH  47  66
ATOM     66  C   UNL A   1      38.905  30.598  31.192  1.00  0.00    -0.014 A 
ATOM     67  C   UNL A   1      37.858  31.381  30.683  1.00  0.00     0.009 A 
ATOM     68  C   UNL A   1      38.889  30.248  32.552  1.00  0.00     0.009 A 
ATOM     69  C   UNL A   1      36.835  31.828  31.523  1.00  0.00     0.001 A 
ATOM     70  C   UNL A   1      37.848  30.667  33.382  1.00  0.00     0.001 A 
ATOM     71  C   UNL A   1      36.828  31.466  32.870  1.00  0.00     0.000 A 
ENDBRANCH  47  66
BRANCH  59  72
ATOM     72  C   UNL A   1      44.981  33.517  29.428  1.00  0.00    -0.014 A 
ATOM     73  C   UNL A   1      44.719  34.671  28.674  1.00  0.00     0.009 A 
ATOM     74  C   UNL A   1      45.816  33.616  30.553  1.00  0.00     0.009 A 
ATOM     75  C   UNL A   1      45.311  35.889  29.016  1.00  0.00     0.001 A 
ATOM     76  C   UNL A   1      46.379  34.841  30.914  1.00  0.00     0.001 A 
ATOM     77  C   UNL A   1      46.135  35.974  30.138  1.00  0.00     0.000 A 
ENDBRANCH  59  72
ENDBRANCH  33  34
ENDBRANCH  26  28
ENDBRANCH  25  26
ENDBRANCH  24  25
ENDBRANCH  23  24
ENDBRANCH  22  23
ENDBRANCH   1  22
TORSDOF 19
ENDMDL
MODEL 3
REMARK VINA RESULT:      -8.9      4.215      8.821
REMARK SMILES COC[C@@H](C)Nc1ccc([N+](=O)[O-])c(C(=O)OCCOCCOC(=O)c2ccc(-c3c4nc(c(-c5ccccc5)c5ccc([nH]5)c(-c5ccccc5)c5nc(c(-c6ccccc6)c6ccc3[nH]6)C=C5)C=C4)cc2)c1
REMARK SMILES IDX 19 1 18 2 17 3 15 4 16 5 14 6 7 7 8 8 74 9 9 10 10 11 6 12
REMARK SMILES IDX 4 14 5 15 3 16 2 17 1 18 11 19 12 20 13 21 20 22 21 23 22 24
REMARK SMILES IDX 23 25 24 26 25 27 26 28 27 29 73 30 28 31 72 32 29 33 30 34
REMARK SMILES IDX 31 35 66 36 32 37 71 38 65 39 67 40 33 41 70 42 64 43 63 44
REMARK SMILES IDX 34 46 56 47 41 48 55 49 42 50 45 51 54 52 68 53 43 54 44 55
REMARK SMILES IDX 53 57 69 58 46 59 35 60 36 61 40 62 37 63 39 64 38 65 57 66
REMARK SMILES IDX 58 67 62 68 59 69 61 70 60 71 47 72 48 73 52 74 49 75 51 76
REMARK SMILES IDX 50 77
REMARK H PARENT 6 13 67 45 45 56
REMARK Flexibility Score: inf
ROOT
ATOM      1  C   UNL A   1      32.436  22.756  25.239  1.00  0.00     0.202 C 
ENDROOT
BRANCH   1   2
ATOM      2  C   UNL A   1      31.456  23.710  25.928  1.00  0.00     0.261 C 
BRANCH   2   3
ATOM      3  O   UNL A   1      31.212  24.870  25.121  1.00  0.00    -0.459 OA
BRANCH   3   4
ATOM      4  C   UNL A   1      30.314  25.754  25.615  1.00  0.00     0.345 C 
ATOM      5  O   UNL A   1      29.409  25.546  26.406  1.00  0.00    -0.246 OA
BRANCH   4   6
ATOM      6  C   UNL A   1      30.633  27.091  25.086  1.00  0.00     0.139 A 
ATOM      7  C   UNL A   1      30.198  28.788  23.380  1.00  0.00     0.036 A 
ATOM      8  C   UNL A   1      31.068  29.648  24.065  1.00  0.00     0.033 A 
ATOM      9  C   UNL A   1      30.001  27.506  23.902  1.00  0.00     0.048 A 
ATOM     10  C   UNL A   1      31.726  29.247  25.232  1.00  0.00     0.089 A 
ATOM     11  C   UNL A   1      31.501  27.964  25.741  1.00  0.00     0.284 A 
BRANCH   7  12
ATOM     12  N   UNL A   1      29.534  29.266  22.269  1.00  0.00    -0.380 N 
ATOM     13  H   UNL A   1      29.995  29.197  21.402  1.00  0.00     0.160 HD
BRANCH  12  14
ATOM     14  C   UNL A   1      28.198  29.866  22.276  1.00  0.00     0.102 C 
ATOM     15  C   UNL A   1      27.950  30.487  20.902  1.00  0.00     0.033 C 
BRANCH  14  16
ATOM     16  C   UNL A   1      28.116  30.890  23.432  1.00  0.00     0.184 C 
BRANCH  16  17
ATOM     17  O   UNL A   1      27.757  32.210  23.023  1.00  0.00    -0.383 OA
ATOM     18  C   UNL A   1      28.827  33.142  23.039  1.00  0.00     0.194 C 
ENDBRANCH  16  17
ENDBRANCH  14  16
ENDBRANCH  12  14
ENDBRANCH   7  12
BRANCH  11  19
ATOM     19  N   UNL A   1      32.269  27.554  26.911  1.00  0.00     0.063 N 
ATOM     20  O   UNL A   1      33.369  27.023  26.704  1.00  0.00    -0.258 OA
ATOM     21  O   UNL A   1      31.728  27.658  28.017  1.00  0.00    -0.258 OA
ENDBRANCH  11  19
ENDBRANCH   4   6
ENDBRANCH   3   4
ENDBRANCH   2   3
ENDBRANCH   1   2
BRANCH   1  22
ATOM     22  O   UNL A   1      33.678  22.491  25.888  1.00  0.00    -0.374 OA
BRANCH  22  23
ATOM     23  C   UNL A   1      34.837  23.187  25.437  1.00  0.00     0.202 C 
BRANCH  23  24
ATOM     24  C   UNL A   1      36.210  22.663  25.873  1.00  0.00     0.261 C 
BRANCH  24  25
ATOM     25  O   UNL A   1      37.272  23.602  25.654  1.00  0.00    -0.460 OA
BRANCH  25  26
ATOM     26  C   UNL A   1      38.480  23.186  26.105  1.00  0.00     0.338 C 
ATOM     27  O   UNL A   1      39.016  22.107  25.918  1.00  0.00    -0.246 OA
BRANCH  26  28
ATOM     28  C   UNL A   1      39.176  24.307  26.757  1.00  0.00     0.060 A 
ATOM     29  C   UNL A   1      38.909  24.540  28.112  1.00  0.00     0.016 A 
ATOM     30  C   UNL A   1      40.003  25.166  26.032  1.00  0.00     0.016 A 
ATOM     31  C   UNL A   1      39.438  25.662  28.740  1.00  0.00     0.010 A 
ATOM     32  C   UNL A   1      40.526  26.297  26.663  1.00  0.00     0.010 A 
ATOM     33  C   UNL A   1      40.217  26.568  28.010  1.00  0.00    -0.014 A 
BRANCH  33  34
ATOM     34  C   UNL A   1      40.599  27.863  28.617  1.00  0.00     0.031 A 
ATOM     35  C   UNL A   1      42.019  28.068  29.069  1.00  0.00     0.074 A 
ATOM     36  C   UNL A   1      39.697  28.850  28.746  1.00  0.00     0.049 A 
ATOM     37  N   UNL A   1      42.557  29.100  29.665  1.00  0.00    -0.248 NA
ATOM     38  C   UNL A   1      42.955  26.960  28.817  1.00  0.00     0.031 C 
ATOM     39  C   UNL A   1      38.305  28.788  28.301  1.00  0.00     0.029 A 
ATOM     40  N   UNL A   1      39.820  30.101  29.294  1.00  0.00    -0.354 N 
ATOM     41  C   UNL A   1      43.889  28.764  29.872  1.00  0.00     0.074 A 
ATOM     42  C   UNL A   1      44.070  27.420  29.368  1.00  0.00     0.031 C 
ATOM     43  C   UNL A   1      37.702  29.952  28.598  1.00  0.00     0.029 A 
ATOM     44  C   UNL A   1      38.652  30.821  29.288  1.00  0.00     0.049 A 
ATOM     45  H   UNL A   1      40.667  30.450  29.656  1.00  0.00     0.167 HD
ATOM     46  C   UNL A   1      44.875  29.509  30.426  1.00  0.00     0.031 A 
ATOM     47  C   UNL A   1      38.374  32.033  29.804  1.00  0.00     0.031 A 
ATOM     48  C   UNL A   1      44.687  30.841  30.939  1.00  0.00     0.049 A 
ATOM     49  C   UNL A   1      39.466  32.806  30.495  1.00  0.00     0.074 A 
ATOM     50  C   UNL A   1      45.626  31.686  31.505  1.00  0.00     0.029 A 
ATOM     51  N   UNL A   1      43.478  31.517  30.955  1.00  0.00    -0.354 N 
ATOM     52  N   UNL A   1      40.728  32.488  30.663  1.00  0.00    -0.248 NA
ATOM     53  C   UNL A   1      39.095  34.111  31.061  1.00  0.00     0.031 C 
ATOM     54  C   UNL A   1      44.970  32.846  31.926  1.00  0.00     0.029 A 
ATOM     55  C   UNL A   1      43.638  32.756  31.553  1.00  0.00     0.049 A 
ATOM     56  H   UNL A   1      42.630  31.169  30.594  1.00  0.00     0.167 HD
ATOM     57  C   UNL A   1      41.306  33.565  31.323  1.00  0.00     0.074 A 
ATOM     58  C   UNL A   1      40.262  34.551  31.510  1.00  0.00     0.031 C 
ATOM     59  C   UNL A   1      42.588  33.727  31.735  1.00  0.00     0.031 A 
BRANCH  46  60
ATOM     60  C   UNL A   1      46.238  28.882  30.544  1.00  0.00    -0.014 A 
ATOM     61  C   UNL A   1      46.604  28.131  31.672  1.00  0.00     0.009 A 
ATOM     62  C   UNL A   1      47.158  29.019  29.494  1.00  0.00     0.009 A 
ATOM     63  C   UNL A   1      47.876  27.559  31.760  1.00  0.00     0.001 A 
ATOM     64  C   UNL A   1      48.417  28.421  29.569  1.00  0.00     0.001 A 
ATOM     65  C   UNL A   1      48.779  27.700  30.707  1.00  0.00     0.000 A 
ENDBRANCH  46  60
BRANCH  47  66
ATOM     66  C   UNL A   1      36.997  32.586  29.710  1.00  0.00    -0.014 A 
ATOM     67  C   UNL A   1      36.015  32.230  30.647  1.00  0.00     0.009 A 
ATOM     68  C   UNL A   1      36.652  33.459  28.666  1.00  0.00     0.009 A 
ATOM     69  C   UNL A   1      34.710  32.712  30.522  1.00  0.00     0.001 A 
ATOM     70  C   UNL A   1      35.355  33.967  28.563  1.00  0.00     0.001 A 
ATOM     71  C   UNL A   1      34.382  33.585  29.484  1.00  0.00     0.000 A 
ENDBRANCH  47  66
BRANCH  59  72
ATOM     72  C   UNL A   1      42.944  35.033  32.392  1.00  0.00    -0.014 A 
ATOM     73  C   UNL A   1      43.504  36.093  31.662  1.00  0.00     0.009 A 
ATOM     74  C   UNL A   1      42.674  35.216  33.757  1.00  0.00     0.009 A 
ATOM     75  C   UNL A   1      43.821  37.297  32.296  1.00  0.00     0.001 A 
ATOM     76  C   UNL A   1      42.959  36.432  34.380  1.00  0.00     0.001 A 
ATOM     77  C   UNL A   1      43.543  37.467  33.652  1.00  0.00     0.000 A 
ENDBRANCH  59  72
ENDBRANCH  33  34
ENDBRANCH  26  28
ENDBRANCH  25  26
ENDBRANCH  24  25
ENDBRANCH  23  24
ENDBRANCH  22  23
ENDBRANCH   1  22
TORSDOF 19
ENDMDL
