MODEL 1
REMARK VINA RESULT:     -10.6      0.000      0.000
REMARK SMILES CCCc1cc(C(N)=O)c(NC(=O)[C@H]2CC(C)=C(C)C[C@@H]2C(=O)OCCOCCOC(=O)c2ccc(-c3c4nc(c(-c5ccccc5)c5ccc([nH]5)c(-c5ccccc5)c5nc(c(-c6ccccc6)c6ccc3[nH]6)C=C5)C=C4)cc2)s1
REMARK SMILES IDX 26 1 25 2 24 3 22 4 23 5 21 6 14 7 15 8 16 9 20 10 17 11
REMARK SMILES IDX 18 12 19 13 12 14 11 15 13 17 10 18 4 19 5 20 81 21 6 22
REMARK SMILES IDX 3 23 2 24 1 25 7 26 8 27 9 28 27 31 28 32 29 33 30 34 31 35
REMARK SMILES IDX 32 36 33 37 34 38 80 39 35 40 79 41 36 42 37 43 38 44 73 45
REMARK SMILES IDX 39 46 78 47 72 48 74 49 40 50 77 51 71 52 70 53 41 55 63 56
REMARK SMILES IDX 48 57 62 58 49 59 52 60 61 61 75 62 50 63 51 64 60 66 76 67
REMARK SMILES IDX 53 68 42 69 43 70 47 71 44 72 46 73 45 74 64 75 65 76 69 77
REMARK SMILES IDX 66 78 68 79 67 80 54 81 55 82 59 83 56 84 58 85 57 86
REMARK H PARENT 11 16 8 29 8 30 74 54 52 65
REMARK Flexibility Score: inf
ROOT
ATOM      1  C   UNL A   1      32.930  29.146  26.528  1.00  0.00     0.202 C 
ENDROOT
BRANCH   1   2
ATOM      2  C   UNL A   1      33.023  27.648  26.844  1.00  0.00     0.261 C 
BRANCH   2   3
ATOM      3  O   UNL A   1      33.702  26.952  25.786  1.00  0.00    -0.463 OA
BRANCH   3   4
ATOM      4  C   UNL A   1      33.418  25.625  25.651  1.00  0.00     0.310 C 
ATOM      5  O   UNL A   1      32.681  24.981  26.384  1.00  0.00    -0.252 OA
BRANCH   4   6
ATOM      6  C   UNL A   1      34.092  25.077  24.400  1.00  0.00     0.116 C 
ATOM      7  C   UNL A   1      33.079  24.186  23.633  1.00  0.00     0.097 C 
ATOM      8  C   UNL A   1      33.303  22.680  23.825  1.00  0.00     0.045 C 
ATOM      9  C   UNL A   1      34.455  22.171  24.627  1.00  0.00    -0.074 C 
ATOM     10  C   UNL A   1      35.424  24.451  24.819  1.00  0.00     0.046 C 
ATOM     11  C   UNL A   1      34.417  20.672  24.798  1.00  0.00     0.039 C 
ATOM     12  C   UNL A   1      35.406  22.978  25.122  1.00  0.00    -0.073 C 
ATOM     13  C   UNL A   1      36.508  22.460  26.003  1.00  0.00     0.039 C 
BRANCH   7  14
ATOM     14  C   UNL A   1      32.948  24.542  22.139  1.00  0.00     0.229 C 
ATOM     15  N   UNL A   1      32.341  25.686  21.677  1.00  0.00    -0.317 N 
ATOM     16  H   UNL A   1      32.272  25.739  20.697  1.00  0.00     0.170 HD
ATOM     17  O   UNL A   1      33.381  23.778  21.267  1.00  0.00    -0.274 OA
BRANCH  15  18
ATOM     18  C   UNL A   1      31.812  26.777  22.346  1.00  0.00     0.108 A 
ATOM     19  C   UNL A   1      30.142  28.420  23.069  1.00  0.00     0.008 A 
ATOM     20  C   UNL A   1      31.406  28.963  22.957  1.00  0.00     0.031 A 
ATOM     21  S   UNL A   1      30.254  26.714  23.043  1.00  0.00    -0.122 S 
ATOM     22  C   UNL A   1      32.423  27.987  22.649  1.00  0.00     0.074 A 
BRANCH  19  23
ATOM     23  C   UNL A   1      28.834  29.133  23.275  1.00  0.00     0.046 C 
BRANCH  23  24
ATOM     24  C   UNL A   1      28.923  30.649  23.045  1.00  0.00     0.002 C 
ATOM     25  C   UNL A   1      27.744  31.423  23.624  1.00  0.00     0.004 C 
ENDBRANCH  23  24
ENDBRANCH  19  23
BRANCH  22  26
ATOM     26  C   UNL A   1      33.831  28.335  22.498  1.00  0.00     0.251 C 
ATOM     27  N   UNL A   1      34.418  28.988  23.543  1.00  0.00    -0.366 N 
ATOM     28  O   UNL A   1      34.464  28.127  21.468  1.00  0.00    -0.269 OA
ATOM     29  H   UNL A   1      33.908  29.154  24.369  1.00  0.00     0.159 HD
ATOM     30  H   UNL A   1      35.350  29.294  23.472  1.00  0.00     0.159 HD
ENDBRANCH  22  26
ENDBRANCH  15  18
ENDBRANCH   7  14
ENDBRANCH   4   6
ENDBRANCH   3   4
ENDBRANCH   2   3
ENDBRANCH   1   2
BRANCH   1  31
ATOM     31  O   UNL A   1      31.655  29.762  26.723  1.00  0.00    -0.374 OA
BRANCH  31  32
ATOM     32  C   UNL A   1      31.462  31.063  26.170  1.00  0.00     0.202 C 
BRANCH  32  33
ATOM     33  C   UNL A   1      31.659  32.259  27.106  1.00  0.00     0.261 C 
BRANCH  33  34
ATOM     34  O   UNL A   1      33.042  32.621  27.241  1.00  0.00    -0.460 OA
BRANCH  34  35
ATOM     35  C   UNL A   1      33.274  33.619  28.120  1.00  0.00     0.338 C 
ATOM     36  O   UNL A   1      32.520  34.538  28.423  1.00  0.00    -0.246 OA
BRANCH  35  37
ATOM     37  C   UNL A   1      34.536  33.373  28.832  1.00  0.00     0.060 A 
ATOM     38  C   UNL A   1      35.723  33.723  28.176  1.00  0.00     0.016 A 
ATOM     39  C   UNL A   1      34.565  32.754  30.082  1.00  0.00     0.016 A 
ATOM     40  C   UNL A   1      36.951  33.398  28.743  1.00  0.00     0.010 A 
ATOM     41  C   UNL A   1      35.799  32.423  30.648  1.00  0.00     0.010 A 
ATOM     42  C   UNL A   1      36.993  32.707  29.961  1.00  0.00    -0.014 A 
BRANCH  42  43
ATOM     43  C   UNL A   1      38.278  32.139  30.425  1.00  0.00     0.031 A 
ATOM     44  C   UNL A   1      38.742  30.829  29.853  1.00  0.00     0.074 A 
ATOM     45  C   UNL A   1      39.041  32.802  31.309  1.00  0.00     0.049 A 
ATOM     46  N   UNL A   1      39.833  30.153  30.104  1.00  0.00    -0.248 NA
ATOM     47  C   UNL A   1      37.853  30.197  28.865  1.00  0.00     0.031 C 
ATOM     48  C   UNL A   1      38.723  34.106  31.890  1.00  0.00     0.029 A 
ATOM     49  N   UNL A   1      40.249  32.467  31.865  1.00  0.00    -0.354 N 
ATOM     50  C   UNL A   1      39.757  29.012  29.315  1.00  0.00     0.074 A 
ATOM     51  C   UNL A   1      38.497  29.071  28.605  1.00  0.00     0.031 C 
ATOM     52  C   UNL A   1      39.719  34.467  32.716  1.00  0.00     0.029 A 
ATOM     53  C   UNL A   1      40.722  33.404  32.748  1.00  0.00     0.049 A 
ATOM     54  H   UNL A   1      40.728  31.634  31.652  1.00  0.00     0.167 HD
ATOM     55  C   UNL A   1      40.657  28.008  29.187  1.00  0.00     0.031 A 
ATOM     56  C   UNL A   1      41.836  33.398  33.505  1.00  0.00     0.031 A 
ATOM     57  C   UNL A   1      41.897  27.941  29.915  1.00  0.00     0.049 A 
ATOM     58  C   UNL A   1      42.775  32.226  33.421  1.00  0.00     0.074 A 
ATOM     59  C   UNL A   1      42.887  26.978  29.851  1.00  0.00     0.029 A 
ATOM     60  N   UNL A   1      42.308  28.875  30.855  1.00  0.00    -0.354 N 
ATOM     61  N   UNL A   1      42.708  31.164  32.654  1.00  0.00    -0.248 NA
ATOM     62  C   UNL A   1      43.947  32.256  34.307  1.00  0.00     0.031 C 
ATOM     63  C   UNL A   1      43.865  27.293  30.801  1.00  0.00     0.029 A 
ATOM     64  C   UNL A   1      43.519  28.491  31.406  1.00  0.00     0.049 A 
ATOM     65  H   UNL A   1      41.812  29.692  31.094  1.00  0.00     0.167 HD
ATOM     66  C   UNL A   1      43.842  30.414  32.941  1.00  0.00     0.074 A 
ATOM     67  C   UNL A   1      44.584  31.150  33.946  1.00  0.00     0.031 C 
ATOM     68  C   UNL A   1      44.238  29.228  32.416  1.00  0.00     0.031 A 
BRANCH  55  69
ATOM     69  C   UNL A   1      40.293  26.877  28.264  1.00  0.00    -0.014 A 
ATOM     70  C   UNL A   1      39.490  25.806  28.691  1.00  0.00     0.009 A 
ATOM     71  C   UNL A   1      40.775  26.875  26.946  1.00  0.00     0.009 A 
ATOM     72  C   UNL A   1      39.225  24.734  27.836  1.00  0.00     0.001 A 
ATOM     73  C   UNL A   1      40.481  25.819  26.082  1.00  0.00     0.001 A 
ATOM     74  C   UNL A   1      39.719  24.742  26.532  1.00  0.00     0.000 A 
ENDBRANCH  55  69
BRANCH  56  75
ATOM     75  C   UNL A   1      42.123  34.546  34.401  1.00  0.00    -0.014 A 
ATOM     76  C   UNL A   1      41.688  34.534  35.735  1.00  0.00     0.009 A 
ATOM     77  C   UNL A   1      42.848  35.654  33.934  1.00  0.00     0.009 A 
ATOM     78  C   UNL A   1      41.964  35.611  36.579  1.00  0.00     0.001 A 
ATOM     79  C   UNL A   1      43.146  36.718  34.787  1.00  0.00     0.001 A 
ATOM     80  C   UNL A   1      42.699  36.699  36.107  1.00  0.00     0.000 A 
ENDBRANCH  56  75
BRANCH  68  81
ATOM     81  C   UNL A   1      45.548  28.667  32.896  1.00  0.00    -0.014 A 
ATOM     82  C   UNL A   1      45.612  27.767  33.971  1.00  0.00     0.009 A 
ATOM     83  C   UNL A   1      46.736  29.016  32.233  1.00  0.00     0.009 A 
ATOM     84  C   UNL A   1      46.841  27.256  34.393  1.00  0.00     0.001 A 
ATOM     85  C   UNL A   1      47.960  28.480  32.637  1.00  0.00     0.001 A 
ATOM     86  C   UNL A   1      48.012  27.609  33.723  1.00  0.00     0.000 A 
ENDBRANCH  68  81
ENDBRANCH  42  43
ENDBRANCH  35  37
ENDBRANCH  34  35
ENDBRANCH  33  34
ENDBRANCH  32  33
ENDBRANCH  31  32
ENDBRANCH   1  31
TORSDOF 19
ENDMDL
MODEL 2
REMARK VINA RESULT:     -10.6      1.826      5.672
REMARK SMILES CCCc1cc(C(N)=O)c(NC(=O)[C@H]2CC(C)=C(C)C[C@@H]2C(=O)OCCOCCOC(=O)c2ccc(-c3c4nc(c(-c5ccccc5)c5ccc([nH]5)c(-c5ccccc5)c5nc(c(-c6ccccc6)c6ccc3[nH]6)C=C5)C=C4)cc2)s1
REMARK SMILES IDX 26 1 25 2 24 3 22 4 23 5 21 6 14 7 15 8 16 9 20 10 17 11
REMARK SMILES IDX 18 12 19 13 12 14 11 15 13 17 10 18 4 19 5 20 81 21 6 22
REMARK SMILES IDX 3 23 2 24 1 25 7 26 8 27 9 28 27 31 28 32 29 33 30 34 31 35
REMARK SMILES IDX 32 36 33 37 34 38 80 39 35 40 79 41 36 42 37 43 38 44 73 45
REMARK SMILES IDX 39 46 78 47 72 48 74 49 40 50 77 51 71 52 70 53 41 55 63 56
REMARK SMILES IDX 48 57 62 58 49 59 52 60 61 61 75 62 50 63 51 64 60 66 76 67
REMARK SMILES IDX 53 68 42 69 43 70 47 71 44 72 46 73 45 74 64 75 65 76 69 77
REMARK SMILES IDX 66 78 68 79 67 80 54 81 55 82 59 83 56 84 58 85 57 86
REMARK H PARENT 11 16 8 29 8 30 74 54 52 65
REMARK Flexibility Score: inf
ROOT
ATOM      1  C   UNL A   1      32.065  29.076  27.224  1.00  0.00     0.202 C 
ENDROOT
BRANCH   1   2
ATOM      2  C   UNL A   1      31.522  27.788  26.594  1.00  0.00     0.261 C 
BRANCH   2   3
ATOM      3  O   UNL A   1      32.512  26.748  26.641  1.00  0.00    -0.463 OA
BRANCH   3   4
ATOM      4  C   UNL A   1      32.095  25.496  26.298  1.00  0.00     0.310 C 
ATOM      5  O   UNL A   1      31.056  24.970  26.667  1.00  0.00    -0.252 OA
BRANCH   4   6
ATOM      6  C   UNL A   1      33.081  24.875  25.316  1.00  0.00     0.116 C 
ATOM      7  C   UNL A   1      32.287  24.191  24.171  1.00  0.00     0.097 C 
ATOM      8  C   UNL A   1      32.199  22.665  24.299  1.00  0.00     0.045 C 
ATOM      9  C   UNL A   1      32.898  21.945  25.405  1.00  0.00    -0.074 C 
ATOM     10  C   UNL A   1      34.066  24.019  26.116  1.00  0.00     0.046 C 
ATOM     11  C   UNL A   1      32.577  20.470  25.422  1.00  0.00     0.039 C 
ATOM     12  C   UNL A   1      33.720  22.563  26.266  1.00  0.00    -0.073 C 
ATOM     13  C   UNL A   1      34.344  21.841  27.426  1.00  0.00     0.039 C 
BRANCH   7  14
ATOM     14  C   UNL A   1      32.752  24.604  22.761  1.00  0.00     0.229 C 
ATOM     15  N   UNL A   1      32.448  25.813  22.181  1.00  0.00    -0.317 N 
ATOM     16  H   UNL A   1      32.756  25.904  21.250  1.00  0.00     0.170 HD
ATOM     17  O   UNL A   1      33.423  23.832  22.066  1.00  0.00    -0.274 OA
BRANCH  15  18
ATOM     18  C   UNL A   1      31.788  26.927  22.673  1.00  0.00     0.108 A 
ATOM     19  C   UNL A   1      30.006  28.589  22.944  1.00  0.00     0.008 A 
ATOM     20  C   UNL A   1      31.266  29.133  23.096  1.00  0.00     0.031 A 
ATOM     21  S   UNL A   1      30.114  26.884  23.007  1.00  0.00    -0.122 S 
ATOM     22  C   UNL A   1      32.322  28.150  23.060  1.00  0.00     0.074 A 
BRANCH  19  23
ATOM     23  C   UNL A   1      28.689  29.304  22.826  1.00  0.00     0.046 C 
BRANCH  23  24
ATOM     24  C   UNL A   1      28.804  30.827  22.991  1.00  0.00     0.002 C 
ATOM     25  C   UNL A   1      27.584  31.463  23.645  1.00  0.00     0.004 C 
ENDBRANCH  23  24
ENDBRANCH  19  23
BRANCH  22  26
ATOM     26  C   UNL A   1      33.729  28.498  23.214  1.00  0.00     0.251 C 
ATOM     27  N   UNL A   1      34.222  28.519  24.487  1.00  0.00    -0.366 N 
ATOM     28  O   UNL A   1      34.443  28.827  22.272  1.00  0.00    -0.269 OA
ATOM     29  H   UNL A   1      33.647  28.253  25.241  1.00  0.00     0.159 HD
ATOM     30  H   UNL A   1      35.150  28.799  24.651  1.00  0.00     0.159 HD
ENDBRANCH  22  26
ENDBRANCH  15  18
ENDBRANCH   7  14
ENDBRANCH   4   6
ENDBRANCH   3   4
ENDBRANCH   2   3
ENDBRANCH   1   2
BRANCH   1  31
ATOM     31  O   UNL A   1      32.362  30.150  26.329  1.00  0.00    -0.374 OA
BRANCH  31  32
ATOM     32  C   UNL A   1      31.358  31.145  26.139  1.00  0.00     0.202 C 
BRANCH  32  33
ATOM     33  C   UNL A   1      31.450  32.408  27.001  1.00  0.00     0.261 C 
BRANCH  33  34
ATOM     34  O   UNL A   1      32.667  33.134  26.772  1.00  0.00    -0.460 OA
BRANCH  34  35
ATOM     35  C   UNL A   1      33.211  33.674  27.883  1.00  0.00     0.338 C 
ATOM     36  O   UNL A   1      32.709  34.503  28.635  1.00  0.00    -0.246 OA
BRANCH  35  37
ATOM     37  C   UNL A   1      34.477  32.995  28.198  1.00  0.00     0.060 A 
ATOM     38  C   UNL A   1      34.411  31.639  28.542  1.00  0.00     0.016 A 
ATOM     39  C   UNL A   1      35.692  33.681  28.222  1.00  0.00     0.016 A 
ATOM     40  C   UNL A   1      35.555  30.975  28.972  1.00  0.00     0.010 A 
ATOM     41  C   UNL A   1      36.839  33.015  28.660  1.00  0.00     0.010 A 
ATOM     42  C   UNL A   1      36.765  31.673  29.076  1.00  0.00    -0.014 A 
BRANCH  42  43
ATOM     43  C   UNL A   1      37.906  31.041  29.774  1.00  0.00     0.031 A 
ATOM     44  C   UNL A   1      38.138  31.363  31.224  1.00  0.00     0.074 A 
ATOM     45  C   UNL A   1      38.695  30.159  29.140  1.00  0.00     0.049 A 
ATOM     46  N   UNL A   1      39.065  30.922  32.034  1.00  0.00    -0.248 NA
ATOM     47  C   UNL A   1      37.199  32.314  31.840  1.00  0.00     0.031 C 
ATOM     48  C   UNL A   1      38.533  29.725  27.753  1.00  0.00     0.029 A 
ATOM     49  N   UNL A   1      39.789  29.464  29.588  1.00  0.00    -0.354 N 
ATOM     50  C   UNL A   1      38.827  31.547  33.252  1.00  0.00     0.074 A 
ATOM     51  C   UNL A   1      37.693  32.425  33.063  1.00  0.00     0.031 C 
ATOM     52  C   UNL A   1      39.490  28.827  27.466  1.00  0.00     0.029 A 
ATOM     53  C   UNL A   1      40.349  28.653  28.636  1.00  0.00     0.049 A 
ATOM     54  H   UNL A   1      40.138  29.542  30.506  1.00  0.00     0.167 HD
ATOM     55  C   UNL A   1      39.489  31.400  34.424  1.00  0.00     0.031 A 
ATOM     56  C   UNL A   1      41.441  27.867  28.698  1.00  0.00     0.031 A 
ATOM     57  C   UNL A   1      40.633  30.545  34.601  1.00  0.00     0.049 A 
ATOM     58  C   UNL A   1      42.221  27.793  29.983  1.00  0.00     0.074 A 
ATOM     59  C   UNL A   1      41.369  30.311  35.748  1.00  0.00     0.029 A 
ATOM     60  N   UNL A   1      41.216  29.793  33.591  1.00  0.00    -0.354 N 
ATOM     61  N   UNL A   1      41.974  28.368  31.136  1.00  0.00    -0.248 NA
ATOM     62  C   UNL A   1      43.428  26.956  29.973  1.00  0.00     0.031 C 
ATOM     63  C   UNL A   1      42.438  29.470  35.416  1.00  0.00     0.029 A 
ATOM     64  C   UNL A   1      42.325  29.123  34.080  1.00  0.00     0.049 A 
ATOM     65  H   UNL A   1      40.887  29.741  32.664  1.00  0.00     0.167 HD
ATOM     66  C   UNL A   1      42.976  27.940  31.997  1.00  0.00     0.074 A 
ATOM     67  C   UNL A   1      43.828  27.048  31.234  1.00  0.00     0.031 C 
ATOM     68  C   UNL A   1      43.171  28.251  33.303  1.00  0.00     0.031 A 
BRANCH  55  69
ATOM     69  C   UNL A   1      39.017  32.233  35.585  1.00  0.00    -0.014 A 
ATOM     70  C   UNL A   1      39.429  33.565  35.753  1.00  0.00     0.009 A 
ATOM     71  C   UNL A   1      38.154  31.668  36.538  1.00  0.00     0.009 A 
ATOM     72  C   UNL A   1      39.032  34.294  36.877  1.00  0.00     0.001 A 
ATOM     73  C   UNL A   1      37.731  32.409  37.643  1.00  0.00     0.001 A 
ATOM     74  C   UNL A   1      38.182  33.716  37.819  1.00  0.00     0.000 A 
ENDBRANCH  55  69
BRANCH  56  75
ATOM     75  C   UNL A   1      41.852  27.082  27.507  1.00  0.00    -0.014 A 
ATOM     76  C   UNL A   1      41.397  25.767  27.329  1.00  0.00     0.009 A 
ATOM     77  C   UNL A   1      42.691  27.648  26.532  1.00  0.00     0.009 A 
ATOM     78  C   UNL A   1      41.780  25.032  26.206  1.00  0.00     0.001 A 
ATOM     79  C   UNL A   1      43.050  26.920  25.397  1.00  0.00     0.001 A 
ATOM     80  C   UNL A   1      42.600  25.610  25.238  1.00  0.00     0.000 A 
ENDBRANCH  56  75
BRANCH  68  81
ATOM     81  C   UNL A   1      44.332  27.596  33.999  1.00  0.00    -0.014 A 
ATOM     82  C   UNL A   1      45.590  28.216  34.069  1.00  0.00     0.009 A 
ATOM     83  C   UNL A   1      44.152  26.355  34.630  1.00  0.00     0.009 A 
ATOM     84  C   UNL A   1      46.650  27.589  34.726  1.00  0.00     0.001 A 
ATOM     85  C   UNL A   1      45.206  25.745  35.314  1.00  0.00     0.001 A 
ATOM     86  C   UNL A   1      46.456  26.358  35.351  1.00  0.00     0.000 A 
ENDBRANCH  68  81
ENDBRANCH  42  43
ENDBRANCH  35  37
ENDBRANCH  34  35
ENDBRANCH  33  34
ENDBRANCH  32  33
ENDBRANCH  31  32
ENDBRANCH   1  31
TORSDOF 19
ENDMDL
MODEL 3
REMARK VINA RESULT:     -10.6      3.299      8.718
REMARK SMILES CCCc1cc(C(N)=O)c(NC(=O)[C@H]2CC(C)=C(C)C[C@@H]2C(=O)OCCOCCOC(=O)c2ccc(-c3c4nc(c(-c5ccccc5)c5ccc([nH]5)c(-c5ccccc5)c5nc(c(-c6ccccc6)c6ccc3[nH]6)C=C5)C=C4)cc2)s1
REMARK SMILES IDX 26 1 25 2 24 3 22 4 23 5 21 6 14 7 15 8 16 9 20 10 17 11
REMARK SMILES IDX 18 12 19 13 12 14 11 15 13 17 10 18 4 19 5 20 81 21 6 22
REMARK SMILES IDX 3 23 2 24 1 25 7 26 8 27 9 28 27 31 28 32 29 33 30 34 31 35
REMARK SMILES IDX 32 36 33 37 34 38 80 39 35 40 79 41 36 42 37 43 38 44 73 45
REMARK SMILES IDX 39 46 78 47 72 48 74 49 40 50 77 51 71 52 70 53 41 55 63 56
REMARK SMILES IDX 48 57 62 58 49 59 52 60 61 61 75 62 50 63 51 64 60 66 76 67
REMARK SMILES IDX 53 68 42 69 43 70 47 71 44 72 46 73 45 74 64 75 65 76 69 77
REMARK SMILES IDX 66 78 68 79 67 80 54 81 55 82 59 83 56 84 58 85 57 86
REMARK H PARENT 11 16 8 29 8 30 74 54 52 65
REMARK Flexibility Score: inf
ROOT
ATOM      1  C   UNL A   1      36.205  22.198  24.443  1.00  0.00     0.202 C 
ENDROOT
BRANCH   1   2
ATOM      2  C   UNL A   1      36.378  23.721  24.456  1.00  0.00     0.261 C 
BRANCH   2   3
ATOM      3  O   UNL A   1      35.384  24.333  25.294  1.00  0.00    -0.463 OA
BRANCH   3   4
ATOM      4  C   UNL A   1      34.327  24.916  24.658  1.00  0.00     0.310 C 
ATOM      5  O   UNL A   1      34.208  25.035  23.447  1.00  0.00    -0.252 OA
BRANCH   4   6
ATOM      6  C   UNL A   1      33.272  25.325  25.678  1.00  0.00     0.116 C 
ATOM      7  C   UNL A   1      31.869  25.205  25.026  1.00  0.00     0.097 C 
ATOM      8  C   UNL A   1      31.268  26.547  24.588  1.00  0.00     0.045 C 
ATOM      9  C   UNL A   1      31.980  27.832  24.858  1.00  0.00    -0.074 C 
ATOM     10  C   UNL A   1      33.680  26.681  26.258  1.00  0.00     0.046 C 
ATOM     11  C   UNL A   1      31.283  29.016  24.232  1.00  0.00     0.039 C 
ATOM     12  C   UNL A   1      33.106  27.897  25.584  1.00  0.00    -0.073 C 
ATOM     13  C   UNL A   1      33.858  29.185  25.771  1.00  0.00     0.039 C 
BRANCH   7  14
ATOM     14  C   UNL A   1      30.862  24.394  25.866  1.00  0.00     0.229 C 
ATOM     15  N   UNL A   1      30.877  23.022  25.961  1.00  0.00    -0.317 N 
ATOM     16  H   UNL A   1      30.129  22.644  26.476  1.00  0.00     0.170 HD
ATOM     17  O   UNL A   1      29.960  24.962  26.492  1.00  0.00    -0.274 OA
BRANCH  15  18
ATOM     18  C   UNL A   1      31.760  22.079  25.461  1.00  0.00     0.108 A 
ATOM     19  C   UNL A   1      32.544  20.140  24.182  1.00  0.00     0.008 A 
ATOM     20  C   UNL A   1      33.209  20.286  25.382  1.00  0.00     0.031 A 
ATOM     21  S   UNL A   1      31.685  21.575  23.831  1.00  0.00    -0.122 S 
ATOM     22  C   UNL A   1      32.846  21.488  26.095  1.00  0.00     0.074 A 
BRANCH  19  23
ATOM     23  C   UNL A   1      32.584  18.978  23.228  1.00  0.00     0.046 C 
BRANCH  23  24
ATOM     24  C   UNL A   1      32.904  17.639  23.910  1.00  0.00     0.002 C 
ATOM     25  C   UNL A   1      34.124  16.936  23.328  1.00  0.00     0.004 C 
ENDBRANCH  23  24
ENDBRANCH  19  23
BRANCH  22  26
ATOM     26  C   UNL A   1      33.434  21.852  27.378  1.00  0.00     0.251 C 
ATOM     27  N   UNL A   1      34.733  21.487  27.585  1.00  0.00    -0.366 N 
ATOM     28  O   UNL A   1      32.798  22.399  28.274  1.00  0.00    -0.269 OA
ATOM     29  H   UNL A   1      35.242  21.049  26.865  1.00  0.00     0.159 HD
ATOM     30  H   UNL A   1      35.161  21.661  28.454  1.00  0.00     0.159 HD
ENDBRANCH  22  26
ENDBRANCH  15  18
ENDBRANCH   7  14
ENDBRANCH   4   6
ENDBRANCH   3   4
ENDBRANCH   2   3
ENDBRANCH   1   2
BRANCH   1  31
ATOM     31  O   UNL A   1      37.397  21.421  24.318  1.00  0.00    -0.374 OA
BRANCH  31  32
ATOM     32  C   UNL A   1      37.310  20.029  24.621  1.00  0.00     0.202 C 
BRANCH  32  33
ATOM     33  C   UNL A   1      38.576  19.344  25.143  1.00  0.00     0.261 C 
BRANCH  33  34
ATOM     34  O   UNL A   1      39.278  20.154  26.098  1.00  0.00    -0.460 OA
BRANCH  34  35
ATOM     35  C   UNL A   1      40.615  19.970  26.111  1.00  0.00     0.338 C 
ATOM     36  O   UNL A   1      41.244  19.026  25.644  1.00  0.00    -0.246 OA
BRANCH  35  37
ATOM     37  C   UNL A   1      41.279  21.175  26.630  1.00  0.00     0.060 A 
ATOM     38  C   UNL A   1      41.203  21.408  28.009  1.00  0.00     0.016 A 
ATOM     39  C   UNL A   1      41.904  22.091  25.783  1.00  0.00     0.016 A 
ATOM     40  C   UNL A   1      41.701  22.592  28.542  1.00  0.00     0.010 A 
ATOM     41  C   UNL A   1      42.398  23.283  26.318  1.00  0.00     0.010 A 
ATOM     42  C   UNL A   1      42.260  23.554  27.692  1.00  0.00    -0.014 A 
BRANCH  42  43
ATOM     43  C   UNL A   1      42.545  24.907  28.221  1.00  0.00     0.031 A 
ATOM     44  C   UNL A   1      43.963  25.266  28.568  1.00  0.00     0.074 A 
ATOM     45  C   UNL A   1      41.564  25.815  28.348  1.00  0.00     0.049 A 
ATOM     46  N   UNL A   1      44.444  26.389  29.035  1.00  0.00    -0.248 NA
ATOM     47  C   UNL A   1      44.972  24.215  28.361  1.00  0.00     0.031 C 
ATOM     48  C   UNL A   1      40.163  25.600  27.990  1.00  0.00     0.029 A 
ATOM     49  N   UNL A   1      41.605  27.106  28.807  1.00  0.00    -0.354 N 
ATOM     50  C   UNL A   1      45.809  26.177  29.188  1.00  0.00     0.074 A 
ATOM     51  C   UNL A   1      46.072  24.808  28.799  1.00  0.00     0.031 C 
ATOM     52  C   UNL A   1      39.476  26.729  28.235  1.00  0.00     0.029 A 
ATOM     53  C   UNL A   1      40.382  27.727  28.798  1.00  0.00     0.049 A 
ATOM     54  H   UNL A   1      42.432  27.543  29.114  1.00  0.00     0.167 HD
ATOM     55  C   UNL A   1      46.760  27.045  29.609  1.00  0.00     0.031 A 
ATOM     56  C   UNL A   1      40.033  28.961  29.210  1.00  0.00     0.031 A 
ATOM     57  C   UNL A   1      46.490  28.397  30.019  1.00  0.00     0.049 A 
ATOM     58  C   UNL A   1      41.089  29.877  29.766  1.00  0.00     0.074 A 
ATOM     59  C   UNL A   1      47.380  29.365  30.448  1.00  0.00     0.029 A 
ATOM     60  N   UNL A   1      45.226  28.968  30.064  1.00  0.00    -0.354 N 
ATOM     61  N   UNL A   1      42.381  29.677  29.883  1.00  0.00    -0.248 NA
ATOM     62  C   UNL A   1      40.638  31.191  30.243  1.00  0.00     0.031 C 
ATOM     63  C   UNL A   1      46.647  30.498  30.818  1.00  0.00     0.029 A 
ATOM     64  C   UNL A   1      45.308  30.262  30.551  1.00  0.00     0.049 A 
ATOM     65  H   UNL A   1      44.394  28.519  29.789  1.00  0.00     0.167 HD
ATOM     66  C   UNL A   1      42.900  30.849  30.419  1.00  0.00     0.074 A 
ATOM     67  C   UNL A   1      41.784  31.758  30.592  1.00  0.00     0.031 C 
ATOM     68  C   UNL A   1      44.185  31.149  30.731  1.00  0.00     0.031 A 
BRANCH  55  69
ATOM     69  C   UNL A   1      48.169  26.524  29.696  1.00  0.00    -0.014 A 
ATOM     70  C   UNL A   1      48.646  25.880  30.850  1.00  0.00     0.009 A 
ATOM     71  C   UNL A   1      49.041  26.696  28.609  1.00  0.00     0.009 A 
ATOM     72  C   UNL A   1      49.980  25.470  30.932  1.00  0.00     0.001 A 
ATOM     73  C   UNL A   1      50.363  26.254  28.681  1.00  0.00     0.001 A 
ATOM     74  C   UNL A   1      50.836  25.655  29.847  1.00  0.00     0.000 A 
ENDBRANCH  55  69
BRANCH  56  75
ATOM     75  C   UNL A   1      38.620  29.400  29.102  1.00  0.00    -0.014 A 
ATOM     76  C   UNL A   1      38.129  29.931  27.899  1.00  0.00     0.009 A 
ATOM     77  C   UNL A   1      37.747  29.278  30.196  1.00  0.00     0.009 A 
ATOM     78  C   UNL A   1      36.798  30.339  27.797  1.00  0.00     0.001 A 
ATOM     79  C   UNL A   1      36.409  29.662  30.083  1.00  0.00     0.001 A 
ATOM     80  C   UNL A   1      35.937  30.198  28.886  1.00  0.00     0.000 A 
ENDBRANCH  56  75
BRANCH  68  81
ATOM     81  C   UNL A   1      44.459  32.529  31.263  1.00  0.00    -0.014 A 
ATOM     82  C   UNL A   1      44.735  33.604  30.405  1.00  0.00     0.009 A 
ATOM     83  C   UNL A   1      44.398  32.763  32.646  1.00  0.00     0.009 A 
ATOM     84  C   UNL A   1      44.980  34.877  30.924  1.00  0.00     0.001 A 
ATOM     85  C   UNL A   1      44.612  34.044  33.160  1.00  0.00     0.001 A 
ATOM     86  C   UNL A   1      44.914  35.096  32.299  1.00  0.00     0.000 A 
ENDBRANCH  68  81
ENDBRANCH  42  43
ENDBRANCH  35  37
ENDBRANCH  34  35
ENDBRANCH  33  34
ENDBRANCH  32  33
ENDBRANCH  31  32
ENDBRANCH   1  31
TORSDOF 19
ENDMDL
