MODEL 1
REMARK VINA RESULT:     -12.3      0.000      0.000
REMARK SMILES C[C@]12C(=O)N(c3ccc(C(=O)OCCOCCOC(=O)c4ccc(-c5c6nc(c(-c7ccccc7)c7ccc([nH]7)c(-c7ccccc7)c7nc(c(-c8ccccc8)c8ccc5[nH]8)C=C7)C=C6)cc4)cc3)C(=O)[C@H]1[C@H]1c3ccccc3[C@@H]2c2ccccc21
REMARK SMILES IDX 16 1 15 2 14 3 13 4 12 5 10 6 11 7 9 8 6 9 7 10 70 11 8 12
REMARK SMILES IDX 69 13 5 14 1 15 2 16 3 17 73 18 81 19 4 20 71 21 74 22 80 23
REMARK SMILES IDX 82 24 72 25 75 26 87 27 79 28 83 29 76 30 86 31 78 32 84 33
REMARK SMILES IDX 77 34 85 35 17 36 18 37 19 38 20 39 21 40 22 41 68 42 23 43
REMARK SMILES IDX 67 44 24 45 25 46 26 47 61 48 27 49 66 50 60 51 62 52 28 53
REMARK SMILES IDX 65 54 59 55 58 56 29 58 51 59 36 60 50 61 37 62 40 63 49 64
REMARK SMILES IDX 63 65 38 66 39 67 48 69 64 70 41 71 30 72 31 73 35 74 32 75
REMARK SMILES IDX 34 76 33 77 52 78 53 79 57 80 54 81 56 82 55 83 42 84 43 85
REMARK SMILES IDX 47 86 44 87 46 88 45 89
REMARK H PARENT 62 57 40 68
REMARK Flexibility Score: inf
ROOT
ATOM      1  C   UNL A   1      33.272  29.328  25.234  1.00  0.00     0.202 C 
ENDROOT
BRANCH   1   2
ATOM      2  O   UNL A   1      32.103  28.881  24.553  1.00  0.00    -0.374 OA
BRANCH   2   3
ATOM      3  C   UNL A   1      32.066  28.970  23.132  1.00  0.00     0.202 C 
BRANCH   3   4
ATOM      4  C   UNL A   1      30.705  29.136  22.448  1.00  0.00     0.261 C 
BRANCH   4   5
ATOM      5  O   UNL A   1      30.059  27.874  22.203  1.00  0.00    -0.460 OA
BRANCH   5   6
ATOM      6  C   UNL A   1      29.172  27.509  23.160  1.00  0.00     0.338 C 
ATOM      7  O   UNL A   1      28.096  28.028  23.409  1.00  0.00    -0.246 OA
BRANCH   6   8
ATOM      8  C   UNL A   1      29.581  26.235  23.777  1.00  0.00     0.060 A 
ATOM      9  C   UNL A   1      30.812  24.037  25.040  1.00  0.00     0.052 A 
ATOM     10  C   UNL A   1      30.318  25.126  25.786  1.00  0.00     0.028 A 
ATOM     11  C   UNL A   1      30.535  24.017  23.664  1.00  0.00     0.028 A 
ATOM     12  C   UNL A   1      29.748  26.232  25.159  1.00  0.00     0.018 A 
ATOM     13  C   UNL A   1      29.906  25.103  23.032  1.00  0.00     0.018 A 
BRANCH   9  14
ATOM     14  N   UNL A   1      31.759  23.158  25.649  1.00  0.00    -0.250 N 
ATOM     15  C   UNL A   1      34.260  22.239  27.950  1.00  0.00     0.024 C 
ATOM     16  C   UNL A   1      33.866  22.825  26.589  1.00  0.00     0.071 C 
ATOM     17  C   UNL A   1      32.550  23.533  26.707  1.00  0.00     0.241 C 
ATOM     18  C   UNL A   1      33.613  21.684  25.567  1.00  0.00     0.107 C 
ATOM     19  C   UNL A   1      34.874  23.874  25.990  1.00  0.00     0.066 C 
ATOM     20  O   UNL A   1      32.304  24.335  27.599  1.00  0.00    -0.273 OA
ATOM     21  C   UNL A   1      32.171  21.941  25.133  1.00  0.00     0.238 C 
ATOM     22  C   UNL A   1      34.655  21.787  24.395  1.00  0.00     0.063 C 
ATOM     23  C   UNL A   1      34.437  24.231  24.553  1.00  0.00    -0.036 A 
ATOM     24  C   UNL A   1      36.175  23.111  25.845  1.00  0.00    -0.036 A 
ATOM     25  O   UNL A   1      31.543  21.154  24.438  1.00  0.00    -0.274 OA
ATOM     26  C   UNL A   1      34.334  23.104  23.693  1.00  0.00    -0.036 A 
ATOM     27  C   UNL A   1      36.062  21.967  25.007  1.00  0.00    -0.036 A 
ATOM     28  C   UNL A   1      34.099  25.492  24.082  1.00  0.00     0.005 A 
ATOM     29  C   UNL A   1      37.377  23.486  26.429  1.00  0.00     0.005 A 
ATOM     30  C   UNL A   1      33.886  23.229  22.385  1.00  0.00     0.004 A 
ATOM     31  C   UNL A   1      37.194  21.211  24.742  1.00  0.00     0.004 A 
ATOM     32  C   UNL A   1      33.627  25.614  22.771  1.00  0.00     0.000 A 
ATOM     33  C   UNL A   1      38.502  22.714  26.166  1.00  0.00     0.000 A 
ATOM     34  C   UNL A   1      33.521  24.495  21.930  1.00  0.00     0.000 A 
ATOM     35  C   UNL A   1      38.412  21.591  25.328  1.00  0.00     0.000 A 
ENDBRANCH   9  14
ENDBRANCH   6   8
ENDBRANCH   5   6
ENDBRANCH   4   5
ENDBRANCH   3   4
ENDBRANCH   2   3
ENDBRANCH   1   2
BRANCH   1  36
ATOM     36  C   UNL A   1      33.897  28.414  26.296  1.00  0.00     0.261 C 
BRANCH  36  37
ATOM     37  O   UNL A   1      33.823  28.946  27.627  1.00  0.00    -0.460 OA
BRANCH  37  38
ATOM     38  C   UNL A   1      34.458  30.135  27.801  1.00  0.00     0.338 C 
ATOM     39  O   UNL A   1      33.967  31.246  27.791  1.00  0.00    -0.246 OA
BRANCH  38  40
ATOM     40  C   UNL A   1      35.854  29.877  28.207  1.00  0.00     0.060 A 
ATOM     41  C   UNL A   1      36.162  29.406  29.483  1.00  0.00     0.016 A 
ATOM     42  C   UNL A   1      36.865  30.086  27.260  1.00  0.00     0.016 A 
ATOM     43  C   UNL A   1      37.493  29.121  29.802  1.00  0.00     0.010 A 
ATOM     44  C   UNL A   1      38.192  29.804  27.582  1.00  0.00     0.010 A 
ATOM     45  C   UNL A   1      38.514  29.301  28.850  1.00  0.00    -0.014 A 
BRANCH  45  46
ATOM     46  C   UNL A   1      39.893  28.833  29.135  1.00  0.00     0.031 A 
ATOM     47  C   UNL A   1      40.357  27.464  28.743  1.00  0.00     0.074 A 
ATOM     48  C   UNL A   1      40.727  29.669  29.784  1.00  0.00     0.049 A 
ATOM     49  N   UNL A   1      41.551  26.940  28.868  1.00  0.00    -0.248 NA
ATOM     50  C   UNL A   1      39.365  26.565  28.138  1.00  0.00     0.031 C 
ATOM     51  C   UNL A   1      40.375  31.014  30.240  1.00  0.00     0.029 A 
ATOM     52  N   UNL A   1      42.038  29.520  30.164  1.00  0.00    -0.354 N 
ATOM     53  C   UNL A   1      41.460  25.659  28.341  1.00  0.00     0.074 A 
ATOM     54  C   UNL A   1      40.082  25.466  27.939  1.00  0.00     0.031 C 
ATOM     55  C   UNL A   1      41.452  31.582  30.802  1.00  0.00     0.029 A 
ATOM     56  C   UNL A   1      42.558  30.628  30.786  1.00  0.00     0.049 A 
ATOM     57  H   UNL A   1      42.555  28.697  30.004  1.00  0.00     0.167 HD
ATOM     58  C   UNL A   1      42.444  24.739  28.194  1.00  0.00     0.031 A 
ATOM     59  C   UNL A   1      43.786  30.859  31.291  1.00  0.00     0.031 A 
ATOM     60  C   UNL A   1      43.808  24.935  28.619  1.00  0.00     0.049 A 
ATOM     61  C   UNL A   1      44.843  29.798  31.166  1.00  0.00     0.074 A 
ATOM     62  C   UNL A   1      44.882  24.074  28.464  1.00  0.00     0.029 A 
ATOM     63  N   UNL A   1      44.285  26.051  29.288  1.00  0.00    -0.354 N 
ATOM     64  N   UNL A   1      44.767  28.626  30.583  1.00  0.00    -0.248 NA
ATOM     65  C   UNL A   1      46.158  30.091  31.754  1.00  0.00     0.031 C 
ATOM     66  C   UNL A   1      45.984  24.629  29.115  1.00  0.00     0.029 A 
ATOM     67  C   UNL A   1      45.625  25.878  29.597  1.00  0.00     0.049 A 
ATOM     68  H   UNL A   1      43.750  26.847  29.513  1.00  0.00     0.167 HD
ATOM     69  C   UNL A   1      46.025  28.051  30.716  1.00  0.00     0.074 A 
ATOM     70  C   UNL A   1      46.852  29.011  31.416  1.00  0.00     0.031 C 
ATOM     71  C   UNL A   1      46.447  26.833  30.298  1.00  0.00     0.031 A 
BRANCH  58  72
ATOM     72  C   UNL A   1      42.106  23.427  27.537  1.00  0.00    -0.014 A 
ATOM     73  C   UNL A   1      41.648  22.352  28.316  1.00  0.00     0.009 A 
ATOM     74  C   UNL A   1      42.378  23.211  26.177  1.00  0.00     0.009 A 
ATOM     75  C   UNL A   1      41.492  21.082  27.754  1.00  0.00     0.001 A 
ATOM     76  C   UNL A   1      42.192  21.947  25.611  1.00  0.00     0.001 A 
ATOM     77  C   UNL A   1      41.761  20.882  26.402  1.00  0.00     0.000 A 
ENDBRANCH  58  72
BRANCH  59  78
ATOM     78  C   UNL A   1      44.075  32.173  31.927  1.00  0.00    -0.014 A 
ATOM     79  C   UNL A   1      44.605  33.232  31.169  1.00  0.00     0.009 A 
ATOM     80  C   UNL A   1      43.884  32.358  33.303  1.00  0.00     0.009 A 
ATOM     81  C   UNL A   1      44.971  34.433  31.782  1.00  0.00     0.001 A 
ATOM     82  C   UNL A   1      44.216  33.573  33.908  1.00  0.00     0.001 A 
ATOM     83  C   UNL A   1      44.771  34.603  33.151  1.00  0.00     0.000 A 
ENDBRANCH  59  78
BRANCH  71  84
ATOM     84  C   UNL A   1      47.875  26.441  30.573  1.00  0.00    -0.014 A 
ATOM     85  C   UNL A   1      48.839  26.555  29.557  1.00  0.00     0.009 A 
ATOM     86  C   UNL A   1      48.239  25.839  31.787  1.00  0.00     0.009 A 
ATOM     87  C   UNL A   1      50.126  26.046  29.738  1.00  0.00     0.001 A 
ATOM     88  C   UNL A   1      49.539  25.363  31.978  1.00  0.00     0.001 A 
ATOM     89  C   UNL A   1      50.476  25.453  30.950  1.00  0.00     0.000 A 
ENDBRANCH  71  84
ENDBRANCH  45  46
ENDBRANCH  38  40
ENDBRANCH  37  38
ENDBRANCH  36  37
ENDBRANCH   1  36
TORSDOF 15
ENDMDL
MODEL 2
REMARK VINA RESULT:     -12.1      0.915      5.565
REMARK SMILES C[C@]12C(=O)N(c3ccc(C(=O)OCCOCCOC(=O)c4ccc(-c5c6nc(c(-c7ccccc7)c7ccc([nH]7)c(-c7ccccc7)c7nc(c(-c8ccccc8)c8ccc5[nH]8)C=C7)C=C6)cc4)cc3)C(=O)[C@H]1[C@H]1c3ccccc3[C@@H]2c2ccccc21
REMARK SMILES IDX 16 1 15 2 14 3 13 4 12 5 10 6 11 7 9 8 6 9 7 10 70 11 8 12
REMARK SMILES IDX 69 13 5 14 1 15 2 16 3 17 73 18 81 19 4 20 71 21 74 22 80 23
REMARK SMILES IDX 82 24 72 25 75 26 87 27 79 28 83 29 76 30 86 31 78 32 84 33
REMARK SMILES IDX 77 34 85 35 17 36 18 37 19 38 20 39 21 40 22 41 68 42 23 43
REMARK SMILES IDX 67 44 24 45 25 46 26 47 61 48 27 49 66 50 60 51 62 52 28 53
REMARK SMILES IDX 65 54 59 55 58 56 29 58 51 59 36 60 50 61 37 62 40 63 49 64
REMARK SMILES IDX 63 65 38 66 39 67 48 69 64 70 41 71 30 72 31 73 35 74 32 75
REMARK SMILES IDX 34 76 33 77 52 78 53 79 57 80 54 81 56 82 55 83 42 84 43 85
REMARK SMILES IDX 47 86 44 87 46 88 45 89
REMARK H PARENT 62 57 40 68
REMARK Flexibility Score: inf
ROOT
ATOM      1  C   UNL A   1      31.769  28.557  26.181  1.00  0.00     0.202 C 
ENDROOT
BRANCH   1   2
ATOM      2  O   UNL A   1      31.764  28.847  24.786  1.00  0.00    -0.374 OA
BRANCH   2   3
ATOM      3  C   UNL A   1      30.760  29.718  24.274  1.00  0.00     0.202 C 
BRANCH   3   4
ATOM      4  C   UNL A   1      30.163  29.411  22.897  1.00  0.00     0.261 C 
BRANCH   4   5
ATOM      5  O   UNL A   1      30.047  27.998  22.655  1.00  0.00    -0.460 OA
BRANCH   5   6
ATOM      6  C   UNL A   1      29.060  27.392  23.358  1.00  0.00     0.338 C 
ATOM      7  O   UNL A   1      27.895  27.744  23.451  1.00  0.00    -0.246 OA
BRANCH   6   8
ATOM      8  C   UNL A   1      29.522  26.092  23.875  1.00  0.00     0.060 A 
ATOM      9  C   UNL A   1      30.835  23.862  24.988  1.00  0.00     0.052 A 
ATOM     10  C   UNL A   1      30.241  24.844  25.807  1.00  0.00     0.028 A 
ATOM     11  C   UNL A   1      30.620  23.955  23.604  1.00  0.00     0.028 A 
ATOM     12  C   UNL A   1      29.630  25.969  25.257  1.00  0.00     0.018 A 
ATOM     13  C   UNL A   1      29.950  25.058  23.046  1.00  0.00     0.018 A 
BRANCH   9  14
ATOM     14  N   UNL A   1      31.810  22.987  25.559  1.00  0.00    -0.250 N 
ATOM     15  C   UNL A   1      34.277  22.012  27.874  1.00  0.00     0.024 C 
ATOM     16  C   UNL A   1      33.898  22.690  26.552  1.00  0.00     0.071 C 
ATOM     17  C   UNL A   1      32.540  23.313  26.675  1.00  0.00     0.241 C 
ATOM     18  C   UNL A   1      33.748  21.628  25.429  1.00  0.00     0.107 C 
ATOM     19  C   UNL A   1      34.864  23.840  26.084  1.00  0.00     0.066 C 
ATOM     20  O   UNL A   1      32.217  24.020  27.622  1.00  0.00    -0.273 OA
ATOM     21  C   UNL A   1      32.309  21.843  24.961  1.00  0.00     0.238 C 
ATOM     22  C   UNL A   1      34.822  21.888  24.312  1.00  0.00     0.063 C 
ATOM     23  C   UNL A   1      34.459  24.294  24.665  1.00  0.00    -0.036 A 
ATOM     24  C   UNL A   1      36.212  23.164  25.927  1.00  0.00    -0.036 A 
ATOM     25  O   UNL A   1      31.752  21.085  24.178  1.00  0.00    -0.274 OA
ATOM     26  C   UNL A   1      34.451  23.241  23.710  1.00  0.00    -0.036 A 
ATOM     27  C   UNL A   1      36.194  22.092  24.993  1.00  0.00    -0.036 A 
ATOM     28  C   UNL A   1      34.065  25.570  24.288  1.00  0.00     0.005 A 
ATOM     29  C   UNL A   1      37.368  23.553  26.588  1.00  0.00     0.005 A 
ATOM     30  C   UNL A   1      34.043  23.453  22.400  1.00  0.00     0.004 A 
ATOM     31  C   UNL A   1      37.377  21.424  24.712  1.00  0.00     0.004 A 
ATOM     32  C   UNL A   1      33.633  25.779  22.973  1.00  0.00     0.000 A 
ATOM     33  C   UNL A   1      38.545  22.869  26.308  1.00  0.00     0.000 A 
ATOM     34  C   UNL A   1      33.622  24.731  22.039  1.00  0.00     0.000 A 
ATOM     35  C   UNL A   1      38.550  21.819  25.376  1.00  0.00     0.000 A 
ENDBRANCH   9  14
ENDBRANCH   6   8
ENDBRANCH   5   6
ENDBRANCH   4   5
ENDBRANCH   3   4
ENDBRANCH   2   3
ENDBRANCH   1   2
BRANCH   1  36
ATOM     36  C   UNL A   1      33.113  28.298  26.873  1.00  0.00     0.261 C 
BRANCH  36  37
ATOM     37  O   UNL A   1      34.136  29.239  26.511  1.00  0.00    -0.460 OA
BRANCH  37  38
ATOM     38  C   UNL A   1      34.390  30.192  27.446  1.00  0.00     0.338 C 
ATOM     39  O   UNL A   1      33.620  31.023  27.886  1.00  0.00    -0.246 OA
BRANCH  38  40
ATOM     40  C   UNL A   1      35.730  29.956  28.020  1.00  0.00     0.060 A 
ATOM     41  C   UNL A   1      35.889  29.563  29.349  1.00  0.00     0.016 A 
ATOM     42  C   UNL A   1      36.841  30.102  27.181  1.00  0.00     0.016 A 
ATOM     43  C   UNL A   1      37.173  29.295  29.831  1.00  0.00     0.010 A 
ATOM     44  C   UNL A   1      38.122  29.837  27.666  1.00  0.00     0.010 A 
ATOM     45  C   UNL A   1      38.296  29.412  28.990  1.00  0.00    -0.014 A 
BRANCH  45  46
ATOM     46  C   UNL A   1      39.629  28.959  29.456  1.00  0.00     0.031 A 
ATOM     47  C   UNL A   1      40.454  29.777  30.402  1.00  0.00     0.074 A 
ATOM     48  C   UNL A   1      40.103  27.788  28.986  1.00  0.00     0.049 A 
ATOM     49  N   UNL A   1      41.608  29.480  30.946  1.00  0.00    -0.248 NA
ATOM     50  C   UNL A   1      39.926  31.093  30.789  1.00  0.00     0.031 C 
ATOM     51  C   UNL A   1      39.401  26.923  28.038  1.00  0.00     0.029 A 
ATOM     52  N   UNL A   1      41.274  27.121  29.245  1.00  0.00    -0.354 N 
ATOM     53  C   UNL A   1      41.936  30.561  31.753  1.00  0.00     0.074 A 
ATOM     54  C   UNL A   1      40.884  31.542  31.591  1.00  0.00     0.031 C 
ATOM     55  C   UNL A   1      40.135  25.821  27.826  1.00  0.00     0.029 A 
ATOM     56  C   UNL A   1      41.378  25.920  28.586  1.00  0.00     0.049 A 
ATOM     57  H   UNL A   1      41.972  27.469  29.847  1.00  0.00     0.167 HD
ATOM     58  C   UNL A   1      43.011  30.707  32.565  1.00  0.00     0.031 A 
ATOM     59  C   UNL A   1      42.361  24.998  28.587  1.00  0.00     0.031 A 
ATOM     60  C   UNL A   1      44.063  29.731  32.702  1.00  0.00     0.049 A 
ATOM     61  C   UNL A   1      43.569  25.213  29.454  1.00  0.00     0.074 A 
ATOM     62  C   UNL A   1      45.165  29.776  33.539  1.00  0.00     0.029 A 
ATOM     63  N   UNL A   1      44.157  28.550  31.982  1.00  0.00    -0.354 N 
ATOM     64  N   UNL A   1      43.823  26.198  30.281  1.00  0.00    -0.248 NA
ATOM     65  C   UNL A   1      44.622  24.188  29.400  1.00  0.00     0.031 C 
ATOM     66  C   UNL A   1      45.969  28.669  33.264  1.00  0.00     0.029 A 
ATOM     67  C   UNL A   1      45.324  27.884  32.321  1.00  0.00     0.049 A 
ATOM     68  H   UNL A   1      43.494  28.234  31.325  1.00  0.00     0.167 HD
ATOM     69  C   UNL A   1      45.051  25.903  30.860  1.00  0.00     0.074 A 
ATOM     70  C   UNL A   1      45.482  24.636  30.306  1.00  0.00     0.031 C 
ATOM     71  C   UNL A   1      45.755  26.625  31.765  1.00  0.00     0.031 A 
BRANCH  58  72
ATOM     72  C   UNL A   1      43.119  31.961  33.392  1.00  0.00    -0.014 A 
ATOM     73  C   UNL A   1      43.923  33.024  32.949  1.00  0.00     0.009 A 
ATOM     74  C   UNL A   1      42.545  32.034  34.671  1.00  0.00     0.009 A 
ATOM     75  C   UNL A   1      44.171  34.121  33.776  1.00  0.00     0.001 A 
ATOM     76  C   UNL A   1      42.770  33.147  35.485  1.00  0.00     0.001 A 
ATOM     77  C   UNL A   1      43.592  34.183  35.043  1.00  0.00     0.000 A 
ENDBRANCH  58  72
BRANCH  59  78
ATOM     78  C   UNL A   1      42.206  23.772  27.758  1.00  0.00    -0.014 A 
ATOM     79  C   UNL A   1      41.741  22.575  28.331  1.00  0.00     0.009 A 
ATOM     80  C   UNL A   1      42.583  23.770  26.408  1.00  0.00     0.009 A 
ATOM     81  C   UNL A   1      41.691  21.398  27.581  1.00  0.00     0.001 A 
ATOM     82  C   UNL A   1      42.496  22.600  25.649  1.00  0.00     0.001 A 
ATOM     83  C   UNL A   1      42.064  21.414  26.239  1.00  0.00     0.000 A 
ENDBRANCH  59  78
BRANCH  71  84
ATOM     84  C   UNL A   1      47.078  26.082  32.236  1.00  0.00    -0.014 A 
ATOM     85  C   UNL A   1      48.234  26.290  31.464  1.00  0.00     0.009 A 
ATOM     86  C   UNL A   1      47.162  25.258  33.369  1.00  0.00     0.009 A 
ATOM     87  C   UNL A   1      49.435  25.660  31.795  1.00  0.00     0.001 A 
ATOM     88  C   UNL A   1      48.373  24.658  33.719  1.00  0.00     0.001 A 
ATOM     89  C   UNL A   1      49.504  24.845  32.925  1.00  0.00     0.000 A 
ENDBRANCH  71  84
ENDBRANCH  45  46
ENDBRANCH  38  40
ENDBRANCH  37  38
ENDBRANCH  36  37
ENDBRANCH   1  36
TORSDOF 15
ENDMDL
MODEL 3
REMARK VINA RESULT:     -11.4      5.618     10.728
REMARK SMILES C[C@]12C(=O)N(c3ccc(C(=O)OCCOCCOC(=O)c4ccc(-c5c6nc(c(-c7ccccc7)c7ccc([nH]7)c(-c7ccccc7)c7nc(c(-c8ccccc8)c8ccc5[nH]8)C=C7)C=C6)cc4)cc3)C(=O)[C@H]1[C@H]1c3ccccc3[C@@H]2c2ccccc21
REMARK SMILES IDX 16 1 15 2 14 3 13 4 12 5 10 6 11 7 9 8 6 9 7 10 70 11 8 12
REMARK SMILES IDX 69 13 5 14 1 15 2 16 3 17 73 18 81 19 4 20 71 21 74 22 80 23
REMARK SMILES IDX 82 24 72 25 75 26 87 27 79 28 83 29 76 30 86 31 78 32 84 33
REMARK SMILES IDX 77 34 85 35 17 36 18 37 19 38 20 39 21 40 22 41 68 42 23 43
REMARK SMILES IDX 67 44 24 45 25 46 26 47 61 48 27 49 66 50 60 51 62 52 28 53
REMARK SMILES IDX 65 54 59 55 58 56 29 58 51 59 36 60 50 61 37 62 40 63 49 64
REMARK SMILES IDX 63 65 38 66 39 67 48 69 64 70 41 71 30 72 31 73 35 74 32 75
REMARK SMILES IDX 34 76 33 77 52 78 53 79 57 80 54 81 56 82 55 83 42 84 43 85
REMARK SMILES IDX 47 86 44 87 46 88 45 89
REMARK H PARENT 62 57 40 68
REMARK Flexibility Score: inf
ROOT
ATOM      1  C   UNL A   1      43.705  22.677  24.765  1.00  0.00     0.202 C 
ENDROOT
BRANCH   1   2
ATOM      2  O   UNL A   1      42.741  23.395  25.528  1.00  0.00    -0.374 OA
BRANCH   2   3
ATOM      3  C   UNL A   1      42.647  23.137  26.926  1.00  0.00     0.202 C 
BRANCH   3   4
ATOM      4  C   UNL A   1      42.155  24.262  27.842  1.00  0.00     0.261 C 
BRANCH   4   5
ATOM      5  O   UNL A   1      40.750  24.524  27.680  1.00  0.00    -0.460 OA
BRANCH   5   6
ATOM      6  C   UNL A   1      40.470  25.736  27.143  1.00  0.00     0.338 C 
ATOM      7  O   UNL A   1      40.566  26.067  25.972  1.00  0.00    -0.246 OA
BRANCH   6   8
ATOM      8  C   UNL A   1      39.824  26.603  28.144  1.00  0.00     0.060 A 
ATOM      9  C   UNL A   1      39.071  28.375  30.201  1.00  0.00     0.052 A 
ATOM     10  C   UNL A   1      39.530  28.853  28.957  1.00  0.00     0.028 A 
ATOM     11  C   UNL A   1      38.860  26.993  30.326  1.00  0.00     0.028 A 
ATOM     12  C   UNL A   1      39.944  27.977  27.955  1.00  0.00     0.018 A 
ATOM     13  C   UNL A   1      39.218  26.107  29.296  1.00  0.00     0.018 A 
BRANCH   9  14
ATOM     14  N   UNL A   1      39.082  29.259  31.325  1.00  0.00    -0.250 N 
ATOM     15  C   UNL A   1      37.983  30.514  34.424  1.00  0.00     0.024 C 
ATOM     16  C   UNL A   1      37.905  30.518  32.893  1.00  0.00     0.071 C 
ATOM     17  C   UNL A   1      38.199  29.145  32.369  1.00  0.00     0.241 C 
ATOM     18  C   UNL A   1      39.025  31.417  32.302  1.00  0.00     0.107 C 
ATOM     19  C   UNL A   1      36.509  30.926  32.291  1.00  0.00     0.066 C 
ATOM     20  O   UNL A   1      37.669  28.136  32.817  1.00  0.00    -0.273 OA
ATOM     21  C   UNL A   1      39.790  30.445  31.405  1.00  0.00     0.238 C 
ATOM     22  C   UNL A   1      38.378  32.620  31.524  1.00  0.00     0.063 C 
ATOM     23  C   UNL A   1      36.640  31.059  30.757  1.00  0.00    -0.036 A 
ATOM     24  C   UNL A   1      36.270  32.332  32.804  1.00  0.00    -0.036 A 
ATOM     25  O   UNL A   1      40.853  30.738  30.873  1.00  0.00    -0.274 OA
ATOM     26  C   UNL A   1      37.639  31.984  30.349  1.00  0.00    -0.036 A 
ATOM     27  C   UNL A   1      37.286  33.249  32.419  1.00  0.00    -0.036 A 
ATOM     28  C   UNL A   1      35.936  30.338  29.804  1.00  0.00     0.005 A 
ATOM     29  C   UNL A   1      35.163  32.720  33.546  1.00  0.00     0.005 A 
ATOM     30  C   UNL A   1      37.943  32.177  29.009  1.00  0.00     0.004 A 
ATOM     31  C   UNL A   1      37.160  34.583  32.774  1.00  0.00     0.004 A 
ATOM     32  C   UNL A   1      36.257  30.518  28.454  1.00  0.00     0.000 A 
ATOM     33  C   UNL A   1      35.053  34.057  33.907  1.00  0.00     0.000 A 
ATOM     34  C   UNL A   1      37.250  31.429  28.060  1.00  0.00     0.000 A 
ATOM     35  C   UNL A   1      36.038  34.980  33.521  1.00  0.00     0.000 A 
ENDBRANCH   9  14
ENDBRANCH   6   8
ENDBRANCH   5   6
ENDBRANCH   4   5
ENDBRANCH   3   4
ENDBRANCH   2   3
ENDBRANCH   1   2
BRANCH   1  36
ATOM     36  C   UNL A   1      45.121  23.254  24.640  1.00  0.00     0.261 C 
BRANCH  36  37
ATOM     37  O   UNL A   1      45.151  24.685  24.526  1.00  0.00    -0.460 OA
BRANCH  37  38
ATOM     38  C   UNL A   1      46.194  25.285  25.157  1.00  0.00     0.338 C 
ATOM     39  O   UNL A   1      47.378  25.161  24.915  1.00  0.00    -0.246 OA
BRANCH  38  40
ATOM     40  C   UNL A   1      45.668  26.295  26.097  1.00  0.00     0.060 A 
ATOM     41  C   UNL A   1      44.311  26.616  26.132  1.00  0.00     0.016 A 
ATOM     42  C   UNL A   1      46.568  26.902  26.983  1.00  0.00     0.016 A 
ATOM     43  C   UNL A   1      43.852  27.535  27.078  1.00  0.00     0.010 A 
ATOM     44  C   UNL A   1      46.106  27.822  27.924  1.00  0.00     0.010 A 
ATOM     45  C   UNL A   1      44.741  28.131  27.992  1.00  0.00    -0.014 A 
BRANCH  45  46
ATOM     46  C   UNL A   1      44.223  28.968  29.102  1.00  0.00     0.031 A 
ATOM     47  C   UNL A   1      44.003  30.442  28.942  1.00  0.00     0.074 A 
ATOM     48  C   UNL A   1      43.971  28.373  30.284  1.00  0.00     0.049 A 
ATOM     49  N   UNL A   1      43.496  31.290  29.802  1.00  0.00    -0.248 NA
ATOM     50  C   UNL A   1      44.402  31.046  27.663  1.00  0.00     0.031 C 
ATOM     51  C   UNL A   1      44.175  26.951  30.563  1.00  0.00     0.029 A 
ATOM     52  N   UNL A   1      43.482  28.879  31.462  1.00  0.00    -0.354 N 
ATOM     53  C   UNL A   1      43.496  32.522  29.163  1.00  0.00     0.074 A 
ATOM     54  C   UNL A   1      44.099  32.323  27.862  1.00  0.00     0.031 C 
ATOM     55  C   UNL A   1      43.778  26.690  31.817  1.00  0.00     0.029 A 
ATOM     56  C   UNL A   1      43.332  27.931  32.446  1.00  0.00     0.049 A 
ATOM     57  H   UNL A   1      43.259  29.830  31.589  1.00  0.00     0.167 HD
ATOM     58  C   UNL A   1      43.019  33.705  29.621  1.00  0.00     0.031 A 
ATOM     59  C   UNL A   1      42.888  28.042  33.713  1.00  0.00     0.031 A 
ATOM     60  C   UNL A   1      42.440  33.896  30.928  1.00  0.00     0.049 A 
ATOM     61  C   UNL A   1      42.420  29.378  34.214  1.00  0.00     0.074 A 
ATOM     62  C   UNL A   1      41.888  35.050  31.456  1.00  0.00     0.029 A 
ATOM     63  N   UNL A   1      42.351  32.924  31.912  1.00  0.00    -0.354 N 
ATOM     64  N   UNL A   1      42.341  30.517  33.569  1.00  0.00    -0.248 NA
ATOM     65  C   UNL A   1      41.967  29.448  35.611  1.00  0.00     0.031 C 
ATOM     66  C   UNL A   1      41.545  34.802  32.786  1.00  0.00     0.029 A 
ATOM     67  C   UNL A   1      41.797  33.467  33.061  1.00  0.00     0.049 A 
ATOM     68  H   UNL A   1      42.640  31.988  31.811  1.00  0.00     0.167 HD
ATOM     69  C   UNL A   1      41.813  31.432  34.471  1.00  0.00     0.074 A 
ATOM     70  C   UNL A   1      41.569  30.711  35.704  1.00  0.00     0.031 C 
ATOM     71  C   UNL A   1      41.560  32.750  34.290  1.00  0.00     0.031 A 
BRANCH  58  72
ATOM     72  C   UNL A   1      43.084  34.904  28.712  1.00  0.00    -0.014 A 
ATOM     73  C   UNL A   1      44.304  35.572  28.520  1.00  0.00     0.009 A 
ATOM     74  C   UNL A   1      41.915  35.456  28.164  1.00  0.00     0.009 A 
ATOM     75  C   UNL A   1      44.351  36.780  27.820  1.00  0.00     0.001 A 
ATOM     76  C   UNL A   1      41.970  36.649  27.437  1.00  0.00     0.001 A 
ATOM     77  C   UNL A   1      43.185  37.316  27.277  1.00  0.00     0.000 A 
ENDBRANCH  58  72
BRANCH  59  78
ATOM     78  C   UNL A   1      42.838  26.828  34.572  1.00  0.00    -0.014 A 
ATOM     79  C   UNL A   1      44.019  26.268  35.089  1.00  0.00     0.009 A 
ATOM     80  C   UNL A   1      41.619  26.183  34.828  1.00  0.00     0.009 A 
ATOM     81  C   UNL A   1      43.985  25.073  35.811  1.00  0.00     0.001 A 
ATOM     82  C   UNL A   1      41.583  25.007  35.582  1.00  0.00     0.001 A 
ATOM     83  C   UNL A   1      42.766  24.447  36.060  1.00  0.00     0.000 A 
ENDBRANCH  59  78
BRANCH  71  84
ATOM     84  C   UNL A   1      40.985  33.531  35.441  1.00  0.00    -0.014 A 
ATOM     85  C   UNL A   1      39.592  33.684  35.557  1.00  0.00     0.009 A 
ATOM     86  C   UNL A   1      41.816  34.223  36.335  1.00  0.00     0.009 A 
ATOM     87  C   UNL A   1      39.047  34.536  36.519  1.00  0.00     0.001 A 
ATOM     88  C   UNL A   1      41.267  35.047  37.319  1.00  0.00     0.001 A 
ATOM     89  C   UNL A   1      39.885  35.215  37.401  1.00  0.00     0.000 A 
ENDBRANCH  71  84
ENDBRANCH  45  46
ENDBRANCH  38  40
ENDBRANCH  37  38
ENDBRANCH  36  37
ENDBRANCH   1  36
TORSDOF 15
ENDMDL
