MODEL 1
REMARK VINA RESULT:      -8.9      0.000      0.000
REMARK SMILES C[NH+](C)[C@@H]1CC[N@@H+](Cc2ccc(C(=O)OCCOCCOC(=O)c3ccc(-c4c5nc(c(-c6ccccc6)c6ccc([nH]6)c(-c6ccccc6)c6nc(c(-c7ccccc7)c7ccc4[nH]7)C=C6)C=C5)cc3)cn2)C1
REMARK SMILES IDX 17 1 16 2 15 3 13 4 14 5 12 6 9 7 10 8 73 9 11 10 72 11 8 12
REMARK SMILES IDX 7 13 4 14 5 15 74 16 6 17 2 19 1 20 3 21 18 23 19 24 20 25
REMARK SMILES IDX 21 26 22 27 23 28 24 29 25 30 71 31 26 32 70 33 27 34 28 35
REMARK SMILES IDX 29 36 64 37 30 38 69 39 63 40 65 41 31 42 68 43 62 44 61 45
REMARK SMILES IDX 32 47 54 48 39 49 53 50 40 51 43 52 52 53 66 54 41 55 42 56
REMARK SMILES IDX 51 58 67 59 44 60 33 61 34 62 38 63 35 64 37 65 36 66 55 67
REMARK SMILES IDX 56 68 60 69 57 70 59 71 58 72 45 73 46 74 50 75 47 76 49 77
REMARK SMILES IDX 48 78
REMARK H PARENT 7 18 2 22 65 46 43 57
REMARK Flexibility Score: inf
ROOT
ATOM      1  C   UNL A   1      33.227  36.158  29.170  1.00  0.00     0.202 C 
ENDROOT
BRANCH   1   2
ATOM      2  C   UNL A   1      32.814  36.588  30.580  1.00  0.00     0.261 C 
BRANCH   2   3
ATOM      3  O   UNL A   1      33.750  36.106  31.552  1.00  0.00    -0.460 OA
BRANCH   3   4
ATOM      4  C   UNL A   1      33.276  35.125  32.353  1.00  0.00     0.339 C 
ATOM      5  O   UNL A   1      32.105  34.857  32.573  1.00  0.00    -0.246 OA
BRANCH   4   6
ATOM      6  C   UNL A   1      34.389  34.282  32.813  1.00  0.00     0.078 A 
ATOM      7  C   UNL A   1      36.628  32.960  33.677  1.00  0.00     0.095 A 
ATOM      8  C   UNL A   1      35.704  32.273  32.890  1.00  0.00     0.031 A 
ATOM      9  N   UNL A   1      36.394  34.213  34.145  1.00  0.00    -0.254 NA
ATOM     10  C   UNL A   1      34.571  32.949  32.441  1.00  0.00     0.019 A 
ATOM     11  C   UNL A   1      35.288  34.847  33.703  1.00  0.00     0.127 A 
BRANCH   7  12
ATOM     12  C   UNL A   1      38.042  32.437  33.842  1.00  0.00     0.319 C 
BRANCH  12  13
ATOM     13  N   UNL A   1      38.184  31.165  34.583  1.00  0.00    -0.325 N 
ATOM     14  C   UNL A   1      40.333  29.996  34.538  1.00  0.00     0.245 C 
ATOM     15  C   UNL A   1      40.292  30.967  35.720  1.00  0.00     0.132 C 
ATOM     16  C   UNL A   1      38.931  30.113  33.884  1.00  0.00     0.328 C 
ATOM     17  C   UNL A   1      38.818  31.298  35.902  1.00  0.00     0.269 C 
ATOM     18  H   UNL A   1      37.205  30.893  34.674  1.00  0.00     0.348 HD
BRANCH  14  19
ATOM     19  N   UNL A   1      40.809  28.646  34.902  1.00  0.00    -0.333 N 
ATOM     20  C   UNL A   1      41.386  27.897  33.784  1.00  0.00     0.332 C 
ATOM     21  C   UNL A   1      41.741  28.683  36.028  1.00  0.00     0.332 C 
ATOM     22  H   UNL A   1      39.971  28.139  35.186  1.00  0.00     0.348 HD
ENDBRANCH  14  19
ENDBRANCH  12  13
ENDBRANCH   7  12
ENDBRANCH   4   6
ENDBRANCH   3   4
ENDBRANCH   2   3
ENDBRANCH   1   2
BRANCH   1  23
ATOM     23  O   UNL A   1      32.938  34.820  28.771  1.00  0.00    -0.374 OA
BRANCH  23  24
ATOM     24  C   UNL A   1      34.018  33.979  28.368  1.00  0.00     0.202 C 
BRANCH  24  25
ATOM     25  C   UNL A   1      33.912  32.472  28.630  1.00  0.00     0.261 C 
BRANCH  25  26
ATOM     26  O   UNL A   1      34.305  31.672  27.503  1.00  0.00    -0.460 OA
BRANCH  26  27
ATOM     27  C   UNL A   1      34.471  30.357  27.791  1.00  0.00     0.338 C 
ATOM     28  O   UNL A   1      33.711  29.439  27.536  1.00  0.00    -0.246 OA
BRANCH  27  29
ATOM     29  C   UNL A   1      35.828  30.129  28.318  1.00  0.00     0.060 A 
ATOM     30  C   UNL A   1      36.906  30.405  27.468  1.00  0.00     0.016 A 
ATOM     31  C   UNL A   1      36.039  29.574  29.581  1.00  0.00     0.016 A 
ATOM     32  C   UNL A   1      38.202  30.085  27.861  1.00  0.00     0.010 A 
ATOM     33  C   UNL A   1      37.341  29.246  29.971  1.00  0.00     0.010 A 
ATOM     34  C   UNL A   1      38.423  29.468  29.099  1.00  0.00    -0.014 A 
BRANCH  34  35
ATOM     35  C   UNL A   1      39.769  28.938  29.420  1.00  0.00     0.031 A 
ATOM     36  C   UNL A   1      40.713  29.774  30.240  1.00  0.00     0.074 A 
ATOM     37  C   UNL A   1      40.135  27.709  29.015  1.00  0.00     0.049 A 
ATOM     38  N   UNL A   1      41.940  29.514  30.613  1.00  0.00    -0.248 NA
ATOM     39  C   UNL A   1      40.207  31.078  30.696  1.00  0.00     0.031 C 
ATOM     40  C   UNL A   1      39.296  26.786  28.252  1.00  0.00     0.029 A 
ATOM     41  N   UNL A   1      41.314  27.030  29.189  1.00  0.00    -0.354 N 
ATOM     42  C   UNL A   1      42.355  30.622  31.341  1.00  0.00     0.074 A 
ATOM     43  C   UNL A   1      41.264  31.573  31.325  1.00  0.00     0.031 C 
ATOM     44  C   UNL A   1      39.991  25.660  28.018  1.00  0.00     0.029 A 
ATOM     45  C   UNL A   1      41.333  25.800  28.581  1.00  0.00     0.049 A 
ATOM     46  H   UNL A   1      42.074  27.390  29.701  1.00  0.00     0.167 HD
ATOM     47  C   UNL A   1      43.534  30.827  31.976  1.00  0.00     0.031 A 
ATOM     48  C   UNL A   1      42.325  24.898  28.470  1.00  0.00     0.031 A 
ATOM     49  C   UNL A   1      44.626  29.890  31.976  1.00  0.00     0.049 A 
ATOM     50  C   UNL A   1      43.657  25.183  29.113  1.00  0.00     0.074 A 
ATOM     51  C   UNL A   1      45.859  30.001  32.595  1.00  0.00     0.029 A 
ATOM     52  N   UNL A   1      44.621  28.671  31.314  1.00  0.00    -0.354 N 
ATOM     53  N   UNL A   1      44.029  26.223  29.819  1.00  0.00    -0.248 NA
ATOM     54  C   UNL A   1      44.700  24.161  28.952  1.00  0.00     0.031 C 
ATOM     55  C   UNL A   1      46.622  28.879  32.255  1.00  0.00     0.029 A 
ATOM     56  C   UNL A   1      45.839  28.034  31.485  1.00  0.00     0.049 A 
ATOM     57  H   UNL A   1      43.862  28.312  30.799  1.00  0.00     0.167 HD
ATOM     58  C   UNL A   1      45.338  25.969  30.208  1.00  0.00     0.074 A 
ATOM     59  C   UNL A   1      45.688  24.668  29.677  1.00  0.00     0.031 C 
ATOM     60  C   UNL A   1      46.177  26.743  30.942  1.00  0.00     0.031 A 
BRANCH  47  61
ATOM     61  C   UNL A   1      43.715  32.138  32.693  1.00  0.00    -0.014 A 
ATOM     62  C   UNL A   1      44.201  33.276  32.029  1.00  0.00     0.009 A 
ATOM     63  C   UNL A   1      43.368  32.243  34.049  1.00  0.00     0.009 A 
ATOM     64  C   UNL A   1      44.374  34.479  32.717  1.00  0.00     0.001 A 
ATOM     65  C   UNL A   1      43.510  33.456  34.727  1.00  0.00     0.001 A 
ATOM     66  C   UNL A   1      44.024  34.569  34.064  1.00  0.00     0.000 A 
ENDBRANCH  47  61
BRANCH  48  67
ATOM     67  C   UNL A   1      42.108  23.647  27.696  1.00  0.00    -0.014 A 
ATOM     68  C   UNL A   1      41.584  22.500  28.311  1.00  0.00     0.009 A 
ATOM     69  C   UNL A   1      42.434  23.595  26.331  1.00  0.00     0.009 A 
ATOM     70  C   UNL A   1      41.419  21.320  27.582  1.00  0.00     0.001 A 
ATOM     71  C   UNL A   1      42.236  22.423  25.597  1.00  0.00     0.001 A 
ATOM     72  C   UNL A   1      41.737  21.285  26.225  1.00  0.00     0.000 A 
ENDBRANCH  48  67
BRANCH  60  73
ATOM     73  C   UNL A   1      47.541  26.185  31.245  1.00  0.00    -0.014 A 
ATOM     74  C   UNL A   1      48.594  26.276  30.320  1.00  0.00     0.009 A 
ATOM     75  C   UNL A   1      47.787  25.588  32.492  1.00  0.00     0.009 A 
ATOM     76  C   UNL A   1      49.850  25.744  30.624  1.00  0.00     0.001 A 
ATOM     77  C   UNL A   1      49.051  25.088  32.806  1.00  0.00     0.001 A 
ATOM     78  C   UNL A   1      50.078  25.155  31.867  1.00  0.00     0.000 A 
ENDBRANCH  60  73
ENDBRANCH  34  35
ENDBRANCH  27  29
ENDBRANCH  26  27
ENDBRANCH  25  26
ENDBRANCH  24  25
ENDBRANCH  23  24
ENDBRANCH   1  23
TORSDOF 17
ENDMDL
MODEL 2
REMARK VINA RESULT:      -8.8      3.858      7.750
REMARK SMILES C[NH+](C)[C@@H]1CC[N@@H+](Cc2ccc(C(=O)OCCOCCOC(=O)c3ccc(-c4c5nc(c(-c6ccccc6)c6ccc([nH]6)c(-c6ccccc6)c6nc(c(-c7ccccc7)c7ccc4[nH]7)C=C6)C=C5)cc3)cn2)C1
REMARK SMILES IDX 17 1 16 2 15 3 13 4 14 5 12 6 9 7 10 8 73 9 11 10 72 11 8 12
REMARK SMILES IDX 7 13 4 14 5 15 74 16 6 17 2 19 1 20 3 21 18 23 19 24 20 25
REMARK SMILES IDX 21 26 22 27 23 28 24 29 25 30 71 31 26 32 70 33 27 34 28 35
REMARK SMILES IDX 29 36 64 37 30 38 69 39 63 40 65 41 31 42 68 43 62 44 61 45
REMARK SMILES IDX 32 47 54 48 39 49 53 50 40 51 43 52 52 53 66 54 41 55 42 56
REMARK SMILES IDX 51 58 67 59 44 60 33 61 34 62 38 63 35 64 37 65 36 66 55 67
REMARK SMILES IDX 56 68 60 69 57 70 59 71 58 72 45 73 46 74 50 75 47 76 49 77
REMARK SMILES IDX 48 78
REMARK H PARENT 7 18 2 22 65 46 43 57
REMARK Flexibility Score: inf
ROOT
ATOM      1  C   UNL A   1      35.242  32.577  28.059  1.00  0.00     0.202 C 
ENDROOT
BRANCH   1   2
ATOM      2  C   UNL A   1      35.062  31.105  27.682  1.00  0.00     0.261 C 
BRANCH   2   3
ATOM      3  O   UNL A   1      33.786  30.623  28.121  1.00  0.00    -0.460 OA
BRANCH   3   4
ATOM      4  C   UNL A   1      32.867  30.484  27.139  1.00  0.00     0.339 C 
ATOM      5  O   UNL A   1      32.319  31.379  26.513  1.00  0.00    -0.246 OA
BRANCH   4   6
ATOM      6  C   UNL A   1      32.729  29.063  26.787  1.00  0.00     0.078 A 
ATOM      7  C   UNL A   1      32.342  26.380  26.398  1.00  0.00     0.095 A 
ATOM      8  C   UNL A   1      33.432  26.997  25.785  1.00  0.00     0.031 A 
ATOM      9  N   UNL A   1      31.390  27.082  27.066  1.00  0.00    -0.254 NA
ATOM     10  C   UNL A   1      33.635  28.359  25.992  1.00  0.00     0.019 A 
ATOM     11  C   UNL A   1      31.604  28.401  27.250  1.00  0.00     0.127 A 
BRANCH   7  12
ATOM     12  C   UNL A   1      32.299  24.872  26.561  1.00  0.00     0.319 C 
BRANCH  12  13
ATOM     13  N   UNL A   1      33.306  24.105  25.796  1.00  0.00    -0.325 N 
ATOM     14  C   UNL A   1      33.564  21.712  26.236  1.00  0.00     0.245 C 
ATOM     15  C   UNL A   1      32.528  21.930  25.130  1.00  0.00     0.132 C 
ATOM     16  C   UNL A   1      34.080  23.134  26.577  1.00  0.00     0.328 C 
ATOM     17  C   UNL A   1      32.761  23.357  24.654  1.00  0.00     0.269 C 
ATOM     18  H   UNL A   1      33.914  24.861  25.480  1.00  0.00     0.348 HD
BRANCH  14  19
ATOM     19  N   UNL A   1      34.567  20.679  25.905  1.00  0.00    -0.333 N 
ATOM     20  C   UNL A   1      34.170  19.797  24.806  1.00  0.00     0.332 C 
ATOM     21  C   UNL A   1      35.882  21.262  25.645  1.00  0.00     0.332 C 
ATOM     22  H   UNL A   1      34.625  20.093  26.738  1.00  0.00     0.348 HD
ENDBRANCH  14  19
ENDBRANCH  12  13
ENDBRANCH   7  12
ENDBRANCH   4   6
ENDBRANCH   3   4
ENDBRANCH   2   3
ENDBRANCH   1   2
BRANCH   1  23
ATOM     23  O   UNL A   1      34.368  33.125  29.044  1.00  0.00    -0.374 OA
BRANCH  23  24
ATOM     24  C   UNL A   1      33.447  34.140  28.651  1.00  0.00     0.202 C 
BRANCH  24  25
ATOM     25  C   UNL A   1      33.234  35.339  29.583  1.00  0.00     0.261 C 
BRANCH  25  26
ATOM     26  O   UNL A   1      32.430  35.029  30.732  1.00  0.00    -0.460 OA
BRANCH  26  27
ATOM     27  C   UNL A   1      32.819  35.662  31.866  1.00  0.00     0.338 C 
ATOM     28  O   UNL A   1      32.255  36.580  32.436  1.00  0.00    -0.246 OA
BRANCH  27  29
ATOM     29  C   UNL A   1      33.972  34.961  32.460  1.00  0.00     0.060 A 
ATOM     30  C   UNL A   1      35.222  35.587  32.375  1.00  0.00     0.016 A 
ATOM     31  C   UNL A   1      33.849  33.683  33.007  1.00  0.00     0.016 A 
ATOM     32  C   UNL A   1      36.365  34.916  32.798  1.00  0.00     0.010 A 
ATOM     33  C   UNL A   1      35.000  33.009  33.424  1.00  0.00     0.010 A 
ATOM     34  C   UNL A   1      36.266  33.609  33.288  1.00  0.00    -0.014 A 
BRANCH  34  35
ATOM     35  C   UNL A   1      37.500  32.826  33.536  1.00  0.00     0.031 A 
ATOM     36  C   UNL A   1      38.269  33.046  34.809  1.00  0.00     0.074 A 
ATOM     37  C   UNL A   1      37.913  31.903  32.650  1.00  0.00     0.049 A 
ATOM     38  N   UNL A   1      39.382  32.489  35.212  1.00  0.00    -0.248 NA
ATOM     39  C   UNL A   1      37.710  34.028  35.752  1.00  0.00     0.031 C 
ATOM     40  C   UNL A   1      37.233  31.567  31.400  1.00  0.00     0.029 A 
ATOM     41  N   UNL A   1      39.011  31.081  32.669  1.00  0.00    -0.354 N 
ATOM     42  C   UNL A   1      39.660  33.055  36.451  1.00  0.00     0.074 A 
ATOM     43  C   UNL A   1      38.621  34.027  36.714  1.00  0.00     0.031 C 
ATOM     44  C   UNL A   1      37.934  30.611  30.767  1.00  0.00     0.029 A 
ATOM     45  C   UNL A   1      39.128  30.297  31.549  1.00  0.00     0.049 A 
ATOM     46  H   UNL A   1      39.654  31.056  33.414  1.00  0.00     0.167 HD
ATOM     47  C   UNL A   1      40.682  32.784  37.297  1.00  0.00     0.031 A 
ATOM     48  C   UNL A   1      40.099  29.440  31.183  1.00  0.00     0.031 A 
ATOM     49  C   UNL A   1      41.726  31.832  37.026  1.00  0.00     0.049 A 
ATOM     50  C   UNL A   1      41.271  29.216  32.101  1.00  0.00     0.074 A 
ATOM     51  C   UNL A   1      42.801  31.479  37.822  1.00  0.00     0.029 A 
ATOM     52  N   UNL A   1      41.831  31.085  35.861  1.00  0.00    -0.354 N 
ATOM     53  N   UNL A   1      41.511  29.739  33.280  1.00  0.00    -0.248 NA
ATOM     54  C   UNL A   1      42.299  28.272  31.643  1.00  0.00     0.031 C 
ATOM     55  C   UNL A   1      43.591  30.568  37.112  1.00  0.00     0.029 A 
ATOM     56  C   UNL A   1      42.969  30.297  35.905  1.00  0.00     0.049 A 
ATOM     57  H   UNL A   1      41.190  31.112  35.114  1.00  0.00     0.167 HD
ATOM     58  C   UNL A   1      42.700  29.169  33.714  1.00  0.00     0.074 A 
ATOM     59  C   UNL A   1      43.123  28.245  32.682  1.00  0.00     0.031 C 
ATOM     60  C   UNL A   1      43.383  29.389  34.866  1.00  0.00     0.031 A 
BRANCH  47  61
ATOM     61  C   UNL A   1      40.738  33.561  38.584  1.00  0.00    -0.014 A 
ATOM     62  C   UNL A   1      40.088  33.107  39.744  1.00  0.00     0.009 A 
ATOM     63  C   UNL A   1      41.476  34.754  38.646  1.00  0.00     0.009 A 
ATOM     64  C   UNL A   1      40.142  33.852  40.924  1.00  0.00     0.001 A 
ATOM     65  C   UNL A   1      41.556  35.480  39.837  1.00  0.00     0.001 A 
ATOM     66  C   UNL A   1      40.880  35.034  40.971  1.00  0.00     0.000 A 
ENDBRANCH  47  61
BRANCH  48  67
ATOM     67  C   UNL A   1      40.020  28.747  29.870  1.00  0.00    -0.014 A 
ATOM     68  C   UNL A   1      40.487  29.364  28.699  1.00  0.00     0.009 A 
ATOM     69  C   UNL A   1      39.464  27.460  29.782  1.00  0.00     0.009 A 
ATOM     70  C   UNL A   1      40.373  28.717  27.466  1.00  0.00     0.001 A 
ATOM     71  C   UNL A   1      39.383  26.803  28.553  1.00  0.00     0.001 A 
ATOM     72  C   UNL A   1      39.829  27.436  27.395  1.00  0.00     0.000 A 
ENDBRANCH  48  67
BRANCH  60  73
ATOM     73  C   UNL A   1      44.638  28.588  35.087  1.00  0.00    -0.014 A 
ATOM     74  C   UNL A   1      44.606  27.330  35.710  1.00  0.00     0.009 A 
ATOM     75  C   UNL A   1      45.869  29.086  34.632  1.00  0.00     0.009 A 
ATOM     76  C   UNL A   1      45.786  26.609  35.909  1.00  0.00     0.001 A 
ATOM     77  C   UNL A   1      47.042  28.349  34.801  1.00  0.00     0.001 A 
ATOM     78  C   UNL A   1      47.001  27.117  35.451  1.00  0.00     0.000 A 
ENDBRANCH  60  73
ENDBRANCH  34  35
ENDBRANCH  27  29
ENDBRANCH  26  27
ENDBRANCH  25  26
ENDBRANCH  24  25
ENDBRANCH  23  24
ENDBRANCH   1  23
TORSDOF 17
ENDMDL
MODEL 3
REMARK VINA RESULT:      -8.4      4.901     11.138
REMARK SMILES C[NH+](C)[C@@H]1CC[N@@H+](Cc2ccc(C(=O)OCCOCCOC(=O)c3ccc(-c4c5nc(c(-c6ccccc6)c6ccc([nH]6)c(-c6ccccc6)c6nc(c(-c7ccccc7)c7ccc4[nH]7)C=C6)C=C5)cc3)cn2)C1
REMARK SMILES IDX 17 1 16 2 15 3 13 4 14 5 12 6 9 7 10 8 73 9 11 10 72 11 8 12
REMARK SMILES IDX 7 13 4 14 5 15 74 16 6 17 2 19 1 20 3 21 18 23 19 24 20 25
REMARK SMILES IDX 21 26 22 27 23 28 24 29 25 30 71 31 26 32 70 33 27 34 28 35
REMARK SMILES IDX 29 36 64 37 30 38 69 39 63 40 65 41 31 42 68 43 62 44 61 45
REMARK SMILES IDX 32 47 54 48 39 49 53 50 40 51 43 52 52 53 66 54 41 55 42 56
REMARK SMILES IDX 51 58 67 59 44 60 33 61 34 62 38 63 35 64 37 65 36 66 55 67
REMARK SMILES IDX 56 68 60 69 57 70 59 71 58 72 45 73 46 74 50 75 47 76 49 77
REMARK SMILES IDX 48 78
REMARK H PARENT 7 18 2 22 65 46 43 57
REMARK Flexibility Score: inf
ROOT
ATOM      1  C   UNL A   1      38.266  22.105  25.694  1.00  0.00     0.202 C 
ENDROOT
BRANCH   1   2
ATOM      2  C   UNL A   1      37.285  21.665  24.604  1.00  0.00     0.261 C 
BRANCH   2   3
ATOM      3  O   UNL A   1      36.438  22.754  24.216  1.00  0.00    -0.460 OA
BRANCH   3   4
ATOM      4  C   UNL A   1      35.114  22.519  24.364  1.00  0.00     0.339 C 
ATOM      5  O   UNL A   1      34.573  21.435  24.518  1.00  0.00    -0.246 OA
BRANCH   4   6
ATOM      6  C   UNL A   1      34.397  23.796  24.491  1.00  0.00     0.078 A 
ATOM      7  C   UNL A   1      33.169  26.244  24.457  1.00  0.00     0.095 A 
ATOM      8  C   UNL A   1      33.542  25.698  25.685  1.00  0.00     0.031 A 
ATOM      9  N   UNL A   1      33.265  25.552  23.293  1.00  0.00    -0.254 NA
ATOM     10  C   UNL A   1      34.177  24.458  25.701  1.00  0.00     0.019 A 
ATOM     11  C   UNL A   1      33.878  24.350  23.333  1.00  0.00     0.127 A 
BRANCH   7  12
ATOM     12  C   UNL A   1      32.869  27.727  24.331  1.00  0.00     0.319 C 
BRANCH  12  13
ATOM     13  N   UNL A   1      31.513  28.154  24.739  1.00  0.00    -0.325 N 
ATOM     14  C   UNL A   1      30.041  29.181  23.075  1.00  0.00     0.245 C 
ATOM     15  C   UNL A   1      29.836  27.665  23.087  1.00  0.00     0.132 C 
ATOM     16  C   UNL A   1      31.076  29.447  24.200  1.00  0.00     0.328 C 
ATOM     17  C   UNL A   1      30.449  27.198  24.400  1.00  0.00     0.269 C 
ATOM     18  H   UNL A   1      31.635  28.222  25.749  1.00  0.00     0.348 HD
BRANCH  14  19
ATOM     19  N   UNL A   1      28.778  29.945  23.111  1.00  0.00    -0.333 N 
ATOM     20  C   UNL A   1      28.907  31.280  23.698  1.00  0.00     0.332 C 
ATOM     21  C   UNL A   1      28.151  30.024  21.793  1.00  0.00     0.332 C 
ATOM     22  H   UNL A   1      28.168  29.415  23.734  1.00  0.00     0.348 HD
ENDBRANCH  14  19
ENDBRANCH  12  13
ENDBRANCH   7  12
ENDBRANCH   4   6
ENDBRANCH   3   4
ENDBRANCH   2   3
ENDBRANCH   1   2
BRANCH   1  23
ATOM     23  O   UNL A   1      39.358  21.239  25.996  1.00  0.00    -0.374 OA
BRANCH  23  24
ATOM     24  C   UNL A   1      40.426  21.742  26.797  1.00  0.00     0.202 C 
BRANCH  24  25
ATOM     25  C   UNL A   1      41.754  22.091  26.114  1.00  0.00     0.261 C 
BRANCH  25  26
ATOM     26  O   UNL A   1      42.521  23.071  26.833  1.00  0.00    -0.460 OA
BRANCH  26  27
ATOM     27  C   UNL A   1      42.633  24.262  26.195  1.00  0.00     0.338 C 
ATOM     28  O   UNL A   1      42.945  24.456  25.032  1.00  0.00    -0.246 OA
BRANCH  27  29
ATOM     29  C   UNL A   1      42.139  25.344  27.065  1.00  0.00     0.060 A 
ATOM     30  C   UNL A   1      42.851  26.550  27.063  1.00  0.00     0.016 A 
ATOM     31  C   UNL A   1      41.059  25.154  27.927  1.00  0.00     0.016 A 
ATOM     32  C   UNL A   1      42.513  27.559  27.959  1.00  0.00     0.010 A 
ATOM     33  C   UNL A   1      40.725  26.166  28.832  1.00  0.00     0.010 A 
ATOM     34  C   UNL A   1      41.473  27.358  28.876  1.00  0.00    -0.014 A 
BRANCH  34  35
ATOM     35  C   UNL A   1      41.257  28.343  29.961  1.00  0.00     0.031 A 
ATOM     36  C   UNL A   1      40.117  29.318  29.855  1.00  0.00     0.074 A 
ATOM     37  C   UNL A   1      42.048  28.346  31.049  1.00  0.00     0.049 A 
ATOM     38  N   UNL A   1      39.765  30.274  30.676  1.00  0.00    -0.248 NA
ATOM     39  C   UNL A   1      39.262  29.201  28.663  1.00  0.00     0.031 C 
ATOM     40  C   UNL A   1      43.158  27.425  31.289  1.00  0.00     0.029 A 
ATOM     41  N   UNL A   1      42.037  29.158  32.154  1.00  0.00    -0.354 N 
ATOM     42  C   UNL A   1      38.654  30.877  30.098  1.00  0.00     0.074 A 
ATOM     43  C   UNL A   1      38.414  30.204  28.840  1.00  0.00     0.031 C 
ATOM     44  C   UNL A   1      43.727  27.729  32.468  1.00  0.00     0.029 A 
ATOM     45  C   UNL A   1      43.045  28.886  33.045  1.00  0.00     0.049 A 
ATOM     46  H   UNL A   1      41.369  29.869  32.295  1.00  0.00     0.167 HD
ATOM     47  C   UNL A   1      37.895  31.892  30.576  1.00  0.00     0.031 A 
ATOM     48  C   UNL A   1      43.393  29.513  34.184  1.00  0.00     0.031 A 
ATOM     49  C   UNL A   1      38.146  32.574  31.818  1.00  0.00     0.049 A 
ATOM     50  C   UNL A   1      42.586  30.693  34.654  1.00  0.00     0.074 A 
ATOM     51  C   UNL A   1      37.431  33.609  32.394  1.00  0.00     0.029 A 
ATOM     52  N   UNL A   1      39.201  32.295  32.673  1.00  0.00    -0.354 N 
ATOM     53  N   UNL A   1      41.524  31.238  34.112  1.00  0.00    -0.248 NA
ATOM     54  C   UNL A   1      43.020  31.336  35.902  1.00  0.00     0.031 C 
ATOM     55  C   UNL A   1      38.091  33.999  33.564  1.00  0.00     0.029 A 
ATOM     56  C   UNL A   1      39.175  33.158  33.756  1.00  0.00     0.049 A 
ATOM     57  H   UNL A   1      39.871  31.586  32.531  1.00  0.00     0.167 HD
ATOM     58  C   UNL A   1      41.148  32.268  34.964  1.00  0.00     0.074 A 
ATOM     59  C   UNL A   1      42.084  32.259  36.070  1.00  0.00     0.031 C 
ATOM     60  C   UNL A   1      40.118  33.143  34.845  1.00  0.00     0.031 A 
BRANCH  47  61
ATOM     61  C   UNL A   1      36.741  32.351  29.727  1.00  0.00    -0.014 A 
ATOM     62  C   UNL A   1      35.444  31.845  29.918  1.00  0.00     0.009 A 
ATOM     63  C   UNL A   1      36.947  33.324  28.737  1.00  0.00     0.009 A 
ATOM     64  C   UNL A   1      34.389  32.275  29.110  1.00  0.00     0.001 A 
ATOM     65  C   UNL A   1      35.885  33.776  27.952  1.00  0.00     0.001 A 
ATOM     66  C   UNL A   1      34.609  33.243  28.131  1.00  0.00     0.000 A 
ENDBRANCH  47  61
BRANCH  48  67
ATOM     67  C   UNL A   1      44.583  29.052  34.949  1.00  0.00    -0.014 A 
ATOM     68  C   UNL A   1      44.461  28.080  35.953  1.00  0.00     0.009 A 
ATOM     69  C   UNL A   1      45.849  29.595  34.680  1.00  0.00     0.009 A 
ATOM     70  C   UNL A   1      45.580  27.683  36.690  1.00  0.00     0.001 A 
ATOM     71  C   UNL A   1      46.971  29.171  35.396  1.00  0.00     0.001 A 
ATOM     72  C   UNL A   1      46.833  28.222  36.406  1.00  0.00     0.000 A 
ENDBRANCH  48  67
BRANCH  60  73
ATOM     73  C   UNL A   1      39.928  34.140  35.957  1.00  0.00    -0.014 A 
ATOM     74  C   UNL A   1      40.490  35.425  35.896  1.00  0.00     0.009 A 
ATOM     75  C   UNL A   1      39.144  33.797  37.070  1.00  0.00     0.009 A 
ATOM     76  C   UNL A   1      40.304  36.329  36.945  1.00  0.00     0.001 A 
ATOM     77  C   UNL A   1      38.930  34.713  38.101  1.00  0.00     0.001 A 
ATOM     78  C   UNL A   1      39.522  35.974  38.043  1.00  0.00     0.000 A 
ENDBRANCH  60  73
ENDBRANCH  34  35
ENDBRANCH  27  29
ENDBRANCH  26  27
ENDBRANCH  25  26
ENDBRANCH  24  25
ENDBRANCH  23  24
ENDBRANCH   1  23
TORSDOF 17
ENDMDL
