MODEL 1
REMARK VINA RESULT:     -10.3      0.000      0.000
REMARK SMILES CC(C)[NH2+][C@]1(C(=O)OCCOCCOC(=O)c2ccc(-c3c4nc(c(-c5ccccc5)c5ccc([nH]5)c(-c5ccccc5)c5nc(c(-c6ccccc6)c6ccc3[nH]6)C=C5)C=C4)cc2)CC[C@H]([NH+]2CCC(C)(C)CC2)C1
REMARK SMILES IDX 11 1 10 2 9 3 8 4 6 5 7 6 5 7 65 8 76 9 66 10 67 11 4 12
REMARK SMILES IDX 2 15 1 16 3 17 68 18 69 19 75 20 70 22 74 23 71 24 72 25
REMARK SMILES IDX 73 26 12 27 13 28 14 29 15 30 16 31 17 32 18 33 64 34 19 35
REMARK SMILES IDX 63 36 20 37 21 38 22 39 57 40 23 41 62 42 56 43 58 44 24 45
REMARK SMILES IDX 61 46 55 47 54 48 25 50 47 51 32 52 46 53 33 54 36 55 45 56
REMARK SMILES IDX 59 57 34 58 35 59 44 61 60 62 37 63 26 64 27 65 31 66 28 67
REMARK SMILES IDX 30 68 29 69 48 70 49 71 53 72 50 73 52 74 51 75 38 76 39 77
REMARK SMILES IDX 43 78 40 79 42 80 41 81
REMARK H PARENT 4 13 4 14 68 21 58 49 36 60
REMARK Flexibility Score: inf
ROOT
ATOM      1  O   UNL A   1      36.878  20.854  25.210  1.00  0.00    -0.374 OA
ENDROOT
BRANCH   1   2
ATOM      2  C   UNL A   1      37.203  22.115  24.639  1.00  0.00     0.202 C 
BRANCH   2   3
ATOM      3  C   UNL A   1      36.233  22.734  23.629  1.00  0.00     0.261 C 
BRANCH   3   4
ATOM      4  O   UNL A   1      34.874  22.794  24.084  1.00  0.00    -0.459 OA
BRANCH   4   5
ATOM      5  C   UNL A   1      34.082  23.602  23.331  1.00  0.00     0.368 C 
ATOM      6  O   UNL A   1      33.881  23.443  22.127  1.00  0.00    -0.245 OA
BRANCH   5   7
ATOM      7  C   UNL A   1      33.452  24.789  24.113  1.00  0.00     0.200 C 
ATOM      8  C   UNL A   1      34.393  25.515  25.077  1.00  0.00     0.087 C 
ATOM      9  C   UNL A   1      33.204  25.963  23.128  1.00  0.00     0.146 C 
ATOM     10  C   UNL A   1      33.719  26.869  25.326  1.00  0.00     0.072 C 
ATOM     11  C   UNL A   1      33.007  27.234  23.995  1.00  0.00     0.191 C 
BRANCH   7  12
ATOM     12  N   UNL A   1      32.163  24.256  24.636  1.00  0.00    -0.330 N 
ATOM     13  H   UNL A   1      31.437  24.722  24.093  1.00  0.00     0.347 HD
ATOM     14  H   UNL A   1      32.333  23.254  24.557  1.00  0.00     0.347 HD
BRANCH  12  15
ATOM     15  C   UNL A   1      31.724  24.340  26.028  1.00  0.00     0.176 C 
ATOM     16  C   UNL A   1      30.347  25.031  25.982  1.00  0.00     0.075 C 
ATOM     17  C   UNL A   1      31.566  23.030  26.798  1.00  0.00     0.075 C 
ENDBRANCH  12  15
ENDBRANCH   7  12
BRANCH  11  18
ATOM     18  N   UNL A   1      31.645  27.823  24.037  1.00  0.00    -0.332 N 
ATOM     19  C   UNL A   1      30.725  27.279  23.027  1.00  0.00     0.263 C 
ATOM     20  C   UNL A   1      31.624  29.284  24.105  1.00  0.00     0.263 C 
ATOM     21  H   UNL A   1      31.273  27.513  24.935  1.00  0.00     0.348 HD
ATOM     22  C   UNL A   1      29.319  27.906  23.067  1.00  0.00     0.068 C 
ATOM     23  C   UNL A   1      30.237  29.903  24.187  1.00  0.00     0.068 C 
ATOM     24  C   UNL A   1      29.347  29.448  23.027  1.00  0.00    -0.025 C 
ATOM     25  C   UNL A   1      27.943  30.031  23.238  1.00  0.00     0.011 C 
ATOM     26  C   UNL A   1      29.876  29.968  21.673  1.00  0.00     0.011 C 
ENDBRANCH  11  18
ENDBRANCH   5   7
ENDBRANCH   4   5
ENDBRANCH   3   4
ENDBRANCH   2   3
ENDBRANCH   1   2
BRANCH   1  27
ATOM     27  C   UNL A   1      37.586  19.696  24.774  1.00  0.00     0.202 C 
BRANCH  27  28
ATOM     28  C   UNL A   1      38.830  19.265  25.558  1.00  0.00     0.261 C 
BRANCH  28  29
ATOM     29  O   UNL A   1      39.683  20.371  25.911  1.00  0.00    -0.460 OA
BRANCH  29  30
ATOM     30  C   UNL A   1      40.976  20.026  26.109  1.00  0.00     0.338 C 
ATOM     31  O   UNL A   1      41.516  18.967  25.808  1.00  0.00    -0.246 OA
BRANCH  30  32
ATOM     32  C   UNL A   1      41.764  21.167  26.601  1.00  0.00     0.060 A 
ATOM     33  C   UNL A   1      41.837  21.337  27.988  1.00  0.00     0.016 A 
ATOM     34  C   UNL A   1      42.276  22.137  25.736  1.00  0.00     0.016 A 
ATOM     35  C   UNL A   1      42.338  22.521  28.519  1.00  0.00     0.010 A 
ATOM     36  C   UNL A   1      42.774  23.331  26.271  1.00  0.00     0.010 A 
ATOM     37  C   UNL A   1      42.750  23.550  27.661  1.00  0.00    -0.014 A 
BRANCH  37  38
ATOM     38  C   UNL A   1      42.940  24.902  28.236  1.00  0.00     0.031 A 
ATOM     39  C   UNL A   1      44.339  25.363  28.560  1.00  0.00     0.074 A 
ATOM     40  C   UNL A   1      41.905  25.750  28.366  1.00  0.00     0.049 A 
ATOM     41  N   UNL A   1      44.751  26.537  28.966  1.00  0.00    -0.248 NA
ATOM     42  C   UNL A   1      45.414  24.371  28.394  1.00  0.00     0.031 C 
ATOM     43  C   UNL A   1      40.514  25.442  28.044  1.00  0.00     0.029 A 
ATOM     44  N   UNL A   1      41.875  27.055  28.787  1.00  0.00    -0.354 N 
ATOM     45  C   UNL A   1      46.130  26.424  29.103  1.00  0.00     0.074 A 
ATOM     46  C   UNL A   1      46.480  25.060  28.772  1.00  0.00     0.031 C 
ATOM     47  C   UNL A   1      39.763  26.535  28.268  1.00  0.00     0.029 A 
ATOM     48  C   UNL A   1      40.619  27.611  28.764  1.00  0.00     0.049 A 
ATOM     49  H   UNL A   1      42.677  27.548  29.077  1.00  0.00     0.167 HD
ATOM     50  C   UNL A   1      47.030  27.372  29.458  1.00  0.00     0.031 A 
ATOM     51  C   UNL A   1      40.210  28.847  29.104  1.00  0.00     0.031 A 
ATOM     52  C   UNL A   1      46.690  28.727  29.796  1.00  0.00     0.049 A 
ATOM     53  C   UNL A   1      41.221  29.865  29.557  1.00  0.00     0.074 A 
ATOM     54  C   UNL A   1      47.531  29.764  30.161  1.00  0.00     0.029 A 
ATOM     55  N   UNL A   1      45.399  29.230  29.818  1.00  0.00    -0.354 N 
ATOM     56  N   UNL A   1      42.524  29.752  29.653  1.00  0.00    -0.248 NA
ATOM     57  C   UNL A   1      40.702  31.188  29.936  1.00  0.00     0.031 C 
ATOM     58  C   UNL A   1      46.743  30.884  30.451  1.00  0.00     0.029 A 
ATOM     59  C   UNL A   1      45.418  30.557  30.215  1.00  0.00     0.049 A 
ATOM     60  H   UNL A   1      44.589  28.721  29.586  1.00  0.00     0.167 HD
ATOM     61  C   UNL A   1      42.982  30.992  30.080  1.00  0.00     0.074 A 
ATOM     62  C   UNL A   1      41.820  31.847  30.205  1.00  0.00     0.031 C 
ATOM     63  C   UNL A   1      44.251  31.390  30.344  1.00  0.00     0.031 A 
BRANCH  50  64
ATOM     64  C   UNL A   1      48.473  26.958  29.527  1.00  0.00    -0.014 A 
ATOM     65  C   UNL A   1      49.012  26.382  30.690  1.00  0.00     0.009 A 
ATOM     66  C   UNL A   1      49.301  27.129  28.407  1.00  0.00     0.009 A 
ATOM     67  C   UNL A   1      50.359  26.018  30.738  1.00  0.00     0.001 A 
ATOM     68  C   UNL A   1      50.641  26.740  28.450  1.00  0.00     0.001 A 
ATOM     69  C   UNL A   1      51.171  26.193  29.617  1.00  0.00     0.000 A 
ENDBRANCH  50  64
BRANCH  51  70
ATOM     70  C   UNL A   1      38.768  29.197  29.033  1.00  0.00    -0.014 A 
ATOM     71  C   UNL A   1      37.940  29.066  30.158  1.00  0.00     0.009 A 
ATOM     72  C   UNL A   1      38.208  29.646  27.826  1.00  0.00     0.009 A 
ATOM     73  C   UNL A   1      36.576  29.353  30.068  1.00  0.00     0.001 A 
ATOM     74  C   UNL A   1      36.851  29.959  27.747  1.00  0.00     0.001 A 
ATOM     75  C   UNL A   1      36.033  29.803  28.865  1.00  0.00     0.000 A 
ENDBRANCH  51  70
BRANCH  63  76
ATOM     76  C   UNL A   1      44.445  32.817  30.773  1.00  0.00    -0.014 A 
ATOM     77  C   UNL A   1      44.440  33.176  32.130  1.00  0.00     0.009 A 
ATOM     78  C   UNL A   1      44.661  33.812  29.807  1.00  0.00     0.009 A 
ATOM     79  C   UNL A   1      44.607  34.510  32.508  1.00  0.00     0.001 A 
ATOM     80  C   UNL A   1      44.856  35.140  30.189  1.00  0.00     0.001 A 
ATOM     81  C   UNL A   1      44.818  35.490  31.538  1.00  0.00     0.000 A 
ENDBRANCH  63  76
ENDBRANCH  37  38
ENDBRANCH  30  32
ENDBRANCH  29  30
ENDBRANCH  28  29
ENDBRANCH  27  28
ENDBRANCH   1  27
TORSDOF 17
ENDMDL
MODEL 2
REMARK VINA RESULT:     -10.1      1.214      2.315
REMARK SMILES CC(C)[NH2+][C@]1(C(=O)OCCOCCOC(=O)c2ccc(-c3c4nc(c(-c5ccccc5)c5ccc([nH]5)c(-c5ccccc5)c5nc(c(-c6ccccc6)c6ccc3[nH]6)C=C5)C=C4)cc2)CC[C@H]([NH+]2CCC(C)(C)CC2)C1
REMARK SMILES IDX 11 1 10 2 9 3 8 4 6 5 7 6 5 7 65 8 76 9 66 10 67 11 4 12
REMARK SMILES IDX 2 15 1 16 3 17 68 18 69 19 75 20 70 22 74 23 71 24 72 25
REMARK SMILES IDX 73 26 12 27 13 28 14 29 15 30 16 31 17 32 18 33 64 34 19 35
REMARK SMILES IDX 63 36 20 37 21 38 22 39 57 40 23 41 62 42 56 43 58 44 24 45
REMARK SMILES IDX 61 46 55 47 54 48 25 50 47 51 32 52 46 53 33 54 36 55 45 56
REMARK SMILES IDX 59 57 34 58 35 59 44 61 60 62 37 63 26 64 27 65 31 66 28 67
REMARK SMILES IDX 30 68 29 69 48 70 49 71 53 72 50 73 52 74 51 75 38 76 39 77
REMARK SMILES IDX 43 78 40 79 42 80 41 81
REMARK H PARENT 4 13 4 14 68 21 58 49 36 60
REMARK Flexibility Score: inf
ROOT
ATOM      1  O   UNL A   1      36.244  21.198  24.531  1.00  0.00    -0.374 OA
ENDROOT
BRANCH   1   2
ATOM      2  C   UNL A   1      35.344  20.238  25.073  1.00  0.00     0.202 C 
BRANCH   2   3
ATOM      3  C   UNL A   1      33.997  20.721  25.616  1.00  0.00     0.261 C 
BRANCH   3   4
ATOM      4  O   UNL A   1      33.610  22.021  25.147  1.00  0.00    -0.459 OA
BRANCH   4   5
ATOM      5  C   UNL A   1      32.263  22.207  25.107  1.00  0.00     0.368 C 
ATOM      6  O   UNL A   1      31.438  21.320  25.332  1.00  0.00    -0.245 OA
BRANCH   5   7
ATOM      7  C   UNL A   1      31.827  23.648  24.723  1.00  0.00     0.200 C 
ATOM      8  C   UNL A   1      30.785  23.743  23.605  1.00  0.00     0.087 C 
ATOM      9  C   UNL A   1      30.965  24.235  25.872  1.00  0.00     0.146 C 
ATOM     10  C   UNL A   1      30.188  25.148  23.755  1.00  0.00     0.072 C 
ATOM     11  C   UNL A   1      30.202  25.448  25.279  1.00  0.00     0.191 C 
BRANCH   7  12
ATOM     12  N   UNL A   1      33.103  24.404  24.579  1.00  0.00    -0.330 N 
ATOM     13  H   UNL A   1      32.896  25.349  24.901  1.00  0.00     0.347 HD
ATOM     14  H   UNL A   1      33.738  23.789  25.088  1.00  0.00     0.347 HD
BRANCH  12  15
ATOM     15  C   UNL A   1      33.842  24.571  23.329  1.00  0.00     0.176 C 
ATOM     16  C   UNL A   1      33.743  26.072  22.992  1.00  0.00     0.075 C 
ATOM     17  C   UNL A   1      35.321  24.188  23.327  1.00  0.00     0.075 C 
ENDBRANCH  12  15
ENDBRANCH   7  12
BRANCH  11  18
ATOM     18  N   UNL A   1      30.603  26.798  25.749  1.00  0.00    -0.332 N 
ATOM     19  C   UNL A   1      31.082  27.688  24.681  1.00  0.00     0.263 C 
ATOM     20  C   UNL A   1      31.474  26.790  26.924  1.00  0.00     0.263 C 
ATOM     21  H   UNL A   1      29.729  27.213  26.072  1.00  0.00     0.348 HD
ATOM     22  C   UNL A   1      31.511  29.081  25.179  1.00  0.00     0.068 C 
ATOM     23  C   UNL A   1      31.864  28.165  27.444  1.00  0.00     0.068 C 
ATOM     24  C   UNL A   1      32.515  29.017  26.350  1.00  0.00    -0.025 C 
ATOM     25  C   UNL A   1      32.784  30.416  26.921  1.00  0.00     0.011 C 
ATOM     26  C   UNL A   1      33.867  28.422  25.902  1.00  0.00     0.011 C 
ENDBRANCH  11  18
ENDBRANCH   5   7
ENDBRANCH   4   5
ENDBRANCH   3   4
ENDBRANCH   2   3
ENDBRANCH   1   2
BRANCH   1  27
ATOM     27  C   UNL A   1      37.519  21.371  25.145  1.00  0.00     0.202 C 
BRANCH  27  28
ATOM     28  C   UNL A   1      38.474  20.174  25.189  1.00  0.00     0.261 C 
BRANCH  28  29
ATOM     29  O   UNL A   1      39.268  20.133  26.390  1.00  0.00    -0.460 OA
BRANCH  29  30
ATOM     30  C   UNL A   1      40.585  19.913  26.171  1.00  0.00     0.338 C 
ATOM     31  O   UNL A   1      41.089  18.984  25.549  1.00  0.00    -0.246 OA
BRANCH  30  32
ATOM     32  C   UNL A   1      41.401  21.046  26.634  1.00  0.00     0.060 A 
ATOM     33  C   UNL A   1      41.544  21.201  28.018  1.00  0.00     0.016 A 
ATOM     34  C   UNL A   1      41.872  22.024  25.755  1.00  0.00     0.016 A 
ATOM     35  C   UNL A   1      42.075  22.378  28.535  1.00  0.00     0.010 A 
ATOM     36  C   UNL A   1      42.400  23.211  26.277  1.00  0.00     0.010 A 
ATOM     37  C   UNL A   1      42.446  23.414  27.669  1.00  0.00    -0.014 A 
BRANCH  37  38
ATOM     38  C   UNL A   1      42.670  24.760  28.248  1.00  0.00     0.031 A 
ATOM     39  C   UNL A   1      44.077  25.178  28.592  1.00  0.00     0.074 A 
ATOM     40  C   UNL A   1      41.660  25.639  28.365  1.00  0.00     0.049 A 
ATOM     41  N   UNL A   1      44.520  26.338  29.006  1.00  0.00    -0.248 NA
ATOM     42  C   UNL A   1      45.124  24.153  28.441  1.00  0.00     0.031 C 
ATOM     43  C   UNL A   1      40.264  25.373  28.023  1.00  0.00     0.029 A 
ATOM     44  N   UNL A   1      41.664  26.944  28.787  1.00  0.00    -0.354 N 
ATOM     45  C   UNL A   1      45.893  26.182  29.162  1.00  0.00     0.074 A 
ATOM     46  C   UNL A   1      46.205  24.809  28.834  1.00  0.00     0.031 C 
ATOM     47  C   UNL A   1      39.544  26.489  28.238  1.00  0.00     0.029 A 
ATOM     48  C   UNL A   1      40.426  27.537  28.748  1.00  0.00     0.049 A 
ATOM     49  H   UNL A   1      42.476  27.411  29.089  1.00  0.00     0.167 HD
ATOM     50  C   UNL A   1      46.816  27.102  29.531  1.00  0.00     0.031 A 
ATOM     51  C   UNL A   1      40.050  28.786  29.083  1.00  0.00     0.031 A 
ATOM     52  C   UNL A   1      46.512  28.467  29.866  1.00  0.00     0.049 A 
ATOM     53  C   UNL A   1      41.085  29.771  29.552  1.00  0.00     0.074 A 
ATOM     54  C   UNL A   1      47.380  29.477  30.244  1.00  0.00     0.029 A 
ATOM     55  N   UNL A   1      45.238  29.010  29.871  1.00  0.00    -0.354 N 
ATOM     56  N   UNL A   1      42.382  29.619  29.666  1.00  0.00    -0.248 NA
ATOM     57  C   UNL A   1      40.601  31.109  29.925  1.00  0.00     0.031 C 
ATOM     58  C   UNL A   1      46.623  30.620  30.524  1.00  0.00     0.029 A 
ATOM     59  C   UNL A   1      45.291  30.335  30.269  1.00  0.00     0.049 A 
ATOM     60  H   UNL A   1      44.416  28.526  29.627  1.00  0.00     0.167 HD
ATOM     61  C   UNL A   1      42.872  30.844  30.101  1.00  0.00     0.074 A 
ATOM     62  C   UNL A   1      41.735  31.734  30.211  1.00  0.00     0.031 C 
ATOM     63  C   UNL A   1      44.149  31.203  30.383  1.00  0.00     0.031 A 
BRANCH  50  64
ATOM     64  C   UNL A   1      48.244  26.645  29.619  1.00  0.00    -0.014 A 
ATOM     65  C   UNL A   1      49.126  26.792  28.535  1.00  0.00     0.009 A 
ATOM     66  C   UNL A   1      48.721  26.076  30.810  1.00  0.00     0.009 A 
ATOM     67  C   UNL A   1      50.446  26.348  28.634  1.00  0.00     0.001 A 
ATOM     68  C   UNL A   1      50.048  25.655  30.913  1.00  0.00     0.001 A 
ATOM     69  C   UNL A   1      50.907  25.784  29.823  1.00  0.00     0.000 A 
ENDBRANCH  50  64
BRANCH  51  70
ATOM     70  C   UNL A   1      38.620  29.180  28.993  1.00  0.00    -0.014 A 
ATOM     71  C   UNL A   1      38.080  29.657  27.790  1.00  0.00     0.009 A 
ATOM     72  C   UNL A   1      37.792  29.099  30.124  1.00  0.00     0.009 A 
ATOM     73  C   UNL A   1      36.747  30.070  27.728  1.00  0.00     0.001 A 
ATOM     74  C   UNL A   1      36.453  29.485  30.053  1.00  0.00     0.001 A 
ATOM     75  C   UNL A   1      35.934  29.979  28.857  1.00  0.00     0.000 A 
ENDBRANCH  51  70
BRANCH  63  76
ATOM     76  C   UNL A   1      44.381  32.623  30.817  1.00  0.00    -0.014 A 
ATOM     77  C   UNL A   1      44.618  33.641  29.880  1.00  0.00     0.009 A 
ATOM     78  C   UNL A   1      44.337  32.950  32.181  1.00  0.00     0.009 A 
ATOM     79  C   UNL A   1      44.846  34.952  30.304  1.00  0.00     0.001 A 
ATOM     80  C   UNL A   1      44.537  34.266  32.600  1.00  0.00     0.001 A 
ATOM     81  C   UNL A   1      44.802  35.263  31.663  1.00  0.00     0.000 A 
ENDBRANCH  63  76
ENDBRANCH  37  38
ENDBRANCH  30  32
ENDBRANCH  29  30
ENDBRANCH  28  29
ENDBRANCH  27  28
ENDBRANCH   1  27
TORSDOF 17
ENDMDL
MODEL 3
REMARK VINA RESULT:     -10.0      2.871      8.313
REMARK SMILES CC(C)[NH2+][C@]1(C(=O)OCCOCCOC(=O)c2ccc(-c3c4nc(c(-c5ccccc5)c5ccc([nH]5)c(-c5ccccc5)c5nc(c(-c6ccccc6)c6ccc3[nH]6)C=C5)C=C4)cc2)CC[C@H]([NH+]2CCC(C)(C)CC2)C1
REMARK SMILES IDX 11 1 10 2 9 3 8 4 6 5 7 6 5 7 65 8 76 9 66 10 67 11 4 12
REMARK SMILES IDX 2 15 1 16 3 17 68 18 69 19 75 20 70 22 74 23 71 24 72 25
REMARK SMILES IDX 73 26 12 27 13 28 14 29 15 30 16 31 17 32 18 33 64 34 19 35
REMARK SMILES IDX 63 36 20 37 21 38 22 39 57 40 23 41 62 42 56 43 58 44 24 45
REMARK SMILES IDX 61 46 55 47 54 48 25 50 47 51 32 52 46 53 33 54 36 55 45 56
REMARK SMILES IDX 59 57 34 58 35 59 44 61 60 62 37 63 26 64 27 65 31 66 28 67
REMARK SMILES IDX 30 68 29 69 48 70 49 71 53 72 50 73 52 74 51 75 38 76 39 77
REMARK SMILES IDX 43 78 40 79 42 80 41 81
REMARK H PARENT 4 13 4 14 68 21 58 49 36 60
REMARK Flexibility Score: inf
ROOT
ATOM      1  O   UNL A   1      31.979  30.652  26.683  1.00  0.00    -0.374 OA
ENDROOT
BRANCH   1   2
ATOM      2  C   UNL A   1      31.419  29.548  25.984  1.00  0.00     0.202 C 
BRANCH   2   3
ATOM      3  C   UNL A   1      32.364  28.505  25.382  1.00  0.00     0.261 C 
BRANCH   3   4
ATOM      4  O   UNL A   1      31.707  27.315  24.923  1.00  0.00    -0.459 OA
BRANCH   4   5
ATOM      5  C   UNL A   1      31.887  26.243  25.739  1.00  0.00     0.368 C 
ATOM      6  O   UNL A   1      31.325  26.101  26.825  1.00  0.00    -0.245 OA
BRANCH   5   7
ATOM      7  C   UNL A   1      32.900  25.193  25.202  1.00  0.00     0.200 C 
ATOM      8  C   UNL A   1      34.371  25.481  25.512  1.00  0.00     0.087 C 
ATOM      9  C   UNL A   1      32.756  23.888  26.030  1.00  0.00     0.146 C 
ATOM     10  C   UNL A   1      35.073  24.129  25.331  1.00  0.00     0.072 C 
ATOM     11  C   UNL A   1      34.042  23.058  25.776  1.00  0.00     0.191 C 
BRANCH   7  12
ATOM     12  N   UNL A   1      32.497  24.968  23.786  1.00  0.00    -0.330 N 
ATOM     13  H   UNL A   1      32.096  24.031  23.764  1.00  0.00     0.347 HD
ATOM     14  H   UNL A   1      31.929  25.799  23.622  1.00  0.00     0.347 HD
BRANCH  12  15
ATOM     15  C   UNL A   1      33.399  25.034  22.637  1.00  0.00     0.176 C 
ATOM     16  C   UNL A   1      33.271  23.667  21.937  1.00  0.00     0.075 C 
ATOM     17  C   UNL A   1      33.135  26.120  21.595  1.00  0.00     0.075 C 
ENDBRANCH  12  15
ENDBRANCH   7  12
BRANCH  11  18
ATOM     18  N   UNL A   1      33.899  21.812  24.980  1.00  0.00    -0.332 N 
ATOM     19  C   UNL A   1      32.507  21.376  24.794  1.00  0.00     0.263 C 
ATOM     20  C   UNL A   1      34.790  20.729  25.396  1.00  0.00     0.263 C 
ATOM     21  H   UNL A   1      34.224  22.078  24.051  1.00  0.00     0.348 HD
ATOM     22  C   UNL A   1      32.369  20.075  23.982  1.00  0.00     0.068 C 
ATOM     23  C   UNL A   1      34.684  19.458  24.568  1.00  0.00     0.068 C 
ATOM     24  C   UNL A   1      33.247  18.929  24.527  1.00  0.00    -0.025 C 
ATOM     25  C   UNL A   1      33.207  17.712  23.594  1.00  0.00     0.011 C 
ATOM     26  C   UNL A   1      32.774  18.471  25.923  1.00  0.00     0.011 C 
ENDBRANCH  11  18
ENDBRANCH   5   7
ENDBRANCH   4   5
ENDBRANCH   3   4
ENDBRANCH   2   3
ENDBRANCH   1   2
BRANCH   1  27
ATOM     27  C   UNL A   1      33.349  30.598  27.073  1.00  0.00     0.202 C 
BRANCH  27  28
ATOM     28  C   UNL A   1      33.873  31.665  28.040  1.00  0.00     0.261 C 
BRANCH  28  29
ATOM     29  O   UNL A   1      35.311  31.708  28.105  1.00  0.00    -0.460 OA
BRANCH  29  30
ATOM     30  C   UNL A   1      35.819  31.297  29.290  1.00  0.00     0.338 C 
ATOM     31  O   UNL A   1      35.382  31.541  30.409  1.00  0.00    -0.246 OA
BRANCH  30  32
ATOM     32  C   UNL A   1      36.917  30.337  29.097  1.00  0.00     0.060 A 
ATOM     33  C   UNL A   1      37.585  29.897  30.247  1.00  0.00     0.016 A 
ATOM     34  C   UNL A   1      37.393  30.007  27.826  1.00  0.00     0.016 A 
ATOM     35  C   UNL A   1      38.783  29.201  30.132  1.00  0.00     0.010 A 
ATOM     36  C   UNL A   1      38.603  29.312  27.712  1.00  0.00     0.010 A 
ATOM     37  C   UNL A   1      39.331  28.961  28.865  1.00  0.00    -0.014 A 
BRANCH  37  38
ATOM     38  C   UNL A   1      40.750  28.542  28.787  1.00  0.00     0.031 A 
ATOM     39  C   UNL A   1      41.067  27.113  28.427  1.00  0.00     0.074 A 
ATOM     40  C   UNL A   1      41.743  29.438  28.924  1.00  0.00     0.049 A 
ATOM     41  N   UNL A   1      42.228  26.553  28.198  1.00  0.00    -0.248 NA
ATOM     42  C   UNL A   1      39.921  26.196  28.301  1.00  0.00     0.031 C 
ATOM     43  C   UNL A   1      41.568  30.857  29.226  1.00  0.00     0.029 A 
ATOM     44  N   UNL A   1      43.101  29.281  28.804  1.00  0.00    -0.354 N 
ATOM     45  C   UNL A   1      41.951  25.224  27.899  1.00  0.00     0.074 A 
ATOM     46  C   UNL A   1      40.521  25.051  28.011  1.00  0.00     0.031 C 
ATOM     47  C   UNL A   1      42.775  31.447  29.256  1.00  0.00     0.029 A 
ATOM     48  C   UNL A   1      43.806  30.445  28.993  1.00  0.00     0.049 A 
ATOM     49  H   UNL A   1      43.530  28.418  28.602  1.00  0.00     0.167 HD
ATOM     50  C   UNL A   1      42.809  24.236  27.548  1.00  0.00     0.031 A 
ATOM     51  C   UNL A   1      45.132  30.673  28.956  1.00  0.00     0.031 A 
ATOM     52  C   UNL A   1      44.234  24.397  27.442  1.00  0.00     0.049 A 
ATOM     53  C   UNL A   1      46.070  29.544  28.627  1.00  0.00     0.074 A 
ATOM     54  C   UNL A   1      45.186  23.458  27.085  1.00  0.00     0.029 A 
ATOM     55  N   UNL A   1      44.911  25.578  27.701  1.00  0.00    -0.354 N 
ATOM     56  N   UNL A   1      45.792  28.300  28.318  1.00  0.00    -0.248 NA
ATOM     57  C   UNL A   1      47.507  29.857  28.627  1.00  0.00     0.031 C 
ATOM     58  C   UNL A   1      46.446  24.059  27.175  1.00  0.00     0.029 A 
ATOM     59  C   UNL A   1      46.273  25.385  27.536  1.00  0.00     0.049 A 
ATOM     60  H   UNL A   1      44.489  26.428  27.962  1.00  0.00     0.167 HD
ATOM     61  C   UNL A   1      47.015  27.689  28.066  1.00  0.00     0.074 A 
ATOM     62  C   UNL A   1      48.033  28.704  28.238  1.00  0.00     0.031 C 
ATOM     63  C   UNL A   1      47.273  26.403  27.721  1.00  0.00     0.031 A 
BRANCH  50  64
ATOM     64  C   UNL A   1      42.221  22.878  27.283  1.00  0.00    -0.014 A 
ATOM     65  C   UNL A   1      41.978  21.972  28.329  1.00  0.00     0.009 A 
ATOM     66  C   UNL A   1      41.888  22.508  25.972  1.00  0.00     0.009 A 
ATOM     67  C   UNL A   1      41.444  20.710  28.060  1.00  0.00     0.001 A 
ATOM     68  C   UNL A   1      41.331  21.254  25.709  1.00  0.00     0.001 A 
ATOM     69  C   UNL A   1      41.118  20.354  26.752  1.00  0.00     0.000 A 
ENDBRANCH  50  64
BRANCH  51  70
ATOM     70  C   UNL A   1      45.660  32.032  29.243  1.00  0.00    -0.014 A 
ATOM     71  C   UNL A   1      45.847  32.964  28.212  1.00  0.00     0.009 A 
ATOM     72  C   UNL A   1      46.002  32.394  30.556  1.00  0.00     0.009 A 
ATOM     73  C   UNL A   1      46.388  34.222  28.486  1.00  0.00     0.001 A 
ATOM     74  C   UNL A   1      46.516  33.662  30.831  1.00  0.00     0.001 A 
ATOM     75  C   UNL A   1      46.718  34.571  29.795  1.00  0.00     0.000 A 
ENDBRANCH  51  70
BRANCH  63  76
ATOM     76  C   UNL A   1      48.711  26.033  27.488  1.00  0.00    -0.014 A 
ATOM     77  C   UNL A   1      49.292  26.139  26.215  1.00  0.00     0.009 A 
ATOM     78  C   UNL A   1      49.500  25.595  28.563  1.00  0.00     0.009 A 
ATOM     79  C   UNL A   1      50.626  25.775  26.017  1.00  0.00     0.001 A 
ATOM     80  C   UNL A   1      50.840  25.260  28.367  1.00  0.00     0.001 A 
ATOM     81  C   UNL A   1      51.399  25.339  27.092  1.00  0.00     0.000 A 
ENDBRANCH  63  76
ENDBRANCH  37  38
ENDBRANCH  30  32
ENDBRANCH  29  30
ENDBRANCH  28  29
ENDBRANCH  27  28
ENDBRANCH   1  27
TORSDOF 17
ENDMDL
