MODEL 1
REMARK VINA RESULT:      -9.1      0.000      0.000
REMARK SMILES CCCC(O)(CCC)[C@@]1(C)CC[C@@H](C(=O)OCCOCCOC(=O)c2ccc(-c3c4nc(c(-c5ccccc5)c5ccc([nH]5)c(-c5ccccc5)c5nc(c(-c6ccccc6)c6ccc3[nH]6)C=C5)C=C4)cc2)C(C)(C)O1
REMARK SMILES IDX 18 1 17 2 16 3 14 4 15 5 13 6 9 7 10 8 11 9 76 10 12 11
REMARK SMILES IDX 73 12 74 13 75 14 4 15 3 16 2 17 1 18 5 19 6 21 7 22 8 23
REMARK SMILES IDX 19 24 20 25 21 26 22 27 23 28 24 29 25 30 26 31 72 32 27 33
REMARK SMILES IDX 71 34 28 35 29 36 30 37 65 38 31 39 70 40 64 41 66 42 32 43
REMARK SMILES IDX 69 44 63 45 62 46 33 48 55 49 40 50 54 51 41 52 44 53 53 54
REMARK SMILES IDX 67 55 42 56 43 57 52 59 68 60 45 61 34 62 35 63 39 64 36 65
REMARK SMILES IDX 38 66 37 67 56 68 57 69 61 70 58 71 60 72 59 73 46 74 47 75
REMARK SMILES IDX 51 76 48 77 50 78 49 79
REMARK H PARENT 5 20 66 47 44 58
REMARK Flexibility Score: inf
ROOT
ATOM      1  C   UNL A   1      37.977  21.916  25.561  1.00  0.00     0.202 C 
ENDROOT
BRANCH   1   2
ATOM      2  C   UNL A   1      37.243  21.075  24.505  1.00  0.00     0.261 C 
BRANCH   2   3
ATOM      3  O   UNL A   1      35.805  21.220  24.596  1.00  0.00    -0.463 OA
BRANCH   3   4
ATOM      4  C   UNL A   1      35.234  22.305  24.011  1.00  0.00     0.311 C 
ATOM      5  O   UNL A   1      35.731  22.931  23.084  1.00  0.00    -0.252 OA
BRANCH   4   6
ATOM      6  C   UNL A   1      33.863  22.642  24.597  1.00  0.00     0.131 C 
ATOM      7  C   UNL A   1      31.364  23.945  25.550  1.00  0.00     0.095 C 
ATOM      8  C   UNL A   1      30.366  23.032  26.305  1.00  0.00     0.045 C 
ATOM      9  C   UNL A   1      31.487  23.282  24.134  1.00  0.00     0.039 C 
ATOM     10  O   UNL A   1      32.563  23.793  26.319  1.00  0.00    -0.366 OA
ATOM     11  C   UNL A   1      32.888  23.156  23.540  1.00  0.00     0.021 C 
ATOM     12  C   UNL A   1      33.884  23.610  25.790  1.00  0.00     0.077 C 
ATOM     13  C   UNL A   1      34.544  24.953  25.436  1.00  0.00     0.043 C 
ATOM     14  C   UNL A   1      34.619  23.027  27.019  1.00  0.00     0.043 C 
BRANCH   7  15
ATOM     15  C   UNL A   1      30.855  25.486  25.625  1.00  0.00     0.093 C 
BRANCH  15  16
ATOM     16  C   UNL A   1      31.395  26.454  26.741  1.00  0.00     0.038 C 
BRANCH  16  17
ATOM     17  C   UNL A   1      31.839  27.893  26.468  1.00  0.00    -0.000 C 
ATOM     18  C   UNL A   1      33.255  28.202  26.934  1.00  0.00     0.004 C 
ENDBRANCH  16  17
ENDBRANCH  15  16
BRANCH  15  19
ATOM     19  O   UNL A   1      29.412  25.480  25.734  1.00  0.00    -0.387 OA
ATOM     20  H   UNL A   1      29.148  25.919  26.558  1.00  0.00     0.211 HD
ENDBRANCH  15  19
BRANCH  15  21
ATOM     21  C   UNL A   1      31.115  26.295  24.308  1.00  0.00     0.038 C 
BRANCH  21  22
ATOM     22  C   UNL A   1      30.005  26.784  23.344  1.00  0.00    -0.000 C 
ATOM     23  C   UNL A   1      29.547  28.232  23.262  1.00  0.00     0.004 C 
ENDBRANCH  21  22
ENDBRANCH  15  21
ENDBRANCH   7  15
ENDBRANCH   4   6
ENDBRANCH   3   4
ENDBRANCH   2   3
ENDBRANCH   1   2
BRANCH   1  24
ATOM     24  O   UNL A   1      39.347  21.566  25.766  1.00  0.00    -0.374 OA
BRANCH  24  25
ATOM     25  C   UNL A   1      39.570  20.323  26.429  1.00  0.00     0.202 C 
BRANCH  25  26
ATOM     26  C   UNL A   1      40.594  19.413  25.736  1.00  0.00     0.261 C 
BRANCH  26  27
ATOM     27  O   UNL A   1      41.831  19.394  26.479  1.00  0.00    -0.460 OA
BRANCH  27  28
ATOM     28  C   UNL A   1      42.812  20.175  25.971  1.00  0.00     0.338 C 
ATOM     29  O   UNL A   1      43.592  19.898  25.077  1.00  0.00    -0.246 OA
BRANCH  28  30
ATOM     30  C   UNL A   1      42.697  21.541  26.513  1.00  0.00     0.060 A 
ATOM     31  C   UNL A   1      42.823  22.592  25.599  1.00  0.00     0.016 A 
ATOM     32  C   UNL A   1      42.578  21.800  27.880  1.00  0.00     0.016 A 
ATOM     33  C   UNL A   1      42.886  23.907  26.052  1.00  0.00     0.010 A 
ATOM     34  C   UNL A   1      42.646  23.127  28.334  1.00  0.00     0.010 A 
ATOM     35  C   UNL A   1      42.838  24.185  27.425  1.00  0.00    -0.014 A 
BRANCH  35  36
ATOM     36  C   UNL A   1      43.103  25.573  27.884  1.00  0.00     0.031 A 
ATOM     37  C   UNL A   1      41.950  26.501  28.167  1.00  0.00     0.074 A 
ATOM     38  C   UNL A   1      44.361  25.985  28.131  1.00  0.00     0.049 A 
ATOM     39  N   UNL A   1      41.969  27.727  28.627  1.00  0.00    -0.248 NA
ATOM     40  C   UNL A   1      40.600  25.977  27.909  1.00  0.00     0.031 C 
ATOM     41  C   UNL A   1      45.565  25.176  27.950  1.00  0.00     0.029 A 
ATOM     42  N   UNL A   1      44.830  27.187  28.600  1.00  0.00    -0.354 N 
ATOM     43  C   UNL A   1      40.638  28.123  28.710  1.00  0.00     0.074 A 
ATOM     44  C   UNL A   1      39.841  27.015  28.229  1.00  0.00     0.031 C 
ATOM     45  C   UNL A   1      46.637  25.905  28.306  1.00  0.00     0.029 A 
ATOM     46  C   UNL A   1      46.198  27.241  28.707  1.00  0.00     0.049 A 
ATOM     47  H   UNL A   1      44.241  27.940  28.837  1.00  0.00     0.167 HD
ATOM     48  C   UNL A   1      40.126  29.296  29.151  1.00  0.00     0.031 A 
ATOM     49  C   UNL A   1      47.010  28.254  29.066  1.00  0.00     0.031 A 
ATOM     50  C   UNL A   1      40.912  30.405  29.625  1.00  0.00     0.049 A 
ATOM     51  C   UNL A   1      46.417  29.579  29.466  1.00  0.00     0.074 A 
ATOM     52  C   UNL A   1      40.471  31.622  30.118  1.00  0.00     0.029 A 
ATOM     53  N   UNL A   1      42.296  30.441  29.653  1.00  0.00    -0.354 N 
ATOM     54  N   UNL A   1      45.157  29.922  29.579  1.00  0.00    -0.248 NA
ATOM     55  C   UNL A   1      47.363  30.657  29.795  1.00  0.00     0.031 C 
ATOM     56  C   UNL A   1      41.590  32.420  30.380  1.00  0.00     0.029 A 
ATOM     57  C   UNL A   1      42.727  31.675  30.112  1.00  0.00     0.049 A 
ATOM     58  H   UNL A   1      42.887  29.700  29.385  1.00  0.00     0.167 HD
ATOM     59  C   UNL A   1      45.160  31.244  30.009  1.00  0.00     0.074 A 
ATOM     60  C   UNL A   1      46.545  31.634  30.161  1.00  0.00     0.031 C 
ATOM     61  C   UNL A   1      44.107  32.062  30.253  1.00  0.00     0.031 A 
BRANCH  48  62
ATOM     62  C   UNL A   1      38.632  29.466  29.109  1.00  0.00    -0.014 A 
ATOM     63  C   UNL A   1      37.839  29.261  30.248  1.00  0.00     0.009 A 
ATOM     64  C   UNL A   1      38.019  29.904  27.924  1.00  0.00     0.009 A 
ATOM     65  C   UNL A   1      36.459  29.469  30.194  1.00  0.00     0.001 A 
ATOM     66  C   UNL A   1      36.643  30.135  27.881  1.00  0.00     0.001 A 
ATOM     67  C   UNL A   1      35.863  29.912  29.013  1.00  0.00     0.000 A 
ENDBRANCH  48  62
BRANCH  49  68
ATOM     68  C   UNL A   1      48.486  28.078  29.022  1.00  0.00    -0.014 A 
ATOM     69  C   UNL A   1      49.200  27.661  30.156  1.00  0.00     0.009 A 
ATOM     70  C   UNL A   1      49.194  28.364  27.844  1.00  0.00     0.009 A 
ATOM     71  C   UNL A   1      50.593  27.563  30.117  1.00  0.00     0.001 A 
ATOM     72  C   UNL A   1      50.583  28.233  27.799  1.00  0.00     0.001 A 
ATOM     73  C   UNL A   1      51.282  27.844  28.938  1.00  0.00     0.000 A 
ENDBRANCH  49  68
BRANCH  61  74
ATOM     74  C   UNL A   1      44.407  33.456  30.732  1.00  0.00    -0.014 A 
ATOM     75  C   UNL A   1      44.507  33.750  32.101  1.00  0.00     0.009 A 
ATOM     76  C   UNL A   1      44.634  34.481  29.800  1.00  0.00     0.009 A 
ATOM     77  C   UNL A   1      44.793  35.050  32.527  1.00  0.00     0.001 A 
ATOM     78  C   UNL A   1      44.951  35.772  30.227  1.00  0.00     0.001 A 
ATOM     79  C   UNL A   1      45.020  36.058  31.590  1.00  0.00     0.000 A 
ENDBRANCH  61  74
ENDBRANCH  35  36
ENDBRANCH  28  30
ENDBRANCH  27  28
ENDBRANCH  26  27
ENDBRANCH  25  26
ENDBRANCH  24  25
ENDBRANCH   1  24
TORSDOF 20
ENDMDL
MODEL 2
REMARK VINA RESULT:      -8.9      3.831      9.003
REMARK SMILES CCCC(O)(CCC)[C@@]1(C)CC[C@@H](C(=O)OCCOCCOC(=O)c2ccc(-c3c4nc(c(-c5ccccc5)c5ccc([nH]5)c(-c5ccccc5)c5nc(c(-c6ccccc6)c6ccc3[nH]6)C=C5)C=C4)cc2)C(C)(C)O1
REMARK SMILES IDX 18 1 17 2 16 3 14 4 15 5 13 6 9 7 10 8 11 9 76 10 12 11
REMARK SMILES IDX 73 12 74 13 75 14 4 15 3 16 2 17 1 18 5 19 6 21 7 22 8 23
REMARK SMILES IDX 19 24 20 25 21 26 22 27 23 28 24 29 25 30 26 31 72 32 27 33
REMARK SMILES IDX 71 34 28 35 29 36 30 37 65 38 31 39 70 40 64 41 66 42 32 43
REMARK SMILES IDX 69 44 63 45 62 46 33 48 55 49 40 50 54 51 41 52 44 53 53 54
REMARK SMILES IDX 67 55 42 56 43 57 52 59 68 60 45 61 34 62 35 63 39 64 36 65
REMARK SMILES IDX 38 66 37 67 56 68 57 69 61 70 58 71 60 72 59 73 46 74 47 75
REMARK SMILES IDX 51 76 48 77 50 78 49 79
REMARK H PARENT 5 20 66 47 44 58
REMARK Flexibility Score: inf
ROOT
ATOM      1  C   UNL A   1      33.244  30.333  27.192  1.00  0.00     0.202 C 
ENDROOT
BRANCH   1   2
ATOM      2  C   UNL A   1      32.049  30.195  26.236  1.00  0.00     0.261 C 
BRANCH   2   3
ATOM      3  O   UNL A   1      31.641  28.816  26.072  1.00  0.00    -0.463 OA
BRANCH   3   4
ATOM      4  C   UNL A   1      31.089  28.450  24.886  1.00  0.00     0.311 C 
ATOM      5  O   UNL A   1      30.594  29.232  24.084  1.00  0.00    -0.252 OA
BRANCH   4   6
ATOM      6  C   UNL A   1      31.193  26.948  24.621  1.00  0.00     0.131 C 
ATOM      7  C   UNL A   1      32.040  24.109  24.349  1.00  0.00     0.095 C 
ATOM      8  C   UNL A   1      31.025  23.158  23.668  1.00  0.00     0.045 C 
ATOM      9  C   UNL A   1      31.271  24.647  25.605  1.00  0.00     0.039 C 
ATOM     10  O   UNL A   1      32.224  25.126  23.357  1.00  0.00    -0.366 OA
ATOM     11  C   UNL A   1      31.377  26.141  25.904  1.00  0.00     0.021 C 
ATOM     12  C   UNL A   1      32.265  26.539  23.599  1.00  0.00     0.077 C 
ATOM     13  C   UNL A   1      33.671  27.003  24.016  1.00  0.00     0.043 C 
ATOM     14  C   UNL A   1      31.982  27.092  22.183  1.00  0.00     0.043 C 
BRANCH   7  15
ATOM     15  C   UNL A   1      33.440  23.323  24.596  1.00  0.00     0.093 C 
BRANCH  15  16
ATOM     16  C   UNL A   1      34.595  23.390  23.530  1.00  0.00     0.038 C 
BRANCH  16  17
ATOM     17  C   UNL A   1      36.073  23.549  23.894  1.00  0.00    -0.000 C 
ATOM     18  C   UNL A   1      36.927  22.335  23.556  1.00  0.00     0.004 C 
ENDBRANCH  16  17
ENDBRANCH  15  16
BRANCH  15  19
ATOM     19  O   UNL A   1      33.141  21.923  24.806  1.00  0.00    -0.387 OA
ATOM     20  H   UNL A   1      33.341  21.683  25.725  1.00  0.00     0.211 HD
ENDBRANCH  15  19
BRANCH  15  21
ATOM     21  C   UNL A   1      34.167  23.740  25.921  1.00  0.00     0.038 C 
BRANCH  21  22
ATOM     22  C   UNL A   1      34.204  22.881  27.210  1.00  0.00    -0.000 C 
ATOM     23  C   UNL A   1      32.961  22.504  28.000  1.00  0.00     0.004 C 
ENDBRANCH  21  22
ENDBRANCH  15  21
ENDBRANCH   7  15
ENDBRANCH   4   6
ENDBRANCH   3   4
ENDBRANCH   2   3
ENDBRANCH   1   2
BRANCH   1  24
ATOM     24  O   UNL A   1      33.495  31.661  27.658  1.00  0.00    -0.374 OA
BRANCH  24  25
ATOM     25  C   UNL A   1      32.448  32.601  27.420  1.00  0.00     0.202 C 
BRANCH  25  26
ATOM     26  C   UNL A   1      32.809  34.049  27.777  1.00  0.00     0.261 C 
BRANCH  26  27
ATOM     27  O   UNL A   1      32.645  34.272  29.193  1.00  0.00    -0.460 OA
BRANCH  27  28
ATOM     28  C   UNL A   1      33.658  34.946  29.785  1.00  0.00     0.338 C 
ATOM     29  O   UNL A   1      33.616  36.053  30.291  1.00  0.00    -0.246 OA
BRANCH  28  30
ATOM     30  C   UNL A   1      34.831  34.064  29.929  1.00  0.00     0.060 A 
ATOM     31  C   UNL A   1      34.763  33.090  30.931  1.00  0.00     0.016 A 
ATOM     32  C   UNL A   1      36.002  34.242  29.190  1.00  0.00     0.016 A 
ATOM     33  C   UNL A   1      35.885  32.325  31.238  1.00  0.00     0.010 A 
ATOM     34  C   UNL A   1      37.133  33.471  29.505  1.00  0.00     0.010 A 
ATOM     35  C   UNL A   1      37.091  32.535  30.555  1.00  0.00    -0.014 A 
BRANCH  35  36
ATOM     36  C   UNL A   1      38.315  31.842  31.036  1.00  0.00     0.031 A 
ATOM     37  C   UNL A   1      38.811  30.614  30.319  1.00  0.00     0.074 A 
ATOM     38  C   UNL A   1      39.034  32.350  32.055  1.00  0.00     0.049 A 
ATOM     39  N   UNL A   1      39.885  29.900  30.546  1.00  0.00    -0.248 NA
ATOM     40  C   UNL A   1      37.997  30.131  29.192  1.00  0.00     0.031 C 
ATOM     41  C   UNL A   1      38.699  33.559  32.804  1.00  0.00     0.029 A 
ATOM     42  N   UNL A   1      40.205  31.914  32.625  1.00  0.00    -0.354 N 
ATOM     43  C   UNL A   1      39.875  28.884  29.597  1.00  0.00     0.074 A 
ATOM     44  C   UNL A   1      38.675  29.060  28.807  1.00  0.00     0.031 C 
ATOM     45  C   UNL A   1      39.645  33.770  33.736  1.00  0.00     0.029 A 
ATOM     46  C   UNL A   1      40.632  32.694  33.671  1.00  0.00     0.049 A 
ATOM     47  H   UNL A   1      40.692  31.117  32.313  1.00  0.00     0.167 HD
ATOM     48  C   UNL A   1      40.784  27.899  29.395  1.00  0.00     0.031 A 
ATOM     49  C   UNL A   1      41.685  32.550  34.498  1.00  0.00     0.031 A 
ATOM     50  C   UNL A   1      41.976  27.714  30.179  1.00  0.00     0.049 A 
ATOM     51  C   UNL A   1      42.631  31.393  34.308  1.00  0.00     0.074 A 
ATOM     52  C   UNL A   1      42.967  26.758  30.025  1.00  0.00     0.029 A 
ATOM     53  N   UNL A   1      42.335  28.486  31.271  1.00  0.00    -0.354 N 
ATOM     54  N   UNL A   1      42.630  30.467  33.380  1.00  0.00    -0.248 NA
ATOM     55  C   UNL A   1      43.729  31.267  35.280  1.00  0.00     0.031 C 
ATOM     56  C   UNL A   1      43.889  26.909  31.065  1.00  0.00     0.029 A 
ATOM     57  C   UNL A   1      43.507  28.001  31.827  1.00  0.00     0.049 A 
ATOM     58  H   UNL A   1      41.831  29.264  31.604  1.00  0.00     0.167 HD
ATOM     59  C   UNL A   1      43.732  29.663  33.645  1.00  0.00     0.074 A 
ATOM     60  C   UNL A   1      44.394  30.224  34.803  1.00  0.00     0.031 C 
ATOM     61  C   UNL A   1      44.157  28.557  32.986  1.00  0.00     0.031 A 
BRANCH  48  62
ATOM     62  C   UNL A   1      40.507  26.909  28.298  1.00  0.00    -0.014 A 
ATOM     63  C   UNL A   1      41.026  27.084  27.005  1.00  0.00     0.009 A 
ATOM     64  C   UNL A   1      39.772  25.748  28.583  1.00  0.00     0.009 A 
ATOM     65  C   UNL A   1      40.792  26.126  26.015  1.00  0.00     0.001 A 
ATOM     66  C   UNL A   1      39.562  24.780  27.599  1.00  0.00     0.001 A 
ATOM     67  C   UNL A   1      40.067  24.973  26.314  1.00  0.00     0.000 A 
ENDBRANCH  48  62
BRANCH  49  68
ATOM     68  C   UNL A   1      41.886  33.503  35.622  1.00  0.00    -0.014 A 
ATOM     69  C   UNL A   1      42.842  34.527  35.542  1.00  0.00     0.009 A 
ATOM     70  C   UNL A   1      41.138  33.366  36.803  1.00  0.00     0.009 A 
ATOM     71  C   UNL A   1      43.064  35.374  36.631  1.00  0.00     0.001 A 
ATOM     72  C   UNL A   1      41.339  34.234  37.877  1.00  0.00     0.001 A 
ATOM     73  C   UNL A   1      42.310  35.229  37.795  1.00  0.00     0.000 A 
ENDBRANCH  49  68
BRANCH  61  74
ATOM     74  C   UNL A   1      45.408  27.888  33.488  1.00  0.00    -0.014 A 
ATOM     75  C   UNL A   1      46.679  28.327  33.086  1.00  0.00     0.009 A 
ATOM     76  C   UNL A   1      45.315  26.830  34.405  1.00  0.00     0.009 A 
ATOM     77  C   UNL A   1      47.830  27.698  33.567  1.00  0.00     0.001 A 
ATOM     78  C   UNL A   1      46.466  26.223  34.909  1.00  0.00     0.001 A 
ATOM     79  C   UNL A   1      47.723  26.651  34.482  1.00  0.00     0.000 A 
ENDBRANCH  61  74
ENDBRANCH  35  36
ENDBRANCH  28  30
ENDBRANCH  27  28
ENDBRANCH  26  27
ENDBRANCH  25  26
ENDBRANCH  24  25
ENDBRANCH   1  24
TORSDOF 20
ENDMDL
MODEL 3
REMARK VINA RESULT:      -8.8      3.539      8.823
REMARK SMILES CCCC(O)(CCC)[C@@]1(C)CC[C@@H](C(=O)OCCOCCOC(=O)c2ccc(-c3c4nc(c(-c5ccccc5)c5ccc([nH]5)c(-c5ccccc5)c5nc(c(-c6ccccc6)c6ccc3[nH]6)C=C5)C=C4)cc2)C(C)(C)O1
REMARK SMILES IDX 18 1 17 2 16 3 14 4 15 5 13 6 9 7 10 8 11 9 76 10 12 11
REMARK SMILES IDX 73 12 74 13 75 14 4 15 3 16 2 17 1 18 5 19 6 21 7 22 8 23
REMARK SMILES IDX 19 24 20 25 21 26 22 27 23 28 24 29 25 30 26 31 72 32 27 33
REMARK SMILES IDX 71 34 28 35 29 36 30 37 65 38 31 39 70 40 64 41 66 42 32 43
REMARK SMILES IDX 69 44 63 45 62 46 33 48 55 49 40 50 54 51 41 52 44 53 53 54
REMARK SMILES IDX 67 55 42 56 43 57 52 59 68 60 45 61 34 62 35 63 39 64 36 65
REMARK SMILES IDX 38 66 37 67 56 68 57 69 61 70 58 71 60 72 59 73 46 74 47 75
REMARK SMILES IDX 51 76 48 77 50 78 49 79
REMARK H PARENT 5 20 66 47 44 58
REMARK Flexibility Score: inf
ROOT
ATOM      1  C   UNL A   1      31.390  29.819  25.486  1.00  0.00     0.202 C 
ENDROOT
BRANCH   1   2
ATOM      2  C   UNL A   1      31.860  28.357  25.554  1.00  0.00     0.261 C 
BRANCH   2   3
ATOM      3  O   UNL A   1      30.873  27.443  25.021  1.00  0.00    -0.463 OA
BRANCH   3   4
ATOM      4  C   UNL A   1      30.968  27.092  23.713  1.00  0.00     0.311 C 
ATOM      5  O   UNL A   1      30.790  27.860  22.776  1.00  0.00    -0.252 OA
BRANCH   4   6
ATOM      6  C   UNL A   1      31.378  25.631  23.518  1.00  0.00     0.131 C 
ATOM      7  C   UNL A   1      32.641  22.940  23.633  1.00  0.00     0.095 C 
ATOM      8  C   UNL A   1      32.143  21.909  22.590  1.00  0.00     0.045 C 
ATOM      9  C   UNL A   1      31.353  23.307  24.449  1.00  0.00     0.039 C 
ATOM     10  O   UNL A   1      33.081  24.026  22.808  1.00  0.00    -0.366 OA
ATOM     11  C   UNL A   1      31.120  24.784  24.762  1.00  0.00     0.021 C 
ATOM     12  C   UNL A   1      32.823  25.418  23.042  1.00  0.00     0.077 C 
ATOM     13  C   UNL A   1      33.850  26.029  24.011  1.00  0.00     0.043 C 
ATOM     14  C   UNL A   1      33.082  26.009  21.637  1.00  0.00     0.043 C 
BRANCH   7  15
ATOM     15  C   UNL A   1      33.905  22.323  24.447  1.00  0.00     0.093 C 
BRANCH  15  16
ATOM     16  C   UNL A   1      34.061  20.768  24.623  1.00  0.00     0.038 C 
BRANCH  16  17
ATOM     17  C   UNL A   1      33.239  19.944  25.618  1.00  0.00    -0.000 C 
ATOM     18  C   UNL A   1      32.603  18.700  25.013  1.00  0.00     0.004 C 
ENDBRANCH  16  17
ENDBRANCH  15  16
BRANCH  15  19
ATOM     19  O   UNL A   1      33.913  22.900  25.773  1.00  0.00    -0.387 OA
ATOM     20  H   UNL A   1      34.758  23.353  25.924  1.00  0.00     0.211 HD
ENDBRANCH  15  19
BRANCH  15  21
ATOM     21  C   UNL A   1      35.295  22.747  23.859  1.00  0.00     0.038 C 
BRANCH  21  22
ATOM     22  C   UNL A   1      36.456  23.343  24.693  1.00  0.00    -0.000 C 
ATOM     23  C   UNL A   1      37.501  22.493  25.399  1.00  0.00     0.004 C 
ENDBRANCH  21  22
ENDBRANCH  15  21
ENDBRANCH   7  15
ENDBRANCH   4   6
ENDBRANCH   3   4
ENDBRANCH   2   3
ENDBRANCH   1   2
BRANCH   1  24
ATOM     24  O   UNL A   1      31.646  30.591  26.661  1.00  0.00    -0.374 OA
BRANCH  24  25
ATOM     25  C   UNL A   1      32.987  30.542  27.146  1.00  0.00     0.202 C 
BRANCH  25  26
ATOM     26  C   UNL A   1      33.659  31.916  27.281  1.00  0.00     0.261 C 
BRANCH  26  27
ATOM     27  O   UNL A   1      32.749  32.862  27.881  1.00  0.00    -0.460 OA
BRANCH  27  28
ATOM     28  C   UNL A   1      33.336  33.964  28.401  1.00  0.00     0.338 C 
ATOM     29  O   UNL A   1      32.911  35.106  28.389  1.00  0.00    -0.246 OA
BRANCH  28  30
ATOM     30  C   UNL A   1      34.515  33.576  29.198  1.00  0.00     0.060 A 
ATOM     31  C   UNL A   1      35.765  33.940  28.687  1.00  0.00     0.016 A 
ATOM     32  C   UNL A   1      34.419  32.792  30.349  1.00  0.00     0.016 A 
ATOM     33  C   UNL A   1      36.929  33.476  29.293  1.00  0.00     0.010 A 
ATOM     34  C   UNL A   1      35.595  32.321  30.956  1.00  0.00     0.010 A 
ATOM     35  C   UNL A   1      36.855  32.630  30.409  1.00  0.00    -0.014 A 
BRANCH  35  36
ATOM     36  C   UNL A   1      38.103  31.998  30.911  1.00  0.00     0.031 A 
ATOM     37  C   UNL A   1      38.631  30.754  30.245  1.00  0.00     0.074 A 
ATOM     38  C   UNL A   1      38.812  32.572  31.901  1.00  0.00     0.049 A 
ATOM     39  N   UNL A   1      39.729  30.084  30.496  1.00  0.00    -0.248 NA
ATOM     40  C   UNL A   1      37.825  30.197  29.148  1.00  0.00     0.031 C 
ATOM     41  C   UNL A   1      38.445  33.803  32.599  1.00  0.00     0.029 A 
ATOM     42  N   UNL A   1      40.000  32.198  32.481  1.00  0.00    -0.354 N 
ATOM     43  C   UNL A   1      39.744  29.027  29.592  1.00  0.00     0.074 A 
ATOM     44  C   UNL A   1      38.533  29.131  28.806  1.00  0.00     0.031 C 
ATOM     45  C   UNL A   1      39.390  34.084  33.513  1.00  0.00     0.029 A 
ATOM     46  C   UNL A   1      40.410  33.036  33.488  1.00  0.00     0.049 A 
ATOM     47  H   UNL A   1      40.509  31.403  32.201  1.00  0.00     0.167 HD
ATOM     48  C   UNL A   1      40.681  28.063  29.428  1.00  0.00     0.031 A 
ATOM     49  C   UNL A   1      41.472  32.961  34.313  1.00  0.00     0.031 A 
ATOM     50  C   UNL A   1      41.883  27.949  30.210  1.00  0.00     0.049 A 
ATOM     51  C   UNL A   1      42.451  31.826  34.166  1.00  0.00     0.074 A 
ATOM     52  C   UNL A   1      42.902  27.017  30.090  1.00  0.00     0.029 A 
ATOM     53  N   UNL A   1      42.225  28.779  31.264  1.00  0.00    -0.354 N 
ATOM     54  N   UNL A   1      42.473  30.861  33.281  1.00  0.00    -0.248 NA
ATOM     55  C   UNL A   1      43.559  31.777  35.134  1.00  0.00     0.031 C 
ATOM     56  C   UNL A   1      43.826  27.243  31.116  1.00  0.00     0.029 A 
ATOM     57  C   UNL A   1      43.416  28.356  31.832  1.00  0.00     0.049 A 
ATOM     58  H   UNL A   1      41.700  29.556  31.566  1.00  0.00     0.167 HD
ATOM     59  C   UNL A   1      43.601  30.103  33.572  1.00  0.00     0.074 A 
ATOM     60  C   UNL A   1      44.253  30.735  34.699  1.00  0.00     0.031 C 
ATOM     61  C   UNL A   1      44.055  28.982  32.960  1.00  0.00     0.031 A 
BRANCH  48  62
ATOM     62  C   UNL A   1      40.428  27.017  28.378  1.00  0.00    -0.014 A 
ATOM     63  C   UNL A   1      40.993  27.113  27.097  1.00  0.00     0.009 A 
ATOM     64  C   UNL A   1      39.667  25.882  28.700  1.00  0.00     0.009 A 
ATOM     65  C   UNL A   1      40.780  26.105  26.153  1.00  0.00     0.001 A 
ATOM     66  C   UNL A   1      39.477  24.864  27.764  1.00  0.00     0.001 A 
ATOM     67  C   UNL A   1      40.028  24.979  26.489  1.00  0.00     0.000 A 
ENDBRANCH  48  62
BRANCH  49  68
ATOM     68  C   UNL A   1      41.650  33.969  35.392  1.00  0.00    -0.014 A 
ATOM     69  C   UNL A   1      41.061  33.793  36.652  1.00  0.00     0.009 A 
ATOM     70  C   UNL A   1      42.389  35.138  35.146  1.00  0.00     0.009 A 
ATOM     71  C   UNL A   1      41.184  34.780  37.634  1.00  0.00     0.001 A 
ATOM     72  C   UNL A   1      42.538  36.107  36.141  1.00  0.00     0.001 A 
ATOM     73  C   UNL A   1      41.925  35.933  37.379  1.00  0.00     0.000 A 
ENDBRANCH  49  68
BRANCH  61  74
ATOM     74  C   UNL A   1      45.330  28.375  33.480  1.00  0.00    -0.014 A 
ATOM     75  C   UNL A   1      45.310  27.374  34.465  1.00  0.00     0.009 A 
ATOM     76  C   UNL A   1      46.564  28.780  32.950  1.00  0.00     0.009 A 
ATOM     77  C   UNL A   1      46.503  26.817  34.932  1.00  0.00     0.001 A 
ATOM     78  C   UNL A   1      47.753  28.200  33.395  1.00  0.00     0.001 A 
ATOM     79  C   UNL A   1      47.723  27.226  34.393  1.00  0.00     0.000 A 
ENDBRANCH  61  74
ENDBRANCH  35  36
ENDBRANCH  28  30
ENDBRANCH  27  28
ENDBRANCH  26  27
ENDBRANCH  25  26
ENDBRANCH  24  25
ENDBRANCH   1  24
TORSDOF 20
ENDMDL
