MODEL 1
REMARK VINA RESULT:      -8.2      0.000      0.000
REMARK SMILES C#CC[NH2+]CC(=O)N[C@H](CC)C(=O)OCCOCCOC(=O)c1ccc(-c2c3nc(c(-c4ccccc4)c4ccc([nH]4)c(-c4ccccc4)c4nc(c(-c5ccccc5)c5ccc2[nH]5)C=C4)C=C3)cc1
REMARK SMILES IDX 15 1 14 2 12 3 13 4 9 5 8 6 6 7 7 8 5 10 4 11 3 14 2 15 1 16
REMARK SMILES IDX 10 17 11 18 16 19 17 20 18 21 19 22 20 23 21 24 22 25 23 26
REMARK SMILES IDX 24 27 70 28 25 29 69 30 26 31 27 32 28 33 63 34 29 35 68 36
REMARK SMILES IDX 62 37 64 38 30 39 67 40 61 41 60 42 31 44 53 45 38 46 52 47
REMARK SMILES IDX 39 48 42 49 51 50 65 51 40 52 41 53 50 55 66 56 43 57 32 58
REMARK SMILES IDX 33 59 37 60 34 61 36 62 35 63 54 64 55 65 59 66 56 67 58 68
REMARK SMILES IDX 57 69 44 70 45 71 49 72 46 73 48 74 47 75
REMARK H PARENT 8 9 4 12 4 13 64 43 42 54
REMARK Flexibility Score: inf
ROOT
ATOM      1  C   UNL A   1      32.720  27.748  26.505  1.00  0.00     0.261 C 
ENDROOT
BRANCH   1   2
ATOM      2  O   UNL A   1      32.196  26.407  26.561  1.00  0.00    -0.462 OA
BRANCH   2   3
ATOM      3  C   UNL A   1      32.032  25.818  25.346  1.00  0.00     0.328 C 
ATOM      4  O   UNL A   1      31.006  25.239  25.003  1.00  0.00    -0.250 OA
BRANCH   3   5
ATOM      5  C   UNL A   1      33.215  26.102  24.382  1.00  0.00     0.192 C 
BRANCH   5   6
ATOM      6  N   UNL A   1      32.625  26.228  23.038  1.00  0.00    -0.338 N 
ATOM      7  C   UNL A   1      31.768  27.182  22.556  1.00  0.00     0.275 C 
ATOM      8  O   UNL A   1      30.993  26.862  21.653  1.00  0.00    -0.268 OA
ATOM      9  H   UNL A   1      32.881  25.528  22.396  1.00  0.00     0.164 HD
BRANCH   7  10
ATOM     10  C   UNL A   1      31.806  28.624  23.085  1.00  0.00     0.362 C 
BRANCH  10  11
ATOM     11  N   UNL A   1      30.532  29.073  23.690  1.00  0.00    -0.328 N 
ATOM     12  H   UNL A   1      29.995  28.260  23.993  1.00  0.00     0.347 HD
ATOM     13  H   UNL A   1      30.731  29.670  24.493  1.00  0.00     0.347 HD
BRANCH  11  14
ATOM     14  C   UNL A   1      29.767  29.818  22.721  1.00  0.00     0.352 C 
BRANCH  14  15
ATOM     15  C   UNL A   1      28.635  30.672  23.269  1.00  0.00    -0.047 C 
ATOM     16  C   UNL A   1      27.665  31.404  23.738  1.00  0.00     0.010 C 
ENDBRANCH  14  15
ENDBRANCH  11  14
ENDBRANCH  10  11
ENDBRANCH   7  10
ENDBRANCH   5   6
BRANCH   5  17
ATOM     17  C   UNL A   1      34.389  25.130  24.415  1.00  0.00     0.033 C 
ATOM     18  C   UNL A   1      34.339  24.136  23.255  1.00  0.00     0.007 C 
ENDBRANCH   5  17
ENDBRANCH   3   5
ENDBRANCH   2   3
ENDBRANCH   1   2
BRANCH   1  19
ATOM     19  C   UNL A   1      31.765  28.741  27.170  1.00  0.00     0.202 C 
BRANCH  19  20
ATOM     20  O   UNL A   1      32.263  30.069  27.311  1.00  0.00    -0.374 OA
BRANCH  20  21
ATOM     21  C   UNL A   1      31.691  31.085  26.483  1.00  0.00     0.202 C 
BRANCH  21  22
ATOM     22  C   UNL A   1      31.633  32.495  27.089  1.00  0.00     0.261 C 
BRANCH  22  23
ATOM     23  O   UNL A   1      32.929  33.126  27.073  1.00  0.00    -0.460 OA
BRANCH  23  24
ATOM     24  C   UNL A   1      33.184  33.975  28.101  1.00  0.00     0.338 C 
ATOM     25  O   UNL A   1      32.446  34.826  28.557  1.00  0.00    -0.246 OA
BRANCH  24  26
ATOM     26  C   UNL A   1      34.435  33.556  28.771  1.00  0.00     0.060 A 
ATOM     27  C   UNL A   1      35.647  33.842  28.127  1.00  0.00     0.016 A 
ATOM     28  C   UNL A   1      34.423  32.861  29.981  1.00  0.00     0.016 A 
ATOM     29  C   UNL A   1      36.853  33.399  28.669  1.00  0.00     0.010 A 
ATOM     30  C   UNL A   1      35.633  32.405  30.516  1.00  0.00     0.010 A 
ATOM     31  C   UNL A   1      36.848  32.642  29.846  1.00  0.00    -0.014 A 
BRANCH  31  32
ATOM     32  C   UNL A   1      38.081  31.939  30.278  1.00  0.00     0.031 A 
ATOM     33  C   UNL A   1      38.966  32.601  31.298  1.00  0.00     0.074 A 
ATOM     34  C   UNL A   1      38.409  30.729  29.789  1.00  0.00     0.049 A 
ATOM     35  N   UNL A   1      40.133  32.227  31.754  1.00  0.00    -0.248 NA
ATOM     36  C   UNL A   1      38.466  33.859  31.879  1.00  0.00     0.031 C 
ATOM     37  C   UNL A   1      37.606  29.945  28.854  1.00  0.00     0.029 A 
ATOM     38  N   UNL A   1      39.520  29.954  30.013  1.00  0.00    -0.354 N 
ATOM     39  C   UNL A   1      40.515  33.209  32.659  1.00  0.00     0.074 A 
ATOM     40  C   UNL A   1      39.468  34.207  32.672  1.00  0.00     0.031 C 
ATOM     41  C   UNL A   1      38.260  28.804  28.571  1.00  0.00     0.029 A 
ATOM     42  C   UNL A   1      39.545  28.800  29.270  1.00  0.00     0.049 A 
ATOM     43  H   UNL A   1      40.232  30.203  30.646  1.00  0.00     0.167 HD
ATOM     44  C   UNL A   1      41.637  33.275  33.415  1.00  0.00     0.031 A 
ATOM     45  C   UNL A   1      40.508  27.864  29.141  1.00  0.00     0.031 A 
ATOM     46  C   UNL A   1      42.683  32.290  33.396  1.00  0.00     0.049 A 
ATOM     47  C   UNL A   1      41.793  28.011  29.914  1.00  0.00     0.074 A 
ATOM     48  C   UNL A   1      43.854  32.266  34.132  1.00  0.00     0.029 A 
ATOM     49  N   UNL A   1      42.688  31.159  32.595  1.00  0.00    -0.354 N 
ATOM     50  N   UNL A   1      42.141  28.940  30.772  1.00  0.00    -0.248 NA
ATOM     51  C   UNL A   1      42.820  26.979  29.700  1.00  0.00     0.031 C 
ATOM     52  C   UNL A   1      44.599  31.152  33.729  1.00  0.00     0.029 A 
ATOM     53  C   UNL A   1      43.857  30.447  32.796  1.00  0.00     0.049 A 
ATOM     54  H   UNL A   1      41.967  30.901  31.976  1.00  0.00     0.167 HD
ATOM     55  C   UNL A   1      43.405  28.582  31.229  1.00  0.00     0.074 A 
ATOM     56  C   UNL A   1      43.764  27.352  30.555  1.00  0.00     0.031 C 
ATOM     57  C   UNL A   1      44.195  29.215  32.131  1.00  0.00     0.031 A 
BRANCH  44  58
ATOM     58  C   UNL A   1      41.811  34.483  34.294  1.00  0.00    -0.014 A 
ATOM     59  C   UNL A   1      41.408  34.477  35.638  1.00  0.00     0.009 A 
ATOM     60  C   UNL A   1      42.425  35.633  33.774  1.00  0.00     0.009 A 
ATOM     61  C   UNL A   1      41.585  35.611  36.433  1.00  0.00     0.001 A 
ATOM     62  C   UNL A   1      42.629  36.754  34.578  1.00  0.00     0.001 A 
ATOM     63  C   UNL A   1      42.200  36.746  35.905  1.00  0.00     0.000 A 
ENDBRANCH  44  58
BRANCH  45  64
ATOM     64  C   UNL A   1      40.313  26.716  28.216  1.00  0.00    -0.014 A 
ATOM     65  C   UNL A   1      40.815  26.756  26.906  1.00  0.00     0.009 A 
ATOM     66  C   UNL A   1      39.601  25.580  28.633  1.00  0.00     0.009 A 
ATOM     67  C   UNL A   1      40.585  25.695  26.027  1.00  0.00     0.001 A 
ATOM     68  C   UNL A   1      39.400  24.507  27.762  1.00  0.00     0.001 A 
ATOM     69  C   UNL A   1      39.884  24.569  26.457  1.00  0.00     0.000 A 
ENDBRANCH  45  64
BRANCH  57  70
ATOM     70  C   UNL A   1      45.502  28.567  32.498  1.00  0.00    -0.014 A 
ATOM     71  C   UNL A   1      45.586  27.608  33.518  1.00  0.00     0.009 A 
ATOM     72  C   UNL A   1      46.651  28.864  31.747  1.00  0.00     0.009 A 
ATOM     73  C   UNL A   1      46.801  26.974  33.791  1.00  0.00     0.001 A 
ATOM     74  C   UNL A   1      47.855  28.208  32.002  1.00  0.00     0.001 A 
ATOM     75  C   UNL A   1      47.932  27.268  33.027  1.00  0.00     0.000 A 
ENDBRANCH  57  70
ENDBRANCH  31  32
ENDBRANCH  24  26
ENDBRANCH  23  24
ENDBRANCH  22  23
ENDBRANCH  21  22
ENDBRANCH  20  21
ENDBRANCH  19  20
ENDBRANCH   1  19
TORSDOF 20
ENDMDL
MODEL 2
REMARK VINA RESULT:      -8.1      3.943      8.866
REMARK SMILES C#CC[NH2+]CC(=O)N[C@H](CC)C(=O)OCCOCCOC(=O)c1ccc(-c2c3nc(c(-c4ccccc4)c4ccc([nH]4)c(-c4ccccc4)c4nc(c(-c5ccccc5)c5ccc2[nH]5)C=C4)C=C3)cc1
REMARK SMILES IDX 15 1 14 2 12 3 13 4 9 5 8 6 6 7 7 8 5 10 4 11 3 14 2 15 1 16
REMARK SMILES IDX 10 17 11 18 16 19 17 20 18 21 19 22 20 23 21 24 22 25 23 26
REMARK SMILES IDX 24 27 70 28 25 29 69 30 26 31 27 32 28 33 63 34 29 35 68 36
REMARK SMILES IDX 62 37 64 38 30 39 67 40 61 41 60 42 31 44 53 45 38 46 52 47
REMARK SMILES IDX 39 48 42 49 51 50 65 51 40 52 41 53 50 55 66 56 43 57 32 58
REMARK SMILES IDX 33 59 37 60 34 61 36 62 35 63 54 64 55 65 59 66 56 67 58 68
REMARK SMILES IDX 57 69 44 70 45 71 49 72 46 73 48 74 47 75
REMARK H PARENT 8 9 4 12 4 13 64 43 42 54
REMARK Flexibility Score: inf
ROOT
ATOM      1  C   UNL A   1      35.331  23.022  25.093  1.00  0.00     0.261 C 
ENDROOT
BRANCH   1   2
ATOM      2  O   UNL A   1      34.032  23.385  25.598  1.00  0.00    -0.462 OA
BRANCH   2   3
ATOM      3  C   UNL A   1      33.731  24.706  25.477  1.00  0.00     0.328 C 
ATOM      4  O   UNL A   1      34.576  25.591  25.390  1.00  0.00    -0.250 OA
BRANCH   3   5
ATOM      5  C   UNL A   1      32.210  24.956  25.290  1.00  0.00     0.192 C 
BRANCH   5   6
ATOM      6  N   UNL A   1      31.555  24.395  26.485  1.00  0.00    -0.338 N 
ATOM      7  C   UNL A   1      30.759  23.286  26.593  1.00  0.00     0.275 C 
ATOM      8  O   UNL A   1      29.906  23.269  27.484  1.00  0.00    -0.268 OA
ATOM      9  H   UNL A   1      31.711  24.886  27.323  1.00  0.00     0.164 HD
BRANCH   7  10
ATOM     10  C   UNL A   1      30.953  22.074  25.669  1.00  0.00     0.362 C 
BRANCH  10  11
ATOM     11  N   UNL A   1      32.178  21.294  25.956  1.00  0.00    -0.328 N 
ATOM     12  H   UNL A   1      32.978  21.925  26.008  1.00  0.00     0.347 HD
ATOM     13  H   UNL A   1      32.068  20.807  26.846  1.00  0.00     0.347 HD
BRANCH  11  14
ATOM     14  C   UNL A   1      32.399  20.328  24.908  1.00  0.00     0.352 C 
BRANCH  14  15
ATOM     15  C   UNL A   1      32.246  20.833  23.483  1.00  0.00    -0.047 C 
ATOM     16  C   UNL A   1      32.114  21.267  22.261  1.00  0.00     0.010 C 
ENDBRANCH  14  15
ENDBRANCH  11  14
ENDBRANCH  10  11
ENDBRANCH   7  10
ENDBRANCH   5   6
BRANCH   5  17
ATOM     17  C   UNL A   1      31.578  24.464  23.993  1.00  0.00     0.033 C 
ATOM     18  C   UNL A   1      31.921  25.371  22.812  1.00  0.00     0.007 C 
ENDBRANCH   5  17
ENDBRANCH   3   5
ENDBRANCH   2   3
ENDBRANCH   1   2
BRANCH   1  19
ATOM     19  C   UNL A   1      35.883  21.796  25.822  1.00  0.00     0.202 C 
BRANCH  19  20
ATOM     20  O   UNL A   1      36.278  20.712  24.985  1.00  0.00    -0.374 OA
BRANCH  20  21
ATOM     21  C   UNL A   1      37.643  20.659  24.565  1.00  0.00     0.202 C 
BRANCH  21  22
ATOM     22  C   UNL A   1      38.534  19.643  25.294  1.00  0.00     0.261 C 
BRANCH  22  23
ATOM     23  O   UNL A   1      39.367  20.287  26.279  1.00  0.00    -0.460 OA
BRANCH  23  24
ATOM     24  C   UNL A   1      40.695  20.017  26.196  1.00  0.00     0.338 C 
ATOM     25  O   UNL A   1      41.223  19.058  25.666  1.00  0.00    -0.246 OA
BRANCH  24  26
ATOM     26  C   UNL A   1      41.455  21.204  26.646  1.00  0.00     0.060 A 
ATOM     27  C   UNL A   1      41.610  21.394  28.026  1.00  0.00     0.016 A 
ATOM     28  C   UNL A   1      41.970  22.133  25.741  1.00  0.00     0.016 A 
ATOM     29  C   UNL A   1      42.246  22.536  28.511  1.00  0.00     0.010 A 
ATOM     30  C   UNL A   1      42.594  23.286  26.229  1.00  0.00     0.010 A 
ATOM     31  C   UNL A   1      42.704  23.508  27.615  1.00  0.00    -0.014 A 
BRANCH  31  32
ATOM     32  C   UNL A   1      43.126  24.838  28.120  1.00  0.00     0.031 A 
ATOM     33  C   UNL A   1      42.068  25.870  28.397  1.00  0.00     0.074 A 
ATOM     34  C   UNL A   1      44.421  25.128  28.343  1.00  0.00     0.049 A 
ATOM     35  N   UNL A   1      42.201  27.123  28.748  1.00  0.00    -0.248 NA
ATOM     36  C   UNL A   1      40.670  25.428  28.255  1.00  0.00     0.031 C 
ATOM     37  C   UNL A   1      45.538  24.199  28.187  1.00  0.00     0.029 A 
ATOM     38  N   UNL A   1      45.010  26.302  28.743  1.00  0.00    -0.354 N 
ATOM     39  C   UNL A   1      40.908  27.623  28.851  1.00  0.00     0.074 A 
ATOM     40  C   UNL A   1      40.006  26.547  28.504  1.00  0.00     0.031 C 
ATOM     41  C   UNL A   1      46.683  24.846  28.473  1.00  0.00     0.029 A 
ATOM     42  C   UNL A   1      46.382  26.241  28.789  1.00  0.00     0.049 A 
ATOM     43  H   UNL A   1      44.499  27.111  28.975  1.00  0.00     0.167 HD
ATOM     44  C   UNL A   1      40.506  28.867  29.205  1.00  0.00     0.031 A 
ATOM     45  C   UNL A   1      47.291  27.209  29.025  1.00  0.00     0.031 A 
ATOM     46  C   UNL A   1      41.401  29.940  29.541  1.00  0.00     0.049 A 
ATOM     47  C   UNL A   1      46.824  28.612  29.315  1.00  0.00     0.074 A 
ATOM     48  C   UNL A   1      41.087  31.233  29.921  1.00  0.00     0.029 A 
ATOM     49  N   UNL A   1      42.783  29.847  29.531  1.00  0.00    -0.354 N 
ATOM     50  N   UNL A   1      45.600  29.072  29.417  1.00  0.00    -0.248 NA
ATOM     51  C   UNL A   1      47.865  29.630  29.525  1.00  0.00     0.031 C 
ATOM     52  C   UNL A   1      42.283  31.942  30.077  1.00  0.00     0.029 A 
ATOM     53  C   UNL A   1      43.338  31.070  29.867  1.00  0.00     0.049 A 
ATOM     54  H   UNL A   1      43.294  29.033  29.317  1.00  0.00     0.167 HD
ATOM     55  C   UNL A   1      45.725  30.419  29.741  1.00  0.00     0.074 A 
ATOM     56  C   UNL A   1      47.142  30.703  29.820  1.00  0.00     0.031 C 
ATOM     57  C   UNL A   1      44.751  31.336  29.959  1.00  0.00     0.031 A 
BRANCH  44  58
ATOM     58  C   UNL A   1      39.028  29.146  29.200  1.00  0.00    -0.014 A 
ATOM     59  C   UNL A   1      38.247  28.984  30.354  1.00  0.00     0.009 A 
ATOM     60  C   UNL A   1      38.418  29.615  28.026  1.00  0.00     0.009 A 
ATOM     61  C   UNL A   1      36.877  29.254  30.323  1.00  0.00     0.001 A 
ATOM     62  C   UNL A   1      37.056  29.915  28.005  1.00  0.00     0.001 A 
ATOM     63  C   UNL A   1      36.284  29.724  29.151  1.00  0.00     0.000 A 
ENDBRANCH  44  58
BRANCH  45  64
ATOM     64  C   UNL A   1      48.744  26.898  28.963  1.00  0.00    -0.014 A 
ATOM     65  C   UNL A   1      49.451  26.537  30.120  1.00  0.00     0.009 A 
ATOM     66  C   UNL A   1      49.439  26.985  27.746  1.00  0.00     0.009 A 
ATOM     67  C   UNL A   1      50.827  26.295  30.063  1.00  0.00     0.001 A 
ATOM     68  C   UNL A   1      50.807  26.712  27.686  1.00  0.00     0.001 A 
ATOM     69  C   UNL A   1      51.502  26.377  28.847  1.00  0.00     0.000 A 
ENDBRANCH  45  64
BRANCH  57  70
ATOM     70  C   UNL A   1      45.168  32.722  30.365  1.00  0.00    -0.014 A 
ATOM     71  C   UNL A   1      45.401  33.057  31.707  1.00  0.00     0.009 A 
ATOM     72  C   UNL A   1      45.414  33.685  29.372  1.00  0.00     0.009 A 
ATOM     73  C   UNL A   1      45.853  34.334  32.048  1.00  0.00     0.001 A 
ATOM     74  C   UNL A   1      45.894  34.950  29.713  1.00  0.00     0.001 A 
ATOM     75  C   UNL A   1      46.108  35.276  31.049  1.00  0.00     0.000 A 
ENDBRANCH  57  70
ENDBRANCH  31  32
ENDBRANCH  24  26
ENDBRANCH  23  24
ENDBRANCH  22  23
ENDBRANCH  21  22
ENDBRANCH  20  21
ENDBRANCH  19  20
ENDBRANCH   1  19
TORSDOF 20
ENDMDL
MODEL 3
REMARK VINA RESULT:      -7.8      3.556      8.414
REMARK SMILES C#CC[NH2+]CC(=O)N[C@H](CC)C(=O)OCCOCCOC(=O)c1ccc(-c2c3nc(c(-c4ccccc4)c4ccc([nH]4)c(-c4ccccc4)c4nc(c(-c5ccccc5)c5ccc2[nH]5)C=C4)C=C3)cc1
REMARK SMILES IDX 15 1 14 2 12 3 13 4 9 5 8 6 6 7 7 8 5 10 4 11 3 14 2 15 1 16
REMARK SMILES IDX 10 17 11 18 16 19 17 20 18 21 19 22 20 23 21 24 22 25 23 26
REMARK SMILES IDX 24 27 70 28 25 29 69 30 26 31 27 32 28 33 63 34 29 35 68 36
REMARK SMILES IDX 62 37 64 38 30 39 67 40 61 41 60 42 31 44 53 45 38 46 52 47
REMARK SMILES IDX 39 48 42 49 51 50 65 51 40 52 41 53 50 55 66 56 43 57 32 58
REMARK SMILES IDX 33 59 37 60 34 61 36 62 35 63 54 64 55 65 59 66 56 67 58 68
REMARK SMILES IDX 57 69 44 70 45 71 49 72 46 73 48 74 47 75
REMARK H PARENT 8 9 4 12 4 13 64 43 42 54
REMARK Flexibility Score: inf
ROOT
ATOM      1  C   UNL A   1      34.990  23.058  25.179  1.00  0.00     0.261 C 
ENDROOT
BRANCH   1   2
ATOM      2  O   UNL A   1      33.994  23.547  26.097  1.00  0.00    -0.462 OA
BRANCH   2   3
ATOM      3  C   UNL A   1      33.469  24.757  25.765  1.00  0.00     0.328 C 
ATOM      4  O   UNL A   1      34.145  25.763  25.577  1.00  0.00    -0.250 OA
BRANCH   3   5
ATOM      5  C   UNL A   1      31.944  24.687  25.483  1.00  0.00     0.192 C 
BRANCH   5   6
ATOM      6  N   UNL A   1      31.308  25.594  26.454  1.00  0.00    -0.338 N 
ATOM      7  C   UNL A   1      31.251  26.963  26.450  1.00  0.00     0.275 C 
ATOM      8  O   UNL A   1      31.170  27.543  27.535  1.00  0.00    -0.268 OA
ATOM      9  H   UNL A   1      30.863  25.156  27.215  1.00  0.00     0.164 HD
BRANCH   7  10
ATOM     10  C   UNL A   1      31.233  27.753  25.132  1.00  0.00     0.362 C 
BRANCH  10  11
ATOM     11  N   UNL A   1      30.184  27.313  24.185  1.00  0.00    -0.328 N 
ATOM     12  H   UNL A   1      29.983  26.324  24.337  1.00  0.00     0.347 HD
ATOM     13  H   UNL A   1      29.337  27.861  24.340  1.00  0.00     0.347 HD
BRANCH  11  14
ATOM     14  C   UNL A   1      30.636  27.507  22.830  1.00  0.00     0.352 C 
BRANCH  14  15
ATOM     15  C   UNL A   1      31.587  26.457  22.280  1.00  0.00    -0.047 C 
ATOM     16  C   UNL A   1      32.403  25.555  21.809  1.00  0.00     0.010 C 
ENDBRANCH  14  15
ENDBRANCH  11  14
ENDBRANCH  10  11
ENDBRANCH   7  10
ENDBRANCH   5   6
BRANCH   5  17
ATOM     17  C   UNL A   1      31.302  23.305  25.469  1.00  0.00     0.033 C 
ATOM     18  C   UNL A   1      30.471  23.049  26.726  1.00  0.00     0.007 C 
ENDBRANCH   5  17
ENDBRANCH   3   5
ENDBRANCH   2   3
ENDBRANCH   1   2
BRANCH   1  19
ATOM     19  C   UNL A   1      35.601  21.747  25.674  1.00  0.00     0.202 C 
BRANCH  19  20
ATOM     20  O   UNL A   1      35.957  20.813  24.658  1.00  0.00    -0.374 OA
BRANCH  20  21
ATOM     21  C   UNL A   1      37.327  20.760  24.253  1.00  0.00     0.202 C 
BRANCH  21  22
ATOM     22  C   UNL A   1      38.244  19.862  25.096  1.00  0.00     0.261 C 
BRANCH  22  23
ATOM     23  O   UNL A   1      39.063  20.642  25.991  1.00  0.00    -0.460 OA
BRANCH  23  24
ATOM     24  C   UNL A   1      40.359  20.252  26.096  1.00  0.00     0.338 C 
ATOM     25  O   UNL A   1      40.856  19.222  25.683  1.00  0.00    -0.246 OA
BRANCH  24  26
ATOM     26  C   UNL A   1      41.165  21.390  26.589  1.00  0.00     0.060 A 
ATOM     27  C   UNL A   1      41.248  21.578  27.976  1.00  0.00     0.016 A 
ATOM     28  C   UNL A   1      41.791  22.280  25.716  1.00  0.00     0.016 A 
ATOM     29  C   UNL A   1      41.925  22.680  28.496  1.00  0.00     0.010 A 
ATOM     30  C   UNL A   1      42.457  23.393  26.239  1.00  0.00     0.010 A 
ATOM     31  C   UNL A   1      42.498  23.616  27.629  1.00  0.00    -0.014 A 
BRANCH  31  32
ATOM     32  C   UNL A   1      42.973  24.919  28.155  1.00  0.00     0.031 A 
ATOM     33  C   UNL A   1      41.957  25.988  28.451  1.00  0.00     0.074 A 
ATOM     34  C   UNL A   1      44.278  25.153  28.383  1.00  0.00     0.049 A 
ATOM     35  N   UNL A   1      42.139  27.229  28.823  1.00  0.00    -0.248 NA
ATOM     36  C   UNL A   1      40.542  25.605  28.301  1.00  0.00     0.031 C 
ATOM     37  C   UNL A   1      45.357  24.183  28.210  1.00  0.00     0.029 A 
ATOM     38  N   UNL A   1      44.914  26.295  28.803  1.00  0.00    -0.354 N 
ATOM     39  C   UNL A   1      40.867  27.778  28.935  1.00  0.00     0.074 A 
ATOM     40  C   UNL A   1      39.924  26.745  28.570  1.00  0.00     0.031 C 
ATOM     41  C   UNL A   1      46.527  24.778  28.507  1.00  0.00     0.029 A 
ATOM     42  C   UNL A   1      46.281  26.179  28.847  1.00  0.00     0.049 A 
ATOM     43  H   UNL A   1      44.435  27.120  29.049  1.00  0.00     0.167 HD
ATOM     44  C   UNL A   1      40.515  29.030  29.310  1.00  0.00     0.031 A 
ATOM     45  C   UNL A   1      47.229  27.105  29.099  1.00  0.00     0.031 A 
ATOM     46  C   UNL A   1      41.453  30.061  29.664  1.00  0.00     0.049 A 
ATOM     47  C   UNL A   1      46.818  28.520  29.413  1.00  0.00     0.074 A 
ATOM     48  C   UNL A   1      41.191  31.359  30.066  1.00  0.00     0.029 A 
ATOM     49  N   UNL A   1      42.830  29.913  29.652  1.00  0.00    -0.354 N 
ATOM     50  N   UNL A   1      45.613  29.028  29.523  1.00  0.00    -0.248 NA
ATOM     51  C   UNL A   1      47.900  29.492  29.640  1.00  0.00     0.031 C 
ATOM     52  C   UNL A   1      42.414  32.017  30.234  1.00  0.00     0.029 A 
ATOM     53  C   UNL A   1      43.433  31.106  30.008  1.00  0.00     0.049 A 
ATOM     54  H   UNL A   1      43.308  29.083  29.424  1.00  0.00     0.167 HD
ATOM     55  C   UNL A   1      45.793  30.362  29.870  1.00  0.00     0.074 A 
ATOM     56  C   UNL A   1      47.220  30.588  29.954  1.00  0.00     0.031 C 
ATOM     57  C   UNL A   1      44.856  31.314  30.104  1.00  0.00     0.031 A 
BRANCH  44  58
ATOM     58  C   UNL A   1      39.050  29.369  29.310  1.00  0.00    -0.014 A 
ATOM     59  C   UNL A   1      38.265  29.227  30.465  1.00  0.00     0.009 A 
ATOM     60  C   UNL A   1      38.458  29.873  28.142  1.00  0.00     0.009 A 
ATOM     61  C   UNL A   1      36.907  29.553  30.438  1.00  0.00     0.001 A 
ATOM     62  C   UNL A   1      37.109  30.227  28.127  1.00  0.00     0.001 A 
ATOM     63  C   UNL A   1      36.332  30.057  29.272  1.00  0.00     0.000 A 
ENDBRANCH  44  58
BRANCH  45  64
ATOM     64  C   UNL A   1      48.669  26.737  29.032  1.00  0.00    -0.014 A 
ATOM     65  C   UNL A   1      49.368  26.359  30.187  1.00  0.00     0.009 A 
ATOM     66  C   UNL A   1      49.358  26.787  27.809  1.00  0.00     0.009 A 
ATOM     67  C   UNL A   1      50.733  26.063  30.125  1.00  0.00     0.001 A 
ATOM     68  C   UNL A   1      50.714  26.460  27.744  1.00  0.00     0.001 A 
ATOM     69  C   UNL A   1      51.403  26.109  28.903  1.00  0.00     0.000 A 
ENDBRANCH  45  64
BRANCH  57  70
ATOM     70  C   UNL A   1      45.328  32.676  30.534  1.00  0.00    -0.014 A 
ATOM     71  C   UNL A   1      45.563  32.981  31.883  1.00  0.00     0.009 A 
ATOM     72  C   UNL A   1      45.623  33.641  29.557  1.00  0.00     0.009 A 
ATOM     73  C   UNL A   1      46.067  34.233  32.245  1.00  0.00     0.001 A 
ATOM     74  C   UNL A   1      46.154  34.879  29.920  1.00  0.00     0.001 A 
ATOM     75  C   UNL A   1      46.370  35.177  31.263  1.00  0.00     0.000 A 
ENDBRANCH  57  70
ENDBRANCH  31  32
ENDBRANCH  24  26
ENDBRANCH  23  24
ENDBRANCH  22  23
ENDBRANCH  21  22
ENDBRANCH  20  21
ENDBRANCH  19  20
ENDBRANCH   1  19
TORSDOF 20
ENDMDL
