MODEL 1
REMARK VINA RESULT:     -11.2      0.000      0.000
REMARK SMILES O=C(OCCOCCOC(=O)[C@H]1C[C@](O)(c2ccc(F)cc2)[C@@H](c2ccc(F)cc2)O1)c1ccc(-c2c3nc(c(-c4ccccc4)c4ccc([nH]4)c(-c4ccccc4)c4nc(c(-c5ccccc5)c5ccc2[nH]5)C=C4)C=C3)cc1
REMARK SMILES IDX 5 1 4 2 3 3 2 4 1 5 32 6 33 7 79 8 34 9 78 10 35 11 36 12
REMARK SMILES IDX 37 13 72 14 38 15 77 16 71 17 73 18 39 19 76 20 70 21 69 22
REMARK SMILES IDX 40 24 62 25 47 26 61 27 48 28 51 29 60 30 74 31 49 32 50 33
REMARK SMILES IDX 59 35 75 36 52 37 41 38 42 39 46 40 43 41 45 42 44 43 63 44
REMARK SMILES IDX 64 45 68 46 65 47 67 48 66 49 53 50 54 51 58 52 55 53 57 54
REMARK SMILES IDX 56 55 6 56 7 57 8 58 9 59 10 60 11 61 12 62 13 63 31 64
REMARK SMILES IDX 14 65 23 66 16 67 17 68 22 69 18 70 21 71 19 72 20 73 15 74
REMARK SMILES IDX 24 76 25 77 30 78 26 79 29 80 27 81 28 82
REMARK H PARENT 73 23 51 34 15 75
REMARK Flexibility Score: inf
ROOT
ATOM      1  C   UNL A   1      32.116  31.013  27.102  1.00  0.00     0.202 C 
ENDROOT
BRANCH   1   2
ATOM      2  C   UNL A   1      31.387  32.368  26.981  1.00  0.00     0.261 C 
BRANCH   2   3
ATOM      3  O   UNL A   1      32.265  33.506  27.029  1.00  0.00    -0.460 OA
BRANCH   3   4
ATOM      4  C   UNL A   1      32.913  33.998  28.120  1.00  0.00     0.338 C 
ATOM      5  O   UNL A   1      32.472  35.005  28.666  1.00  0.00    -0.246 OA
BRANCH   4   6
ATOM      6  C   UNL A   1      34.222  33.448  28.601  1.00  0.00     0.060 A 
ATOM      7  C   UNL A   1      35.445  33.709  27.995  1.00  0.00     0.016 A 
ATOM      8  C   UNL A   1      34.240  32.695  29.791  1.00  0.00     0.016 A 
ATOM      9  C   UNL A   1      36.641  33.332  28.552  1.00  0.00     0.010 A 
ATOM     10  C   UNL A   1      35.451  32.265  30.355  1.00  0.00     0.010 A 
ATOM     11  C   UNL A   1      36.652  32.606  29.730  1.00  0.00    -0.014 A 
BRANCH  11  12
ATOM     12  C   UNL A   1      37.982  32.107  30.092  1.00  0.00     0.031 A 
ATOM     13  C   UNL A   1      38.633  32.728  31.289  1.00  0.00     0.074 A 
ATOM     14  C   UNL A   1      38.372  30.920  29.595  1.00  0.00     0.049 A 
ATOM     15  N   UNL A   1      39.703  32.355  31.933  1.00  0.00    -0.248 NA
ATOM     16  C   UNL A   1      37.946  33.894  31.875  1.00  0.00     0.031 C 
ATOM     17  C   UNL A   1      37.635  30.142  28.590  1.00  0.00     0.029 A 
ATOM     18  N   UNL A   1      39.429  30.119  29.923  1.00  0.00    -0.354 N 
ATOM     19  C   UNL A   1      39.817  33.239  32.996  1.00  0.00     0.074 A 
ATOM     20  C   UNL A   1      38.716  34.168  32.915  1.00  0.00     0.031 C 
ATOM     21  C   UNL A   1      38.262  28.971  28.396  1.00  0.00     0.029 A 
ATOM     22  C   UNL A   1      39.467  28.943  29.214  1.00  0.00     0.049 A 
ATOM     23  H   UNL A   1      40.099  30.361  30.603  1.00  0.00     0.167 HD
ATOM     24  C   UNL A   1      40.773  33.268  33.951  1.00  0.00     0.031 A 
ATOM     25  C   UNL A   1      40.403  27.978  29.212  1.00  0.00     0.031 A 
ATOM     26  C   UNL A   1      41.878  32.354  33.966  1.00  0.00     0.049 A 
ATOM     27  C   UNL A   1      41.564  28.147  30.156  1.00  0.00     0.074 A 
ATOM     28  C   UNL A   1      43.000  32.358  34.771  1.00  0.00     0.029 A 
ATOM     29  N   UNL A   1      41.993  31.262  33.113  1.00  0.00    -0.354 N 
ATOM     30  N   UNL A   1      41.745  29.057  31.086  1.00  0.00    -0.248 NA
ATOM     31  C   UNL A   1      42.649  27.167  30.049  1.00  0.00     0.031 C 
ATOM     32  C   UNL A   1      43.821  31.301  34.365  1.00  0.00     0.029 A 
ATOM     33  C   UNL A   1      43.178  30.595  33.357  1.00  0.00     0.049 A 
ATOM     34  H   UNL A   1      41.328  31.003  32.436  1.00  0.00     0.167 HD
ATOM     35  C   UNL A   1      42.958  28.754  31.684  1.00  0.00     0.074 A 
ATOM     36  C   UNL A   1      43.448  27.553  31.034  1.00  0.00     0.031 C 
ATOM     37  C   UNL A   1      43.619  29.405  32.674  1.00  0.00     0.031 A 
BRANCH  24  38
ATOM     38  C   UNL A   1      40.698  34.387  34.946  1.00  0.00    -0.014 A 
ATOM     39  C   UNL A   1      41.340  35.617  34.725  1.00  0.00     0.009 A 
ATOM     40  C   UNL A   1      40.026  34.181  36.161  1.00  0.00     0.009 A 
ATOM     41  C   UNL A   1      41.339  36.602  35.717  1.00  0.00     0.001 A 
ATOM     42  C   UNL A   1      40.006  35.175  37.139  1.00  0.00     0.001 A 
ATOM     43  C   UNL A   1      40.672  36.380  36.922  1.00  0.00     0.000 A 
ENDBRANCH  24  38
BRANCH  25  44
ATOM     44  C   UNL A   1      40.349  26.858  28.232  1.00  0.00    -0.014 A 
ATOM     45  C   UNL A   1      40.913  26.967  26.951  1.00  0.00     0.009 A 
ATOM     46  C   UNL A   1      39.659  25.677  28.560  1.00  0.00     0.009 A 
ATOM     47  C   UNL A   1      40.749  25.939  26.014  1.00  0.00     0.001 A 
ATOM     48  C   UNL A   1      39.529  24.638  27.637  1.00  0.00     0.001 A 
ATOM     49  C   UNL A   1      40.059  24.778  26.357  1.00  0.00     0.000 A 
ENDBRANCH  25  44
BRANCH  37  50
ATOM     50  C   UNL A   1      44.918  28.801  33.122  1.00  0.00    -0.014 A 
ATOM     51  C   UNL A   1      46.138  29.187  32.546  1.00  0.00     0.009 A 
ATOM     52  C   UNL A   1      44.917  27.858  34.160  1.00  0.00     0.009 A 
ATOM     53  C   UNL A   1      47.331  28.606  32.976  1.00  0.00     0.001 A 
ATOM     54  C   UNL A   1      46.114  27.308  34.612  1.00  0.00     0.001 A 
ATOM     55  C   UNL A   1      47.318  27.673  34.013  1.00  0.00     0.000 A 
ENDBRANCH  37  50
ENDBRANCH  11  12
ENDBRANCH   4   6
ENDBRANCH   3   4
ENDBRANCH   2   3
ENDBRANCH   1   2
BRANCH   1  56
ATOM     56  O   UNL A   1      33.376  30.864  26.446  1.00  0.00    -0.374 OA
BRANCH  56  57
ATOM     57  C   UNL A   1      34.400  30.139  27.130  1.00  0.00     0.202 C 
BRANCH  57  58
ATOM     58  C   UNL A   1      33.949  28.705  27.409  1.00  0.00     0.261 C 
BRANCH  58  59
ATOM     59  O   UNL A   1      34.215  27.911  26.246  1.00  0.00    -0.461 OA
BRANCH  59  60
ATOM     60  C   UNL A   1      33.308  26.965  25.893  1.00  0.00     0.335 C 
ATOM     61  O   UNL A   1      33.470  25.760  25.978  1.00  0.00    -0.249 OA
BRANCH  60  62
ATOM     62  C   UNL A   1      31.978  27.643  25.508  1.00  0.00     0.232 C 
ATOM     63  C   UNL A   1      32.156  28.482  24.244  1.00  0.00     0.087 C 
ATOM     64  O   UNL A   1      30.899  26.730  25.280  1.00  0.00    -0.355 OA
ATOM     65  C   UNL A   1      31.038  28.069  23.307  1.00  0.00     0.123 C 
ATOM     66  C   UNL A   1      30.636  26.670  23.857  1.00  0.00     0.186 C 
BRANCH  65  67
ATOM     67  C   UNL A   1      29.926  29.129  23.303  1.00  0.00    -0.013 A 
ATOM     68  C   UNL A   1      28.639  28.779  22.836  1.00  0.00     0.010 A 
ATOM     69  C   UNL A   1      30.114  30.434  23.788  1.00  0.00     0.010 A 
ATOM     70  C   UNL A   1      27.565  29.663  22.946  1.00  0.00     0.039 A 
ATOM     71  C   UNL A   1      29.036  31.315  23.907  1.00  0.00     0.039 A 
ATOM     72  C   UNL A   1      27.769  30.915  23.504  1.00  0.00     0.123 A 
ATOM     73  F   UNL A   1      26.734  31.750  23.655  1.00  0.00    -0.207 F 
ENDBRANCH  65  67
BRANCH  65  74
ATOM     74  O   UNL A   1      31.550  28.012  21.971  1.00  0.00    -0.382 OA
ATOM     75  H   UNL A   1      31.918  27.130  21.803  1.00  0.00     0.212 HD
ENDBRANCH  65  74
BRANCH  66  76
ATOM     76  C   UNL A   1      31.224  25.358  23.358  1.00  0.00    -0.016 A 
ATOM     77  C   UNL A   1      32.328  25.238  22.502  1.00  0.00     0.009 A 
ATOM     78  C   UNL A   1      30.637  24.171  23.850  1.00  0.00     0.009 A 
ATOM     79  C   UNL A   1      32.843  23.980  22.172  1.00  0.00     0.039 A 
ATOM     80  C   UNL A   1      31.139  22.917  23.508  1.00  0.00     0.039 A 
ATOM     81  C   UNL A   1      32.246  22.833  22.679  1.00  0.00     0.123 A 
ATOM     82  F   UNL A   1      32.753  21.633  22.373  1.00  0.00    -0.207 F 
ENDBRANCH  66  76
ENDBRANCH  60  62
ENDBRANCH  59  60
ENDBRANCH  58  59
ENDBRANCH  57  58
ENDBRANCH  56  57
ENDBRANCH   1  56
TORSDOF 17
ENDMDL
MODEL 2
REMARK VINA RESULT:     -11.2      4.388      9.709
REMARK SMILES O=C(OCCOCCOC(=O)[C@H]1C[C@](O)(c2ccc(F)cc2)[C@@H](c2ccc(F)cc2)O1)c1ccc(-c2c3nc(c(-c4ccccc4)c4ccc([nH]4)c(-c4ccccc4)c4nc(c(-c5ccccc5)c5ccc2[nH]5)C=C4)C=C3)cc1
REMARK SMILES IDX 5 1 4 2 3 3 2 4 1 5 32 6 33 7 79 8 34 9 78 10 35 11 36 12
REMARK SMILES IDX 37 13 72 14 38 15 77 16 71 17 73 18 39 19 76 20 70 21 69 22
REMARK SMILES IDX 40 24 62 25 47 26 61 27 48 28 51 29 60 30 74 31 49 32 50 33
REMARK SMILES IDX 59 35 75 36 52 37 41 38 42 39 46 40 43 41 45 42 44 43 63 44
REMARK SMILES IDX 64 45 68 46 65 47 67 48 66 49 53 50 54 51 58 52 55 53 57 54
REMARK SMILES IDX 56 55 6 56 7 57 8 58 9 59 10 60 11 61 12 62 13 63 31 64
REMARK SMILES IDX 14 65 23 66 16 67 17 68 22 69 18 70 21 71 19 72 20 73 15 74
REMARK SMILES IDX 24 76 25 77 30 78 26 79 29 80 27 81 28 82
REMARK H PARENT 73 23 51 34 15 75
REMARK Flexibility Score: inf
ROOT
ATOM      1  C   UNL A   1      38.270  20.773  25.817  1.00  0.00     0.202 C 
ENDROOT
BRANCH   1   2
ATOM      2  C   UNL A   1      38.974  19.632  25.052  1.00  0.00     0.261 C 
BRANCH   2   3
ATOM      3  O   UNL A   1      40.064  19.033  25.775  1.00  0.00    -0.460 OA
BRANCH   3   4
ATOM      4  C   UNL A   1      41.349  19.474  25.837  1.00  0.00     0.338 C 
ATOM      5  O   UNL A   1      42.250  18.728  25.463  1.00  0.00    -0.246 OA
BRANCH   4   6
ATOM      6  C   UNL A   1      41.730  20.777  26.472  1.00  0.00     0.060 A 
ATOM      7  C   UNL A   1      42.132  21.901  25.761  1.00  0.00     0.016 A 
ATOM      8  C   UNL A   1      41.588  20.915  27.867  1.00  0.00     0.016 A 
ATOM      9  C   UNL A   1      42.312  23.126  26.354  1.00  0.00     0.010 A 
ATOM     10  C   UNL A   1      41.808  22.149  28.497  1.00  0.00     0.010 A 
ATOM     11  C   UNL A   1      42.155  23.257  27.723  1.00  0.00    -0.014 A 
BRANCH  11  12
ATOM     12  C   UNL A   1      42.573  24.566  28.232  1.00  0.00     0.031 A 
ATOM     13  C   UNL A   1      44.028  24.899  28.123  1.00  0.00     0.074 A 
ATOM     14  C   UNL A   1      41.630  25.508  28.413  1.00  0.00     0.049 A 
ATOM     15  N   UNL A   1      44.630  26.039  28.316  1.00  0.00    -0.248 NA
ATOM     16  C   UNL A   1      44.916  23.810  27.674  1.00  0.00     0.031 C 
ATOM     17  C   UNL A   1      40.183  25.289  28.286  1.00  0.00     0.029 A 
ATOM     18  N   UNL A   1      41.742  26.848  28.653  1.00  0.00    -0.354 N 
ATOM     19  C   UNL A   1      45.964  25.804  28.014  1.00  0.00     0.074 A 
ATOM     20  C   UNL A   1      46.090  24.419  27.629  1.00  0.00     0.031 C 
ATOM     21  C   UNL A   1      39.547  26.462  28.440  1.00  0.00     0.029 A 
ATOM     22  C   UNL A   1      40.532  27.494  28.732  1.00  0.00     0.049 A 
ATOM     23  H   UNL A   1      42.606  27.307  28.759  1.00  0.00     0.167 HD
ATOM     24  C   UNL A   1      46.993  26.679  28.067  1.00  0.00     0.031 A 
ATOM     25  C   UNL A   1      40.268  28.775  29.045  1.00  0.00     0.031 A 
ATOM     26  C   UNL A   1      46.832  28.036  28.502  1.00  0.00     0.049 A 
ATOM     27  C   UNL A   1      41.447  29.677  29.293  1.00  0.00     0.074 A 
ATOM     28  C   UNL A   1      47.798  28.989  28.757  1.00  0.00     0.029 A 
ATOM     29  N   UNL A   1      45.599  28.628  28.756  1.00  0.00    -0.354 N 
ATOM     30  N   UNL A   1      42.727  29.426  29.132  1.00  0.00    -0.248 NA
ATOM     31  C   UNL A   1      41.152  31.031  29.771  1.00  0.00     0.031 C 
ATOM     32  C   UNL A   1      47.151  30.140  29.219  1.00  0.00     0.029 A 
ATOM     33  C   UNL A   1      45.779  29.928  29.184  1.00  0.00     0.049 A 
ATOM     34  H   UNL A   1      44.727  28.185  28.645  1.00  0.00     0.167 HD
ATOM     35  C   UNL A   1      43.390  30.593  29.476  1.00  0.00     0.074 A 
ATOM     36  C   UNL A   1      42.366  31.562  29.819  1.00  0.00     0.031 C 
ATOM     37  C   UNL A   1      44.721  30.849  29.517  1.00  0.00     0.031 A 
BRANCH  24  38
ATOM     38  C   UNL A   1      48.356  26.136  27.760  1.00  0.00    -0.014 A 
ATOM     39  C   UNL A   1      49.150  25.529  28.747  1.00  0.00     0.009 A 
ATOM     40  C   UNL A   1      48.883  26.296  26.469  1.00  0.00     0.009 A 
ATOM     41  C   UNL A   1      50.457  25.128  28.455  1.00  0.00     0.001 A 
ATOM     42  C   UNL A   1      50.179  25.871  26.173  1.00  0.00     0.001 A 
ATOM     43  C   UNL A   1      50.969  25.299  27.168  1.00  0.00     0.000 A 
ENDBRANCH  24  38
BRANCH  25  44
ATOM     44  C   UNL A   1      38.869  29.240  29.254  1.00  0.00    -0.014 A 
ATOM     45  C   UNL A   1      38.211  29.083  30.484  1.00  0.00     0.009 A 
ATOM     46  C   UNL A   1      38.150  29.795  28.179  1.00  0.00     0.009 A 
ATOM     47  C   UNL A   1      36.861  29.430  30.617  1.00  0.00     0.001 A 
ATOM     48  C   UNL A   1      36.815  30.175  28.324  1.00  0.00     0.001 A 
ATOM     49  C   UNL A   1      36.166  29.975  29.539  1.00  0.00     0.000 A 
ENDBRANCH  25  44
BRANCH  37  50
ATOM     50  C   UNL A   1      45.124  32.239  29.914  1.00  0.00    -0.014 A 
ATOM     51  C   UNL A   1      45.467  32.548  31.239  1.00  0.00     0.009 A 
ATOM     52  C   UNL A   1      45.193  33.242  28.936  1.00  0.00     0.009 A 
ATOM     53  C   UNL A   1      45.833  33.850  31.583  1.00  0.00     0.001 A 
ATOM     54  C   UNL A   1      45.595  34.531  29.276  1.00  0.00     0.001 A 
ATOM     55  C   UNL A   1      45.902  34.838  30.601  1.00  0.00     0.000 A 
ENDBRANCH  37  50
ENDBRANCH  11  12
ENDBRANCH   4   6
ENDBRANCH   3   4
ENDBRANCH   2   3
ENDBRANCH   1   2
BRANCH   1  56
ATOM     56  O   UNL A   1      38.317  22.087  25.260  1.00  0.00    -0.374 OA
BRANCH  56  57
ATOM     57  C   UNL A   1      38.529  23.181  26.154  1.00  0.00     0.202 C 
BRANCH  57  58
ATOM     58  C   UNL A   1      37.281  24.061  26.233  1.00  0.00     0.261 C 
BRANCH  58  59
ATOM     59  O   UNL A   1      36.402  23.699  25.160  1.00  0.00    -0.461 OA
BRANCH  59  60
ATOM     60  C   UNL A   1      35.100  23.450  25.453  1.00  0.00     0.335 C 
ATOM     61  O   UNL A   1      34.315  24.253  25.927  1.00  0.00    -0.249 OA
BRANCH  60  62
ATOM     62  C   UNL A   1      34.718  22.041  24.958  1.00  0.00     0.232 C 
ATOM     63  C   UNL A   1      33.646  21.434  25.861  1.00  0.00     0.087 C 
ATOM     64  O   UNL A   1      34.231  22.004  23.614  1.00  0.00    -0.355 OA
ATOM     65  C   UNL A   1      32.550  20.944  24.936  1.00  0.00     0.123 C 
ATOM     66  C   UNL A   1      32.802  21.772  23.644  1.00  0.00     0.186 C 
BRANCH  65  67
ATOM     67  C   UNL A   1      32.630  19.418  24.777  1.00  0.00    -0.013 A 
ATOM     68  C   UNL A   1      32.665  18.859  23.478  1.00  0.00     0.010 A 
ATOM     69  C   UNL A   1      32.716  18.538  25.869  1.00  0.00     0.010 A 
ATOM     70  C   UNL A   1      32.882  17.494  23.284  1.00  0.00     0.039 A 
ATOM     71  C   UNL A   1      32.942  17.174  25.674  1.00  0.00     0.039 A 
ATOM     72  C   UNL A   1      33.042  16.668  24.386  1.00  0.00     0.123 A 
ATOM     73  F   UNL A   1      33.295  15.366  24.205  1.00  0.00    -0.207 F 
ENDBRANCH  65  67
BRANCH  65  74
ATOM     74  O   UNL A   1      31.279  21.223  25.534  1.00  0.00    -0.382 OA
ATOM     75  H   UNL A   1      31.141  20.631  26.291  1.00  0.00     0.212 HD
ENDBRANCH  65  74
BRANCH  66  76
ATOM     76  C   UNL A   1      32.135  23.107  23.345  1.00  0.00    -0.016 A 
ATOM     77  C   UNL A   1      30.913  23.540  23.879  1.00  0.00     0.009 A 
ATOM     78  C   UNL A   1      32.842  23.996  22.506  1.00  0.00     0.009 A 
ATOM     79  C   UNL A   1      30.429  24.824  23.607  1.00  0.00     0.039 A 
ATOM     80  C   UNL A   1      32.352  25.270  22.220  1.00  0.00     0.039 A 
ATOM     81  C   UNL A   1      31.153  25.676  22.783  1.00  0.00     0.123 A 
ATOM     82  F   UNL A   1      30.693  26.909  22.539  1.00  0.00    -0.207 F 
ENDBRANCH  66  76
ENDBRANCH  60  62
ENDBRANCH  59  60
ENDBRANCH  58  59
ENDBRANCH  57  58
ENDBRANCH  56  57
ENDBRANCH   1  56
TORSDOF 17
ENDMDL
MODEL 3
REMARK VINA RESULT:     -10.9      4.239      8.994
REMARK SMILES O=C(OCCOCCOC(=O)[C@H]1C[C@](O)(c2ccc(F)cc2)[C@@H](c2ccc(F)cc2)O1)c1ccc(-c2c3nc(c(-c4ccccc4)c4ccc([nH]4)c(-c4ccccc4)c4nc(c(-c5ccccc5)c5ccc2[nH]5)C=C4)C=C3)cc1
REMARK SMILES IDX 5 1 4 2 3 3 2 4 1 5 32 6 33 7 79 8 34 9 78 10 35 11 36 12
REMARK SMILES IDX 37 13 72 14 38 15 77 16 71 17 73 18 39 19 76 20 70 21 69 22
REMARK SMILES IDX 40 24 62 25 47 26 61 27 48 28 51 29 60 30 74 31 49 32 50 33
REMARK SMILES IDX 59 35 75 36 52 37 41 38 42 39 46 40 43 41 45 42 44 43 63 44
REMARK SMILES IDX 64 45 68 46 65 47 67 48 66 49 53 50 54 51 58 52 55 53 57 54
REMARK SMILES IDX 56 55 6 56 7 57 8 58 9 59 10 60 11 61 12 62 13 63 31 64
REMARK SMILES IDX 14 65 23 66 16 67 17 68 22 69 18 70 21 71 19 72 20 73 15 74
REMARK SMILES IDX 24 76 25 77 30 78 26 79 29 80 27 81 28 82
REMARK H PARENT 73 23 51 34 15 75
REMARK Flexibility Score: inf
ROOT
ATOM      1  C   UNL A   1      37.817  19.642  24.616  1.00  0.00     0.202 C 
ENDROOT
BRANCH   1   2
ATOM      2  C   UNL A   1      38.858  19.902  25.726  1.00  0.00     0.261 C 
BRANCH   2   3
ATOM      3  O   UNL A   1      40.028  19.071  25.631  1.00  0.00    -0.460 OA
BRANCH   3   4
ATOM      4  C   UNL A   1      41.316  19.435  25.876  1.00  0.00     0.338 C 
ATOM      5  O   UNL A   1      42.208  18.611  25.695  1.00  0.00    -0.246 OA
BRANCH   4   6
ATOM      6  C   UNL A   1      41.683  20.751  26.492  1.00  0.00     0.060 A 
ATOM      7  C   UNL A   1      41.945  21.905  25.762  1.00  0.00     0.016 A 
ATOM      8  C   UNL A   1      41.676  20.864  27.896  1.00  0.00     0.016 A 
ATOM      9  C   UNL A   1      42.114  23.131  26.354  1.00  0.00     0.010 A 
ATOM     10  C   UNL A   1      41.887  22.103  28.521  1.00  0.00     0.010 A 
ATOM     11  C   UNL A   1      42.090  23.237  27.734  1.00  0.00    -0.014 A 
BRANCH  11  12
ATOM     12  C   UNL A   1      42.481  24.563  28.221  1.00  0.00     0.031 A 
ATOM     13  C   UNL A   1      43.930  24.922  28.111  1.00  0.00     0.074 A 
ATOM     14  C   UNL A   1      41.520  25.491  28.380  1.00  0.00     0.049 A 
ATOM     15  N   UNL A   1      44.510  26.076  28.285  1.00  0.00    -0.248 NA
ATOM     16  C   UNL A   1      44.840  23.841  27.687  1.00  0.00     0.031 C 
ATOM     17  C   UNL A   1      40.077  25.242  28.252  1.00  0.00     0.029 A 
ATOM     18  N   UNL A   1      41.606  26.837  28.596  1.00  0.00    -0.354 N 
ATOM     19  C   UNL A   1      45.849  25.860  27.993  1.00  0.00     0.074 A 
ATOM     20  C   UNL A   1      46.002  24.470  27.634  1.00  0.00     0.031 C 
ATOM     21  C   UNL A   1      39.419  26.406  28.381  1.00  0.00     0.029 A 
ATOM     22  C   UNL A   1      40.384  27.461  28.658  1.00  0.00     0.049 A 
ATOM     23  H   UNL A   1      42.461  27.314  28.697  1.00  0.00     0.167 HD
ATOM     24  C   UNL A   1      46.862  26.755  28.034  1.00  0.00     0.031 A 
ATOM     25  C   UNL A   1      40.095  28.743  28.946  1.00  0.00     0.031 A 
ATOM     26  C   UNL A   1      46.673  28.117  28.443  1.00  0.00     0.049 A 
ATOM     27  C   UNL A   1      41.256  29.672  29.182  1.00  0.00     0.074 A 
ATOM     28  C   UNL A   1      47.621  29.092  28.684  1.00  0.00     0.029 A 
ATOM     29  N   UNL A   1      45.429  28.690  28.681  1.00  0.00    -0.354 N 
ATOM     30  N   UNL A   1      42.541  29.442  29.031  1.00  0.00    -0.248 NA
ATOM     31  C   UNL A   1      40.934  31.029  29.634  1.00  0.00     0.031 C 
ATOM     32  C   UNL A   1      46.951  30.239  29.122  1.00  0.00     0.029 A 
ATOM     33  C   UNL A   1      45.583  30.001  29.085  1.00  0.00     0.049 A 
ATOM     34  H   UNL A   1      44.566  28.229  28.575  1.00  0.00     0.167 HD
ATOM     35  C   UNL A   1      43.181  30.627  29.356  1.00  0.00     0.074 A 
ATOM     36  C   UNL A   1      42.137  31.583  29.676  1.00  0.00     0.031 C 
ATOM     37  C   UNL A   1      44.507  30.908  29.397  1.00  0.00     0.031 A 
BRANCH  24  38
ATOM     38  C   UNL A   1      48.236  26.232  27.742  1.00  0.00    -0.014 A 
ATOM     39  C   UNL A   1      48.813  26.340  26.466  1.00  0.00     0.009 A 
ATOM     40  C   UNL A   1      48.942  25.556  28.751  1.00  0.00     0.009 A 
ATOM     41  C   UNL A   1      50.052  25.750  26.198  1.00  0.00     0.001 A 
ATOM     42  C   UNL A   1      50.189  24.991  28.487  1.00  0.00     0.001 A 
ATOM     43  C   UNL A   1      50.738  25.078  27.209  1.00  0.00     0.000 A 
ENDBRANCH  24  38
BRANCH  25  44
ATOM     44  C   UNL A   1      38.686  29.186  29.141  1.00  0.00    -0.014 A 
ATOM     45  C   UNL A   1      38.029  29.046  30.373  1.00  0.00     0.009 A 
ATOM     46  C   UNL A   1      37.960  29.700  28.051  1.00  0.00     0.009 A 
ATOM     47  C   UNL A   1      36.672  29.370  30.495  1.00  0.00     0.001 A 
ATOM     48  C   UNL A   1      36.617  30.057  28.184  1.00  0.00     0.001 A 
ATOM     49  C   UNL A   1      35.969  29.875  29.403  1.00  0.00     0.000 A 
ENDBRANCH  25  44
BRANCH  37  50
ATOM     50  C   UNL A   1      44.882  32.313  29.770  1.00  0.00    -0.014 A 
ATOM     51  C   UNL A   1      45.154  32.666  31.100  1.00  0.00     0.009 A 
ATOM     52  C   UNL A   1      44.997  33.284  28.765  1.00  0.00     0.009 A 
ATOM     53  C   UNL A   1      45.496  33.980  31.421  1.00  0.00     0.001 A 
ATOM     54  C   UNL A   1      45.375  34.586  29.084  1.00  0.00     0.001 A 
ATOM     55  C   UNL A   1      45.611  34.936  30.412  1.00  0.00     0.000 A 
ENDBRANCH  37  50
ENDBRANCH  11  12
ENDBRANCH   4   6
ENDBRANCH   3   4
ENDBRANCH   2   3
ENDBRANCH   1   2
BRANCH   1  56
ATOM     56  O   UNL A   1      36.507  19.227  25.004  1.00  0.00    -0.374 OA
BRANCH  56  57
ATOM     57  C   UNL A   1      35.507  20.237  25.156  1.00  0.00     0.202 C 
BRANCH  57  58
ATOM     58  C   UNL A   1      34.155  19.736  24.650  1.00  0.00     0.261 C 
BRANCH  58  59
ATOM     59  O   UNL A   1      33.464  20.832  24.035  1.00  0.00    -0.461 OA
BRANCH  59  60
ATOM     60  C   UNL A   1      32.276  21.218  24.564  1.00  0.00     0.335 C 
ATOM     61  O   UNL A   1      31.714  20.689  25.507  1.00  0.00    -0.249 OA
BRANCH  60  62
ATOM     62  C   UNL A   1      31.809  22.523  23.889  1.00  0.00     0.232 C 
ATOM     63  C   UNL A   1      31.431  23.561  24.945  1.00  0.00     0.087 C 
ATOM     64  O   UNL A   1      32.782  23.115  23.022  1.00  0.00    -0.355 OA
ATOM     65  C   UNL A   1      32.169  24.830  24.567  1.00  0.00     0.123 C 
ATOM     66  C   UNL A   1      33.319  24.297  23.666  1.00  0.00     0.186 C 
BRANCH  65  67
ATOM     67  C   UNL A   1      31.208  25.828  23.903  1.00  0.00    -0.013 A 
ATOM     68  C   UNL A   1      29.861  25.879  24.329  1.00  0.00     0.010 A 
ATOM     69  C   UNL A   1      31.615  26.736  22.910  1.00  0.00     0.010 A 
ATOM     70  C   UNL A   1      28.991  26.863  23.857  1.00  0.00     0.039 A 
ATOM     71  C   UNL A   1      30.747  27.726  22.447  1.00  0.00     0.039 A 
ATOM     72  C   UNL A   1      29.450  27.793  22.937  1.00  0.00     0.123 A 
ATOM     73  F   UNL A   1      28.634  28.767  22.517  1.00  0.00    -0.207 F 
ENDBRANCH  65  67
BRANCH  65  74
ATOM     74  O   UNL A   1      32.648  25.461  25.760  1.00  0.00    -0.382 OA
ATOM     75  H   UNL A   1      32.702  24.805  26.473  1.00  0.00     0.212 HD
ENDBRANCH  65  74
BRANCH  66  76
ATOM     76  C   UNL A   1      34.701  23.924  24.181  1.00  0.00    -0.016 A 
ATOM     77  C   UNL A   1      35.741  23.396  23.402  1.00  0.00     0.009 A 
ATOM     78  C   UNL A   1      34.965  24.189  25.543  1.00  0.00     0.009 A 
ATOM     79  C   UNL A   1      37.005  23.168  23.956  1.00  0.00     0.039 A 
ATOM     80  C   UNL A   1      36.219  23.946  26.101  1.00  0.00     0.039 A 
ATOM     81  C   UNL A   1      37.232  23.446  25.298  1.00  0.00     0.123 A 
ATOM     82  F   UNL A   1      38.448  23.242  25.819  1.00  0.00    -0.207 F 
ENDBRANCH  66  76
ENDBRANCH  60  62
ENDBRANCH  59  60
ENDBRANCH  58  59
ENDBRANCH  57  58
ENDBRANCH  56  57
ENDBRANCH   1  56
TORSDOF 17
ENDMDL
