MODEL 1
REMARK VINA RESULT:     -10.0      0.000      0.000
REMARK SMILES CN(c1ccccc1C(=O)OCCOCCOC(=O)c1ccc(-c2c3nc(c(-c4ccccc4)c4ccc([nH]4)c(-c4ccccc4)c4nc(c(-c5ccccc5)c5ccc2[nH]5)C=C4)C=C3)cc1)S(=O)(=O)c1ccc(I)cc1
REMARK SMILES IDX 13 1 12 2 11 3 9 4 10 5 8 6 3 7 4 8 5 9 7 10 6 11 2 12 1 13
REMARK SMILES IDX 68 14 69 15 70 16 71 17 72 18 77 19 73 20 76 21 74 22 75 23
REMARK SMILES IDX 14 24 15 25 16 26 17 27 18 28 19 29 20 30 21 31 67 32 22 33
REMARK SMILES IDX 66 34 23 35 24 36 25 37 60 38 26 39 65 40 59 41 61 42 27 43
REMARK SMILES IDX 64 44 58 45 57 46 28 48 50 49 35 50 49 51 36 52 39 53 48 54
REMARK SMILES IDX 62 55 37 56 38 57 47 59 63 60 40 61 29 62 30 63 34 64 31 65
REMARK SMILES IDX 33 66 32 67 51 68 52 69 56 70 53 71 55 72 54 73 41 74 42 75
REMARK SMILES IDX 46 76 43 77 45 78 44 79
REMARK H PARENT 61 47 39 58
REMARK Flexibility Score: inf
ROOT
ATOM      1  C   UNL A   1      37.916  23.267  25.930  1.00  0.00     0.202 C 
ENDROOT
BRANCH   1   2
ATOM      2  C   UNL A   1      36.852  23.264  24.831  1.00  0.00     0.261 C 
BRANCH   2   3
ATOM      3  O   UNL A   1      35.547  23.547  25.368  1.00  0.00    -0.460 OA
BRANCH   3   4
ATOM      4  C   UNL A   1      34.609  22.631  25.050  1.00  0.00     0.340 C 
ATOM      5  O   UNL A   1      34.805  21.503  24.623  1.00  0.00    -0.246 OA
BRANCH   4   6
ATOM      6  C   UNL A   1      33.259  23.072  25.439  1.00  0.00     0.084 A 
ATOM      7  C   UNL A   1      32.178  23.250  24.564  1.00  0.00     0.066 A 
ATOM      8  C   UNL A   1      30.895  23.342  25.136  1.00  0.00     0.028 A 
ATOM      9  C   UNL A   1      30.692  23.366  26.517  1.00  0.00     0.002 A 
ATOM     10  C   UNL A   1      33.052  23.088  26.837  1.00  0.00     0.018 A 
ATOM     11  C   UNL A   1      31.778  23.264  27.373  1.00  0.00     0.001 A 
BRANCH   7  12
ATOM     12  N   UNL A   1      32.211  23.403  23.121  1.00  0.00    -0.269 N 
ATOM     13  C   UNL A   1      32.497  22.208  22.292  1.00  0.00     0.164 C 
BRANCH  12  14
ATOM     14  S   UNL A   1      33.003  24.807  22.494  1.00  0.00     0.264 S 
ATOM     15  O   UNL A   1      34.414  24.525  22.394  1.00  0.00    -0.201 OA
ATOM     16  O   UNL A   1      32.260  25.227  21.316  1.00  0.00    -0.201 OA
BRANCH  14  17
ATOM     17  C   UNL A   1      32.807  26.098  23.709  1.00  0.00     0.088 A 
ATOM     18  C   UNL A   1      33.870  26.450  24.549  1.00  0.00     0.023 A 
ATOM     19  C   UNL A   1      31.560  26.724  23.840  1.00  0.00     0.023 A 
ATOM     20  C   UNL A   1      33.699  27.480  25.481  1.00  0.00     0.016 A 
ATOM     21  C   UNL A   1      31.393  27.749  24.773  1.00  0.00     0.016 A 
ATOM     22  C   UNL A   1      32.465  28.129  25.583  1.00  0.00     0.013 A 
ATOM     23  I   UNL A   1      32.218  29.676  26.950  1.00  0.00    -0.044 I 
ENDBRANCH  14  17
ENDBRANCH  12  14
ENDBRANCH   7  12
ENDBRANCH   4   6
ENDBRANCH   3   4
ENDBRANCH   2   3
ENDBRANCH   1   2
BRANCH   1  24
ATOM     24  O   UNL A   1      38.721  22.093  26.029  1.00  0.00    -0.374 OA
BRANCH  24  25
ATOM     25  C   UNL A   1      38.338  20.959  25.254  1.00  0.00     0.202 C 
BRANCH  25  26
ATOM     26  C   UNL A   1      39.159  19.676  25.440  1.00  0.00     0.261 C 
BRANCH  26  27
ATOM     27  O   UNL A   1      40.133  19.772  26.491  1.00  0.00    -0.460 OA
BRANCH  27  28
ATOM     28  C   UNL A   1      41.417  19.891  26.079  1.00  0.00     0.338 C 
ATOM     29  O   UNL A   1      42.012  19.164  25.299  1.00  0.00    -0.246 OA
BRANCH  28  30
ATOM     30  C   UNL A   1      42.012  21.145  26.580  1.00  0.00     0.060 A 
ATOM     31  C   UNL A   1      41.973  21.377  27.960  1.00  0.00     0.016 A 
ATOM     32  C   UNL A   1      42.485  22.129  25.710  1.00  0.00     0.016 A 
ATOM     33  C   UNL A   1      42.363  22.614  28.473  1.00  0.00     0.010 A 
ATOM     34  C   UNL A   1      42.867  23.374  26.225  1.00  0.00     0.010 A 
ATOM     35  C   UNL A   1      42.772  23.634  27.604  1.00  0.00    -0.014 A 
BRANCH  35  36
ATOM     36  C   UNL A   1      42.968  25.007  28.133  1.00  0.00     0.031 A 
ATOM     37  C   UNL A   1      44.352  25.459  28.511  1.00  0.00     0.074 A 
ATOM     38  C   UNL A   1      41.932  25.857  28.238  1.00  0.00     0.049 A 
ATOM     39  N   UNL A   1      44.747  26.617  28.978  1.00  0.00    -0.248 NA
ATOM     40  C   UNL A   1      45.435  24.478  28.338  1.00  0.00     0.031 C 
ATOM     41  C   UNL A   1      40.549  25.556  27.871  1.00  0.00     0.029 A 
ATOM     42  N   UNL A   1      41.889  27.154  28.686  1.00  0.00    -0.354 N 
ATOM     43  C   UNL A   1      46.120  26.503  29.157  1.00  0.00     0.074 A 
ATOM     44  C   UNL A   1      46.486  25.156  28.777  1.00  0.00     0.031 C 
ATOM     45  C   UNL A   1      39.791  26.640  28.109  1.00  0.00     0.029 A 
ATOM     46  C   UNL A   1      40.629  27.697  28.672  1.00  0.00     0.049 A 
ATOM     47  H   UNL A   1      42.685  27.647  28.989  1.00  0.00     0.167 HD
ATOM     48  C   UNL A   1      47.000  27.436  29.593  1.00  0.00     0.031 A 
ATOM     49  C   UNL A   1      40.197  28.905  29.080  1.00  0.00     0.031 A 
ATOM     50  C   UNL A   1      46.641  28.772  29.990  1.00  0.00     0.049 A 
ATOM     51  C   UNL A   1      41.182  29.899  29.632  1.00  0.00     0.074 A 
ATOM     52  C   UNL A   1      47.465  29.793  30.431  1.00  0.00     0.029 A 
ATOM     53  N   UNL A   1      45.347  29.268  30.004  1.00  0.00    -0.354 N 
ATOM     54  N   UNL A   1      42.482  29.790  29.766  1.00  0.00    -0.248 NA
ATOM     55  C   UNL A   1      40.638  31.189  30.082  1.00  0.00     0.031 C 
ATOM     56  C   UNL A   1      46.662  30.891  30.762  1.00  0.00     0.029 A 
ATOM     57  C   UNL A   1      45.345  30.571  30.473  1.00  0.00     0.049 A 
ATOM     58  H   UNL A   1      44.546  28.768  29.723  1.00  0.00     0.167 HD
ATOM     59  C   UNL A   1      42.913  31.002  30.290  1.00  0.00     0.074 A 
ATOM     60  C   UNL A   1      41.739  31.838  30.435  1.00  0.00     0.031 C 
ATOM     61  C   UNL A   1      44.170  31.390  30.618  1.00  0.00     0.031 A 
BRANCH  48  62
ATOM     62  C   UNL A   1      48.442  27.028  29.696  1.00  0.00    -0.014 A 
ATOM     63  C   UNL A   1      49.318  27.163  28.606  1.00  0.00     0.009 A 
ATOM     64  C   UNL A   1      48.941  26.528  30.910  1.00  0.00     0.009 A 
ATOM     65  C   UNL A   1      50.654  26.772  28.720  1.00  0.00     0.001 A 
ATOM     66  C   UNL A   1      50.283  26.164  31.028  1.00  0.00     0.001 A 
ATOM     67  C   UNL A   1      51.137  26.277  29.931  1.00  0.00     0.000 A 
ENDBRANCH  48  62
BRANCH  49  68
ATOM     68  C   UNL A   1      38.752  29.244  28.996  1.00  0.00    -0.014 A 
ATOM     69  C   UNL A   1      37.910  29.066  30.104  1.00  0.00     0.009 A 
ATOM     70  C   UNL A   1      38.207  29.733  27.799  1.00  0.00     0.009 A 
ATOM     71  C   UNL A   1      36.545  29.350  30.007  1.00  0.00     0.001 A 
ATOM     72  C   UNL A   1      36.848  30.041  27.713  1.00  0.00     0.001 A 
ATOM     73  C   UNL A   1      36.016  29.840  28.813  1.00  0.00     0.000 A 
ENDBRANCH  49  68
BRANCH  61  74
ATOM     74  C   UNL A   1      44.343  32.790  31.138  1.00  0.00    -0.014 A 
ATOM     75  C   UNL A   1      44.552  33.871  30.269  1.00  0.00     0.009 A 
ATOM     76  C   UNL A   1      44.264  33.032  32.519  1.00  0.00     0.009 A 
ATOM     77  C   UNL A   1      44.713  35.163  30.776  1.00  0.00     0.001 A 
ATOM     78  C   UNL A   1      44.397  34.327  33.021  1.00  0.00     0.001 A 
ATOM     79  C   UNL A   1      44.632  35.391  32.150  1.00  0.00     0.000 A 
ENDBRANCH  61  74
ENDBRANCH  35  36
ENDBRANCH  28  30
ENDBRANCH  27  28
ENDBRANCH  26  27
ENDBRANCH  25  26
ENDBRANCH  24  25
ENDBRANCH   1  24
TORSDOF 17
ENDMDL
MODEL 2
REMARK VINA RESULT:      -9.8      3.121      7.998
REMARK SMILES CN(c1ccccc1C(=O)OCCOCCOC(=O)c1ccc(-c2c3nc(c(-c4ccccc4)c4ccc([nH]4)c(-c4ccccc4)c4nc(c(-c5ccccc5)c5ccc2[nH]5)C=C4)C=C3)cc1)S(=O)(=O)c1ccc(I)cc1
REMARK SMILES IDX 13 1 12 2 11 3 9 4 10 5 8 6 3 7 4 8 5 9 7 10 6 11 2 12 1 13
REMARK SMILES IDX 68 14 69 15 70 16 71 17 72 18 77 19 73 20 76 21 74 22 75 23
REMARK SMILES IDX 14 24 15 25 16 26 17 27 18 28 19 29 20 30 21 31 67 32 22 33
REMARK SMILES IDX 66 34 23 35 24 36 25 37 60 38 26 39 65 40 59 41 61 42 27 43
REMARK SMILES IDX 64 44 58 45 57 46 28 48 50 49 35 50 49 51 36 52 39 53 48 54
REMARK SMILES IDX 62 55 37 56 38 57 47 59 63 60 40 61 29 62 30 63 34 64 31 65
REMARK SMILES IDX 33 66 32 67 51 68 52 69 56 70 53 71 55 72 54 73 41 74 42 75
REMARK SMILES IDX 46 76 43 77 45 78 44 79
REMARK H PARENT 61 47 39 58
REMARK Flexibility Score: inf
ROOT
ATOM      1  C   UNL A   1      33.588  28.161  25.859  1.00  0.00     0.202 C 
ENDROOT
BRANCH   1   2
ATOM      2  C   UNL A   1      32.613  27.055  26.266  1.00  0.00     0.261 C 
BRANCH   2   3
ATOM      3  O   UNL A   1      33.227  25.757  26.166  1.00  0.00    -0.460 OA
BRANCH   3   4
ATOM      4  C   UNL A   1      32.375  24.728  26.358  1.00  0.00     0.340 C 
ATOM      5  O   UNL A   1      31.171  24.803  26.552  1.00  0.00    -0.246 OA
BRANCH   4   6
ATOM      6  C   UNL A   1      33.030  23.428  26.137  1.00  0.00     0.084 A 
ATOM      7  C   UNL A   1      33.249  22.830  24.887  1.00  0.00     0.066 A 
ATOM      8  C   UNL A   1      34.176  21.771  24.833  1.00  0.00     0.028 A 
ATOM      9  C   UNL A   1      34.782  21.250  25.977  1.00  0.00     0.002 A 
ATOM     10  C   UNL A   1      33.652  22.905  27.293  1.00  0.00     0.018 A 
ATOM     11  C   UNL A   1      34.500  21.802  27.217  1.00  0.00     0.001 A 
BRANCH   7  12
ATOM     12  N   UNL A   1      32.599  23.132  23.624  1.00  0.00    -0.269 N 
ATOM     13  C   UNL A   1      32.068  22.006  22.818  1.00  0.00     0.164 C 
BRANCH  12  14
ATOM     14  S   UNL A   1      33.343  24.329  22.621  1.00  0.00     0.264 S 
ATOM     15  O   UNL A   1      34.623  24.667  23.192  1.00  0.00    -0.201 OA
ATOM     16  O   UNL A   1      33.263  23.846  21.251  1.00  0.00    -0.201 OA
BRANCH  14  17
ATOM     17  C   UNL A   1      32.320  25.787  22.710  1.00  0.00     0.088 A 
ATOM     18  C   UNL A   1      32.858  27.049  22.432  1.00  0.00     0.023 A 
ATOM     19  C   UNL A   1      30.982  25.656  23.106  1.00  0.00     0.023 A 
ATOM     20  C   UNL A   1      32.032  28.177  22.489  1.00  0.00     0.016 A 
ATOM     21  C   UNL A   1      30.163  26.785  23.164  1.00  0.00     0.016 A 
ATOM     22  C   UNL A   1      30.688  28.039  22.846  1.00  0.00     0.013 A 
ATOM     23  I   UNL A   1      29.454  29.710  22.906  1.00  0.00    -0.044 I 
ENDBRANCH  14  17
ENDBRANCH  12  14
ENDBRANCH   7  12
ENDBRANCH   4   6
ENDBRANCH   3   4
ENDBRANCH   2   3
ENDBRANCH   1   2
BRANCH   1  24
ATOM     24  O   UNL A   1      33.076  29.493  25.891  1.00  0.00    -0.374 OA
BRANCH  24  25
ATOM     25  C   UNL A   1      32.700  30.029  27.158  1.00  0.00     0.202 C 
BRANCH  25  26
ATOM     26  C   UNL A   1      32.063  31.425  27.165  1.00  0.00     0.261 C 
BRANCH  26  27
ATOM     27  O   UNL A   1      32.997  32.477  26.877  1.00  0.00    -0.460 OA
BRANCH  27  28
ATOM     28  C   UNL A   1      33.138  33.408  27.849  1.00  0.00     0.338 C 
ATOM     29  O   UNL A   1      32.312  34.234  28.205  1.00  0.00    -0.246 OA
BRANCH  28  30
ATOM     30  C   UNL A   1      34.406  33.213  28.579  1.00  0.00     0.060 A 
ATOM     31  C   UNL A   1      35.593  33.560  27.923  1.00  0.00     0.016 A 
ATOM     32  C   UNL A   1      34.443  32.589  29.827  1.00  0.00     0.016 A 
ATOM     33  C   UNL A   1      36.826  33.241  28.492  1.00  0.00     0.010 A 
ATOM     34  C   UNL A   1      35.681  32.260  30.393  1.00  0.00     0.010 A 
ATOM     35  C   UNL A   1      36.876  32.551  29.710  1.00  0.00    -0.014 A 
BRANCH  35  36
ATOM     36  C   UNL A   1      38.175  32.021  30.194  1.00  0.00     0.031 A 
ATOM     37  C   UNL A   1      38.677  30.706  29.664  1.00  0.00     0.074 A 
ATOM     38  C   UNL A   1      38.921  32.722  31.067  1.00  0.00     0.049 A 
ATOM     39  N   UNL A   1      39.788  30.070  29.941  1.00  0.00    -0.248 NA
ATOM     40  C   UNL A   1      37.816  30.018  28.690  1.00  0.00     0.031 C 
ATOM     41  C   UNL A   1      38.566  34.024  31.628  1.00  0.00     0.029 A 
ATOM     42  N   UNL A   1      40.136  32.429  31.631  1.00  0.00    -0.354 N 
ATOM     43  C   UNL A   1      39.757  28.907  29.181  1.00  0.00     0.074 A 
ATOM     44  C   UNL A   1      38.507  28.911  28.453  1.00  0.00     0.031 C 
ATOM     45  C   UNL A   1      39.546  34.419  32.459  1.00  0.00     0.029 A 
ATOM     46  C   UNL A   1      40.578  33.386  32.510  1.00  0.00     0.049 A 
ATOM     47  H   UNL A   1      40.644  31.610  31.426  1.00  0.00     0.167 HD
ATOM     48  C   UNL A   1      40.687  27.926  29.090  1.00  0.00     0.031 A 
ATOM     49  C   UNL A   1      41.682  33.419  33.280  1.00  0.00     0.031 A 
ATOM     50  C   UNL A   1      41.924  27.907  29.825  1.00  0.00     0.049 A 
ATOM     51  C   UNL A   1      42.664  32.281  33.219  1.00  0.00     0.074 A 
ATOM     52  C   UNL A   1      42.936  26.964  29.788  1.00  0.00     0.029 A 
ATOM     53  N   UNL A   1      42.312  28.874  30.739  1.00  0.00    -0.354 N 
ATOM     54  N   UNL A   1      42.639  31.204  32.472  1.00  0.00    -0.248 NA
ATOM     55  C   UNL A   1      43.835  32.371  34.105  1.00  0.00     0.031 C 
ATOM     56  C   UNL A   1      43.913  27.333  30.719  1.00  0.00     0.029 A 
ATOM     57  C   UNL A   1      43.535  28.536  31.294  1.00  0.00     0.049 A 
ATOM     58  H   UNL A   1      41.795  29.682  30.962  1.00  0.00     0.167 HD
ATOM     59  C   UNL A   1      43.798  30.501  32.778  1.00  0.00     0.074 A 
ATOM     60  C   UNL A   1      44.513  31.282  33.766  1.00  0.00     0.031 C 
ATOM     61  C   UNL A   1      44.233  29.317  32.281  1.00  0.00     0.031 A 
BRANCH  48  62
ATOM     62  C   UNL A   1      40.381  26.769  28.183  1.00  0.00    -0.014 A 
ATOM     63  C   UNL A   1      40.877  26.721  26.869  1.00  0.00     0.009 A 
ATOM     64  C   UNL A   1      39.610  25.696  28.657  1.00  0.00     0.009 A 
ATOM     65  C   UNL A   1      40.576  25.639  26.039  1.00  0.00     0.001 A 
ATOM     66  C   UNL A   1      39.334  24.603  27.834  1.00  0.00     0.001 A 
ATOM     67  C   UNL A   1      39.809  24.579  26.523  1.00  0.00     0.000 A 
ENDBRANCH  48  62
BRANCH  49  68
ATOM     68  C   UNL A   1      41.916  34.568  34.193  1.00  0.00    -0.014 A 
ATOM     69  C   UNL A   1      42.600  35.709  33.745  1.00  0.00     0.009 A 
ATOM     70  C   UNL A   1      41.470  34.521  35.522  1.00  0.00     0.009 A 
ATOM     71  C   UNL A   1      42.851  36.770  34.619  1.00  0.00     0.001 A 
ATOM     72  C   UNL A   1      41.699  35.594  36.386  1.00  0.00     0.001 A 
ATOM     73  C   UNL A   1      42.397  36.714  35.936  1.00  0.00     0.000 A 
ENDBRANCH  49  68
BRANCH  61  74
ATOM     74  C   UNL A   1      45.558  28.810  32.778  1.00  0.00    -0.014 A 
ATOM     75  C   UNL A   1      45.651  28.018  33.932  1.00  0.00     0.009 A 
ATOM     76  C   UNL A   1      46.728  29.104  32.059  1.00  0.00     0.009 A 
ATOM     77  C   UNL A   1      46.894  27.560  34.376  1.00  0.00     0.001 A 
ATOM     78  C   UNL A   1      47.965  28.622  32.489  1.00  0.00     0.001 A 
ATOM     79  C   UNL A   1      48.049  27.858  33.652  1.00  0.00     0.000 A 
ENDBRANCH  61  74
ENDBRANCH  35  36
ENDBRANCH  28  30
ENDBRANCH  27  28
ENDBRANCH  26  27
ENDBRANCH  25  26
ENDBRANCH  24  25
ENDBRANCH   1  24
TORSDOF 17
ENDMDL
MODEL 3
REMARK VINA RESULT:      -9.7      3.167      4.430
REMARK SMILES CN(c1ccccc1C(=O)OCCOCCOC(=O)c1ccc(-c2c3nc(c(-c4ccccc4)c4ccc([nH]4)c(-c4ccccc4)c4nc(c(-c5ccccc5)c5ccc2[nH]5)C=C4)C=C3)cc1)S(=O)(=O)c1ccc(I)cc1
REMARK SMILES IDX 13 1 12 2 11 3 9 4 10 5 8 6 3 7 4 8 5 9 7 10 6 11 2 12 1 13
REMARK SMILES IDX 68 14 69 15 70 16 71 17 72 18 77 19 73 20 76 21 74 22 75 23
REMARK SMILES IDX 14 24 15 25 16 26 17 27 18 28 19 29 20 30 21 31 67 32 22 33
REMARK SMILES IDX 66 34 23 35 24 36 25 37 60 38 26 39 65 40 59 41 61 42 27 43
REMARK SMILES IDX 64 44 58 45 57 46 28 48 50 49 35 50 49 51 36 52 39 53 48 54
REMARK SMILES IDX 62 55 37 56 38 57 47 59 63 60 40 61 29 62 30 63 34 64 31 65
REMARK SMILES IDX 33 66 32 67 51 68 52 69 56 70 53 71 55 72 54 73 41 74 42 75
REMARK SMILES IDX 46 76 43 77 45 78 44 79
REMARK H PARENT 61 47 39 58
REMARK Flexibility Score: inf
ROOT
ATOM      1  C   UNL A   1      38.655  21.118  25.915  1.00  0.00     0.202 C 
ENDROOT
BRANCH   1   2
ATOM      2  C   UNL A   1      37.594  21.205  24.817  1.00  0.00     0.261 C 
BRANCH   2   3
ATOM      3  O   UNL A   1      36.548  20.239  25.026  1.00  0.00    -0.460 OA
BRANCH   3   4
ATOM      4  C   UNL A   1      35.399  20.764  25.501  1.00  0.00     0.340 C 
ATOM      5  O   UNL A   1      35.292  21.691  26.290  1.00  0.00    -0.246 OA
BRANCH   4   6
ATOM      6  C   UNL A   1      34.219  20.200  24.824  1.00  0.00     0.084 A 
ATOM      7  C   UNL A   1      33.202  20.945  24.211  1.00  0.00     0.066 A 
ATOM      8  C   UNL A   1      32.343  20.260  23.330  1.00  0.00     0.028 A 
ATOM      9  C   UNL A   1      32.414  18.878  23.142  1.00  0.00     0.002 A 
ATOM     10  C   UNL A   1      34.296  18.803  24.626  1.00  0.00     0.018 A 
ATOM     11  C   UNL A   1      33.379  18.142  23.812  1.00  0.00     0.001 A 
BRANCH   7  12
ATOM     12  N   UNL A   1      32.878  22.347  24.403  1.00  0.00    -0.269 N 
ATOM     13  C   UNL A   1      31.479  22.709  24.732  1.00  0.00     0.164 C 
BRANCH  12  14
ATOM     14  S   UNL A   1      33.576  23.476  23.294  1.00  0.00     0.264 S 
ATOM     15  O   UNL A   1      35.009  23.307  23.317  1.00  0.00    -0.201 OA
ATOM     16  O   UNL A   1      32.849  23.349  22.041  1.00  0.00    -0.201 OA
BRANCH  14  17
ATOM     17  C   UNL A   1      33.225  25.107  23.925  1.00  0.00     0.088 A 
ATOM     18  C   UNL A   1      32.290  25.929  23.287  1.00  0.00     0.023 A 
ATOM     19  C   UNL A   1      33.932  25.569  25.044  1.00  0.00     0.023 A 
ATOM     20  C   UNL A   1      32.017  27.197  23.812  1.00  0.00     0.016 A 
ATOM     21  C   UNL A   1      33.657  26.836  25.563  1.00  0.00     0.016 A 
ATOM     22  C   UNL A   1      32.695  27.641  24.951  1.00  0.00     0.013 A 
ATOM     23  I   UNL A   1      32.270  29.514  25.746  1.00  0.00    -0.044 I 
ENDBRANCH  14  17
ENDBRANCH  12  14
ENDBRANCH   7  12
ENDBRANCH   4   6
ENDBRANCH   3   4
ENDBRANCH   2   3
ENDBRANCH   1   2
BRANCH   1  24
ATOM     24  O   UNL A   1      39.766  20.263  25.650  1.00  0.00    -0.374 OA
BRANCH  24  25
ATOM     25  C   UNL A   1      40.825  20.237  26.606  1.00  0.00     0.202 C 
BRANCH  25  26
ATOM     26  C   UNL A   1      41.969  21.240  26.409  1.00  0.00     0.261 C 
BRANCH  26  27
ATOM     27  O   UNL A   1      41.558  22.451  25.754  1.00  0.00    -0.460 OA
BRANCH  27  28
ATOM     28  C   UNL A   1      42.456  23.462  25.792  1.00  0.00     0.338 C 
ATOM     29  O   UNL A   1      43.516  23.532  25.190  1.00  0.00    -0.246 OA
BRANCH  28  30
ATOM     30  C   UNL A   1      41.924  24.604  26.562  1.00  0.00     0.060 A 
ATOM     31  C   UNL A   1      42.602  25.825  26.465  1.00  0.00     0.016 A 
ATOM     32  C   UNL A   1      40.863  24.454  27.455  1.00  0.00     0.016 A 
ATOM     33  C   UNL A   1      42.252  26.888  27.297  1.00  0.00     0.010 A 
ATOM     34  C   UNL A   1      40.518  25.518  28.297  1.00  0.00     0.010 A 
ATOM     35  C   UNL A   1      41.235  26.727  28.247  1.00  0.00    -0.014 A 
BRANCH  35  36
ATOM     36  C   UNL A   1      41.022  27.779  29.271  1.00  0.00     0.031 A 
ATOM     37  C   UNL A   1      41.943  27.848  30.459  1.00  0.00     0.074 A 
ATOM     38  C   UNL A   1      40.043  28.690  29.127  1.00  0.00     0.049 A 
ATOM     39  N   UNL A   1      41.943  28.692  31.460  1.00  0.00    -0.248 NA
ATOM     40  C   UNL A   1      43.005  26.833  30.527  1.00  0.00     0.031 C 
ATOM     41  C   UNL A   1      39.108  28.757  28.005  1.00  0.00     0.029 A 
ATOM     42  N   UNL A   1      39.679  29.737  29.935  1.00  0.00    -0.354 N 
ATOM     43  C   UNL A   1      42.999  28.309  32.277  1.00  0.00     0.074 A 
ATOM     44  C   UNL A   1      43.601  27.141  31.671  1.00  0.00     0.031 C 
ATOM     45  C   UNL A   1      38.274  29.793  28.198  1.00  0.00     0.029 A 
ATOM     46  C   UNL A   1      38.598  30.441  29.467  1.00  0.00     0.049 A 
ATOM     47  H   UNL A   1      40.147  29.962  30.772  1.00  0.00     0.167 HD
ATOM     48  C   UNL A   1      43.436  28.880  33.425  1.00  0.00     0.031 A 
ATOM     49  C   UNL A   1      37.936  31.482  30.006  1.00  0.00     0.031 A 
ATOM     50  C   UNL A   1      42.832  30.031  34.043  1.00  0.00     0.049 A 
ATOM     51  C   UNL A   1      38.393  32.052  31.321  1.00  0.00     0.074 A 
ATOM     52  C   UNL A   1      43.214  30.691  35.199  1.00  0.00     0.029 A 
ATOM     53  N   UNL A   1      41.711  30.687  33.560  1.00  0.00    -0.354 N 
ATOM     54  N   UNL A   1      39.413  31.701  32.066  1.00  0.00    -0.248 NA
ATOM     55  C   UNL A   1      37.609  33.172  31.865  1.00  0.00     0.031 C 
ATOM     56  C   UNL A   1      42.291  31.714  35.443  1.00  0.00     0.029 A 
ATOM     57  C   UNL A   1      41.369  31.726  34.408  1.00  0.00     0.049 A 
ATOM     58  H   UNL A   1      41.228  30.449  32.735  1.00  0.00     0.167 HD
ATOM     59  C   UNL A   1      39.409  32.569  33.151  1.00  0.00     0.074 A 
ATOM     60  C   UNL A   1      38.294  33.474  32.959  1.00  0.00     0.031 C 
ATOM     61  C   UNL A   1      40.255  32.616  34.209  1.00  0.00     0.031 A 
BRANCH  48  62
ATOM     62  C   UNL A   1      44.612  28.241  34.108  1.00  0.00    -0.014 A 
ATOM     63  C   UNL A   1      45.915  28.732  33.928  1.00  0.00     0.009 A 
ATOM     64  C   UNL A   1      44.410  27.151  34.969  1.00  0.00     0.009 A 
ATOM     65  C   UNL A   1      46.996  28.120  34.568  1.00  0.00     0.001 A 
ATOM     66  C   UNL A   1      45.488  26.558  35.628  1.00  0.00     0.001 A 
ATOM     67  C   UNL A   1      46.782  27.037  35.420  1.00  0.00     0.000 A 
ENDBRANCH  48  62
BRANCH  49  68
ATOM     68  C   UNL A   1      36.752  32.050  29.310  1.00  0.00    -0.014 A 
ATOM     69  C   UNL A   1      36.843  33.274  28.630  1.00  0.00     0.009 A 
ATOM     70  C   UNL A   1      35.522  31.376  29.337  1.00  0.00     0.009 A 
ATOM     71  C   UNL A   1      35.717  33.822  28.009  1.00  0.00     0.001 A 
ATOM     72  C   UNL A   1      34.405  31.913  28.694  1.00  0.00     0.001 A 
ATOM     73  C   UNL A   1      34.501  33.140  28.038  1.00  0.00     0.000 A 
ENDBRANCH  49  68
BRANCH  61  74
ATOM     74  C   UNL A   1      40.025  33.700  35.226  1.00  0.00    -0.014 A 
ATOM     75  C   UNL A   1      39.275  33.464  36.388  1.00  0.00     0.009 A 
ATOM     76  C   UNL A   1      40.596  34.967  35.030  1.00  0.00     0.009 A 
ATOM     77  C   UNL A   1      39.072  34.488  37.316  1.00  0.00     0.001 A 
ATOM     78  C   UNL A   1      40.415  35.980  35.973  1.00  0.00     0.001 A 
ATOM     79  C   UNL A   1      39.645  35.743  37.111  1.00  0.00     0.000 A 
ENDBRANCH  61  74
ENDBRANCH  35  36
ENDBRANCH  28  30
ENDBRANCH  27  28
ENDBRANCH  26  27
ENDBRANCH  25  26
ENDBRANCH  24  25
ENDBRANCH   1  24
TORSDOF 17
ENDMDL
