MODEL 1
REMARK VINA RESULT:     -10.9      0.000      0.000
REMARK SMILES C[C@@H]1CN(C(=O)N2CCC(CC(=O)OCCOCCOC(=O)c3ccc(-c4c5nc(c(-c6ccccc6)c6ccc([nH]6)c(-c6ccccc6)c6nc(c(-c7ccccc7)c7ccc4[nH]7)C=C6)C=C5)cc3)CC2)C[C@@H](C)S1
REMARK SMILES IDX 18 1 17 2 16 3 15 4 14 5 12 6 13 7 11 8 10 9 1 10 2 11 3 12
REMARK SMILES IDX 76 13 4 14 74 15 5 16 73 17 75 18 6 19 7 20 8 21 72 22 9 23
REMARK SMILES IDX 71 24 19 25 20 26 21 27 22 28 23 29 24 30 70 31 25 32 69 33
REMARK SMILES IDX 26 34 27 35 28 36 63 37 29 38 68 39 62 40 64 41 30 42 67 43
REMARK SMILES IDX 61 44 60 45 31 47 53 48 38 49 52 50 39 51 42 52 51 53 65 54
REMARK SMILES IDX 40 55 41 56 50 58 66 59 43 60 32 61 33 62 37 63 34 64 36 65
REMARK SMILES IDX 35 66 54 67 55 68 59 69 56 70 58 71 57 72 44 73 45 74 49 75
REMARK SMILES IDX 46 76 48 77 47 78
REMARK H PARENT 64 46 42 57
REMARK Flexibility Score: inf
ROOT
ATOM      1  C   UNL A   1      43.164  21.083  25.853  1.00  0.00     0.202 C 
ENDROOT
BRANCH   1   2
ATOM      2  O   UNL A   1      41.752  21.092  25.655  1.00  0.00    -0.374 OA
BRANCH   2   3
ATOM      3  C   UNL A   1      40.935  21.077  26.826  1.00  0.00     0.202 C 
BRANCH   3   4
ATOM      4  C   UNL A   1      39.710  21.993  26.790  1.00  0.00     0.261 C 
BRANCH   4   5
ATOM      5  O   UNL A   1      39.108  21.994  25.480  1.00  0.00    -0.463 OA
BRANCH   5   6
ATOM      6  C   UNL A   1      37.865  21.460  25.389  1.00  0.00     0.306 C 
ATOM      7  O   UNL A   1      37.613  20.332  24.984  1.00  0.00    -0.252 OA
BRANCH   6   8
ATOM      8  C   UNL A   1      36.783  22.443  25.778  1.00  0.00     0.126 C 
BRANCH   8   9
ATOM      9  C   UNL A   1      35.319  21.949  25.853  1.00  0.00     0.003 C 
ATOM     10  C   UNL A   1      33.844  26.269  23.882  1.00  0.00     0.021 C 
ATOM     11  C   UNL A   1      33.060  26.802  25.086  1.00  0.00     0.063 C 
ATOM     12  C   UNL A   1      32.446  25.692  25.955  1.00  0.00     0.135 C 
ATOM     13  S   UNL A   1      31.776  27.994  24.567  1.00  0.00    -0.152 SA
ATOM     14  N   UNL A   1      31.426  24.899  25.268  1.00  0.00    -0.322 N 
ATOM     15  C   UNL A   1      30.561  26.798  23.865  1.00  0.00     0.063 C 
ATOM     16  C   UNL A   1      31.632  23.653  24.703  1.00  0.00     0.320 C 
ATOM     17  C   UNL A   1      30.241  25.664  24.859  1.00  0.00     0.135 C 
ATOM     18  C   UNL A   1      29.303  27.576  23.493  1.00  0.00     0.021 C 
ATOM     19  O   UNL A   1      30.974  23.290  23.725  1.00  0.00    -0.248 OA
ATOM     20  N   UNL A   1      32.629  22.847  25.218  1.00  0.00    -0.325 N 
ATOM     21  C   UNL A   1      33.228  21.838  24.360  1.00  0.00     0.121 C 
ATOM     22  C   UNL A   1      32.962  22.677  26.627  1.00  0.00     0.121 C 
ATOM     23  C   UNL A   1      34.743  21.987  24.417  1.00  0.00     0.026 C 
ATOM     24  C   UNL A   1      34.475  22.779  26.846  1.00  0.00     0.026 C 
ENDBRANCH   8   9
ENDBRANCH   6   8
ENDBRANCH   5   6
ENDBRANCH   4   5
ENDBRANCH   3   4
ENDBRANCH   2   3
ENDBRANCH   1   2
BRANCH   1  25
ATOM     25  C   UNL A   1      43.987  21.861  24.819  1.00  0.00     0.261 C 
BRANCH  25  26
ATOM     26  O   UNL A   1      43.446  23.175  24.583  1.00  0.00    -0.460 OA
BRANCH  26  27
ATOM     27  C   UNL A   1      44.231  24.194  25.009  1.00  0.00     0.338 C 
ATOM     28  O   UNL A   1      45.341  24.499  24.594  1.00  0.00    -0.246 OA
BRANCH  27  29
ATOM     29  C   UNL A   1      43.488  25.043  25.958  1.00  0.00     0.060 A 
ATOM     30  C   UNL A   1      43.901  26.375  26.088  1.00  0.00     0.016 A 
ATOM     31  C   UNL A   1      42.454  24.542  26.750  1.00  0.00     0.016 A 
ATOM     32  C   UNL A   1      43.310  27.201  27.041  1.00  0.00     0.010 A 
ATOM     33  C   UNL A   1      41.866  25.372  27.714  1.00  0.00     0.010 A 
ATOM     34  C   UNL A   1      42.311  26.696  27.883  1.00  0.00    -0.014 A 
BRANCH  34  35
ATOM     35  C   UNL A   1      41.819  27.521  29.013  1.00  0.00     0.031 A 
ATOM     36  C   UNL A   1      42.529  27.457  30.338  1.00  0.00     0.074 A 
ATOM     37  C   UNL A   1      40.765  28.342  28.855  1.00  0.00     0.049 A 
ATOM     38  N   UNL A   1      42.248  28.075  31.458  1.00  0.00    -0.248 NA
ATOM     39  C   UNL A   1      43.710  26.582  30.411  1.00  0.00     0.031 C 
ATOM     40  C   UNL A   1      40.016  28.529  27.614  1.00  0.00     0.029 A 
ATOM     41  N   UNL A   1      40.140  29.169  29.756  1.00  0.00    -0.354 N 
ATOM     42  C   UNL A   1      43.209  27.658  32.370  1.00  0.00     0.074 A 
ATOM     43  C   UNL A   1      44.068  26.718  31.681  1.00  0.00     0.031 C 
ATOM     44  C   UNL A   1      39.022  29.407  27.834  1.00  0.00     0.029 A 
ATOM     45  C   UNL A   1      39.046  29.818  29.237  1.00  0.00     0.049 A 
ATOM     46  H   UNL A   1      40.446  29.286  30.684  1.00  0.00     0.167 HD
ATOM     47  C   UNL A   1      43.365  28.025  33.664  1.00  0.00     0.031 A 
ATOM     48  C   UNL A   1      38.150  30.630  29.831  1.00  0.00     0.031 A 
ATOM     49  C   UNL A   1      42.514  28.956  34.354  1.00  0.00     0.049 A 
ATOM     50  C   UNL A   1      38.304  30.964  31.292  1.00  0.00     0.074 A 
ATOM     51  C   UNL A   1      42.617  29.415  35.657  1.00  0.00     0.029 A 
ATOM     52  N   UNL A   1      41.395  29.560  33.805  1.00  0.00    -0.354 N 
ATOM     53  N   UNL A   1      39.241  30.594  32.130  1.00  0.00    -0.248 NA
ATOM     54  C   UNL A   1      37.275  31.831  31.885  1.00  0.00     0.031 C 
ATOM     55  C   UNL A   1      41.527  30.253  35.912  1.00  0.00     0.029 A 
ATOM     56  C   UNL A   1      40.778  30.359  34.752  1.00  0.00     0.049 A 
ATOM     57  H   UNL A   1      41.086  29.440  32.878  1.00  0.00     0.167 HD
ATOM     58  C   UNL A   1      38.928  31.200  33.340  1.00  0.00     0.074 A 
ATOM     59  C   UNL A   1      37.724  31.975  33.123  1.00  0.00     0.031 C 
ATOM     60  C   UNL A   1      39.578  31.121  34.526  1.00  0.00     0.031 A 
BRANCH  47  61
ATOM     61  C   UNL A   1      44.486  27.390  34.437  1.00  0.00    -0.014 A 
ATOM     62  C   UNL A   1      44.322  26.152  35.077  1.00  0.00     0.009 A 
ATOM     63  C   UNL A   1      45.741  28.017  34.477  1.00  0.00     0.009 A 
ATOM     64  C   UNL A   1      45.388  25.566  35.761  1.00  0.00     0.001 A 
ATOM     65  C   UNL A   1      46.812  27.417  35.142  1.00  0.00     0.001 A 
ATOM     66  C   UNL A   1      46.632  26.195  35.788  1.00  0.00     0.000 A 
ENDBRANCH  47  61
BRANCH  48  67
ATOM     67  C   UNL A   1      36.996  31.157  29.058  1.00  0.00    -0.014 A 
ATOM     68  C   UNL A   1      36.946  32.504  28.665  1.00  0.00     0.009 A 
ATOM     69  C   UNL A   1      35.919  30.316  28.735  1.00  0.00     0.009 A 
ATOM     70  C   UNL A   1      35.830  33.001  27.990  1.00  0.00     0.001 A 
ATOM     71  C   UNL A   1      34.817  30.810  28.035  1.00  0.00     0.001 A 
ATOM     72  C   UNL A   1      34.768  32.154  27.672  1.00  0.00     0.000 A 
ENDBRANCH  48  67
BRANCH  60  73
ATOM     73  C   UNL A   1      39.019  31.910  35.676  1.00  0.00    -0.014 A 
ATOM     74  C   UNL A   1      38.163  31.316  36.617  1.00  0.00     0.009 A 
ATOM     75  C   UNL A   1      39.394  33.251  35.849  1.00  0.00     0.009 A 
ATOM     76  C   UNL A   1      37.670  32.060  37.690  1.00  0.00     0.001 A 
ATOM     77  C   UNL A   1      38.922  33.985  36.938  1.00  0.00     0.001 A 
ATOM     78  C   UNL A   1      38.054  33.391  37.854  1.00  0.00     0.000 A 
ENDBRANCH  60  73
ENDBRANCH  34  35
ENDBRANCH  27  29
ENDBRANCH  26  27
ENDBRANCH  25  26
ENDBRANCH   1  25
TORSDOF 15
ENDMDL
MODEL 2
REMARK VINA RESULT:     -10.8      3.945      9.020
REMARK SMILES C[C@@H]1CN(C(=O)N2CCC(CC(=O)OCCOCCOC(=O)c3ccc(-c4c5nc(c(-c6ccccc6)c6ccc([nH]6)c(-c6ccccc6)c6nc(c(-c7ccccc7)c7ccc4[nH]7)C=C6)C=C5)cc3)CC2)C[C@@H](C)S1
REMARK SMILES IDX 18 1 17 2 16 3 15 4 14 5 12 6 13 7 11 8 10 9 1 10 2 11 3 12
REMARK SMILES IDX 76 13 4 14 74 15 5 16 73 17 75 18 6 19 7 20 8 21 72 22 9 23
REMARK SMILES IDX 71 24 19 25 20 26 21 27 22 28 23 29 24 30 70 31 25 32 69 33
REMARK SMILES IDX 26 34 27 35 28 36 63 37 29 38 68 39 62 40 64 41 30 42 67 43
REMARK SMILES IDX 61 44 60 45 31 47 53 48 38 49 52 50 39 51 42 52 51 53 65 54
REMARK SMILES IDX 40 55 41 56 50 58 66 59 43 60 32 61 33 62 37 63 34 64 36 65
REMARK SMILES IDX 35 66 54 67 55 68 59 69 56 70 58 71 57 72 44 73 45 74 49 75
REMARK SMILES IDX 46 76 48 77 47 78
REMARK H PARENT 64 46 42 57
REMARK Flexibility Score: inf
ROOT
ATOM      1  C   UNL A   1      33.517  34.829  28.813  1.00  0.00     0.202 C 
ENDROOT
BRANCH   1   2
ATOM      2  O   UNL A   1      34.559  34.041  29.385  1.00  0.00    -0.374 OA
BRANCH   2   3
ATOM      3  C   UNL A   1      34.526  32.638  29.124  1.00  0.00     0.202 C 
BRANCH   3   4
ATOM      4  C   UNL A   1      33.875  32.226  27.801  1.00  0.00     0.261 C 
BRANCH   4   5
ATOM      5  O   UNL A   1      33.745  30.793  27.719  1.00  0.00    -0.463 OA
BRANCH   5   6
ATOM      6  C   UNL A   1      32.830  30.322  26.835  1.00  0.00     0.306 C 
ATOM      7  O   UNL A   1      31.798  30.900  26.518  1.00  0.00    -0.252 OA
BRANCH   6   8
ATOM      8  C   UNL A   1      33.181  28.944  26.319  1.00  0.00     0.126 C 
BRANCH   8   9
ATOM      9  C   UNL A   1      32.597  28.485  24.962  1.00  0.00     0.003 C 
ATOM     10  C   UNL A   1      33.189  23.761  26.392  1.00  0.00     0.021 C 
ATOM     11  C   UNL A   1      34.243  23.350  25.359  1.00  0.00     0.063 C 
ATOM     12  C   UNL A   1      34.131  24.121  24.033  1.00  0.00     0.135 C 
ATOM     13  S   UNL A   1      34.212  21.548  25.058  1.00  0.00    -0.152 SA
ATOM     14  N   UNL A   1      32.889  23.864  23.302  1.00  0.00    -0.322 N 
ATOM     15  C   UNL A   1      32.678  21.468  24.038  1.00  0.00     0.063 C 
ATOM     16  C   UNL A   1      31.781  24.692  23.300  1.00  0.00     0.320 C 
ATOM     17  C   UNL A   1      32.722  22.471  22.867  1.00  0.00     0.135 C 
ATOM     18  C   UNL A   1      32.529  20.037  23.530  1.00  0.00     0.021 C 
ATOM     19  O   UNL A   1      30.648  24.225  23.156  1.00  0.00    -0.248 OA
ATOM     20  N   UNL A   1      31.962  26.044  23.519  1.00  0.00    -0.325 N 
ATOM     21  C   UNL A   1      30.857  26.821  24.058  1.00  0.00     0.121 C 
ATOM     22  C   UNL A   1      33.044  26.868  22.996  1.00  0.00     0.121 C 
ATOM     23  C   UNL A   1      31.357  27.608  25.262  1.00  0.00     0.026 C 
ATOM     24  C   UNL A   1      33.643  27.747  24.098  1.00  0.00     0.026 C 
ENDBRANCH   8   9
ENDBRANCH   6   8
ENDBRANCH   5   6
ENDBRANCH   4   5
ENDBRANCH   3   4
ENDBRANCH   2   3
ENDBRANCH   1   2
BRANCH   1  25
ATOM     25  C   UNL A   1      32.902  35.889  29.733  1.00  0.00     0.261 C 
BRANCH  25  26
ATOM     26  O   UNL A   1      32.319  35.303  30.913  1.00  0.00    -0.460 OA
BRANCH  26  27
ATOM     27  C   UNL A   1      32.741  35.844  32.081  1.00  0.00     0.338 C 
ATOM     28  O   UNL A   1      32.203  36.737  32.722  1.00  0.00    -0.246 OA
BRANCH  27  29
ATOM     29  C   UNL A   1      33.887  35.080  32.609  1.00  0.00     0.060 A 
ATOM     30  C   UNL A   1      35.154  35.668  32.504  1.00  0.00     0.016 A 
ATOM     31  C   UNL A   1      33.743  33.796  33.136  1.00  0.00     0.016 A 
ATOM     32  C   UNL A   1      36.288  34.957  32.888  1.00  0.00     0.010 A 
ATOM     33  C   UNL A   1      34.886  33.079  33.513  1.00  0.00     0.010 A 
ATOM     34  C   UNL A   1      36.166  33.646  33.365  1.00  0.00    -0.014 A 
BRANCH  34  35
ATOM     35  C   UNL A   1      37.385  32.833  33.595  1.00  0.00     0.031 A 
ATOM     36  C   UNL A   1      38.188  33.045  34.849  1.00  0.00     0.074 A 
ATOM     37  C   UNL A   1      37.759  31.893  32.708  1.00  0.00     0.049 A 
ATOM     38  N   UNL A   1      39.296  32.459  35.230  1.00  0.00    -0.248 NA
ATOM     39  C   UNL A   1      37.678  34.048  35.797  1.00  0.00     0.031 C 
ATOM     40  C   UNL A   1      37.047  31.559  31.476  1.00  0.00     0.029 A 
ATOM     41  N   UNL A   1      38.844  31.051  32.710  1.00  0.00    -0.354 N 
ATOM     42  C   UNL A   1      39.619  33.029  36.456  1.00  0.00     0.074 A 
ATOM     43  C   UNL A   1      38.605  34.020  36.745  1.00  0.00     0.031 C 
ATOM     44  C   UNL A   1      37.721  30.589  30.833  1.00  0.00     0.029 A 
ATOM     45  C   UNL A   1      38.926  30.259  31.592  1.00  0.00     0.049 A 
ATOM     46  H   UNL A   1      39.500  31.018  33.444  1.00  0.00     0.167 HD
ATOM     47  C   UNL A   1      40.665  32.749  37.270  1.00  0.00     0.031 A 
ATOM     48  C   UNL A   1      39.878  29.385  31.209  1.00  0.00     0.031 A 
ATOM     49  C   UNL A   1      41.677  31.768  36.986  1.00  0.00     0.049 A 
ATOM     50  C   UNL A   1      41.070  29.148  32.098  1.00  0.00     0.074 A 
ATOM     51  C   UNL A   1      42.756  31.393  37.770  1.00  0.00     0.029 A 
ATOM     52  N   UNL A   1      41.745  31.016  35.825  1.00  0.00    -0.354 N 
ATOM     53  N   UNL A   1      41.341  29.663  33.272  1.00  0.00    -0.248 NA
ATOM     54  C   UNL A   1      42.086  28.205  31.606  1.00  0.00     0.031 C 
ATOM     55  C   UNL A   1      43.509  30.454  37.057  1.00  0.00     0.029 A 
ATOM     56  C   UNL A   1      42.867  30.205  35.855  1.00  0.00     0.049 A 
ATOM     57  H   UNL A   1      41.092  31.051  35.090  1.00  0.00     0.167 HD
ATOM     58  C   UNL A   1      42.543  29.091  33.669  1.00  0.00     0.074 A 
ATOM     59  C   UNL A   1      42.941  28.177  32.619  1.00  0.00     0.031 C 
ATOM     60  C   UNL A   1      43.255  29.304  34.802  1.00  0.00     0.031 A 
BRANCH  47  61
ATOM     61  C   UNL A   1      40.791  33.545  38.538  1.00  0.00    -0.014 A 
ATOM     62  C   UNL A   1      40.245  33.085  39.745  1.00  0.00     0.009 A 
ATOM     63  C   UNL A   1      41.518  34.746  38.532  1.00  0.00     0.009 A 
ATOM     64  C   UNL A   1      40.404  33.826  40.918  1.00  0.00     0.001 A 
ATOM     65  C   UNL A   1      41.696  35.472  39.711  1.00  0.00     0.001 A 
ATOM     66  C   UNL A   1      41.133  35.014  40.901  1.00  0.00     0.000 A 
ENDBRANCH  47  61
BRANCH  48  67
ATOM     67  C   UNL A   1      39.770  28.693  29.898  1.00  0.00    -0.014 A 
ATOM     68  C   UNL A   1      39.286  27.378  29.815  1.00  0.00     0.009 A 
ATOM     69  C   UNL A   1      40.181  29.340  28.723  1.00  0.00     0.009 A 
ATOM     70  C   UNL A   1      39.243  26.718  28.585  1.00  0.00     0.001 A 
ATOM     71  C   UNL A   1      40.111  28.687  27.491  1.00  0.00     0.001 A 
ATOM     72  C   UNL A   1      39.652  27.374  27.424  1.00  0.00     0.000 A 
ENDBRANCH  48  67
BRANCH  60  73
ATOM     73  C   UNL A   1      44.525  28.520  34.980  1.00  0.00    -0.014 A 
ATOM     74  C   UNL A   1      45.761  29.034  34.559  1.00  0.00     0.009 A 
ATOM     75  C   UNL A   1      44.490  27.272  35.621  1.00  0.00     0.009 A 
ATOM     76  C   UNL A   1      46.933  28.300  34.751  1.00  0.00     0.001 A 
ATOM     77  C   UNL A   1      45.666  26.552  35.837  1.00  0.00     0.001 A 
ATOM     78  C   UNL A   1      46.885  27.063  35.395  1.00  0.00     0.000 A 
ENDBRANCH  60  73
ENDBRANCH  34  35
ENDBRANCH  27  29
ENDBRANCH  26  27
ENDBRANCH  25  26
ENDBRANCH   1  25
TORSDOF 15
ENDMDL
MODEL 3
REMARK VINA RESULT:     -10.7      4.505      9.624
REMARK SMILES C[C@@H]1CN(C(=O)N2CCC(CC(=O)OCCOCCOC(=O)c3ccc(-c4c5nc(c(-c6ccccc6)c6ccc([nH]6)c(-c6ccccc6)c6nc(c(-c7ccccc7)c7ccc4[nH]7)C=C6)C=C5)cc3)CC2)C[C@@H](C)S1
REMARK SMILES IDX 18 1 17 2 16 3 15 4 14 5 12 6 13 7 11 8 10 9 1 10 2 11 3 12
REMARK SMILES IDX 76 13 4 14 74 15 5 16 73 17 75 18 6 19 7 20 8 21 72 22 9 23
REMARK SMILES IDX 71 24 19 25 20 26 21 27 22 28 23 29 24 30 70 31 25 32 69 33
REMARK SMILES IDX 26 34 27 35 28 36 63 37 29 38 68 39 62 40 64 41 30 42 67 43
REMARK SMILES IDX 61 44 60 45 31 47 53 48 38 49 52 50 39 51 42 52 51 53 65 54
REMARK SMILES IDX 40 55 41 56 50 58 66 59 43 60 32 61 33 62 37 63 34 64 36 65
REMARK SMILES IDX 35 66 54 67 55 68 59 69 56 70 58 71 57 72 44 73 45 74 49 75
REMARK SMILES IDX 46 76 48 77 47 78
REMARK H PARENT 64 46 42 57
REMARK Flexibility Score: inf
ROOT
ATOM      1  C   UNL A   1      34.115  34.082  29.852  1.00  0.00     0.202 C 
ENDROOT
BRANCH   1   2
ATOM      2  O   UNL A   1      35.056  34.096  28.780  1.00  0.00    -0.374 OA
BRANCH   2   3
ATOM      3  C   UNL A   1      35.176  32.900  28.009  1.00  0.00     0.202 C 
BRANCH   3   4
ATOM      4  C   UNL A   1      33.944  31.993  28.000  1.00  0.00     0.261 C 
BRANCH   4   5
ATOM      5  O   UNL A   1      34.196  30.794  27.241  1.00  0.00    -0.463 OA
BRANCH   5   6
ATOM      6  C   UNL A   1      33.131  30.254  26.597  1.00  0.00     0.306 C 
ATOM      7  O   UNL A   1      32.031  30.782  26.494  1.00  0.00    -0.252 OA
BRANCH   6   8
ATOM      8  C   UNL A   1      33.419  28.867  26.066  1.00  0.00     0.126 C 
BRANCH   8   9
ATOM      9  C   UNL A   1      32.685  28.391  24.790  1.00  0.00     0.003 C 
ATOM     10  C   UNL A   1      33.414  23.686  26.221  1.00  0.00     0.021 C 
ATOM     11  C   UNL A   1      34.345  23.253  25.084  1.00  0.00     0.063 C 
ATOM     12  C   UNL A   1      34.089  24.003  23.766  1.00  0.00     0.135 C 
ATOM     13  S   UNL A   1      34.274  21.446  24.818  1.00  0.00    -0.152 SA
ATOM     14  N   UNL A   1      32.773  23.742  23.183  1.00  0.00    -0.322 N 
ATOM     15  C   UNL A   1      32.635  21.360  23.976  1.00  0.00     0.063 C 
ATOM     16  C   UNL A   1      31.674  24.577  23.291  1.00  0.00     0.320 C 
ATOM     17  C   UNL A   1      32.552  22.343  22.792  1.00  0.00     0.135 C 
ATOM     18  C   UNL A   1      32.425  19.922  23.512  1.00  0.00     0.021 C 
ATOM     19  O   UNL A   1      30.531  24.114  23.282  1.00  0.00    -0.248 OA
ATOM     20  N   UNL A   1      31.884  25.931  23.466  1.00  0.00    -0.325 N 
ATOM     21  C   UNL A   1      30.850  26.722  24.113  1.00  0.00     0.121 C 
ATOM     22  C   UNL A   1      32.904  26.740  22.813  1.00  0.00     0.121 C 
ATOM     23  C   UNL A   1      31.484  27.525  25.241  1.00  0.00     0.026 C 
ATOM     24  C   UNL A   1      33.626  27.633  23.826  1.00  0.00     0.026 C 
ENDBRANCH   8   9
ENDBRANCH   6   8
ENDBRANCH   5   6
ENDBRANCH   4   5
ENDBRANCH   3   4
ENDBRANCH   2   3
ENDBRANCH   1   2
BRANCH   1  25
ATOM     25  C   UNL A   1      34.709  33.928  31.257  1.00  0.00     0.261 C 
BRANCH  25  26
ATOM     26  O   UNL A   1      34.678  32.559  31.705  1.00  0.00    -0.460 OA
BRANCH  26  27
ATOM     27  C   UNL A   1      35.666  32.225  32.570  1.00  0.00     0.338 C 
ATOM     28  O   UNL A   1      35.663  32.356  33.787  1.00  0.00    -0.246 OA
BRANCH  27  29
ATOM     29  C   UNL A   1      36.730  31.488  31.863  1.00  0.00     0.060 A 
ATOM     30  C   UNL A   1      37.827  31.060  32.621  1.00  0.00     0.016 A 
ATOM     31  C   UNL A   1      36.695  31.274  30.484  1.00  0.00     0.016 A 
ATOM     32  C   UNL A   1      38.914  30.452  31.997  1.00  0.00     0.010 A 
ATOM     33  C   UNL A   1      37.792  30.670  29.857  1.00  0.00     0.010 A 
ATOM     34  C   UNL A   1      38.918  30.282  30.607  1.00  0.00    -0.014 A 
BRANCH  34  35
ATOM     35  C   UNL A   1      40.149  29.806  29.930  1.00  0.00     0.031 A 
ATOM     36  C   UNL A   1      41.302  30.754  29.742  1.00  0.00     0.074 A 
ATOM     37  C   UNL A   1      40.253  28.532  29.511  1.00  0.00     0.049 A 
ATOM     38  N   UNL A   1      42.455  30.548  29.157  1.00  0.00    -0.248 NA
ATOM     39  C   UNL A   1      41.134  32.112  30.283  1.00  0.00     0.031 C 
ATOM     40  C   UNL A   1      39.227  27.502  29.670  1.00  0.00     0.029 A 
ATOM     41  N   UNL A   1      41.276  27.892  28.856  1.00  0.00    -0.354 N 
ATOM     42  C   UNL A   1      43.145  31.751  29.251  1.00  0.00     0.074 A 
ATOM     43  C   UNL A   1      42.275  32.687  29.929  1.00  0.00     0.031 C 
ATOM     44  C   UNL A   1      39.669  26.359  29.115  1.00  0.00     0.029 A 
ATOM     45  C   UNL A   1      40.991  26.587  28.536  1.00  0.00     0.049 A 
ATOM     46  H   UNL A   1      42.132  28.326  28.638  1.00  0.00     0.167 HD
ATOM     47  C   UNL A   1      44.392  32.048  28.814  1.00  0.00     0.031 A 
ATOM     48  C   UNL A   1      41.704  25.685  27.833  1.00  0.00     0.031 A 
ATOM     49  C   UNL A   1      45.260  31.122  28.137  1.00  0.00     0.049 A 
ATOM     50  C   UNL A   1      43.058  26.065  27.293  1.00  0.00     0.074 A 
ATOM     51  C   UNL A   1      46.555  31.326  27.689  1.00  0.00     0.029 A 
ATOM     52  N   UNL A   1      44.918  29.824  27.797  1.00  0.00    -0.354 N 
ATOM     53  N   UNL A   1      43.714  27.192  27.426  1.00  0.00    -0.248 NA
ATOM     54  C   UNL A   1      43.769  25.044  26.509  1.00  0.00     0.031 C 
ATOM     55  C   UNL A   1      46.975  30.168  27.027  1.00  0.00     0.029 A 
ATOM     56  C   UNL A   1      45.963  29.226  27.114  1.00  0.00     0.049 A 
ATOM     57  H   UNL A   1      44.062  29.390  28.012  1.00  0.00     0.167 HD
ATOM     58  C   UNL A   1      44.920  27.009  26.763  1.00  0.00     0.074 A 
ATOM     59  C   UNL A   1      44.914  25.657  26.244  1.00  0.00     0.031 C 
ATOM     60  C   UNL A   1      45.943  27.882  26.598  1.00  0.00     0.031 A 
BRANCH  47  61
ATOM     61  C   UNL A   1      44.886  33.451  29.024  1.00  0.00    -0.014 A 
ATOM     62  C   UNL A   1      45.644  33.797  30.152  1.00  0.00     0.009 A 
ATOM     63  C   UNL A   1      44.635  34.426  28.046  1.00  0.00     0.009 A 
ATOM     64  C   UNL A   1      46.121  35.100  30.309  1.00  0.00     0.001 A 
ATOM     65  C   UNL A   1      45.133  35.722  28.194  1.00  0.00     0.001 A 
ATOM     66  C   UNL A   1      45.870  36.059  29.328  1.00  0.00     0.000 A 
ENDBRANCH  47  61
BRANCH  48  67
ATOM     67  C   UNL A   1      41.138  24.339  27.557  1.00  0.00    -0.014 A 
ATOM     68  C   UNL A   1      40.060  24.178  26.673  1.00  0.00     0.009 A 
ATOM     69  C   UNL A   1      41.657  23.208  28.206  1.00  0.00     0.009 A 
ATOM     70  C   UNL A   1      39.498  22.916  26.467  1.00  0.00     0.001 A 
ATOM     71  C   UNL A   1      41.112  21.944  27.976  1.00  0.00     0.001 A 
ATOM     72  C   UNL A   1      40.026  21.800  27.115  1.00  0.00     0.000 A 
ENDBRANCH  48  67
BRANCH  60  73
ATOM     73  C   UNL A   1      47.152  27.399  25.847  1.00  0.00    -0.014 A 
ATOM     74  C   UNL A   1      48.199  26.734  26.504  1.00  0.00     0.009 A 
ATOM     75  C   UNL A   1      47.221  27.568  24.455  1.00  0.00     0.009 A 
ATOM     76  C   UNL A   1      49.303  26.274  25.785  1.00  0.00     0.001 A 
ATOM     77  C   UNL A   1      48.314  27.083  23.735  1.00  0.00     0.001 A 
ATOM     78  C   UNL A   1      49.358  26.444  24.402  1.00  0.00     0.000 A 
ENDBRANCH  60  73
ENDBRANCH  34  35
ENDBRANCH  27  29
ENDBRANCH  26  27
ENDBRANCH  25  26
ENDBRANCH   1  25
TORSDOF 15
ENDMDL
