MODEL 1
REMARK VINA RESULT:      -9.7      0.000      0.000
REMARK SMILES O=C(CSc1nc(-c2cccc(Br)c2)c[nH]1)OCCOCCOC(=O)c1ccc(-c2c3nc(c(-c4ccccc4)c4ccc([nH]4)c(-c4ccccc4)c4nc(c(-c5ccccc5)c5ccc2[nH]5)C=C4)C=C3)cc1
REMARK SMILES IDX 19 1 18 2 17 3 2 4 1 5 3 6 4 7 5 8 6 9 16 10 7 11 15 12 8 14
REMARK SMILES IDX 9 15 14 16 10 17 12 18 11 19 13 20 20 21 21 22 22 23 23 24
REMARK SMILES IDX 24 25 25 26 26 27 27 28 73 29 28 30 72 31 29 32 30 33 31 34
REMARK SMILES IDX 66 35 32 36 71 37 65 38 67 39 33 40 70 41 64 42 63 43 34 45
REMARK SMILES IDX 56 46 41 47 55 48 42 49 45 50 54 51 68 52 43 53 44 54 53 56
REMARK SMILES IDX 69 57 46 58 35 59 36 60 40 61 37 62 39 63 38 64 57 65 58 66
REMARK SMILES IDX 62 67 59 68 61 69 60 70 47 71 48 72 52 73 49 74 51 75 50 76
REMARK H PARENT 16 13 67 44 45 55
REMARK Flexibility Score: inf
ROOT
ATOM      1  C   UNL A   1      36.217  20.843  24.984  1.00  0.00     0.202 C 
ENDROOT
BRANCH   1   2
ATOM      2  C   UNL A   1      35.032  21.799  25.020  1.00  0.00     0.261 C 
BRANCH   2   3
ATOM      3  O   UNL A   1      34.367  21.971  23.755  1.00  0.00    -0.463 OA
BRANCH   3   4
ATOM      4  C   UNL A   1      34.179  23.140  23.098  1.00  0.00     0.316 C 
ATOM      5  O   UNL A   1      35.100  23.956  23.089  1.00  0.00    -0.251 OA
BRANCH   4   6
ATOM      6  C   UNL A   1      32.881  23.437  22.385  1.00  0.00     0.200 C 
BRANCH   6   7
ATOM      7  S   UNL A   1      31.484  23.730  23.488  1.00  0.00    -0.076 SA
BRANCH   7   8
ATOM      8  C   UNL A   1      31.205  25.386  23.156  1.00  0.00     0.166 A 
ATOM      9  N   UNL A   1      30.117  26.021  23.482  1.00  0.00    -0.223 NA
ATOM     10  N   UNL A   1      32.128  26.197  22.560  1.00  0.00    -0.339 N 
ATOM     11  C   UNL A   1      30.335  27.306  23.071  1.00  0.00     0.089 A 
ATOM     12  C   UNL A   1      31.593  27.456  22.530  1.00  0.00     0.113 A 
ATOM     13  H   UNL A   1      33.011  25.926  22.217  1.00  0.00     0.168 HD
BRANCH  11  14
ATOM     14  C   UNL A   1      29.316  28.309  23.194  1.00  0.00     0.003 A 
ATOM     15  C   UNL A   1      27.973  27.914  23.247  1.00  0.00     0.010 A 
ATOM     16  C   UNL A   1      29.651  29.662  23.131  1.00  0.00     0.026 A 
ATOM     17  C   UNL A   1      26.964  28.872  23.238  1.00  0.00     0.002 A 
ATOM     18  C   UNL A   1      28.635  30.612  23.106  1.00  0.00     0.018 A 
ATOM     19  C   UNL A   1      27.296  30.225  23.161  1.00  0.00     0.016 A 
ATOM     20  Br  UNL A   1      29.082  32.442  22.948  1.00  0.00    -0.051 Br
ENDBRANCH  11  14
ENDBRANCH   7   8
ENDBRANCH   6   7
ENDBRANCH   4   6
ENDBRANCH   3   4
ENDBRANCH   2   3
ENDBRANCH   1   2
BRANCH   1  21
ATOM     21  O   UNL A   1      37.475  21.411  24.642  1.00  0.00    -0.374 OA
BRANCH  21  22
ATOM     22  C   UNL A   1      38.533  21.201  25.586  1.00  0.00     0.202 C 
BRANCH  22  23
ATOM     23  C   UNL A   1      39.346  19.916  25.403  1.00  0.00     0.261 C 
BRANCH  23  24
ATOM     24  O   UNL A   1      40.304  19.749  26.461  1.00  0.00    -0.460 OA
BRANCH  24  25
ATOM     25  C   UNL A   1      41.596  19.881  26.082  1.00  0.00     0.338 C 
ATOM     26  O   UNL A   1      42.212  19.174  25.296  1.00  0.00    -0.246 OA
BRANCH  25  27
ATOM     27  C   UNL A   1      42.124  21.164  26.582  1.00  0.00     0.060 A 
ATOM     28  C   UNL A   1      42.099  21.375  27.967  1.00  0.00     0.016 A 
ATOM     29  C   UNL A   1      42.625  22.147  25.723  1.00  0.00     0.016 A 
ATOM     30  C   UNL A   1      42.506  22.596  28.493  1.00  0.00     0.010 A 
ATOM     31  C   UNL A   1      43.028  23.374  26.251  1.00  0.00     0.010 A 
ATOM     32  C   UNL A   1      42.926  23.618  27.632  1.00  0.00    -0.014 A 
BRANCH  32  33
ATOM     33  C   UNL A   1      43.098  24.985  28.171  1.00  0.00     0.031 A 
ATOM     34  C   UNL A   1      44.478  25.439  28.562  1.00  0.00     0.074 A 
ATOM     35  C   UNL A   1      42.051  25.824  28.253  1.00  0.00     0.049 A 
ATOM     36  N   UNL A   1      44.864  26.592  29.045  1.00  0.00    -0.248 NA
ATOM     37  C   UNL A   1      45.569  24.465  28.384  1.00  0.00     0.031 C 
ATOM     38  C   UNL A   1      40.678  25.505  27.862  1.00  0.00     0.029 A 
ATOM     39  N   UNL A   1      41.986  27.122  28.687  1.00  0.00    -0.354 N 
ATOM     40  C   UNL A   1      46.238  26.482  29.229  1.00  0.00     0.074 A 
ATOM     41  C   UNL A   1      46.613  25.139  28.844  1.00  0.00     0.031 C 
ATOM     42  C   UNL A   1      39.903  26.581  28.077  1.00  0.00     0.029 A 
ATOM     43  C   UNL A   1      40.718  27.649  28.650  1.00  0.00     0.049 A 
ATOM     44  H   UNL A   1      42.771  27.627  28.998  1.00  0.00     0.167 HD
ATOM     45  C   UNL A   1      47.110  27.418  29.667  1.00  0.00     0.031 A 
ATOM     46  C   UNL A   1      40.269  28.853  29.053  1.00  0.00     0.031 A 
ATOM     47  C   UNL A   1      46.728  28.747  30.065  1.00  0.00     0.049 A 
ATOM     48  C   UNL A   1      41.250  29.848  29.612  1.00  0.00     0.074 A 
ATOM     49  C   UNL A   1      47.534  29.775  30.523  1.00  0.00     0.029 A 
ATOM     50  N   UNL A   1      45.429  29.231  30.054  1.00  0.00    -0.354 N 
ATOM     51  N   UNL A   1      42.550  29.740  29.757  1.00  0.00    -0.248 NA
ATOM     52  C   UNL A   1      40.702  31.139  30.050  1.00  0.00     0.031 C 
ATOM     53  C   UNL A   1      46.713  30.861  30.846  1.00  0.00     0.029 A 
ATOM     54  C   UNL A   1      45.407  30.534  30.522  1.00  0.00     0.049 A 
ATOM     55  H   UNL A   1      44.640  28.723  29.757  1.00  0.00     0.167 HD
ATOM     56  C   UNL A   1      42.975  30.957  30.278  1.00  0.00     0.074 A 
ATOM     57  C   UNL A   1      41.800  31.795  30.393  1.00  0.00     0.031 C 
ATOM     58  C   UNL A   1      44.224  31.347  30.635  1.00  0.00     0.031 A 
BRANCH  45  59
ATOM     59  C   UNL A   1      48.560  27.033  29.763  1.00  0.00    -0.014 A 
ATOM     60  C   UNL A   1      49.449  27.275  28.704  1.00  0.00     0.009 A 
ATOM     61  C   UNL A   1      49.055  26.468  30.949  1.00  0.00     0.009 A 
ATOM     62  C   UNL A   1      50.801  26.939  28.824  1.00  0.00     0.001 A 
ATOM     63  C   UNL A   1      50.411  26.160  31.077  1.00  0.00     0.001 A 
ATOM     64  C   UNL A   1      51.281  26.391  30.012  1.00  0.00     0.000 A 
ENDBRANCH  45  59
BRANCH  46  65
ATOM     65  C   UNL A   1      38.819  29.180  28.976  1.00  0.00    -0.014 A 
ATOM     66  C   UNL A   1      38.245  29.640  27.781  1.00  0.00     0.009 A 
ATOM     67  C   UNL A   1      38.009  29.075  30.118  1.00  0.00     0.009 A 
ATOM     68  C   UNL A   1      36.903  30.027  27.743  1.00  0.00     0.001 A 
ATOM     69  C   UNL A   1      36.659  29.428  30.069  1.00  0.00     0.001 A 
ATOM     70  C   UNL A   1      36.111  29.918  28.885  1.00  0.00     0.000 A 
ENDBRANCH  46  65
BRANCH  58  71
ATOM     71  C   UNL A   1      44.378  32.753  31.147  1.00  0.00    -0.014 A 
ATOM     72  C   UNL A   1      44.300  33.044  32.519  1.00  0.00     0.009 A 
ATOM     73  C   UNL A   1      44.614  33.800  30.243  1.00  0.00     0.009 A 
ATOM     74  C   UNL A   1      44.404  34.363  32.967  1.00  0.00     0.001 A 
ATOM     75  C   UNL A   1      44.755  35.111  30.697  1.00  0.00     0.001 A 
ATOM     76  C   UNL A   1      44.633  35.394  32.057  1.00  0.00     0.000 A 
ENDBRANCH  58  71
ENDBRANCH  32  33
ENDBRANCH  25  27
ENDBRANCH  24  25
ENDBRANCH  23  24
ENDBRANCH  22  23
ENDBRANCH  21  22
ENDBRANCH   1  21
TORSDOF 17
ENDMDL
MODEL 2
REMARK VINA RESULT:      -9.5      5.794     10.474
REMARK SMILES O=C(CSc1nc(-c2cccc(Br)c2)c[nH]1)OCCOCCOC(=O)c1ccc(-c2c3nc(c(-c4ccccc4)c4ccc([nH]4)c(-c4ccccc4)c4nc(c(-c5ccccc5)c5ccc2[nH]5)C=C4)C=C3)cc1
REMARK SMILES IDX 19 1 18 2 17 3 2 4 1 5 3 6 4 7 5 8 6 9 16 10 7 11 15 12 8 14
REMARK SMILES IDX 9 15 14 16 10 17 12 18 11 19 13 20 20 21 21 22 22 23 23 24
REMARK SMILES IDX 24 25 25 26 26 27 27 28 73 29 28 30 72 31 29 32 30 33 31 34
REMARK SMILES IDX 66 35 32 36 71 37 65 38 67 39 33 40 70 41 64 42 63 43 34 45
REMARK SMILES IDX 56 46 41 47 55 48 42 49 45 50 54 51 68 52 43 53 44 54 53 56
REMARK SMILES IDX 69 57 46 58 35 59 36 60 40 61 37 62 39 63 38 64 57 65 58 66
REMARK SMILES IDX 62 67 59 68 61 69 60 70 47 71 48 72 52 73 49 74 51 75 50 76
REMARK H PARENT 16 13 67 44 45 55
REMARK Flexibility Score: inf
ROOT
ATOM      1  C   UNL A   1      34.700  32.641  28.852  1.00  0.00     0.202 C 
ENDROOT
BRANCH   1   2
ATOM      2  C   UNL A   1      34.591  31.736  27.633  1.00  0.00     0.261 C 
BRANCH   2   3
ATOM      3  O   UNL A   1      33.415  30.906  27.610  1.00  0.00    -0.463 OA
BRANCH   3   4
ATOM      4  C   UNL A   1      33.283  29.717  26.977  1.00  0.00     0.316 C 
ATOM      5  O   UNL A   1      33.360  28.688  27.650  1.00  0.00    -0.251 OA
BRANCH   4   6
ATOM      6  C   UNL A   1      33.039  29.645  25.488  1.00  0.00     0.200 C 
BRANCH   6   7
ATOM      7  S   UNL A   1      31.376  29.110  25.038  1.00  0.00    -0.076 SA
BRANCH   7   8
ATOM      8  C   UNL A   1      31.513  27.440  25.380  1.00  0.00     0.166 A 
ATOM      9  N   UNL A   1      32.113  26.584  24.603  1.00  0.00    -0.223 NA
ATOM     10  N   UNL A   1      31.043  26.868  26.527  1.00  0.00    -0.339 N 
ATOM     11  C   UNL A   1      32.022  25.395  25.271  1.00  0.00     0.089 A 
ATOM     12  C   UNL A   1      31.398  25.547  26.489  1.00  0.00     0.113 A 
ATOM     13  H   UNL A   1      30.544  27.321  27.245  1.00  0.00     0.168 HD
BRANCH  11  14
ATOM     14  C   UNL A   1      32.514  24.177  24.691  1.00  0.00     0.003 A 
ATOM     15  C   UNL A   1      31.751  23.534  23.709  1.00  0.00     0.010 A 
ATOM     16  C   UNL A   1      33.670  23.577  25.192  1.00  0.00     0.026 A 
ATOM     17  C   UNL A   1      32.144  22.290  23.225  1.00  0.00     0.002 A 
ATOM     18  C   UNL A   1      34.046  22.327  24.715  1.00  0.00     0.018 A 
ATOM     19  C   UNL A   1      33.292  21.681  23.734  1.00  0.00     0.016 A 
ATOM     20  Br  UNL A   1      35.571  21.478  25.442  1.00  0.00    -0.051 Br
ENDBRANCH  11  14
ENDBRANCH   7   8
ENDBRANCH   6   7
ENDBRANCH   4   6
ENDBRANCH   3   4
ENDBRANCH   2   3
ENDBRANCH   1   2
BRANCH   1  21
ATOM     21  O   UNL A   1      33.565  33.446  29.144  1.00  0.00    -0.374 OA
BRANCH  21  22
ATOM     22  C   UNL A   1      33.676  34.832  28.796  1.00  0.00     0.202 C 
BRANCH  22  23
ATOM     23  C   UNL A   1      32.993  35.817  29.751  1.00  0.00     0.261 C 
BRANCH  23  24
ATOM     24  O   UNL A   1      32.446  35.141  30.894  1.00  0.00    -0.460 OA
BRANCH  24  25
ATOM     25  C   UNL A   1      32.784  35.680  32.087  1.00  0.00     0.338 C 
ATOM     26  O   UNL A   1      32.145  36.494  32.739  1.00  0.00    -0.246 OA
BRANCH  25  27
ATOM     27  C   UNL A   1      33.957  34.969  32.631  1.00  0.00     0.060 A 
ATOM     28  C   UNL A   1      35.198  35.613  32.542  1.00  0.00     0.016 A 
ATOM     29  C   UNL A   1      33.854  33.699  33.206  1.00  0.00     0.016 A 
ATOM     30  C   UNL A   1      36.352  34.961  32.961  1.00  0.00     0.010 A 
ATOM     31  C   UNL A   1      35.014  33.043  33.621  1.00  0.00     0.010 A 
ATOM     32  C   UNL A   1      36.270  33.653  33.457  1.00  0.00    -0.014 A 
BRANCH  32  33
ATOM     33  C   UNL A   1      37.516  32.877  33.646  1.00  0.00     0.031 A 
ATOM     34  C   UNL A   1      38.317  33.090  34.901  1.00  0.00     0.074 A 
ATOM     35  C   UNL A   1      37.891  31.958  32.740  1.00  0.00     0.049 A 
ATOM     36  N   UNL A   1      39.429  32.517  35.281  1.00  0.00    -0.248 NA
ATOM     37  C   UNL A   1      37.793  34.081  35.859  1.00  0.00     0.031 C 
ATOM     38  C   UNL A   1      37.170  31.638  31.509  1.00  0.00     0.029 A 
ATOM     39  N   UNL A   1      38.975  31.119  32.725  1.00  0.00    -0.354 N 
ATOM     40  C   UNL A   1      39.738  33.075  36.515  1.00  0.00     0.074 A 
ATOM     41  C   UNL A   1      38.720  34.060  36.805  1.00  0.00     0.031 C 
ATOM     42  C   UNL A   1      37.833  30.670  30.854  1.00  0.00     0.029 A 
ATOM     43  C   UNL A   1      39.040  30.329  31.603  1.00  0.00     0.049 A 
ATOM     44  H   UNL A   1      39.643  31.086  33.447  1.00  0.00     0.167 HD
ATOM     45  C   UNL A   1      40.771  32.785  37.340  1.00  0.00     0.031 A 
ATOM     46  C   UNL A   1      39.980  29.444  31.220  1.00  0.00     0.031 A 
ATOM     47  C   UNL A   1      41.790  31.815  37.039  1.00  0.00     0.049 A 
ATOM     48  C   UNL A   1      41.161  29.200  32.120  1.00  0.00     0.074 A 
ATOM     49  C   UNL A   1      42.881  31.443  37.807  1.00  0.00     0.029 A 
ATOM     50  N   UNL A   1      41.847  31.066  35.874  1.00  0.00    -0.354 N 
ATOM     51  N   UNL A   1      41.429  29.716  33.297  1.00  0.00    -0.248 NA
ATOM     52  C   UNL A   1      42.164  28.237  31.645  1.00  0.00     0.031 C 
ATOM     53  C   UNL A   1      43.628  30.512  37.079  1.00  0.00     0.029 A 
ATOM     54  C   UNL A   1      42.967  30.252  35.891  1.00  0.00     0.049 A 
ATOM     55  H   UNL A   1      41.188  31.106  35.145  1.00  0.00     0.167 HD
ATOM     56  C   UNL A   1      42.615  29.121  33.711  1.00  0.00     0.074 A 
ATOM     57  C   UNL A   1      42.996  28.185  32.675  1.00  0.00     0.031 C 
ATOM     58  C   UNL A   1      43.330  29.332  34.844  1.00  0.00     0.031 A 
BRANCH  45  59
ATOM     59  C   UNL A   1      40.865  33.540  38.637  1.00  0.00    -0.014 A 
ATOM     60  C   UNL A   1      40.269  33.050  39.810  1.00  0.00     0.009 A 
ATOM     61  C   UNL A   1      41.603  34.732  38.697  1.00  0.00     0.009 A 
ATOM     62  C   UNL A   1      40.394  33.751  41.012  1.00  0.00     0.001 A 
ATOM     63  C   UNL A   1      41.750  35.415  39.907  1.00  0.00     0.001 A 
ATOM     64  C   UNL A   1      41.141  34.927  41.062  1.00  0.00     0.000 A 
ENDBRANCH  45  59
BRANCH  46  65
ATOM     65  C   UNL A   1      39.869  28.746  29.911  1.00  0.00    -0.014 A 
ATOM     66  C   UNL A   1      39.426  27.417  29.837  1.00  0.00     0.009 A 
ATOM     67  C   UNL A   1      40.251  29.398  28.727  1.00  0.00     0.009 A 
ATOM     68  C   UNL A   1      39.409  26.743  28.613  1.00  0.00     0.001 A 
ATOM     69  C   UNL A   1      40.199  28.734  27.500  1.00  0.00     0.001 A 
ATOM     70  C   UNL A   1      39.791  27.402  27.446  1.00  0.00     0.000 A 
ENDBRANCH  46  65
BRANCH  58  71
ATOM     71  C   UNL A   1      44.574  28.506  35.028  1.00  0.00    -0.014 A 
ATOM     72  C   UNL A   1      45.836  28.991  34.650  1.00  0.00     0.009 A 
ATOM     73  C   UNL A   1      44.480  27.227  35.598  1.00  0.00     0.009 A 
ATOM     74  C   UNL A   1      46.971  28.189  34.792  1.00  0.00     0.001 A 
ATOM     75  C   UNL A   1      45.621  26.443  35.773  1.00  0.00     0.001 A 
ATOM     76  C   UNL A   1      46.863  26.918  35.355  1.00  0.00     0.000 A 
ENDBRANCH  58  71
ENDBRANCH  32  33
ENDBRANCH  25  27
ENDBRANCH  24  25
ENDBRANCH  23  24
ENDBRANCH  22  23
ENDBRANCH  21  22
ENDBRANCH   1  21
TORSDOF 17
ENDMDL
MODEL 3
REMARK VINA RESULT:      -9.5      4.298      9.226
REMARK SMILES O=C(CSc1nc(-c2cccc(Br)c2)c[nH]1)OCCOCCOC(=O)c1ccc(-c2c3nc(c(-c4ccccc4)c4ccc([nH]4)c(-c4ccccc4)c4nc(c(-c5ccccc5)c5ccc2[nH]5)C=C4)C=C3)cc1
REMARK SMILES IDX 19 1 18 2 17 3 2 4 1 5 3 6 4 7 5 8 6 9 16 10 7 11 15 12 8 14
REMARK SMILES IDX 9 15 14 16 10 17 12 18 11 19 13 20 20 21 21 22 22 23 23 24
REMARK SMILES IDX 24 25 25 26 26 27 27 28 73 29 28 30 72 31 29 32 30 33 31 34
REMARK SMILES IDX 66 35 32 36 71 37 65 38 67 39 33 40 70 41 64 42 63 43 34 45
REMARK SMILES IDX 56 46 41 47 55 48 42 49 45 50 54 51 68 52 43 53 44 54 53 56
REMARK SMILES IDX 69 57 46 58 35 59 36 60 40 61 37 62 39 63 38 64 57 65 58 66
REMARK SMILES IDX 62 67 59 68 61 69 60 70 47 71 48 72 52 73 49 74 51 75 50 76
REMARK H PARENT 16 13 67 44 45 55
REMARK Flexibility Score: inf
ROOT
ATOM      1  C   UNL A   1      31.669  27.418  26.498  1.00  0.00     0.202 C 
ENDROOT
BRANCH   1   2
ATOM      2  C   UNL A   1      32.181  27.059  25.111  1.00  0.00     0.261 C 
BRANCH   2   3
ATOM      3  O   UNL A   1      32.471  25.661  24.926  1.00  0.00    -0.463 OA
BRANCH   3   4
ATOM      4  C   UNL A   1      32.062  24.885  23.895  1.00  0.00     0.316 C 
ATOM      5  O   UNL A   1      32.625  25.019  22.808  1.00  0.00    -0.251 OA
BRANCH   4   6
ATOM      6  C   UNL A   1      30.953  23.874  24.067  1.00  0.00     0.200 C 
BRANCH   6   7
ATOM      7  S   UNL A   1      30.876  23.135  25.711  1.00  0.00    -0.076 SA
BRANCH   7   8
ATOM      8  C   UNL A   1      32.244  22.111  25.625  1.00  0.00     0.166 A 
ATOM      9  N   UNL A   1      33.472  22.538  25.576  1.00  0.00    -0.223 NA
ATOM     10  N   UNL A   1      32.162  20.748  25.647  1.00  0.00    -0.339 N 
ATOM     11  C   UNL A   1      34.229  21.400  25.557  1.00  0.00     0.089 A 
ATOM     12  C   UNL A   1      33.445  20.271  25.640  1.00  0.00     0.113 A 
ATOM     13  H   UNL A   1      31.337  20.211  25.663  1.00  0.00     0.168 HD
BRANCH  11  14
ATOM     14  C   UNL A   1      35.658  21.460  25.432  1.00  0.00     0.003 A 
ATOM     15  C   UNL A   1      36.352  20.321  25.002  1.00  0.00     0.010 A 
ATOM     16  C   UNL A   1      36.354  22.592  25.855  1.00  0.00     0.026 A 
ATOM     17  C   UNL A   1      37.744  20.315  24.995  1.00  0.00     0.002 A 
ATOM     18  C   UNL A   1      37.745  22.571  25.861  1.00  0.00     0.018 A 
ATOM     19  C   UNL A   1      38.442  21.441  25.432  1.00  0.00     0.016 A 
ATOM     20  Br  UNL A   1      38.691  24.077  26.502  1.00  0.00    -0.051 Br
ENDBRANCH  11  14
ENDBRANCH   7   8
ENDBRANCH   6   7
ENDBRANCH   4   6
ENDBRANCH   3   4
ENDBRANCH   2   3
ENDBRANCH   1   2
BRANCH   1  21
ATOM     21  O   UNL A   1      31.819  28.776  26.894  1.00  0.00    -0.374 OA
BRANCH  21  22
ATOM     22  C   UNL A   1      31.734  29.747  25.843  1.00  0.00     0.202 C 
BRANCH  22  23
ATOM     23  C   UNL A   1      31.931  31.206  26.265  1.00  0.00     0.261 C 
BRANCH  23  24
ATOM     24  O   UNL A   1      32.606  31.297  27.530  1.00  0.00    -0.460 OA
BRANCH  24  25
ATOM     25  C   UNL A   1      33.492  32.315  27.628  1.00  0.00     0.338 C 
ATOM     26  O   UNL A   1      33.248  33.513  27.598  1.00  0.00    -0.246 OA
BRANCH  25  27
ATOM     27  C   UNL A   1      34.811  31.780  28.014  1.00  0.00     0.060 A 
ATOM     28  C   UNL A   1      34.912  30.396  28.211  1.00  0.00     0.016 A 
ATOM     29  C   UNL A   1      35.925  32.605  28.190  1.00  0.00     0.016 A 
ATOM     30  C   UNL A   1      36.106  29.842  28.656  1.00  0.00     0.010 A 
ATOM     31  C   UNL A   1      37.122  32.049  28.641  1.00  0.00     0.010 A 
ATOM     32  C   UNL A   1      37.203  30.672  28.920  1.00  0.00    -0.014 A 
BRANCH  32  33
ATOM     33  C   UNL A   1      38.369  30.116  29.640  1.00  0.00     0.031 A 
ATOM     34  C   UNL A   1      38.564  30.475  31.087  1.00  0.00     0.074 A 
ATOM     35  C   UNL A   1      39.204  29.258  29.027  1.00  0.00     0.049 A 
ATOM     36  N   UNL A   1      39.505  30.099  31.914  1.00  0.00    -0.248 NA
ATOM     37  C   UNL A   1      37.564  31.378  31.684  1.00  0.00     0.031 C 
ATOM     38  C   UNL A   1      39.087  28.807  27.641  1.00  0.00     0.029 A 
ATOM     39  N   UNL A   1      40.314  28.610  29.501  1.00  0.00    -0.354 N 
ATOM     40  C   UNL A   1      39.212  30.717  33.124  1.00  0.00     0.074 A 
ATOM     41  C   UNL A   1      38.030  31.524  32.915  1.00  0.00     0.031 C 
ATOM     42  C   UNL A   1      40.090  27.953  27.375  1.00  0.00     0.029 A 
ATOM     43  C   UNL A   1      40.935  27.826  28.560  1.00  0.00     0.049 A 
ATOM     44  H   UNL A   1      40.637  28.699  30.427  1.00  0.00     0.167 HD
ATOM     45  C   UNL A   1      39.862  30.613  34.306  1.00  0.00     0.031 A 
ATOM     46  C   UNL A   1      42.068  27.104  28.644  1.00  0.00     0.031 A 
ATOM     47  C   UNL A   1      41.046  29.821  34.504  1.00  0.00     0.049 A 
ATOM     48  C   UNL A   1      42.816  27.071  29.950  1.00  0.00     0.074 A 
ATOM     49  C   UNL A   1      41.783  29.645  35.663  1.00  0.00     0.029 A 
ATOM     50  N   UNL A   1      41.670  29.076  33.515  1.00  0.00    -0.354 N 
ATOM     51  N   UNL A   1      42.515  27.640  31.093  1.00  0.00    -0.248 NA
ATOM     52  C   UNL A   1      44.054  26.281  29.981  1.00  0.00     0.031 C 
ATOM     53  C   UNL A   1      42.886  28.840  35.360  1.00  0.00     0.029 A 
ATOM     54  C   UNL A   1      42.797  28.458  34.031  1.00  0.00     0.049 A 
ATOM     55  H   UNL A   1      41.358  28.997  32.586  1.00  0.00     0.167 HD
ATOM     56  C   UNL A   1      43.511  27.255  31.983  1.00  0.00     0.074 A 
ATOM     57  C   UNL A   1      44.405  26.381  31.254  1.00  0.00     0.031 C 
ATOM     58  C   UNL A   1      43.678  27.597  33.285  1.00  0.00     0.031 A 
BRANCH  45  59
ATOM     59  C   UNL A   1      39.320  31.391  35.473  1.00  0.00    -0.014 A 
ATOM     60  C   UNL A   1      39.756  32.699  35.741  1.00  0.00     0.009 A 
ATOM     61  C   UNL A   1      38.323  30.828  36.285  1.00  0.00     0.009 A 
ATOM     62  C   UNL A   1      39.218  33.418  36.812  1.00  0.00     0.001 A 
ATOM     63  C   UNL A   1      37.767  31.560  37.337  1.00  0.00     0.001 A 
ATOM     64  C   UNL A   1      38.219  32.851  37.603  1.00  0.00     0.000 A 
ENDBRANCH  45  59
BRANCH  46  65
ATOM     65  C   UNL A   1      42.590  26.379  27.454  1.00  0.00    -0.014 A 
ATOM     66  C   UNL A   1      43.440  27.014  26.537  1.00  0.00     0.009 A 
ATOM     67  C   UNL A   1      42.199  25.053  27.208  1.00  0.00     0.009 A 
ATOM     68  C   UNL A   1      43.853  26.352  25.377  1.00  0.00     0.001 A 
ATOM     69  C   UNL A   1      42.643  24.381  26.067  1.00  0.00     0.001 A 
ATOM     70  C   UNL A   1      43.458  25.036  25.145  1.00  0.00     0.000 A 
ENDBRANCH  46  65
BRANCH  58  71
ATOM     71  C   UNL A   1      44.852  26.990  34.003  1.00  0.00    -0.014 A 
ATOM     72  C   UNL A   1      44.689  25.916  34.893  1.00  0.00     0.009 A 
ATOM     73  C   UNL A   1      46.142  27.496  33.778  1.00  0.00     0.009 A 
ATOM     74  C   UNL A   1      45.788  25.397  35.581  1.00  0.00     0.001 A 
ATOM     75  C   UNL A   1      47.243  26.951  34.438  1.00  0.00     0.001 A 
ATOM     76  C   UNL A   1      47.063  25.913  35.351  1.00  0.00     0.000 A 
ENDBRANCH  58  71
ENDBRANCH  32  33
ENDBRANCH  25  27
ENDBRANCH  24  25
ENDBRANCH  23  24
ENDBRANCH  22  23
ENDBRANCH  21  22
ENDBRANCH   1  21
TORSDOF 17
ENDMDL
