MODEL 1
REMARK VINA RESULT:     -11.0      0.000      0.000
REMARK SMILES Cc1cnn(C2(C(=O)OCCOCCOC(=O)c3ccc(-c4c5nc(c(-c6ccccc6)c6ccc([nH]6)c(-c6ccccc6)c6nc(c(-c7ccccc7)c7ccc4[nH]7)C=C6)C=C5)cc3)CCN(C(=O)c3cc4ccccc4[nH]3)CC2)c1
REMARK SMILES IDX 13 1 12 2 11 3 10 4 9 5 7 6 8 7 6 8 66 9 81 10 67 11 80 12
REMARK SMILES IDX 68 13 69 14 70 15 5 16 1 17 2 18 3 19 82 20 4 21 71 22 72 23
REMARK SMILES IDX 79 24 73 25 78 26 74 28 77 29 75 30 76 31 14 32 15 33 16 34
REMARK SMILES IDX 17 35 18 36 19 37 65 38 20 39 64 40 21 41 22 42 23 43 58 44
REMARK SMILES IDX 24 45 63 46 57 47 59 48 25 49 62 50 56 51 55 52 26 54 48 55
REMARK SMILES IDX 33 56 47 57 34 58 37 59 46 60 60 61 35 62 36 63 45 65 61 66
REMARK SMILES IDX 38 67 27 68 28 69 32 70 29 71 31 72 30 73 49 74 50 75 54 76
REMARK SMILES IDX 51 77 53 78 52 79 39 80 40 81 44 82 41 83 43 84 42 85
REMARK H PARENT 79 27 59 53 37 64
REMARK Flexibility Score: inf
ROOT
ATOM      1  C   UNL A   1      36.101  21.617  25.233  1.00  0.00     0.202 C 
ENDROOT
BRANCH   1   2
ATOM      2  O   UNL A   1      35.397  21.637  26.471  1.00  0.00    -0.374 OA
BRANCH   2   3
ATOM      3  C   UNL A   1      34.489  22.718  26.714  1.00  0.00     0.202 C 
BRANCH   3   4
ATOM      4  C   UNL A   1      33.011  22.333  26.824  1.00  0.00     0.261 C 
BRANCH   4   5
ATOM      5  O   UNL A   1      32.258  23.535  27.065  1.00  0.00    -0.461 OA
BRANCH   5   6
ATOM      6  C   UNL A   1      31.440  24.001  26.077  1.00  0.00     0.334 C 
ATOM      7  O   UNL A   1      30.408  23.438  25.730  1.00  0.00    -0.249 OA
BRANCH   6   8
ATOM      8  C   UNL A   1      32.023  25.292  25.429  1.00  0.00     0.163 C 
ATOM      9  C   UNL A   1      30.921  26.385  25.385  1.00  0.00     0.064 C 
ATOM     10  C   UNL A   1      33.156  25.714  26.390  1.00  0.00     0.064 C 
ATOM     11  C   UNL A   1      31.412  27.811  25.287  1.00  0.00     0.123 C 
ATOM     12  C   UNL A   1      33.614  27.152  26.232  1.00  0.00     0.123 C 
ATOM     13  N   UNL A   1      32.491  28.082  26.216  1.00  0.00    -0.337 N 
ATOM     14  C   UNL A   1      32.540  29.332  26.835  1.00  0.00     0.270 C 
ATOM     15  O   UNL A   1      31.542  30.008  27.057  1.00  0.00    -0.267 OA
BRANCH   8  16
ATOM     16  N   UNL A   1      32.579  24.975  24.093  1.00  0.00    -0.255 N 
ATOM     17  C   UNL A   1      32.549  25.746  20.544  1.00  0.00     0.048 C 
ATOM     18  C   UNL A   1      32.822  25.316  21.933  1.00  0.00    -0.013 A 
ATOM     19  C   UNL A   1      34.057  25.255  22.602  1.00  0.00     0.138 A 
ATOM     20  C   UNL A   1      31.916  24.904  22.891  1.00  0.00     0.113 A 
ATOM     21  N   UNL A   1      33.914  24.950  23.892  1.00  0.00    -0.180 NA
ENDBRANCH   8  16
BRANCH  14  22
ATOM     22  C   UNL A   1      33.872  29.796  27.112  1.00  0.00     0.105 A 
ATOM     23  C   UNL A   1      35.001  29.026  27.320  1.00  0.00     0.042 A 
ATOM     24  N   UNL A   1      34.226  31.106  27.324  1.00  0.00    -0.351 N 
ATOM     25  C   UNL A   1      36.034  29.879  27.776  1.00  0.00     0.000 A 
ATOM     26  C   UNL A   1      35.510  31.170  27.819  1.00  0.00     0.046 A 
ATOM     27  H   UNL A   1      33.648  31.882  27.147  1.00  0.00     0.167 HD
ATOM     28  C   UNL A   1      37.359  29.662  28.193  1.00  0.00     0.010 A 
ATOM     29  C   UNL A   1      36.243  32.261  28.297  1.00  0.00     0.026 A 
ATOM     30  C   UNL A   1      38.114  30.746  28.647  1.00  0.00     0.001 A 
ATOM     31  C   UNL A   1      37.558  32.023  28.708  1.00  0.00     0.002 A 
ENDBRANCH  14  22
ENDBRANCH   6   8
ENDBRANCH   5   6
ENDBRANCH   4   5
ENDBRANCH   3   4
ENDBRANCH   2   3
ENDBRANCH   1   2
BRANCH   1  32
ATOM     32  C   UNL A   1      37.599  21.875  25.297  1.00  0.00     0.261 C 
BRANCH  32  33
ATOM     33  O   UNL A   1      37.933  22.730  26.384  1.00  0.00    -0.460 OA
BRANCH  33  34
ATOM     34  C   UNL A   1      39.217  22.632  26.800  1.00  0.00     0.338 C 
ATOM     35  O   UNL A   1      39.799  21.642  27.189  1.00  0.00    -0.246 OA
BRANCH  34  36
ATOM     36  C   UNL A   1      39.761  23.995  26.889  1.00  0.00     0.060 A 
ATOM     37  C   UNL A   1      41.020  24.104  27.480  1.00  0.00     0.016 A 
ATOM     38  C   UNL A   1      38.924  25.106  26.707  1.00  0.00     0.016 A 
ATOM     39  C   UNL A   1      41.325  25.274  28.133  1.00  0.00     0.010 A 
ATOM     40  C   UNL A   1      39.225  26.272  27.368  1.00  0.00     0.010 A 
ATOM     41  C   UNL A   1      40.370  26.297  28.155  1.00  0.00    -0.014 A 
BRANCH  41  42
ATOM     42  C   UNL A   1      40.651  27.456  28.966  1.00  0.00     0.031 A 
ATOM     43  C   UNL A   1      41.668  28.331  28.351  1.00  0.00     0.074 A 
ATOM     44  C   UNL A   1      39.994  27.725  30.108  1.00  0.00     0.049 A 
ATOM     45  N   UNL A   1      42.876  28.522  28.758  1.00  0.00    -0.248 NA
ATOM     46  C   UNL A   1      41.371  28.899  27.025  1.00  0.00     0.031 C 
ATOM     47  C   UNL A   1      38.805  27.077  30.664  1.00  0.00     0.029 A 
ATOM     48  N   UNL A   1      40.213  28.743  30.977  1.00  0.00    -0.354 N 
ATOM     49  C   UNL A   1      43.439  29.395  27.839  1.00  0.00     0.074 A 
ATOM     50  C   UNL A   1      42.550  29.430  26.705  1.00  0.00     0.031 C 
ATOM     51  C   UNL A   1      38.268  27.880  31.614  1.00  0.00     0.029 A 
ATOM     52  C   UNL A   1      39.145  29.023  31.817  1.00  0.00     0.049 A 
ATOM     53  H   UNL A   1      41.061  29.243  31.009  1.00  0.00     0.167 HD
ATOM     54  C   UNL A   1      44.442  30.239  28.195  1.00  0.00     0.031 A 
ATOM     55  C   UNL A   1      38.979  30.159  32.542  1.00  0.00     0.031 A 
ATOM     56  C   UNL A   1      45.082  29.828  29.417  1.00  0.00     0.049 A 
ATOM     57  C   UNL A   1      40.310  30.813  32.651  1.00  0.00     0.074 A 
ATOM     58  C   UNL A   1      45.743  28.680  29.813  1.00  0.00     0.029 A 
ATOM     59  N   UNL A   1      44.708  30.468  30.576  1.00  0.00    -0.354 N 
ATOM     60  N   UNL A   1      41.298  30.304  33.332  1.00  0.00    -0.248 NA
ATOM     61  C   UNL A   1      40.694  31.750  31.602  1.00  0.00     0.031 C 
ATOM     62  C   UNL A   1      45.291  28.441  31.145  1.00  0.00     0.029 A 
ATOM     63  C   UNL A   1      44.460  29.499  31.517  1.00  0.00     0.049 A 
ATOM     64  H   UNL A   1      44.632  31.441  30.707  1.00  0.00     0.167 HD
ATOM     65  C   UNL A   1      42.414  30.489  32.527  1.00  0.00     0.074 A 
ATOM     66  C   UNL A   1      41.996  31.457  31.511  1.00  0.00     0.031 C 
ATOM     67  C   UNL A   1      43.471  29.624  32.565  1.00  0.00     0.031 A 
BRANCH  54  68
ATOM     68  C   UNL A   1      44.529  31.639  27.657  1.00  0.00    -0.014 A 
ATOM     69  C   UNL A   1      43.805  32.660  28.290  1.00  0.00     0.009 A 
ATOM     70  C   UNL A   1      45.082  31.940  26.394  1.00  0.00     0.009 A 
ATOM     71  C   UNL A   1      43.610  33.899  27.667  1.00  0.00     0.001 A 
ATOM     72  C   UNL A   1      44.927  33.185  25.790  1.00  0.00     0.001 A 
ATOM     73  C   UNL A   1      44.168  34.159  26.418  1.00  0.00     0.000 A 
ENDBRANCH  54  68
BRANCH  55  74
ATOM     74  C   UNL A   1      37.715  30.878  32.835  1.00  0.00    -0.014 A 
ATOM     75  C   UNL A   1      37.645  31.836  33.862  1.00  0.00     0.009 A 
ATOM     76  C   UNL A   1      36.640  30.822  31.928  1.00  0.00     0.009 A 
ATOM     77  C   UNL A   1      36.558  32.720  33.954  1.00  0.00     0.001 A 
ATOM     78  C   UNL A   1      35.555  31.702  32.021  1.00  0.00     0.001 A 
ATOM     79  C   UNL A   1      35.520  32.660  33.026  1.00  0.00     0.000 A 
ENDBRANCH  55  74
BRANCH  67  80
ATOM     80  C   UNL A   1      43.484  28.554  33.634  1.00  0.00    -0.014 A 
ATOM     81  C   UNL A   1      42.707  27.382  33.567  1.00  0.00     0.009 A 
ATOM     82  C   UNL A   1      44.440  28.653  34.655  1.00  0.00     0.009 A 
ATOM     83  C   UNL A   1      42.866  26.358  34.509  1.00  0.00     0.001 A 
ATOM     84  C   UNL A   1      44.615  27.623  35.582  1.00  0.00     0.001 A 
ATOM     85  C   UNL A   1      43.824  26.478  35.513  1.00  0.00     0.000 A 
ENDBRANCH  67  80
ENDBRANCH  41  42
ENDBRANCH  34  36
ENDBRANCH  33  34
ENDBRANCH  32  33
ENDBRANCH   1  32
TORSDOF 16
ENDMDL
MODEL 2
REMARK VINA RESULT:     -11.0      2.183      4.130
REMARK SMILES Cc1cnn(C2(C(=O)OCCOCCOC(=O)c3ccc(-c4c5nc(c(-c6ccccc6)c6ccc([nH]6)c(-c6ccccc6)c6nc(c(-c7ccccc7)c7ccc4[nH]7)C=C6)C=C5)cc3)CCN(C(=O)c3cc4ccccc4[nH]3)CC2)c1
REMARK SMILES IDX 13 1 12 2 11 3 10 4 9 5 7 6 8 7 6 8 66 9 81 10 67 11 80 12
REMARK SMILES IDX 68 13 69 14 70 15 5 16 1 17 2 18 3 19 82 20 4 21 71 22 72 23
REMARK SMILES IDX 79 24 73 25 78 26 74 28 77 29 75 30 76 31 14 32 15 33 16 34
REMARK SMILES IDX 17 35 18 36 19 37 65 38 20 39 64 40 21 41 22 42 23 43 58 44
REMARK SMILES IDX 24 45 63 46 57 47 59 48 25 49 62 50 56 51 55 52 26 54 48 55
REMARK SMILES IDX 33 56 47 57 34 58 37 59 46 60 60 61 35 62 36 63 45 65 61 66
REMARK SMILES IDX 38 67 27 68 28 69 32 70 29 71 31 72 30 73 49 74 50 75 54 76
REMARK SMILES IDX 51 77 53 78 52 79 39 80 40 81 44 82 41 83 43 84 42 85
REMARK H PARENT 79 27 59 53 37 64
REMARK Flexibility Score: inf
ROOT
ATOM      1  C   UNL A   1      40.100  21.348  26.600  1.00  0.00     0.202 C 
ENDROOT
BRANCH   1   2
ATOM      2  O   UNL A   1      39.221  22.337  26.073  1.00  0.00    -0.374 OA
BRANCH   2   3
ATOM      3  C   UNL A   1      37.850  21.980  25.865  1.00  0.00     0.202 C 
BRANCH   3   4
ATOM      4  C   UNL A   1      37.519  21.380  24.494  1.00  0.00     0.261 C 
BRANCH   4   5
ATOM      5  O   UNL A   1      36.131  21.640  24.222  1.00  0.00    -0.461 OA
BRANCH   5   6
ATOM      6  C   UNL A   1      35.793  22.820  23.626  1.00  0.00     0.334 C 
ATOM      7  O   UNL A   1      36.455  23.347  22.740  1.00  0.00    -0.249 OA
BRANCH   6   8
ATOM      8  C   UNL A   1      34.502  23.419  24.261  1.00  0.00     0.163 C 
ATOM      9  C   UNL A   1      34.895  24.354  25.436  1.00  0.00     0.064 C 
ATOM     10  C   UNL A   1      33.867  24.238  23.116  1.00  0.00     0.064 C 
ATOM     11  C   UNL A   1      33.870  25.395  25.821  1.00  0.00     0.123 C 
ATOM     12  C   UNL A   1      32.835  25.255  23.566  1.00  0.00     0.123 C 
ATOM     13  N   UNL A   1      33.327  26.079  24.664  1.00  0.00    -0.337 N 
ATOM     14  C   UNL A   1      33.047  27.443  24.766  1.00  0.00     0.270 C 
ATOM     15  O   UNL A   1      33.653  28.195  25.520  1.00  0.00    -0.267 OA
BRANCH   8  16
ATOM     16  N   UNL A   1      33.591  22.324  24.671  1.00  0.00    -0.255 N 
ATOM     17  C   UNL A   1      32.518  18.904  24.085  1.00  0.00     0.048 C 
ATOM     18  C   UNL A   1      32.836  20.260  24.586  1.00  0.00    -0.013 A 
ATOM     19  C   UNL A   1      33.160  20.652  25.897  1.00  0.00     0.138 A 
ATOM     20  C   UNL A   1      32.913  21.437  23.869  1.00  0.00     0.113 A 
ATOM     21  N   UNL A   1      33.523  21.934  25.962  1.00  0.00    -0.180 NA
ENDBRANCH   8  16
BRANCH  14  22
ATOM     22  C   UNL A   1      31.928  27.872  23.971  1.00  0.00     0.105 A 
ATOM     23  C   UNL A   1      31.926  28.832  22.977  1.00  0.00     0.042 A 
ATOM     24  N   UNL A   1      30.629  27.461  24.148  1.00  0.00    -0.351 N 
ATOM     25  C   UNL A   1      30.580  29.089  22.621  1.00  0.00     0.000 A 
ATOM     26  C   UNL A   1      29.783  28.254  23.404  1.00  0.00     0.046 A 
ATOM     27  H   UNL A   1      30.347  26.712  24.720  1.00  0.00     0.167 HD
ATOM     28  C   UNL A   1      29.965  29.984  21.728  1.00  0.00     0.010 A 
ATOM     29  C   UNL A   1      28.386  28.297  23.363  1.00  0.00     0.026 A 
ATOM     30  C   UNL A   1      28.571  30.020  21.655  1.00  0.00     0.001 A 
ATOM     31  C   UNL A   1      27.795  29.197  22.470  1.00  0.00     0.002 A 
ENDBRANCH  14  22
ENDBRANCH   6   8
ENDBRANCH   5   6
ENDBRANCH   4   5
ENDBRANCH   3   4
ENDBRANCH   2   3
ENDBRANCH   1   2
BRANCH   1  32
ATOM     32  C   UNL A   1      41.591  21.614  26.455  1.00  0.00     0.261 C 
BRANCH  32  33
ATOM     33  O   UNL A   1      41.841  22.695  25.565  1.00  0.00    -0.460 OA
BRANCH  33  34
ATOM     34  C   UNL A   1      42.723  23.611  26.030  1.00  0.00     0.338 C 
ATOM     35  O   UNL A   1      43.921  23.648  25.848  1.00  0.00    -0.246 OA
BRANCH  34  36
ATOM     36  C   UNL A   1      42.007  24.477  26.978  1.00  0.00     0.060 A 
ATOM     37  C   UNL A   1      41.044  25.317  26.419  1.00  0.00     0.016 A 
ATOM     38  C   UNL A   1      42.506  24.674  28.275  1.00  0.00     0.016 A 
ATOM     39  C   UNL A   1      40.783  26.508  27.053  1.00  0.00     0.010 A 
ATOM     40  C   UNL A   1      42.253  25.868  28.903  1.00  0.00     0.010 A 
ATOM     41  C   UNL A   1      41.480  26.806  28.230  1.00  0.00    -0.014 A 
BRANCH  41  42
ATOM     42  C   UNL A   1      41.299  28.119  28.798  1.00  0.00     0.031 A 
ATOM     43  C   UNL A   1      42.366  29.053  28.390  1.00  0.00     0.074 A 
ATOM     44  C   UNL A   1      40.232  28.450  29.548  1.00  0.00     0.049 A 
ATOM     45  N   UNL A   1      43.299  29.538  29.136  1.00  0.00    -0.248 NA
ATOM     46  C   UNL A   1      42.531  29.318  26.952  1.00  0.00     0.031 C 
ATOM     47  C   UNL A   1      39.003  27.692  29.789  1.00  0.00     0.029 A 
ATOM     48  N   UNL A   1      39.987  29.624  30.179  1.00  0.00    -0.354 N 
ATOM     49  C   UNL A   1      44.065  30.332  28.294  1.00  0.00     0.074 A 
ATOM     50  C   UNL A   1      43.675  30.002  26.947  1.00  0.00     0.031 C 
ATOM     51  C   UNL A   1      38.058  28.529  30.283  1.00  0.00     0.029 A 
ATOM     52  C   UNL A   1      38.657  29.835  30.509  1.00  0.00     0.049 A 
ATOM     53  H   UNL A   1      40.697  30.275  30.387  1.00  0.00     0.167 HD
ATOM     54  C   UNL A   1      44.754  31.400  28.772  1.00  0.00     0.031 A 
ATOM     55  C   UNL A   1      38.100  31.026  30.850  1.00  0.00     0.031 A 
ATOM     56  C   UNL A   1      44.926  31.334  30.200  1.00  0.00     0.049 A 
ATOM     57  C   UNL A   1      39.206  31.931  31.261  1.00  0.00     0.074 A 
ATOM     58  C   UNL A   1      45.514  30.419  31.053  1.00  0.00     0.029 A 
ATOM     59  N   UNL A   1      44.071  32.080  30.977  1.00  0.00    -0.354 N 
ATOM     60  N   UNL A   1      39.913  31.744  32.339  1.00  0.00    -0.248 NA
ATOM     61  C   UNL A   1      39.850  32.730  30.225  1.00  0.00     0.031 C 
ATOM     62  C   UNL A   1      44.622  30.330  32.162  1.00  0.00     0.029 A 
ATOM     63  C   UNL A   1      43.597  31.258  31.970  1.00  0.00     0.049 A 
ATOM     64  H   UNL A   1      43.841  33.029  30.847  1.00  0.00     0.167 HD
ATOM     65  C   UNL A   1      41.222  31.997  31.952  1.00  0.00     0.074 A 
ATOM     66  C   UNL A   1      41.113  32.679  30.660  1.00  0.00     0.031 C 
ATOM     67  C   UNL A   1      42.277  31.369  32.551  1.00  0.00     0.031 A 
BRANCH  54  68
ATOM     68  C   UNL A   1      44.879  32.678  27.992  1.00  0.00    -0.014 A 
ATOM     69  C   UNL A   1      43.762  33.518  27.874  1.00  0.00     0.009 A 
ATOM     70  C   UNL A   1      45.974  32.953  27.146  1.00  0.00     0.009 A 
ATOM     71  C   UNL A   1      43.731  34.548  26.927  1.00  0.00     0.001 A 
ATOM     72  C   UNL A   1      45.964  34.004  26.232  1.00  0.00     0.001 A 
ATOM     73  C   UNL A   1      44.830  34.789  26.105  1.00  0.00     0.000 A 
ENDBRANCH  54  68
BRANCH  55  74
ATOM     74  C   UNL A   1      36.746  31.530  30.513  1.00  0.00    -0.014 A 
ATOM     75  C   UNL A   1      35.895  32.049  31.505  1.00  0.00     0.009 A 
ATOM     76  C   UNL A   1      36.386  31.755  29.170  1.00  0.00     0.009 A 
ATOM     77  C   UNL A   1      34.751  32.787  31.163  1.00  0.00     0.001 A 
ATOM     78  C   UNL A   1      35.244  32.489  28.830  1.00  0.00     0.001 A 
ATOM     79  C   UNL A   1      34.433  33.017  29.826  1.00  0.00     0.000 A 
ENDBRANCH  55  74
BRANCH  67  80
ATOM     80  C   UNL A   1      42.006  30.521  33.773  1.00  0.00    -0.014 A 
ATOM     81  C   UNL A   1      41.669  29.156  33.710  1.00  0.00     0.009 A 
ATOM     82  C   UNL A   1      42.269  31.077  35.034  1.00  0.00     0.009 A 
ATOM     83  C   UNL A   1      41.571  28.384  34.874  1.00  0.00     0.001 A 
ATOM     84  C   UNL A   1      42.194  30.302  36.194  1.00  0.00     0.001 A 
ATOM     85  C   UNL A   1      41.839  28.957  36.115  1.00  0.00     0.000 A 
ENDBRANCH  67  80
ENDBRANCH  41  42
ENDBRANCH  34  36
ENDBRANCH  33  34
ENDBRANCH  32  33
ENDBRANCH   1  32
TORSDOF 16
ENDMDL
MODEL 3
REMARK VINA RESULT:     -10.9      2.508      4.492
REMARK SMILES Cc1cnn(C2(C(=O)OCCOCCOC(=O)c3ccc(-c4c5nc(c(-c6ccccc6)c6ccc([nH]6)c(-c6ccccc6)c6nc(c(-c7ccccc7)c7ccc4[nH]7)C=C6)C=C5)cc3)CCN(C(=O)c3cc4ccccc4[nH]3)CC2)c1
REMARK SMILES IDX 13 1 12 2 11 3 10 4 9 5 7 6 8 7 6 8 66 9 81 10 67 11 80 12
REMARK SMILES IDX 68 13 69 14 70 15 5 16 1 17 2 18 3 19 82 20 4 21 71 22 72 23
REMARK SMILES IDX 79 24 73 25 78 26 74 28 77 29 75 30 76 31 14 32 15 33 16 34
REMARK SMILES IDX 17 35 18 36 19 37 65 38 20 39 64 40 21 41 22 42 23 43 58 44
REMARK SMILES IDX 24 45 63 46 57 47 59 48 25 49 62 50 56 51 55 52 26 54 48 55
REMARK SMILES IDX 33 56 47 57 34 58 37 59 46 60 60 61 35 62 36 63 45 65 61 66
REMARK SMILES IDX 38 67 27 68 28 69 32 70 29 71 31 72 30 73 49 74 50 75 54 76
REMARK SMILES IDX 51 77 53 78 52 79 39 80 40 81 44 82 41 83 43 84 42 85
REMARK H PARENT 79 27 59 53 37 64
REMARK Flexibility Score: inf
ROOT
ATOM      1  C   UNL A   1      40.151  19.845  26.224  1.00  0.00     0.202 C 
ENDROOT
BRANCH   1   2
ATOM      2  O   UNL A   1      39.365  21.030  26.303  1.00  0.00    -0.374 OA
BRANCH   2   3
ATOM      3  C   UNL A   1      38.628  21.429  25.141  1.00  0.00     0.202 C 
BRANCH   3   4
ATOM      4  C   UNL A   1      37.119  21.609  25.339  1.00  0.00     0.261 C 
BRANCH   4   5
ATOM      5  O   UNL A   1      36.774  22.939  24.915  1.00  0.00    -0.461 OA
BRANCH   5   6
ATOM      6  C   UNL A   1      35.891  23.087  23.885  1.00  0.00     0.334 C 
ATOM      7  O   UNL A   1      36.183  22.901  22.709  1.00  0.00    -0.249 OA
BRANCH   6   8
ATOM      8  C   UNL A   1      34.503  23.572  24.401  1.00  0.00     0.163 C 
ATOM      9  C   UNL A   1      34.702  24.417  25.688  1.00  0.00     0.064 C 
ATOM     10  C   UNL A   1      33.968  24.460  23.256  1.00  0.00     0.064 C 
ATOM     11  C   UNL A   1      33.585  25.376  26.026  1.00  0.00     0.123 C 
ATOM     12  C   UNL A   1      32.837  25.389  23.656  1.00  0.00     0.123 C 
ATOM     13  N   UNL A   1      33.149  26.135  24.870  1.00  0.00    -0.337 N 
ATOM     14  C   UNL A   1      32.787  27.471  25.048  1.00  0.00     0.270 C 
ATOM     15  O   UNL A   1      33.258  28.180  25.930  1.00  0.00    -0.267 OA
BRANCH   8  16
ATOM     16  N   UNL A   1      33.609  22.408  24.604  1.00  0.00    -0.255 N 
ATOM     17  C   UNL A   1      32.602  19.126  23.418  1.00  0.00     0.048 C 
ATOM     18  C   UNL A   1      32.892  20.378  24.152  1.00  0.00    -0.013 A 
ATOM     19  C   UNL A   1      33.197  20.541  25.515  1.00  0.00     0.138 A 
ATOM     20  C   UNL A   1      32.954  21.663  23.651  1.00  0.00     0.113 A 
ATOM     21  N   UNL A   1      33.536  21.798  25.805  1.00  0.00    -0.180 NA
ENDBRANCH   8  16
BRANCH  14  22
ATOM     22  C   UNL A   1      31.751  27.920  24.157  1.00  0.00     0.105 A 
ATOM     23  C   UNL A   1      31.852  28.885  23.172  1.00  0.00     0.042 A 
ATOM     24  N   UNL A   1      30.436  27.528  24.213  1.00  0.00    -0.351 N 
ATOM     25  C   UNL A   1      30.548  29.163  22.698  1.00  0.00     0.000 A 
ATOM     26  C   UNL A   1      29.672  28.336  23.401  1.00  0.00     0.046 A 
ATOM     27  H   UNL A   1      30.092  26.780  24.753  1.00  0.00     0.167 HD
ATOM     28  C   UNL A   1      30.030  30.072  21.759  1.00  0.00     0.010 A 
ATOM     29  C   UNL A   1      28.285  28.400  23.234  1.00  0.00     0.026 A 
ATOM     30  C   UNL A   1      28.648  30.128  21.560  1.00  0.00     0.001 A 
ATOM     31  C   UNL A   1      27.790  29.312  22.296  1.00  0.00     0.002 A 
ENDBRANCH  14  22
ENDBRANCH   6   8
ENDBRANCH   5   6
ENDBRANCH   4   5
ENDBRANCH   3   4
ENDBRANCH   2   3
ENDBRANCH   1   2
BRANCH   1  32
ATOM     32  C   UNL A   1      41.651  20.010  26.415  1.00  0.00     0.261 C 
BRANCH  32  33
ATOM     33  O   UNL A   1      42.234  20.743  25.344  1.00  0.00    -0.460 OA
BRANCH  33  34
ATOM     34  C   UNL A   1      43.581  20.852  25.408  1.00  0.00     0.338 C 
ATOM     35  O   UNL A   1      44.398  19.957  25.452  1.00  0.00    -0.246 OA
BRANCH  34  36
ATOM     36  C   UNL A   1      43.904  22.272  25.612  1.00  0.00     0.060 A 
ATOM     37  C   UNL A   1      44.614  22.567  26.776  1.00  0.00     0.016 A 
ATOM     38  C   UNL A   1      43.247  23.263  24.868  1.00  0.00     0.016 A 
ATOM     39  C   UNL A   1      44.437  23.808  27.340  1.00  0.00     0.010 A 
ATOM     40  C   UNL A   1      43.062  24.499  25.437  1.00  0.00     0.010 A 
ATOM     41  C   UNL A   1      43.573  24.712  26.712  1.00  0.00    -0.014 A 
BRANCH  41  42
ATOM     42  C   UNL A   1      43.289  25.950  27.395  1.00  0.00     0.031 A 
ATOM     43  C   UNL A   1      44.274  27.001  27.073  1.00  0.00     0.074 A 
ATOM     44  C   UNL A   1      42.204  26.124  28.171  1.00  0.00     0.049 A 
ATOM     45  N   UNL A   1      45.169  27.492  27.859  1.00  0.00    -0.248 NA
ATOM     46  C   UNL A   1      44.406  27.405  25.664  1.00  0.00     0.031 C 
ATOM     47  C   UNL A   1      41.043  25.249  28.343  1.00  0.00     0.029 A 
ATOM     48  N   UNL A   1      41.869  27.213  28.905  1.00  0.00    -0.354 N 
ATOM     49  C   UNL A   1      45.862  28.418  27.092  1.00  0.00     0.074 A 
ATOM     50  C   UNL A   1      45.490  28.178  25.720  1.00  0.00     0.031 C 
ATOM     51  C   UNL A   1      40.037  25.958  28.909  1.00  0.00     0.029 A 
ATOM     52  C   UNL A   1      40.528  27.284  29.251  1.00  0.00     0.049 A 
ATOM     53  H   UNL A   1      42.525  27.899  29.170  1.00  0.00     0.167 HD
ATOM     54  C   UNL A   1      46.465  29.492  27.664  1.00  0.00     0.031 A 
ATOM     55  C   UNL A   1      39.878  28.389  29.697  1.00  0.00     0.031 A 
ATOM     56  C   UNL A   1      46.651  29.313  29.080  1.00  0.00     0.049 A 
ATOM     57  C   UNL A   1      40.909  29.342  30.188  1.00  0.00     0.074 A 
ATOM     58  C   UNL A   1      47.318  28.377  29.848  1.00  0.00     0.029 A 
ATOM     59  N   UNL A   1      45.743  29.915  29.921  1.00  0.00    -0.354 N 
ATOM     60  N   UNL A   1      41.637  29.118  31.245  1.00  0.00    -0.248 NA
ATOM     61  C   UNL A   1      41.478  30.280  29.227  1.00  0.00     0.031 C 
ATOM     62  C   UNL A   1      46.444  28.116  30.945  1.00  0.00     0.029 A 
ATOM     63  C   UNL A   1      45.345  28.971  30.835  1.00  0.00     0.049 A 
ATOM     64  H   UNL A   1      45.436  30.849  29.875  1.00  0.00     0.167 HD
ATOM     65  C   UNL A   1      42.918  29.512  30.882  1.00  0.00     0.074 A 
ATOM     66  C   UNL A   1      42.744  30.294  29.657  1.00  0.00     0.031 C 
ATOM     67  C   UNL A   1      44.025  28.921  31.424  1.00  0.00     0.031 A 
BRANCH  54  68
ATOM     68  C   UNL A   1      46.480  30.840  27.001  1.00  0.00    -0.014 A 
ATOM     69  C   UNL A   1      47.667  31.587  26.999  1.00  0.00     0.009 A 
ATOM     70  C   UNL A   1      45.302  31.515  26.616  1.00  0.00     0.009 A 
ATOM     71  C   UNL A   1      47.662  32.949  26.673  1.00  0.00     0.001 A 
ATOM     72  C   UNL A   1      45.300  32.859  26.248  1.00  0.00     0.001 A 
ATOM     73  C   UNL A   1      46.479  33.584  26.300  1.00  0.00     0.000 A 
ENDBRANCH  54  68
BRANCH  55  74
ATOM     74  C   UNL A   1      38.485  28.809  29.406  1.00  0.00    -0.014 A 
ATOM     75  C   UNL A   1      37.584  29.108  30.443  1.00  0.00     0.009 A 
ATOM     76  C   UNL A   1      38.114  29.180  28.100  1.00  0.00     0.009 A 
ATOM     77  C   UNL A   1      36.378  29.778  30.183  1.00  0.00     0.001 A 
ATOM     78  C   UNL A   1      36.910  29.846  27.840  1.00  0.00     0.001 A 
ATOM     79  C   UNL A   1      36.048  30.158  28.884  1.00  0.00     0.000 A 
ENDBRANCH  55  74
BRANCH  67  80
ATOM     80  C   UNL A   1      43.833  27.948  32.565  1.00  0.00    -0.014 A 
ATOM     81  C   UNL A   1      43.910  26.551  32.414  1.00  0.00     0.009 A 
ATOM     82  C   UNL A   1      43.742  28.466  33.865  1.00  0.00     0.009 A 
ATOM     83  C   UNL A   1      43.869  25.703  33.527  1.00  0.00     0.001 A 
ATOM     84  C   UNL A   1      43.724  27.622  34.978  1.00  0.00     0.001 A 
ATOM     85  C   UNL A   1      43.781  26.240  34.809  1.00  0.00     0.000 A 
ENDBRANCH  67  80
ENDBRANCH  41  42
ENDBRANCH  34  36
ENDBRANCH  33  34
ENDBRANCH  32  33
ENDBRANCH   1  32
TORSDOF 16
ENDMDL
