MODEL 1
REMARK VINA RESULT:     -10.1      0.000      0.000
REMARK SMILES CC(C)(CC(=O)OCCOCCOC(=O)c1ccc(-c2c3nc(c(-c4ccccc4)c4ccc([nH]4)c(-c4ccccc4)c4nc(c(-c5ccccc5)c5ccc2[nH]5)C=C4)C=C3)cc1)NC(=O)c1nc(C(C)(C)C)n[nH]1
REMARK SMILES IDX 9 1 8 2 7 3 5 4 6 5 4 6 2 7 1 8 3 9 64 10 65 11 66 13 67 14
REMARK SMILES IDX 68 15 75 16 69 17 74 18 70 20 71 21 72 22 73 23 10 24 11 25
REMARK SMILES IDX 12 26 13 27 14 28 15 29 16 30 17 31 63 32 18 33 62 34 19 35
REMARK SMILES IDX 20 36 21 37 56 38 22 39 61 40 55 41 57 42 23 43 60 44 54 45
REMARK SMILES IDX 53 46 24 48 46 49 31 50 45 51 32 52 35 53 44 54 58 55 33 56
REMARK SMILES IDX 34 57 43 59 59 60 36 61 25 62 26 63 30 64 27 65 29 66 28 67
REMARK SMILES IDX 47 68 48 69 52 70 49 71 51 72 50 73 37 74 38 75 42 76 39 77
REMARK SMILES IDX 41 78 40 79
REMARK H PARENT 64 12 75 19 57 47 35 58
REMARK Flexibility Score: inf
ROOT
ATOM      1  C   UNL A   1      37.042  21.873  25.722  1.00  0.00     0.202 C 
ENDROOT
BRANCH   1   2
ATOM      2  C   UNL A   1      37.144  23.331  25.276  1.00  0.00     0.261 C 
BRANCH   2   3
ATOM      3  O   UNL A   1      35.847  23.807  24.866  1.00  0.00    -0.463 OA
BRANCH   3   4
ATOM      4  C   UNL A   1      35.394  23.367  23.675  1.00  0.00     0.308 C 
ATOM      5  O   UNL A   1      36.104  23.146  22.698  1.00  0.00    -0.252 OA
BRANCH   4   6
ATOM      6  C   UNL A   1      33.906  23.088  23.631  1.00  0.00     0.150 C 
BRANCH   6   7
ATOM      7  C   UNL A   1      33.237  22.137  24.649  1.00  0.00     0.045 C 
ATOM      8  C   UNL A   1      31.749  21.926  24.315  1.00  0.00     0.035 C 
ATOM      9  C   UNL A   1      33.915  20.751  24.489  1.00  0.00     0.035 C 
BRANCH   7  10
ATOM     10  N   UNL A   1      33.556  22.559  26.032  1.00  0.00    -0.344 N 
ATOM     11  C   UNL A   1      32.680  23.108  26.939  1.00  0.00     0.289 C 
ATOM     12  H   UNL A   1      34.486  22.432  26.331  1.00  0.00     0.164 HD
ATOM     13  O   UNL A   1      32.572  22.587  28.048  1.00  0.00    -0.266 OA
BRANCH  11  14
ATOM     14  C   UNL A   1      31.980  24.300  26.569  1.00  0.00     0.214 A 
ATOM     15  N   UNL A   1      32.538  25.386  26.070  1.00  0.00    -0.207 NA
ATOM     16  N   UNL A   1      30.664  24.539  26.813  1.00  0.00    -0.255 N 
ATOM     17  C   UNL A   1      31.546  26.319  26.196  1.00  0.00     0.156 A 
ATOM     18  N   UNL A   1      30.339  25.806  26.519  1.00  0.00    -0.158 NA
ATOM     19  H   UNL A   1      30.032  23.869  27.161  1.00  0.00     0.192 HD
BRANCH  17  20
ATOM     20  C   UNL A   1      31.843  28.052  25.959  1.00  0.00     0.024 C 
ATOM     21  C   UNL A   1      31.082  29.203  24.247  1.00  0.00     0.019 C 
ATOM     22  C   UNL A   1      31.552  28.414  27.681  1.00  0.00     0.019 C 
ATOM     23  C   UNL A   1      33.580  27.768  26.376  1.00  0.00     0.019 C 
ENDBRANCH  17  20
ENDBRANCH  11  14
ENDBRANCH   7  10
ENDBRANCH   6   7
ENDBRANCH   4   6
ENDBRANCH   3   4
ENDBRANCH   2   3
ENDBRANCH   1   2
BRANCH   1  24
ATOM     24  O   UNL A   1      37.581  20.932  24.793  1.00  0.00    -0.374 OA
BRANCH  24  25
ATOM     25  C   UNL A   1      38.696  20.171  25.267  1.00  0.00     0.202 C 
BRANCH  25  26
ATOM     26  C   UNL A   1      39.753  20.989  26.022  1.00  0.00     0.261 C 
BRANCH  26  27
ATOM     27  O   UNL A   1      40.723  20.117  26.627  1.00  0.00    -0.460 OA
BRANCH  27  28
ATOM     28  C   UNL A   1      41.955  20.121  26.086  1.00  0.00     0.338 C 
ATOM     29  O   UNL A   1      42.412  19.352  25.258  1.00  0.00    -0.246 OA
BRANCH  28  30
ATOM     30  C   UNL A   1      42.671  21.346  26.489  1.00  0.00     0.060 A 
ATOM     31  C   UNL A   1      42.592  21.769  28.237  1.00  0.00     0.016 A 
ATOM     32  C   UNL A   1      43.083  22.615  25.279  1.00  0.00     0.016 A 
ATOM     33  C   UNL A   1      42.982  23.436  28.795  1.00  0.00     0.010 A 
ATOM     34  C   UNL A   1      43.515  24.287  25.842  1.00  0.00     0.010 A 
ATOM     35  C   UNL A   1      43.416  24.724  27.607  1.00  0.00    -0.014 A 
BRANCH  35  36
ATOM     36  C   UNL A   1      43.417  26.154  28.062  1.00  0.00     0.031 A 
ATOM     37  C   UNL A   1      44.715  26.793  28.500  1.00  0.00     0.074 A 
ATOM     38  C   UNL A   1      42.286  26.895  28.045  1.00  0.00     0.049 A 
ATOM     39  N   UNL A   1      44.929  27.963  29.050  1.00  0.00    -0.248 NA
ATOM     40  C   UNL A   1      45.949  26.030  28.268  1.00  0.00     0.031 C 
ATOM     41  C   UNL A   1      40.974  26.483  27.538  1.00  0.00     0.029 A 
ATOM     42  N   UNL A   1      42.045  28.163  28.525  1.00  0.00    -0.354 N 
ATOM     43  C   UNL A   1      46.309  28.050  29.227  1.00  0.00     0.074 A 
ATOM     44  C   UNL A   1      46.876  26.800  28.805  1.00  0.00     0.031 C 
ATOM     45  C   UNL A   1      40.058  27.419  27.816  1.00  0.00     0.029 A 
ATOM     46  C   UNL A   1      40.712  28.509  28.516  1.00  0.00     0.049 A 
ATOM     47  H   UNL A   1      42.757  28.763  28.846  1.00  0.00     0.167 HD
ATOM     48  C   UNL A   1      47.058  29.089  29.661  1.00  0.00     0.031 A 
ATOM     49  C   UNL A   1      40.070  29.571  29.037  1.00  0.00     0.031 A 
ATOM     50  C   UNL A   1      46.500  30.334  30.095  1.00  0.00     0.049 A 
ATOM     51  C   UNL A   1      40.891  30.651  29.671  1.00  0.00     0.074 A 
ATOM     52  C   UNL A   1      47.146  31.448  30.595  1.00  0.00     0.029 A 
ATOM     53  N   UNL A   1      45.143  30.617  30.083  1.00  0.00    -0.354 N 
ATOM     54  N   UNL A   1      42.190  30.709  29.830  1.00  0.00    -0.248 NA
ATOM     55  C   UNL A   1      40.165  31.831  30.157  1.00  0.00     0.031 C 
ATOM     56  C   UNL A   1      46.169  32.388  30.938  1.00  0.00     0.029 A 
ATOM     57  C   UNL A   1      44.925  31.881  30.593  1.00  0.00     0.049 A 
ATOM     58  H   UNL A   1      44.440  30.008  29.758  1.00  0.00     0.167 HD
ATOM     59  C   UNL A   1      42.447  31.952  30.386  1.00  0.00     0.074 A 
ATOM     60  C   UNL A   1      41.165  32.613  30.540  1.00  0.00     0.031 C 
ATOM     61  C   UNL A   1      43.636  32.507  30.724  1.00  0.00     0.031 A 
BRANCH  48  62
ATOM     62  C   UNL A   1      48.547  28.874  29.715  1.00  0.00    -0.014 A 
ATOM     63  C   UNL A   1      49.144  28.155  30.768  1.00  0.00     0.009 A 
ATOM     64  C   UNL A   1      49.372  29.464  28.747  1.00  0.00     0.009 A 
ATOM     65  C   UNL A   1      50.535  28.084  30.877  1.00  0.00     0.001 A 
ATOM     66  C   UNL A   1      50.761  29.365  28.844  1.00  0.00     0.001 A 
ATOM     67  C   UNL A   1      51.342  28.690  29.917  1.00  0.00     0.000 A 
ENDBRANCH  48  62
BRANCH  49  68
ATOM     68  C   UNL A   1      38.585  29.658  28.972  1.00  0.00    -0.014 A 
ATOM     69  C   UNL A   1      37.938  30.076  27.801  1.00  0.00     0.009 A 
ATOM     70  C   UNL A   1      37.803  29.313  30.088  1.00  0.00     0.009 A 
ATOM     71  C   UNL A   1      36.543  30.177  27.758  1.00  0.00     0.001 A 
ATOM     72  C   UNL A   1      36.409  29.391  30.035  1.00  0.00     0.001 A 
ATOM     73  C   UNL A   1      35.780  29.833  28.873  1.00  0.00     0.000 A 
ENDBRANCH  49  68
BRANCH  61  74
ATOM     74  C   UNL A   1      43.606  33.913  31.236  1.00  0.00    -0.014 A 
ATOM     75  C   UNL A   1      43.512  34.187  32.608  1.00  0.00     0.009 A 
ATOM     76  C   UNL A   1      43.729  34.975  30.327  1.00  0.00     0.009 A 
ATOM     77  C   UNL A   1      43.515  35.507  33.059  1.00  0.00     0.001 A 
ATOM     78  C   UNL A   1      43.764  36.290  30.783  1.00  0.00     0.001 A 
ATOM     79  C   UNL A   1      43.648  36.556  32.147  1.00  0.00     0.000 A 
ENDBRANCH  61  74
ENDBRANCH  35  36
ENDBRANCH  28  30
ENDBRANCH  27  28
ENDBRANCH  26  27
ENDBRANCH  25  26
ENDBRANCH  24  25
ENDBRANCH   1  24
TORSDOF 18
ENDMDL
MODEL 2
REMARK VINA RESULT:     -10.0      3.018      4.104
REMARK SMILES CC(C)(CC(=O)OCCOCCOC(=O)c1ccc(-c2c3nc(c(-c4ccccc4)c4ccc([nH]4)c(-c4ccccc4)c4nc(c(-c5ccccc5)c5ccc2[nH]5)C=C4)C=C3)cc1)NC(=O)c1nc(C(C)(C)C)n[nH]1
REMARK SMILES IDX 9 1 8 2 7 3 5 4 6 5 4 6 2 7 1 8 3 9 64 10 65 11 66 13 67 14
REMARK SMILES IDX 68 15 75 16 69 17 74 18 70 20 71 21 72 22 73 23 10 24 11 25
REMARK SMILES IDX 12 26 13 27 14 28 15 29 16 30 17 31 63 32 18 33 62 34 19 35
REMARK SMILES IDX 20 36 21 37 56 38 22 39 61 40 55 41 57 42 23 43 60 44 54 45
REMARK SMILES IDX 53 46 24 48 46 49 31 50 45 51 32 52 35 53 44 54 58 55 33 56
REMARK SMILES IDX 34 57 43 59 59 60 36 61 25 62 26 63 30 64 27 65 29 66 28 67
REMARK SMILES IDX 47 68 48 69 52 70 49 71 51 72 50 73 37 74 38 75 42 76 39 77
REMARK SMILES IDX 41 78 40 79
REMARK H PARENT 64 12 75 19 57 47 35 58
REMARK Flexibility Score: inf
ROOT
ATOM      1  C   UNL A   1      38.979  21.571  25.950  1.00  0.00     0.202 C 
ENDROOT
BRANCH   1   2
ATOM      2  C   UNL A   1      37.799  21.735  24.992  1.00  0.00     0.261 C 
BRANCH   2   3
ATOM      3  O   UNL A   1      36.587  21.941  25.743  1.00  0.00    -0.463 OA
BRANCH   3   4
ATOM      4  C   UNL A   1      35.596  21.047  25.543  1.00  0.00     0.308 C 
ATOM      5  O   UNL A   1      35.735  19.974  24.964  1.00  0.00    -0.252 OA
BRANCH   4   6
ATOM      6  C   UNL A   1      34.267  21.433  26.155  1.00  0.00     0.150 C 
BRANCH   6   7
ATOM      7  C   UNL A   1      33.284  22.369  25.416  1.00  0.00     0.045 C 
ATOM      8  C   UNL A   1      31.857  22.228  25.978  1.00  0.00     0.035 C 
ATOM      9  C   UNL A   1      33.725  23.824  25.723  1.00  0.00     0.035 C 
BRANCH   7  10
ATOM     10  N   UNL A   1      33.441  22.225  23.951  1.00  0.00    -0.344 N 
ATOM     11  C   UNL A   1      33.458  23.246  23.029  1.00  0.00     0.289 C 
ATOM     12  H   UNL A   1      33.545  21.310  23.604  1.00  0.00     0.164 HD
ATOM     13  O   UNL A   1      34.407  23.325  22.250  1.00  0.00    -0.266 OA
BRANCH  11  14
ATOM     14  C   UNL A   1      32.336  24.134  22.981  1.00  0.00     0.214 A 
ATOM     15  N   UNL A   1      32.402  25.448  23.078  1.00  0.00    -0.207 NA
ATOM     16  N   UNL A   1      31.034  23.745  22.976  1.00  0.00    -0.255 N 
ATOM     17  C   UNL A   1      31.100  25.798  23.307  1.00  0.00     0.156 A 
ATOM     18  N   UNL A   1      30.214  24.797  23.114  1.00  0.00    -0.158 NA
ATOM     19  H   UNL A   1      30.731  22.813  22.883  1.00  0.00     0.192 HD
BRANCH  17  20
ATOM     20  C   UNL A   1      30.637  27.432  23.820  1.00  0.00     0.024 C 
ATOM     21  C   UNL A   1      28.890  28.513  23.039  1.00  0.00     0.019 C 
ATOM     22  C   UNL A   1      30.967  27.067  25.535  1.00  0.00     0.019 C 
ATOM     23  C   UNL A   1      32.370  27.927  23.657  1.00  0.00     0.019 C 
ENDBRANCH  17  20
ENDBRANCH  11  14
ENDBRANCH   7  10
ENDBRANCH   6   7
ENDBRANCH   4   6
ENDBRANCH   3   4
ENDBRANCH   2   3
ENDBRANCH   1   2
BRANCH   1  24
ATOM     24  O   UNL A   1      39.708  20.355  25.787  1.00  0.00    -0.374 OA
BRANCH  24  25
ATOM     25  C   UNL A   1      40.780  20.153  26.713  1.00  0.00     0.202 C 
BRANCH  25  26
ATOM     26  C   UNL A   1      42.171  20.496  26.163  1.00  0.00     0.261 C 
BRANCH  26  27
ATOM     27  O   UNL A   1      42.583  21.796  26.618  1.00  0.00    -0.460 OA
BRANCH  27  28
ATOM     28  C   UNL A   1      42.640  22.768  25.688  1.00  0.00     0.338 C 
ATOM     29  O   UNL A   1      43.038  22.683  24.539  1.00  0.00    -0.246 OA
BRANCH  28  30
ATOM     30  C   UNL A   1      41.947  23.971  26.184  1.00  0.00     0.060 A 
ATOM     31  C   UNL A   1      42.790  25.538  25.912  1.00  0.00     0.016 A 
ATOM     32  C   UNL A   1      40.677  23.847  27.456  1.00  0.00     0.016 A 
ATOM     33  C   UNL A   1      42.334  27.001  26.857  1.00  0.00     0.010 A 
ATOM     34  C   UNL A   1      40.187  25.331  28.383  1.00  0.00     0.010 A 
ATOM     35  C   UNL A   1      41.053  26.912  28.126  1.00  0.00    -0.014 A 
BRANCH  35  36
ATOM     36  C   UNL A   1      40.925  28.044  29.102  1.00  0.00     0.031 A 
ATOM     37  C   UNL A   1      41.866  28.116  30.283  1.00  0.00     0.074 A 
ATOM     38  C   UNL A   1      40.013  29.026  28.921  1.00  0.00     0.049 A 
ATOM     39  N   UNL A   1      41.856  28.924  31.315  1.00  0.00    -0.248 NA
ATOM     40  C   UNL A   1      42.991  27.171  30.302  1.00  0.00     0.031 C 
ATOM     41  C   UNL A   1      39.111  29.185  27.777  1.00  0.00     0.029 A 
ATOM     42  N   UNL A   1      39.653  30.069  29.744  1.00  0.00    -0.354 N 
ATOM     43  C   UNL A   1      42.959  28.566  32.086  1.00  0.00     0.074 A 
ATOM     44  C   UNL A   1      43.572  27.428  31.458  1.00  0.00     0.031 C 
ATOM     45  C   UNL A   1      38.248  30.183  28.007  1.00  0.00     0.029 A 
ATOM     46  C   UNL A   1      38.535  30.748  29.312  1.00  0.00     0.049 A 
ATOM     47  H   UNL A   1      40.146  30.306  30.563  1.00  0.00     0.167 HD
ATOM     48  C   UNL A   1      43.459  29.149  33.199  1.00  0.00     0.031 A 
ATOM     49  C   UNL A   1      37.794  31.702  29.906  1.00  0.00     0.031 A 
ATOM     50  C   UNL A   1      42.847  30.273  33.840  1.00  0.00     0.049 A 
ATOM     51  C   UNL A   1      38.257  32.235  31.227  1.00  0.00     0.074 A 
ATOM     52  C   UNL A   1      43.230  30.930  34.993  1.00  0.00     0.029 A 
ATOM     53  N   UNL A   1      41.706  30.903  33.369  1.00  0.00    -0.354 N 
ATOM     54  N   UNL A   1      39.299  31.878  31.937  1.00  0.00    -0.248 NA
ATOM     55  C   UNL A   1      37.471  33.329  31.808  1.00  0.00     0.031 C 
ATOM     56  C   UNL A   1      42.282  31.927  35.250  1.00  0.00     0.029 A 
ATOM     57  C   UNL A   1      41.350  31.927  34.223  1.00  0.00     0.049 A 
ATOM     58  H   UNL A   1      41.222  30.657  32.546  1.00  0.00     0.167 HD
ATOM     59  C   UNL A   1      39.327  32.738  33.024  1.00  0.00     0.074 A 
ATOM     60  C   UNL A   1      38.193  33.630  32.878  1.00  0.00     0.031 C 
ATOM     61  C   UNL A   1      40.219  32.798  34.041  1.00  0.00     0.031 A 
BRANCH  48  62
ATOM     62  C   UNL A   1      44.697  28.529  33.790  1.00  0.00    -0.014 A 
ATOM     63  C   UNL A   1      44.615  27.517  34.764  1.00  0.00     0.009 A 
ATOM     64  C   UNL A   1      45.961  29.019  33.429  1.00  0.00     0.009 A 
ATOM     65  C   UNL A   1      45.769  27.053  35.402  1.00  0.00     0.001 A 
ATOM     66  C   UNL A   1      47.113  28.531  34.048  1.00  0.00     0.001 A 
ATOM     67  C   UNL A   1      47.016  27.561  35.045  1.00  0.00     0.000 A 
ENDBRANCH  48  62
BRANCH  49  68
ATOM     68  C   UNL A   1      36.555  32.208  29.254  1.00  0.00    -0.014 A 
ATOM     69  C   UNL A   1      36.552  33.424  28.558  1.00  0.00     0.009 A 
ATOM     70  C   UNL A   1      35.363  31.465  29.318  1.00  0.00     0.009 A 
ATOM     71  C   UNL A   1      35.377  33.903  27.968  1.00  0.00     0.001 A 
ATOM     72  C   UNL A   1      34.197  31.933  28.707  1.00  0.00     0.001 A 
ATOM     73  C   UNL A   1      34.202  33.157  28.042  1.00  0.00     0.000 A 
ENDBRANCH  49  68
BRANCH  61  74
ATOM     74  C   UNL A   1      40.034  33.897  35.040  1.00  0.00    -0.014 A 
ATOM     75  C   UNL A   1      39.345  33.682  36.242  1.00  0.00     0.009 A 
ATOM     76  C   UNL A   1      40.610  35.152  34.790  1.00  0.00     0.009 A 
ATOM     77  C   UNL A   1      39.212  34.718  37.166  1.00  0.00     0.001 A 
ATOM     78  C   UNL A   1      40.503  36.175  35.729  1.00  0.00     0.001 A 
ATOM     79  C   UNL A   1      39.797  35.960  36.913  1.00  0.00     0.000 A 
ENDBRANCH  61  74
ENDBRANCH  35  36
ENDBRANCH  28  30
ENDBRANCH  27  28
ENDBRANCH  26  27
ENDBRANCH  25  26
ENDBRANCH  24  25
ENDBRANCH   1  24
TORSDOF 18
ENDMDL
MODEL 3
REMARK VINA RESULT:      -9.9      3.569      8.510
REMARK SMILES CC(C)(CC(=O)OCCOCCOC(=O)c1ccc(-c2c3nc(c(-c4ccccc4)c4ccc([nH]4)c(-c4ccccc4)c4nc(c(-c5ccccc5)c5ccc2[nH]5)C=C4)C=C3)cc1)NC(=O)c1nc(C(C)(C)C)n[nH]1
REMARK SMILES IDX 9 1 8 2 7 3 5 4 6 5 4 6 2 7 1 8 3 9 64 10 65 11 66 13 67 14
REMARK SMILES IDX 68 15 75 16 69 17 74 18 70 20 71 21 72 22 73 23 10 24 11 25
REMARK SMILES IDX 12 26 13 27 14 28 15 29 16 30 17 31 63 32 18 33 62 34 19 35
REMARK SMILES IDX 20 36 21 37 56 38 22 39 61 40 55 41 57 42 23 43 60 44 54 45
REMARK SMILES IDX 53 46 24 48 46 49 31 50 45 51 32 52 35 53 44 54 58 55 33 56
REMARK SMILES IDX 34 57 43 59 59 60 36 61 25 62 26 63 30 64 27 65 29 66 28 67
REMARK SMILES IDX 47 68 48 69 52 70 49 71 51 72 50 73 37 74 38 75 42 76 39 77
REMARK SMILES IDX 41 78 40 79
REMARK H PARENT 64 12 75 19 57 47 35 58
REMARK Flexibility Score: inf
ROOT
ATOM      1  C   UNL A   1      32.879  32.892  27.795  1.00  0.00     0.202 C 
ENDROOT
BRANCH   1   2
ATOM      2  C   UNL A   1      31.834  32.473  26.762  1.00  0.00     0.261 C 
BRANCH   2   3
ATOM      3  O   UNL A   1      31.434  31.109  26.999  1.00  0.00    -0.463 OA
BRANCH   3   4
ATOM      4  C   UNL A   1      32.108  30.158  26.320  1.00  0.00     0.308 C 
ATOM      5  O   UNL A   1      32.978  30.384  25.485  1.00  0.00    -0.252 OA
BRANCH   4   6
ATOM      6  C   UNL A   1      31.759  28.738  26.713  1.00  0.00     0.150 C 
BRANCH   6   7
ATOM      7  C   UNL A   1      31.857  27.578  25.697  1.00  0.00     0.045 C 
ATOM      8  C   UNL A   1      33.141  26.756  25.916  1.00  0.00     0.035 C 
ATOM      9  C   UNL A   1      30.675  26.616  25.991  1.00  0.00     0.035 C 
BRANCH   7  10
ATOM     10  N   UNL A   1      31.609  28.074  24.324  1.00  0.00    -0.344 N 
ATOM     11  C   UNL A   1      31.242  27.317  23.237  1.00  0.00     0.289 C 
ATOM     12  H   UNL A   1      31.717  29.042  24.177  1.00  0.00     0.164 HD
ATOM     13  O   UNL A   1      30.238  27.638  22.602  1.00  0.00    -0.266 OA
BRANCH  11  14
ATOM     14  C   UNL A   1      32.083  26.222  22.859  1.00  0.00     0.214 A 
ATOM     15  N   UNL A   1      31.800  24.947  23.042  1.00  0.00    -0.207 NA
ATOM     16  N   UNL A   1      33.355  26.340  22.393  1.00  0.00    -0.255 N 
ATOM     17  C   UNL A   1      33.007  24.337  22.835  1.00  0.00     0.156 A 
ATOM     18  N   UNL A   1      33.950  25.143  22.301  1.00  0.00    -0.158 NA
ATOM     19  H   UNL A   1      33.783  27.194  22.154  1.00  0.00     0.192 HD
BRANCH  17  20
ATOM     20  C   UNL A   1      33.288  22.635  23.247  1.00  0.00     0.024 C 
ATOM     21  C   UNL A   1      32.127  20.964  22.414  1.00  0.00     0.019 C 
ATOM     22  C   UNL A   1      35.059  22.830  23.159  1.00  0.00     0.019 C 
ATOM     23  C   UNL A   1      33.384  23.116  24.988  1.00  0.00     0.019 C 
ENDBRANCH  17  20
ENDBRANCH  11  14
ENDBRANCH   7  10
ENDBRANCH   6   7
ENDBRANCH   4   6
ENDBRANCH   3   4
ENDBRANCH   2   3
ENDBRANCH   1   2
BRANCH   1  24
ATOM     24  O   UNL A   1      32.707  34.212  28.308  1.00  0.00    -0.374 OA
BRANCH  24  25
ATOM     25  C   UNL A   1      33.862  34.787  28.926  1.00  0.00     0.202 C 
BRANCH  25  26
ATOM     26  C   UNL A   1      33.841  34.767  30.461  1.00  0.00     0.261 C 
BRANCH  26  27
ATOM     27  O   UNL A   1      34.988  34.065  30.969  1.00  0.00    -0.460 OA
BRANCH  27  28
ATOM     28  C   UNL A   1      34.745  32.937  31.660  1.00  0.00     0.338 C 
ATOM     29  O   UNL A   1      33.846  32.725  32.457  1.00  0.00    -0.246 OA
BRANCH  28  30
ATOM     30  C   UNL A   1      35.624  31.857  31.175  1.00  0.00     0.060 A 
ATOM     31  C   UNL A   1      36.751  31.150  32.389  1.00  0.00     0.016 A 
ATOM     32  C   UNL A   1      35.966  31.664  29.417  1.00  0.00     0.016 A 
ATOM     33  C   UNL A   1      38.184  30.197  31.862  1.00  0.00     0.010 A 
ATOM     34  C   UNL A   1      37.389  30.670  28.883  1.00  0.00     0.010 A 
ATOM     35  C   UNL A   1      38.543  29.971  30.107  1.00  0.00    -0.014 A 
BRANCH  35  36
ATOM     36  C   UNL A   1      39.896  29.461  29.707  1.00  0.00     0.031 A 
ATOM     37  C   UNL A   1      41.068  30.414  29.668  1.00  0.00     0.074 A 
ATOM     38  C   UNL A   1      40.096  28.154  29.424  1.00  0.00     0.049 A 
ATOM     39  N   UNL A   1      42.289  30.225  29.231  1.00  0.00    -0.248 NA
ATOM     40  C   UNL A   1      40.855  31.760  30.218  1.00  0.00     0.031 C 
ATOM     41  C   UNL A   1      39.113  27.072  29.531  1.00  0.00     0.029 A 
ATOM     42  N   UNL A   1      41.208  27.510  28.928  1.00  0.00    -0.354 N 
ATOM     43  C   UNL A   1      42.960  31.426  29.451  1.00  0.00     0.074 A 
ATOM     44  C   UNL A   1      42.006  32.360  29.984  1.00  0.00     0.031 C 
ATOM     45  C   UNL A   1      39.619  25.938  29.031  1.00  0.00     0.029 A 
ATOM     46  C   UNL A   1      40.970  26.201  28.571  1.00  0.00     0.049 A 
ATOM     47  H   UNL A   1      42.087  27.944  28.836  1.00  0.00     0.167 HD
ATOM     48  C   UNL A   1      44.265  31.730  29.272  1.00  0.00     0.031 A 
ATOM     49  C   UNL A   1      41.737  25.309  27.918  1.00  0.00     0.031 A 
ATOM     50  C   UNL A   1      45.219  30.810  28.730  1.00  0.00     0.049 A 
ATOM     51  C   UNL A   1      43.139  25.705  27.568  1.00  0.00     0.074 A 
ATOM     52  C   UNL A   1      46.559  31.007  28.462  1.00  0.00     0.029 A 
ATOM     53  N   UNL A   1      44.915  29.507  28.367  1.00  0.00    -0.354 N 
ATOM     54  N   UNL A   1      43.747  26.846  27.782  1.00  0.00    -0.248 NA
ATOM     55  C   UNL A   1      43.972  24.681  26.927  1.00  0.00     0.031 C 
ATOM     56  C   UNL A   1      47.054  29.834  27.881  1.00  0.00     0.029 A 
ATOM     57  C   UNL A   1      46.037  28.892  27.849  1.00  0.00     0.049 A 
ATOM     58  H   UNL A   1      44.031  29.084  28.466  1.00  0.00     0.167 HD
ATOM     59  C   UNL A   1      45.052  26.662  27.352  1.00  0.00     0.074 A 
ATOM     60  C   UNL A   1      45.143  25.301  26.862  1.00  0.00     0.031 C 
ATOM     61  C   UNL A   1      46.089  27.534  27.377  1.00  0.00     0.031 A 
BRANCH  48  62
ATOM     62  C   UNL A   1      44.691  33.128  29.633  1.00  0.00    -0.014 A 
ATOM     63  C   UNL A   1      44.886  33.511  30.973  1.00  0.00     0.009 A 
ATOM     64  C   UNL A   1      44.820  34.097  28.628  1.00  0.00     0.009 A 
ATOM     65  C   UNL A   1      45.144  34.845  31.298  1.00  0.00     0.001 A 
ATOM     66  C   UNL A   1      45.108  35.424  28.955  1.00  0.00     0.001 A 
ATOM     67  C   UNL A   1      45.253  35.801  30.290  1.00  0.00     0.000 A 
ENDBRANCH  48  62
BRANCH  49  68
ATOM     68  C   UNL A   1      41.196  23.968  27.564  1.00  0.00    -0.014 A 
ATOM     69  C   UNL A   1      40.344  23.801  26.464  1.00  0.00     0.009 A 
ATOM     70  C   UNL A   1      41.540  22.838  28.327  1.00  0.00     0.009 A 
ATOM     71  C   UNL A   1      39.822  22.541  26.154  1.00  0.00     0.001 A 
ATOM     72  C   UNL A   1      41.038  21.576  28.001  1.00  0.00     0.001 A 
ATOM     73  C   UNL A   1      40.171  21.430  26.920  1.00  0.00     0.000 A 
ENDBRANCH  49  68
BRANCH  61  74
ATOM     74  C   UNL A   1      47.416  27.021  26.913  1.00  0.00    -0.014 A 
ATOM     75  C   UNL A   1      47.745  26.978  25.551  1.00  0.00     0.009 A 
ATOM     76  C   UNL A   1      48.369  26.628  27.866  1.00  0.00     0.009 A 
ATOM     77  C   UNL A   1      49.001  26.521  25.150  1.00  0.00     0.001 A 
ATOM     78  C   UNL A   1      49.632  26.202  27.463  1.00  0.00     0.001 A 
ATOM     79  C   UNL A   1      49.944  26.142  26.105  1.00  0.00     0.000 A 
ENDBRANCH  61  74
ENDBRANCH  35  36
ENDBRANCH  28  30
ENDBRANCH  27  28
ENDBRANCH  26  27
ENDBRANCH  25  26
ENDBRANCH  24  25
ENDBRANCH   1  24
TORSDOF 18
ENDMDL
