MODEL 1
REMARK VINA RESULT:     -10.7      0.000      0.000
REMARK SMILES O=C(OCCOCCOC(=O)c1cc(-c2cccc(Cl)c2)ccc1Cl)c1ccc(-c2c3nc(c(-c4ccccc4)c4ccc([nH]4)c(-c4ccccc4)c4nc(c(-c5ccccc5)c5ccc2[nH]5)C=C4)C=C3)cc1
REMARK SMILES IDX 5 1 4 2 3 3 2 4 1 5 26 6 27 7 73 8 28 9 72 10 29 11 30 12
REMARK SMILES IDX 31 13 66 14 32 15 71 16 65 17 67 18 33 19 70 20 64 21 63 22
REMARK SMILES IDX 34 24 56 25 41 26 55 27 42 28 45 29 54 30 68 31 43 32 44 33
REMARK SMILES IDX 53 35 69 36 46 37 35 38 36 39 40 40 37 41 39 42 38 43 57 44
REMARK SMILES IDX 58 45 62 46 59 47 61 48 60 49 47 50 48 51 52 52 49 53 51 54
REMARK SMILES IDX 50 55 6 56 7 57 8 58 9 59 10 60 11 61 12 62 13 63 24 64
REMARK SMILES IDX 14 65 23 66 25 67 22 68 15 69 16 70 21 71 17 72 19 73 18 74
REMARK SMILES IDX 20 75
REMARK H PARENT 67 23 45 34
REMARK Flexibility Score: inf
ROOT
ATOM      1  C   UNL A   1      31.298  31.892  26.768  1.00  0.00     0.202 C 
ENDROOT
BRANCH   1   2
ATOM      2  C   UNL A   1      32.330  33.022  26.692  1.00  0.00     0.261 C 
BRANCH   2   3
ATOM      3  O   UNL A   1      32.118  33.967  27.755  1.00  0.00    -0.460 OA
BRANCH   3   4
ATOM      4  C   UNL A   1      33.035  34.585  28.534  1.00  0.00     0.338 C 
ATOM      5  O   UNL A   1      32.850  35.762  28.840  1.00  0.00    -0.246 OA
BRANCH   4   6
ATOM      6  C   UNL A   1      34.272  33.922  29.048  1.00  0.00     0.060 A 
ATOM      7  C   UNL A   1      35.572  34.380  28.829  1.00  0.00     0.016 A 
ATOM      8  C   UNL A   1      34.102  32.814  29.898  1.00  0.00     0.016 A 
ATOM      9  C   UNL A   1      36.671  33.745  29.385  1.00  0.00     0.010 A 
ATOM     10  C   UNL A   1      35.201  32.192  30.499  1.00  0.00     0.010 A 
ATOM     11  C   UNL A   1      36.492  32.658  30.233  1.00  0.00    -0.014 A 
BRANCH  11  12
ATOM     12  C   UNL A   1      37.701  32.006  30.764  1.00  0.00     0.031 A 
ATOM     13  C   UNL A   1      38.145  32.340  32.151  1.00  0.00     0.074 A 
ATOM     14  C   UNL A   1      38.274  31.017  30.054  1.00  0.00     0.049 A 
ATOM     15  N   UNL A   1      39.154  31.867  32.830  1.00  0.00    -0.248 NA
ATOM     16  C   UNL A   1      37.329  33.324  32.884  1.00  0.00     0.031 C 
ATOM     17  C   UNL A   1      37.815  30.542  28.744  1.00  0.00     0.029 A 
ATOM     18  N   UNL A   1      39.331  30.202  30.352  1.00  0.00    -0.354 N 
ATOM     19  C   UNL A   1      39.106  32.507  34.061  1.00  0.00     0.074 A 
ATOM     20  C   UNL A   1      37.974  33.405  34.037  1.00  0.00     0.031 C 
ATOM     21  C   UNL A   1      38.568  29.496  28.370  1.00  0.00     0.029 A 
ATOM     22  C   UNL A   1      39.597  29.272  29.377  1.00  0.00     0.049 A 
ATOM     23  H   UNL A   1      39.852  30.276  31.184  1.00  0.00     0.167 HD
ATOM     24  C   UNL A   1      39.946  32.358  35.111  1.00  0.00     0.031 A 
ATOM     25  C   UNL A   1      40.585  28.361  29.302  1.00  0.00     0.031 A 
ATOM     26  C   UNL A   1      41.079  31.476  35.096  1.00  0.00     0.049 A 
ATOM     27  C   UNL A   1      41.570  28.300  30.437  1.00  0.00     0.074 A 
ATOM     28  C   UNL A   1      42.053  31.299  36.060  1.00  0.00     0.029 A 
ATOM     29  N   UNL A   1      41.385  30.618  34.048  1.00  0.00    -0.354 N 
ATOM     30  N   UNL A   1      41.563  28.961  31.571  1.00  0.00    -0.248 NA
ATOM     31  C   UNL A   1      42.706  27.385  30.277  1.00  0.00     0.031 C 
ATOM     32  C   UNL A   1      42.976  30.365  35.573  1.00  0.00     0.029 A 
ATOM     33  C   UNL A   1      42.545  29.922  34.331  1.00  0.00     0.049 A 
ATOM     34  H   UNL A   1      40.854  30.520  33.225  1.00  0.00     0.167 HD
ATOM     35  C   UNL A   1      42.687  28.537  32.264  1.00  0.00     0.074 A 
ATOM     36  C   UNL A   1      43.335  27.539  31.433  1.00  0.00     0.031 C 
ATOM     37  C   UNL A   1      43.153  28.938  33.473  1.00  0.00     0.031 A 
BRANCH  24  38
ATOM     38  C   UNL A   1      39.700  33.234  36.304  1.00  0.00    -0.014 A 
ATOM     39  C   UNL A   1      38.855  32.832  37.350  1.00  0.00     0.009 A 
ATOM     40  C   UNL A   1      40.298  34.503  36.362  1.00  0.00     0.009 A 
ATOM     41  C   UNL A   1      38.585  33.699  38.412  1.00  0.00     0.001 A 
ATOM     42  C   UNL A   1      40.046  35.357  37.436  1.00  0.00     0.001 A 
ATOM     43  C   UNL A   1      39.181  34.960  38.455  1.00  0.00     0.000 A 
ENDBRANCH  24  38
BRANCH  25  44
ATOM     44  C   UNL A   1      40.732  27.497  28.100  1.00  0.00    -0.014 A 
ATOM     45  C   UNL A   1      40.157  26.218  28.049  1.00  0.00     0.009 A 
ATOM     46  C   UNL A   1      41.480  27.942  26.996  1.00  0.00     0.009 A 
ATOM     47  C   UNL A   1      40.349  25.398  26.933  1.00  0.00     0.001 A 
ATOM     48  C   UNL A   1      41.642  27.135  25.869  1.00  0.00     0.001 A 
ATOM     49  C   UNL A   1      41.086  25.858  25.843  1.00  0.00     0.000 A 
ENDBRANCH  25  44
BRANCH  37  50
ATOM     50  C   UNL A   1      44.408  28.276  33.961  1.00  0.00    -0.014 A 
ATOM     51  C   UNL A   1      44.358  27.084  34.699  1.00  0.00     0.009 A 
ATOM     52  C   UNL A   1      45.654  28.835  33.641  1.00  0.00     0.009 A 
ATOM     53  C   UNL A   1      45.537  26.481  35.136  1.00  0.00     0.001 A 
ATOM     54  C   UNL A   1      46.831  28.213  34.055  1.00  0.00     0.001 A 
ATOM     55  C   UNL A   1      46.771  27.042  34.810  1.00  0.00     0.000 A 
ENDBRANCH  37  50
ENDBRANCH  11  12
ENDBRANCH   4   6
ENDBRANCH   3   4
ENDBRANCH   2   3
ENDBRANCH   1   2
BRANCH   1  56
ATOM     56  O   UNL A   1      31.858  30.606  27.032  1.00  0.00    -0.374 OA
BRANCH  56  57
ATOM     57  C   UNL A   1      33.289  30.529  26.963  1.00  0.00     0.202 C 
BRANCH  57  58
ATOM     58  C   UNL A   1      33.715  29.063  27.021  1.00  0.00     0.261 C 
BRANCH  58  59
ATOM     59  O   UNL A   1      32.600  28.270  26.586  1.00  0.00    -0.460 OA
BRANCH  59  60
ATOM     60  C   UNL A   1      32.715  27.694  25.365  1.00  0.00     0.339 C 
ATOM     61  O   UNL A   1      33.689  27.132  24.892  1.00  0.00    -0.246 OA
BRANCH  60  62
ATOM     62  C   UNL A   1      31.361  27.612  24.789  1.00  0.00     0.079 A 
ATOM     63  C   UNL A   1      30.846  28.789  24.210  1.00  0.00     0.026 A 
ATOM     64  C   UNL A   1      30.637  26.420  24.718  1.00  0.00     0.055 A 
ATOM     65  C   UNL A   1      29.638  28.769  23.501  1.00  0.00    -0.017 A 
ATOM     66  C   UNL A   1      29.430  26.395  24.019  1.00  0.00     0.022 A 
ATOM     67  Cl  UNL A   1      31.135  24.960  25.496  1.00  0.00    -0.083 Cl
ATOM     68  C   UNL A   1      28.944  27.553  23.406  1.00  0.00     0.010 A 
BRANCH  65  69
ATOM     69  C   UNL A   1      29.092  29.969  22.863  1.00  0.00    -0.017 A 
ATOM     70  C   UNL A   1      28.378  29.863  21.658  1.00  0.00     0.009 A 
ATOM     71  C   UNL A   1      29.330  31.246  23.393  1.00  0.00     0.029 A 
ATOM     72  C   UNL A   1      27.932  31.004  20.985  1.00  0.00     0.002 A 
ATOM     73  C   UNL A   1      28.882  32.384  22.716  1.00  0.00     0.041 A 
ATOM     74  C   UNL A   1      28.191  32.267  21.512  1.00  0.00     0.020 A 
ATOM     75  Cl  UNL A   1      29.209  33.944  23.364  1.00  0.00    -0.084 Cl
ENDBRANCH  65  69
ENDBRANCH  60  62
ENDBRANCH  59  60
ENDBRANCH  58  59
ENDBRANCH  57  58
ENDBRANCH  56  57
ENDBRANCH   1  56
TORSDOF 15
ENDMDL
MODEL 2
REMARK VINA RESULT:     -10.5      2.259      4.630
REMARK SMILES O=C(OCCOCCOC(=O)c1cc(-c2cccc(Cl)c2)ccc1Cl)c1ccc(-c2c3nc(c(-c4ccccc4)c4ccc([nH]4)c(-c4ccccc4)c4nc(c(-c5ccccc5)c5ccc2[nH]5)C=C4)C=C3)cc1
REMARK SMILES IDX 5 1 4 2 3 3 2 4 1 5 26 6 27 7 73 8 28 9 72 10 29 11 30 12
REMARK SMILES IDX 31 13 66 14 32 15 71 16 65 17 67 18 33 19 70 20 64 21 63 22
REMARK SMILES IDX 34 24 56 25 41 26 55 27 42 28 45 29 54 30 68 31 43 32 44 33
REMARK SMILES IDX 53 35 69 36 46 37 35 38 36 39 40 40 37 41 39 42 38 43 57 44
REMARK SMILES IDX 58 45 62 46 59 47 61 48 60 49 47 50 48 51 52 52 49 53 51 54
REMARK SMILES IDX 50 55 6 56 7 57 8 58 9 59 10 60 11 61 12 62 13 63 24 64
REMARK SMILES IDX 14 65 23 66 25 67 22 68 15 69 16 70 21 71 17 72 19 73 18 74
REMARK SMILES IDX 20 75
REMARK H PARENT 67 23 45 34
REMARK Flexibility Score: inf
ROOT
ATOM      1  C   UNL A   1      31.899  31.119  26.442  1.00  0.00     0.202 C 
ENDROOT
BRANCH   1   2
ATOM      2  C   UNL A   1      31.280  32.338  27.132  1.00  0.00     0.261 C 
BRANCH   2   3
ATOM      3  O   UNL A   1      32.170  33.465  27.052  1.00  0.00    -0.460 OA
BRANCH   3   4
ATOM      4  C   UNL A   1      32.861  34.069  28.046  1.00  0.00     0.338 C 
ATOM      5  O   UNL A   1      32.437  35.132  28.496  1.00  0.00    -0.246 OA
BRANCH   4   6
ATOM      6  C   UNL A   1      34.123  33.523  28.632  1.00  0.00     0.060 A 
ATOM      7  C   UNL A   1      34.182  32.580  29.659  1.00  0.00     0.016 A 
ATOM      8  C   UNL A   1      35.333  33.913  28.031  1.00  0.00     0.016 A 
ATOM      9  C   UNL A   1      35.389  32.074  30.115  1.00  0.00     0.010 A 
ATOM     10  C   UNL A   1      36.554  33.377  28.454  1.00  0.00     0.010 A 
ATOM     11  C   UNL A   1      36.579  32.458  29.507  1.00  0.00    -0.014 A 
BRANCH  11  12
ATOM     12  C   UNL A   1      37.830  31.912  30.060  1.00  0.00     0.031 A 
ATOM     13  C   UNL A   1      38.381  32.510  31.313  1.00  0.00     0.074 A 
ATOM     14  C   UNL A   1      38.350  30.796  29.518  1.00  0.00     0.049 A 
ATOM     15  N   UNL A   1      39.443  32.171  31.991  1.00  0.00    -0.248 NA
ATOM     16  C   UNL A   1      37.621  33.630  31.897  1.00  0.00     0.031 C 
ATOM     17  C   UNL A   1      37.791  30.075  28.369  1.00  0.00     0.029 A 
ATOM     18  N   UNL A   1      39.431  30.044  29.888  1.00  0.00    -0.354 N 
ATOM     19  C   UNL A   1      39.489  33.043  33.070  1.00  0.00     0.074 A 
ATOM     20  C   UNL A   1      38.355  33.931  32.957  1.00  0.00     0.031 C 
ATOM     21  C   UNL A   1      38.517  28.967  28.152  1.00  0.00     0.029 A 
ATOM     22  C   UNL A   1      39.624  28.937  29.099  1.00  0.00     0.049 A 
ATOM     23  H   UNL A   1      40.016  30.277  30.645  1.00  0.00     0.167 HD
ATOM     24  C   UNL A   1      40.410  33.097  34.059  1.00  0.00     0.031 A 
ATOM     25  C   UNL A   1      40.608  28.018  29.130  1.00  0.00     0.031 A 
ATOM     26  C   UNL A   1      41.544  32.217  34.131  1.00  0.00     0.049 A 
ATOM     27  C   UNL A   1      41.680  28.173  30.173  1.00  0.00     0.074 A 
ATOM     28  C   UNL A   1      42.592  32.225  35.031  1.00  0.00     0.029 A 
ATOM     29  N   UNL A   1      41.769  31.165  33.254  1.00  0.00    -0.354 N 
ATOM     30  N   UNL A   1      41.759  29.046  31.150  1.00  0.00    -0.248 NA
ATOM     31  C   UNL A   1      42.804  27.232  30.109  1.00  0.00     0.031 C 
ATOM     32  C   UNL A   1      43.478  31.202  34.669  1.00  0.00     0.029 A 
ATOM     33  C   UNL A   1      42.952  30.526  33.578  1.00  0.00     0.049 A 
ATOM     34  H   UNL A   1      41.175  30.911  32.512  1.00  0.00     0.167 HD
ATOM     35  C   UNL A   1      42.937  28.757  31.823  1.00  0.00     0.074 A 
ATOM     36  C   UNL A   1      43.521  27.606  31.159  1.00  0.00     0.031 C 
ATOM     37  C   UNL A   1      43.495  29.385  32.887  1.00  0.00     0.031 A 
BRANCH  24  38
ATOM     38  C   UNL A   1      40.256  34.195  35.069  1.00  0.00    -0.014 A 
ATOM     39  C   UNL A   1      40.847  35.455  34.883  1.00  0.00     0.009 A 
ATOM     40  C   UNL A   1      39.534  33.951  36.248  1.00  0.00     0.009 A 
ATOM     41  C   UNL A   1      40.749  36.434  35.875  1.00  0.00     0.001 A 
ATOM     42  C   UNL A   1      39.419  34.938  37.227  1.00  0.00     0.001 A 
ATOM     43  C   UNL A   1      40.035  36.176  37.045  1.00  0.00     0.000 A 
ENDBRANCH  24  38
BRANCH  25  44
ATOM     44  C   UNL A   1      40.663  26.931  28.116  1.00  0.00    -0.014 A 
ATOM     45  C   UNL A   1      41.263  27.134  26.864  1.00  0.00     0.009 A 
ATOM     46  C   UNL A   1      40.088  25.678  28.390  1.00  0.00     0.009 A 
ATOM     47  C   UNL A   1      41.260  26.118  25.903  1.00  0.00     0.001 A 
ATOM     48  C   UNL A   1      40.116  24.654  27.442  1.00  0.00     0.001 A 
ATOM     49  C   UNL A   1      40.691  24.879  26.194  1.00  0.00     0.000 A 
ENDBRANCH  25  44
BRANCH  37  50
ATOM     50  C   UNL A   1      44.788  28.819  33.397  1.00  0.00    -0.014 A 
ATOM     51  C   UNL A   1      46.022  29.292  32.925  1.00  0.00     0.009 A 
ATOM     52  C   UNL A   1      44.765  27.830  34.391  1.00  0.00     0.009 A 
ATOM     53  C   UNL A   1      47.211  28.758  33.419  1.00  0.00     0.001 A 
ATOM     54  C   UNL A   1      45.957  27.319  34.903  1.00  0.00     0.001 A 
ATOM     55  C   UNL A   1      47.178  27.777  34.409  1.00  0.00     0.000 A 
ENDBRANCH  37  50
ENDBRANCH  11  12
ENDBRANCH   4   6
ENDBRANCH   3   4
ENDBRANCH   2   3
ENDBRANCH   1   2
BRANCH   1  56
ATOM     56  O   UNL A   1      32.698  30.305  27.300  1.00  0.00    -0.374 OA
BRANCH  56  57
ATOM     57  C   UNL A   1      34.070  30.157  26.909  1.00  0.00     0.202 C 
BRANCH  57  58
ATOM     58  C   UNL A   1      34.436  28.674  26.917  1.00  0.00     0.261 C 
BRANCH  58  59
ATOM     59  O   UNL A   1      34.060  28.128  25.644  1.00  0.00    -0.460 OA
BRANCH  59  60
ATOM     60  C   UNL A   1      33.112  27.161  25.663  1.00  0.00     0.339 C 
ATOM     61  O   UNL A   1      32.017  27.197  26.199  1.00  0.00    -0.246 OA
BRANCH  60  62
ATOM     62  C   UNL A   1      33.511  26.135  24.681  1.00  0.00     0.079 A 
ATOM     63  C   UNL A   1      34.459  25.185  25.107  1.00  0.00     0.026 A 
ATOM     64  C   UNL A   1      32.926  26.027  23.417  1.00  0.00     0.055 A 
ATOM     65  C   UNL A   1      34.780  24.084  24.302  1.00  0.00    -0.017 A 
ATOM     66  C   UNL A   1      33.247  24.937  22.609  1.00  0.00     0.022 A 
ATOM     67  Cl  UNL A   1      31.843  27.206  22.769  1.00  0.00    -0.083 Cl
ATOM     68  C   UNL A   1      34.153  23.970  23.052  1.00  0.00     0.010 A 
BRANCH  65  69
ATOM     69  C   UNL A   1      35.739  23.063  24.730  1.00  0.00    -0.017 A 
ATOM     70  C   UNL A   1      37.010  23.440  25.195  1.00  0.00     0.009 A 
ATOM     71  C   UNL A   1      35.444  21.696  24.618  1.00  0.00     0.029 A 
ATOM     72  C   UNL A   1      37.971  22.479  25.517  1.00  0.00     0.002 A 
ATOM     73  C   UNL A   1      36.409  20.738  24.941  1.00  0.00     0.041 A 
ATOM     74  C   UNL A   1      37.672  21.125  25.383  1.00  0.00     0.020 A 
ATOM     75  Cl  UNL A   1      36.041  19.066  24.768  1.00  0.00    -0.084 Cl
ENDBRANCH  65  69
ENDBRANCH  60  62
ENDBRANCH  59  60
ENDBRANCH  58  59
ENDBRANCH  57  58
ENDBRANCH  56  57
ENDBRANCH   1  56
TORSDOF 15
ENDMDL
MODEL 3
REMARK VINA RESULT:     -10.4      4.651      9.453
REMARK SMILES O=C(OCCOCCOC(=O)c1cc(-c2cccc(Cl)c2)ccc1Cl)c1ccc(-c2c3nc(c(-c4ccccc4)c4ccc([nH]4)c(-c4ccccc4)c4nc(c(-c5ccccc5)c5ccc2[nH]5)C=C4)C=C3)cc1
REMARK SMILES IDX 5 1 4 2 3 3 2 4 1 5 26 6 27 7 73 8 28 9 72 10 29 11 30 12
REMARK SMILES IDX 31 13 66 14 32 15 71 16 65 17 67 18 33 19 70 20 64 21 63 22
REMARK SMILES IDX 34 24 56 25 41 26 55 27 42 28 45 29 54 30 68 31 43 32 44 33
REMARK SMILES IDX 53 35 69 36 46 37 35 38 36 39 40 40 37 41 39 42 38 43 57 44
REMARK SMILES IDX 58 45 62 46 59 47 61 48 60 49 47 50 48 51 52 52 49 53 51 54
REMARK SMILES IDX 50 55 6 56 7 57 8 58 9 59 10 60 11 61 12 62 13 63 24 64
REMARK SMILES IDX 14 65 23 66 25 67 22 68 15 69 16 70 21 71 17 72 19 73 18 74
REMARK SMILES IDX 20 75
REMARK H PARENT 67 23 45 34
REMARK Flexibility Score: inf
ROOT
ATOM      1  C   UNL A   1      38.105  19.241  24.948  1.00  0.00     0.202 C 
ENDROOT
BRANCH   1   2
ATOM      2  C   UNL A   1      39.204  19.787  25.865  1.00  0.00     0.261 C 
BRANCH   2   3
ATOM      3  O   UNL A   1      40.451  19.118  25.606  1.00  0.00    -0.460 OA
BRANCH   3   4
ATOM      4  C   UNL A   1      41.708  19.537  25.879  1.00  0.00     0.338 C 
ATOM      5  O   UNL A   1      42.641  18.760  25.685  1.00  0.00    -0.246 OA
BRANCH   4   6
ATOM      6  C   UNL A   1      42.035  20.895  26.411  1.00  0.00     0.060 A 
ATOM      7  C   UNL A   1      42.260  22.026  25.625  1.00  0.00     0.016 A 
ATOM      8  C   UNL A   1      42.011  21.061  27.807  1.00  0.00     0.016 A 
ATOM      9  C   UNL A   1      42.501  23.268  26.189  1.00  0.00     0.010 A 
ATOM     10  C   UNL A   1      42.212  22.319  28.386  1.00  0.00     0.010 A 
ATOM     11  C   UNL A   1      42.466  23.425  27.571  1.00  0.00    -0.014 A 
BRANCH  11  12
ATOM     12  C   UNL A   1      42.766  24.762  28.109  1.00  0.00     0.031 A 
ATOM     13  C   UNL A   1      44.195  25.155  28.296  1.00  0.00     0.074 A 
ATOM     14  C   UNL A   1      41.761  25.643  28.264  1.00  0.00     0.049 A 
ATOM     15  N   UNL A   1      44.690  26.285  28.723  1.00  0.00    -0.248 NA
ATOM     16  C   UNL A   1      45.207  24.148  27.933  1.00  0.00     0.031 C 
ATOM     17  C   UNL A   1      40.348  25.373  27.975  1.00  0.00     0.029 A 
ATOM     18  N   UNL A   1      41.776  26.954  28.653  1.00  0.00    -0.354 N 
ATOM     19  C   UNL A   1      46.068  26.120  28.695  1.00  0.00     0.074 A 
ATOM     20  C   UNL A   1      46.334  24.782  28.217  1.00  0.00     0.031 C 
ATOM     21  C   UNL A   1      39.640  26.497  28.165  1.00  0.00     0.029 A 
ATOM     22  C   UNL A   1      40.534  27.541  28.651  1.00  0.00     0.049 A 
ATOM     23  H   UNL A   1      42.598  27.431  28.912  1.00  0.00     0.167 HD
ATOM     24  C   UNL A   1      47.021  27.011  29.051  1.00  0.00     0.031 A 
ATOM     25  C   UNL A   1      40.166  28.779  29.028  1.00  0.00     0.031 A 
ATOM     26  C   UNL A   1      46.726  28.326  29.549  1.00  0.00     0.049 A 
ATOM     27  C   UNL A   1      41.237  29.708  29.527  1.00  0.00     0.074 A 
ATOM     28  C   UNL A   1      47.595  29.290  30.023  1.00  0.00     0.029 A 
ATOM     29  N   UNL A   1      45.446  28.858  29.633  1.00  0.00    -0.354 N 
ATOM     30  N   UNL A   1      42.536  29.522  29.568  1.00  0.00    -0.248 NA
ATOM     31  C   UNL A   1      40.795  31.008  30.046  1.00  0.00     0.031 C 
ATOM     32  C   UNL A   1      46.835  30.389  30.438  1.00  0.00     0.029 A 
ATOM     33  C   UNL A   1      45.498  30.130  30.171  1.00  0.00     0.049 A 
ATOM     34  H   UNL A   1      44.624  28.397  29.351  1.00  0.00     0.167 HD
ATOM     35  C   UNL A   1      43.068  30.682  30.111  1.00  0.00     0.074 A 
ATOM     36  C   UNL A   1      41.952  31.577  30.353  1.00  0.00     0.031 C 
ATOM     37  C   UNL A   1      44.360  30.984  30.395  1.00  0.00     0.031 A 
BRANCH  24  38
ATOM     38  C   UNL A   1      48.445  26.541  28.990  1.00  0.00    -0.014 A 
ATOM     39  C   UNL A   1      49.048  25.879  30.070  1.00  0.00     0.009 A 
ATOM     40  C   UNL A   1      49.207  26.801  27.839  1.00  0.00     0.009 A 
ATOM     41  C   UNL A   1      50.397  25.519  30.013  1.00  0.00     0.001 A 
ATOM     42  C   UNL A   1      50.548  26.420  27.776  1.00  0.00     0.001 A 
ATOM     43  C   UNL A   1      51.145  25.789  28.867  1.00  0.00     0.000 A 
ENDBRANCH  24  38
BRANCH  25  44
ATOM     44  C   UNL A   1      38.733  29.182  29.017  1.00  0.00    -0.014 A 
ATOM     45  C   UNL A   1      38.153  29.770  27.883  1.00  0.00     0.009 A 
ATOM     46  C   UNL A   1      37.939  29.001  30.162  1.00  0.00     0.009 A 
ATOM     47  C   UNL A   1      36.819  30.191  27.907  1.00  0.00     0.001 A 
ATOM     48  C   UNL A   1      36.599  29.391  30.172  1.00  0.00     0.001 A 
ATOM     49  C   UNL A   1      36.043  29.997  29.048  1.00  0.00     0.000 A 
ENDBRANCH  25  44
BRANCH  37  50
ATOM     50  C   UNL A   1      44.619  32.342  30.976  1.00  0.00    -0.014 A 
ATOM     51  C   UNL A   1      44.619  32.548  32.364  1.00  0.00     0.009 A 
ATOM     52  C   UNL A   1      44.905  33.418  30.122  1.00  0.00     0.009 A 
ATOM     53  C   UNL A   1      44.869  33.818  32.883  1.00  0.00     0.001 A 
ATOM     54  C   UNL A   1      45.184  34.678  30.646  1.00  0.00     0.001 A 
ATOM     55  C   UNL A   1      45.157  34.879  32.026  1.00  0.00     0.000 A 
ENDBRANCH  37  50
ENDBRANCH  11  12
ENDBRANCH   4   6
ENDBRANCH   3   4
ENDBRANCH   2   3
ENDBRANCH   1   2
BRANCH   1  56
ATOM     56  O   UNL A   1      36.902  20.011  24.955  1.00  0.00    -0.374 OA
BRANCH  56  57
ATOM     57  C   UNL A   1      37.054  21.389  25.320  1.00  0.00     0.202 C 
BRANCH  57  58
ATOM     58  C   UNL A   1      37.001  22.249  24.058  1.00  0.00     0.261 C 
BRANCH  58  59
ATOM     59  O   UNL A   1      36.300  23.458  24.387  1.00  0.00    -0.460 OA
BRANCH  59  60
ATOM     60  C   UNL A   1      35.132  23.670  23.734  1.00  0.00     0.339 C 
ATOM     61  O   UNL A   1      34.849  23.361  22.588  1.00  0.00    -0.246 OA
BRANCH  60  62
ATOM     62  C   UNL A   1      34.140  24.100  24.736  1.00  0.00     0.079 A 
ATOM     63  C   UNL A   1      33.952  25.488  24.887  1.00  0.00     0.026 A 
ATOM     64  C   UNL A   1      33.342  23.201  25.448  1.00  0.00     0.055 A 
ATOM     65  C   UNL A   1      32.924  25.986  25.697  1.00  0.00    -0.017 A 
ATOM     66  C   UNL A   1      32.322  23.692  26.262  1.00  0.00     0.022 A 
ATOM     67  Cl  UNL A   1      33.579  21.490  25.414  1.00  0.00    -0.083 Cl
ATOM     68  C   UNL A   1      32.107  25.068  26.374  1.00  0.00     0.010 A 
BRANCH  65  69
ATOM     69  C   UNL A   1      32.684  27.423  25.850  1.00  0.00    -0.017 A 
ATOM     70  C   UNL A   1      33.314  28.137  26.882  1.00  0.00     0.009 A 
ATOM     71  C   UNL A   1      31.772  28.099  25.026  1.00  0.00     0.029 A 
ATOM     72  C   UNL A   1      33.024  29.486  27.103  1.00  0.00     0.002 A 
ATOM     73  C   UNL A   1      31.485  29.448  25.250  1.00  0.00     0.041 A 
ATOM     74  C   UNL A   1      32.103  30.142  26.289  1.00  0.00     0.020 A 
ATOM     75  Cl  UNL A   1      30.341  30.255  24.249  1.00  0.00    -0.084 Cl
ENDBRANCH  65  69
ENDBRANCH  60  62
ENDBRANCH  59  60
ENDBRANCH  58  59
ENDBRANCH  57  58
ENDBRANCH  56  57
ENDBRANCH   1  56
TORSDOF 15
ENDMDL
