MODEL 1
REMARK VINA RESULT:     -12.0      0.000      0.000
REMARK SMILES O=C(OCCOCCOC(=O)[C@H]1CC=CC[C@H]1C(=O)Nc1ccc(S(=O)(=O)N2CCc3ccccc32)cc1)c1ccc(-c2c3nc(c(-c4ccccc4)c4ccc([nH]4)c(-c4ccccc4)c4nc(c(-c5ccccc5)c5ccc2[nH]5)C=C4)C=C3)cc1
REMARK SMILES IDX 7 1 6 2 5 3 4 4 3 5 2 6 1 7 39 8 40 9 86 10 41 11 85 12
REMARK SMILES IDX 42 13 43 14 44 15 79 16 45 17 84 18 78 19 80 20 46 21 83 22
REMARK SMILES IDX 77 23 76 24 47 26 69 27 54 28 68 29 55 30 58 31 67 32 81 33
REMARK SMILES IDX 56 34 57 35 66 37 82 38 59 39 48 40 49 41 53 42 50 43 52 44
REMARK SMILES IDX 51 45 70 46 71 47 75 48 72 49 74 50 73 51 60 52 61 53 65 54
REMARK SMILES IDX 62 55 64 56 63 57 8 58 9 59 10 60 11 61 12 62 13 63 17 64
REMARK SMILES IDX 14 65 16 66 15 67 18 68 19 69 20 70 21 72 22 73 38 74 23 75
REMARK SMILES IDX 37 76 24 77 25 78 26 79 27 80 28 81 29 82 36 83 30 84 31 85
REMARK SMILES IDX 35 86 32 87 34 88 33 89
REMARK H PARENT 80 25 58 36 20 71
REMARK Flexibility Score: inf
ROOT
ATOM      1  C   UNL A   1      37.877  22.024  25.690  1.00  0.00     0.202 C 
ENDROOT
BRANCH   1   2
ATOM      2  O   UNL A   1      39.144  21.446  25.452  1.00  0.00    -0.374 OA
BRANCH   2   3
ATOM      3  C   UNL A   1      40.044  21.464  26.554  1.00  0.00     0.202 C 
BRANCH   3   4
ATOM      4  C   UNL A   1      41.116  22.555  26.512  1.00  0.00     0.261 C 
BRANCH   4   5
ATOM      5  O   UNL A   1      40.821  23.802  27.147  1.00  0.00    -0.460 OA
BRANCH   5   6
ATOM      6  C   UNL A   1      41.248  24.905  26.504  1.00  0.00     0.338 C 
ATOM      7  O   UNL A   1      42.016  24.914  25.554  1.00  0.00    -0.246 OA
BRANCH   6   8
ATOM      8  C   UNL A   1      40.521  26.091  27.017  1.00  0.00     0.060 A 
ATOM      9  C   UNL A   1      40.745  27.394  26.566  1.00  0.00     0.016 A 
ATOM     10  C   UNL A   1      39.594  25.864  28.015  1.00  0.00     0.016 A 
ATOM     11  C   UNL A   1      40.278  28.461  27.312  1.00  0.00     0.010 A 
ATOM     12  C   UNL A   1      39.166  26.901  28.799  1.00  0.00     0.010 A 
ATOM     13  C   UNL A   1      39.628  28.176  28.506  1.00  0.00    -0.014 A 
BRANCH  13  14
ATOM     14  C   UNL A   1      39.652  29.100  29.630  1.00  0.00     0.031 A 
ATOM     15  C   UNL A   1      38.697  30.256  29.595  1.00  0.00     0.074 A 
ATOM     16  C   UNL A   1      40.693  29.025  30.464  1.00  0.00     0.049 A 
ATOM     17  N   UNL A   1      38.476  31.170  30.498  1.00  0.00    -0.248 NA
ATOM     18  C   UNL A   1      37.916  30.446  28.353  1.00  0.00     0.031 C 
ATOM     19  C   UNL A   1      41.782  28.049  30.361  1.00  0.00     0.029 A 
ATOM     20  N   UNL A   1      41.035  29.816  31.512  1.00  0.00    -0.354 N 
ATOM     21  C   UNL A   1      37.499  31.998  29.959  1.00  0.00     0.074 A 
ATOM     22  C   UNL A   1      37.248  31.559  28.610  1.00  0.00     0.031 C 
ATOM     23  C   UNL A   1      42.689  28.312  31.314  1.00  0.00     0.029 A 
ATOM     24  C   UNL A   1      42.202  29.427  32.114  1.00  0.00     0.049 A 
ATOM     25  H   UNL A   1      40.501  30.587  31.808  1.00  0.00     0.167 HD
ATOM     26  C   UNL A   1      36.843  33.005  30.584  1.00  0.00     0.031 A 
ATOM     27  C   UNL A   1      42.752  29.899  33.240  1.00  0.00     0.031 A 
ATOM     28  C   UNL A   1      37.202  33.409  31.916  1.00  0.00     0.049 A 
ATOM     29  C   UNL A   1      41.955  30.928  33.987  1.00  0.00     0.074 A 
ATOM     30  C   UNL A   1      36.590  34.311  32.760  1.00  0.00     0.029 A 
ATOM     31  N   UNL A   1      38.315  32.912  32.588  1.00  0.00    -0.354 N 
ATOM     32  N   UNL A   1      40.870  31.566  33.607  1.00  0.00    -0.248 NA
ATOM     33  C   UNL A   1      42.402  31.242  35.344  1.00  0.00     0.031 C 
ATOM     34  C   UNL A   1      37.353  34.378  33.934  1.00  0.00     0.029 A 
ATOM     35  C   UNL A   1      38.413  33.484  33.838  1.00  0.00     0.049 A 
ATOM     36  H   UNL A   1      38.943  32.246  32.223  1.00  0.00     0.167 HD
ATOM     37  C   UNL A   1      40.473  32.327  34.694  1.00  0.00     0.074 A 
ATOM     38  C   UNL A   1      41.435  32.053  35.750  1.00  0.00     0.031 C 
ATOM     39  C   UNL A   1      39.417  33.171  34.827  1.00  0.00     0.031 A 
BRANCH  26  40
ATOM     40  C   UNL A   1      35.691  33.652  29.859  1.00  0.00    -0.014 A 
ATOM     41  C   UNL A   1      35.882  34.252  28.600  1.00  0.00     0.009 A 
ATOM     42  C   UNL A   1      34.403  33.670  30.413  1.00  0.00     0.009 A 
ATOM     43  C   UNL A   1      34.834  34.901  27.942  1.00  0.00     0.001 A 
ATOM     44  C   UNL A   1      33.345  34.293  29.738  1.00  0.00     0.001 A 
ATOM     45  C   UNL A   1      33.563  34.919  28.511  1.00  0.00     0.000 A 
ENDBRANCH  26  40
BRANCH  27  46
ATOM     46  C   UNL A   1      43.969  29.250  33.782  1.00  0.00    -0.014 A 
ATOM     47  C   UNL A   1      43.861  28.055  34.510  1.00  0.00     0.009 A 
ATOM     48  C   UNL A   1      45.245  29.760  33.501  1.00  0.00     0.009 A 
ATOM     49  C   UNL A   1      45.002  27.412  34.992  1.00  0.00     0.001 A 
ATOM     50  C   UNL A   1      46.387  29.100  33.963  1.00  0.00     0.001 A 
ATOM     51  C   UNL A   1      46.264  27.934  34.718  1.00  0.00     0.000 A 
ENDBRANCH  27  46
BRANCH  39  52
ATOM     52  C   UNL A   1      39.271  33.833  36.163  1.00  0.00    -0.014 A 
ATOM     53  C   UNL A   1      38.517  33.235  37.183  1.00  0.00     0.009 A 
ATOM     54  C   UNL A   1      39.937  35.042  36.411  1.00  0.00     0.009 A 
ATOM     55  C   UNL A   1      38.400  33.861  38.422  1.00  0.00     0.001 A 
ATOM     56  C   UNL A   1      39.849  35.645  37.663  1.00  0.00     0.001 A 
ATOM     57  C   UNL A   1      39.073  35.059  38.663  1.00  0.00     0.000 A 
ENDBRANCH  39  52
ENDBRANCH  13  14
ENDBRANCH   6   8
ENDBRANCH   5   6
ENDBRANCH   4   5
ENDBRANCH   3   4
ENDBRANCH   2   3
ENDBRANCH   1   2
BRANCH   1  58
ATOM     58  C   UNL A   1      37.116  22.218  24.420  1.00  0.00     0.261 C 
BRANCH  58  59
ATOM     59  O   UNL A   1      35.740  21.874  24.509  1.00  0.00    -0.463 OA
BRANCH  59  60
ATOM     60  C   UNL A   1      34.604  22.409  24.979  1.00  0.00     0.310 C 
ATOM     61  O   UNL A   1      34.178  23.559  24.964  1.00  0.00    -0.252 OA
BRANCH  60  62
ATOM     62  C   UNL A   1      33.859  21.268  25.578  1.00  0.00     0.116 C 
ATOM     63  C   UNL A   1      34.072  21.311  27.112  1.00  0.00     0.043 C 
ATOM     64  C   UNL A   1      32.404  21.438  25.119  1.00  0.00     0.097 C 
ATOM     65  C   UNL A   1      33.270  22.379  27.806  1.00  0.00    -0.030 C 
ATOM     66  C   UNL A   1      31.573  22.466  25.930  1.00  0.00     0.041 C 
ATOM     67  C   UNL A   1      32.147  22.889  27.272  1.00  0.00    -0.030 C 
BRANCH  64  68
ATOM     68  C   UNL A   1      32.227  21.462  23.556  1.00  0.00     0.228 C 
ATOM     69  O   UNL A   1      32.167  20.327  23.035  1.00  0.00    -0.274 OA
ATOM     70  N   UNL A   1      32.130  22.465  22.621  1.00  0.00    -0.326 N 
ATOM     71  H   UNL A   1      32.148  22.079  21.716  1.00  0.00     0.169 HD
BRANCH  70  72
ATOM     72  C   UNL A   1      32.010  23.883  22.536  1.00  0.00     0.041 A 
ATOM     73  C   UNL A   1      30.904  24.503  23.118  1.00  0.00     0.027 A 
ATOM     74  C   UNL A   1      32.740  24.704  21.651  1.00  0.00     0.027 A 
ATOM     75  C   UNL A   1      30.739  25.914  23.093  1.00  0.00     0.024 A 
ATOM     76  C   UNL A   1      32.626  26.149  21.662  1.00  0.00     0.024 A 
ATOM     77  C   UNL A   1      31.675  26.772  22.480  1.00  0.00     0.088 A 
BRANCH  77  78
ATOM     78  S   UNL A   1      31.857  28.420  23.344  1.00  0.00     0.264 S 
ATOM     79  O   UNL A   1      32.632  29.227  22.418  1.00  0.00    -0.201 OA
ATOM     80  O   UNL A   1      30.490  28.805  23.642  1.00  0.00    -0.201 OA
BRANCH  78  81
ATOM     81  N   UNL A   1      32.690  28.393  24.790  1.00  0.00    -0.266 N 
ATOM     82  C   UNL A   1      33.254  27.177  25.454  1.00  0.00     0.140 C 
ATOM     83  C   UNL A   1      32.692  29.413  25.758  1.00  0.00     0.055 A 
ATOM     84  C   UNL A   1      34.201  27.760  26.560  1.00  0.00     0.060 C 
ATOM     85  C   UNL A   1      33.747  29.192  26.635  1.00  0.00    -0.022 A 
ATOM     86  C   UNL A   1      31.789  30.421  25.986  1.00  0.00     0.027 A 
ATOM     87  C   UNL A   1      34.213  30.238  27.410  1.00  0.00     0.006 A 
ATOM     88  C   UNL A   1      32.167  31.430  26.865  1.00  0.00     0.002 A 
ATOM     89  C   UNL A   1      33.432  31.395  27.472  1.00  0.00     0.000 A 
ENDBRANCH  78  81
ENDBRANCH  77  78
ENDBRANCH  70  72
ENDBRANCH  64  68
ENDBRANCH  60  62
ENDBRANCH  59  60
ENDBRANCH  58  59
ENDBRANCH   1  58
TORSDOF 18
ENDMDL
MODEL 2
REMARK VINA RESULT:     -11.5      2.513      8.099
REMARK SMILES O=C(OCCOCCOC(=O)[C@H]1CC=CC[C@H]1C(=O)Nc1ccc(S(=O)(=O)N2CCc3ccccc32)cc1)c1ccc(-c2c3nc(c(-c4ccccc4)c4ccc([nH]4)c(-c4ccccc4)c4nc(c(-c5ccccc5)c5ccc2[nH]5)C=C4)C=C3)cc1
REMARK SMILES IDX 7 1 6 2 5 3 4 4 3 5 2 6 1 7 39 8 40 9 86 10 41 11 85 12
REMARK SMILES IDX 42 13 43 14 44 15 79 16 45 17 84 18 78 19 80 20 46 21 83 22
REMARK SMILES IDX 77 23 76 24 47 26 69 27 54 28 68 29 55 30 58 31 67 32 81 33
REMARK SMILES IDX 56 34 57 35 66 37 82 38 59 39 48 40 49 41 53 42 50 43 52 44
REMARK SMILES IDX 51 45 70 46 71 47 75 48 72 49 74 50 73 51 60 52 61 53 65 54
REMARK SMILES IDX 62 55 64 56 63 57 8 58 9 59 10 60 11 61 12 62 13 63 17 64
REMARK SMILES IDX 14 65 16 66 15 67 18 68 19 69 20 70 21 72 22 73 38 74 23 75
REMARK SMILES IDX 37 76 24 77 25 78 26 79 27 80 28 81 29 82 36 83 30 84 31 85
REMARK SMILES IDX 35 86 32 87 34 88 33 89
REMARK H PARENT 80 25 58 36 20 71
REMARK Flexibility Score: inf
ROOT
ATOM      1  C   UNL A   1      33.402  28.168  26.045  1.00  0.00     0.202 C 
ENDROOT
BRANCH   1   2
ATOM      2  O   UNL A   1      33.914  28.643  27.274  1.00  0.00    -0.374 OA
BRANCH   2   3
ATOM      3  C   UNL A   1      34.500  29.939  27.235  1.00  0.00     0.202 C 
BRANCH   3   4
ATOM      4  C   UNL A   1      33.615  31.078  27.748  1.00  0.00     0.261 C 
BRANCH   4   5
ATOM      5  O   UNL A   1      33.829  32.383  27.204  1.00  0.00    -0.460 OA
BRANCH   5   6
ATOM      6  C   UNL A   1      33.517  33.415  28.010  1.00  0.00     0.338 C 
ATOM      7  O   UNL A   1      32.455  34.016  28.007  1.00  0.00    -0.246 OA
BRANCH   6   8
ATOM      8  C   UNL A   1      34.594  33.605  29.012  1.00  0.00     0.060 A 
ATOM      9  C   UNL A   1      35.789  34.281  28.750  1.00  0.00     0.016 A 
ATOM     10  C   UNL A   1      34.384  33.048  30.258  1.00  0.00     0.016 A 
ATOM     11  C   UNL A   1      36.858  34.129  29.613  1.00  0.00     0.010 A 
ATOM     12  C   UNL A   1      35.443  32.839  31.100  1.00  0.00     0.010 A 
ATOM     13  C   UNL A   1      36.697  33.273  30.695  1.00  0.00    -0.014 A 
BRANCH  13  14
ATOM     14  C   UNL A   1      37.819  32.553  31.276  1.00  0.00     0.031 A 
ATOM     15  C   UNL A   1      38.428  33.116  32.527  1.00  0.00     0.074 A 
ATOM     16  C   UNL A   1      38.407  31.620  30.522  1.00  0.00     0.049 A 
ATOM     17  N   UNL A   1      39.382  32.629  33.270  1.00  0.00    -0.248 NA
ATOM     18  C   UNL A   1      37.935  34.435  32.980  1.00  0.00     0.031 C 
ATOM     19  C   UNL A   1      37.971  31.231  29.178  1.00  0.00     0.029 A 
ATOM     20  N   UNL A   1      39.522  30.882  30.752  1.00  0.00    -0.354 N 
ATOM     21  C   UNL A   1      39.558  33.546  34.299  1.00  0.00     0.074 A 
ATOM     22  C   UNL A   1      38.703  34.675  34.031  1.00  0.00     0.031 C 
ATOM     23  C   UNL A   1      38.831  30.324  28.691  1.00  0.00     0.029 A 
ATOM     24  C   UNL A   1      39.824  30.037  29.718  1.00  0.00     0.049 A 
ATOM     25  H   UNL A   1      40.058  30.949  31.574  1.00  0.00     0.167 HD
ATOM     26  C   UNL A   1      40.339  33.406  35.396  1.00  0.00     0.031 A 
ATOM     27  C   UNL A   1      40.768  29.089  29.669  1.00  0.00     0.031 A 
ATOM     28  C   UNL A   1      41.204  32.268  35.550  1.00  0.00     0.049 A 
ATOM     29  C   UNL A   1      41.545  28.861  30.933  1.00  0.00     0.074 A 
ATOM     30  C   UNL A   1      41.971  31.881  36.628  1.00  0.00     0.029 A 
ATOM     31  N   UNL A   1      41.408  31.326  34.545  1.00  0.00    -0.354 N 
ATOM     32  N   UNL A   1      41.554  29.578  32.035  1.00  0.00    -0.248 NA
ATOM     33  C   UNL A   1      42.372  27.656  30.983  1.00  0.00     0.031 C 
ATOM     34  C   UNL A   1      42.663  30.718  36.261  1.00  0.00     0.029 A 
ATOM     35  C   UNL A   1      42.289  30.356  34.972  1.00  0.00     0.049 A 
ATOM     36  H   UNL A   1      40.983  31.349  33.657  1.00  0.00     0.167 HD
ATOM     37  C   UNL A   1      42.354  28.890  32.932  1.00  0.00     0.074 A 
ATOM     38  C   UNL A   1      42.796  27.690  32.239  1.00  0.00     0.031 C 
ATOM     39  C   UNL A   1      42.696  29.199  34.210  1.00  0.00     0.031 A 
BRANCH  26  40
ATOM     40  C   UNL A   1      40.235  34.454  36.474  1.00  0.00    -0.014 A 
ATOM     41  C   UNL A   1      41.101  35.565  36.480  1.00  0.00     0.009 A 
ATOM     42  C   UNL A   1      39.276  34.356  37.492  1.00  0.00     0.009 A 
ATOM     43  C   UNL A   1      41.049  36.515  37.503  1.00  0.00     0.001 A 
ATOM     44  C   UNL A   1      39.204  35.326  38.499  1.00  0.00     0.001 A 
ATOM     45  C   UNL A   1      40.098  36.397  38.512  1.00  0.00     0.000 A 
ENDBRANCH  26  40
BRANCH  27  46
ATOM     46  C   UNL A   1      40.846  28.201  28.486  1.00  0.00    -0.014 A 
ATOM     47  C   UNL A   1      40.111  27.006  28.455  1.00  0.00     0.009 A 
ATOM     48  C   UNL A   1      41.574  28.578  27.347  1.00  0.00     0.009 A 
ATOM     49  C   UNL A   1      40.144  26.180  27.331  1.00  0.00     0.001 A 
ATOM     50  C   UNL A   1      41.585  27.762  26.213  1.00  0.00     0.001 A 
ATOM     51  C   UNL A   1      40.881  26.558  26.210  1.00  0.00     0.000 A 
ENDBRANCH  27  46
BRANCH  39  52
ATOM     52  C   UNL A   1      43.580  28.213  34.910  1.00  0.00    -0.014 A 
ATOM     53  C   UNL A   1      44.973  28.375  34.917  1.00  0.00     0.009 A 
ATOM     54  C   UNL A   1      43.004  27.140  35.606  1.00  0.00     0.009 A 
ATOM     55  C   UNL A   1      45.779  27.454  35.580  1.00  0.00     0.001 A 
ATOM     56  C   UNL A   1      43.811  26.243  36.300  1.00  0.00     0.001 A 
ATOM     57  C   UNL A   1      45.197  26.395  36.278  1.00  0.00     0.000 A 
ENDBRANCH  39  52
ENDBRANCH  13  14
ENDBRANCH   6   8
ENDBRANCH   5   6
ENDBRANCH   4   5
ENDBRANCH   3   4
ENDBRANCH   2   3
ENDBRANCH   1   2
BRANCH   1  58
ATOM     58  C   UNL A   1      32.545  26.962  26.239  1.00  0.00     0.261 C 
BRANCH  58  59
ATOM     59  O   UNL A   1      33.236  25.728  26.094  1.00  0.00    -0.463 OA
BRANCH  59  60
ATOM     60  C   UNL A   1      33.842  25.030  25.124  1.00  0.00     0.310 C 
ATOM     61  O   UNL A   1      34.444  25.388  24.116  1.00  0.00    -0.252 OA
BRANCH  60  62
ATOM     62  C   UNL A   1      33.657  23.602  25.502  1.00  0.00     0.116 C 
ATOM     63  C   UNL A   1      32.443  23.515  26.460  1.00  0.00     0.043 C 
ATOM     64  C   UNL A   1      33.495  22.842  24.178  1.00  0.00     0.097 C 
ATOM     65  C   UNL A   1      31.113  23.648  25.770  1.00  0.00    -0.030 C 
ATOM     66  C   UNL A   1      32.078  22.907  23.550  1.00  0.00     0.041 C 
ATOM     67  C   UNL A   1      30.955  23.368  24.465  1.00  0.00    -0.030 C 
BRANCH  64  68
ATOM     68  C   UNL A   1      34.711  23.007  23.195  1.00  0.00     0.228 C 
ATOM     69  O   UNL A   1      34.392  23.388  22.049  1.00  0.00    -0.274 OA
ATOM     70  N   UNL A   1      36.068  22.815  23.315  1.00  0.00    -0.326 N 
ATOM     71  H   UNL A   1      36.496  22.908  22.434  1.00  0.00     0.169 HD
BRANCH  70  72
ATOM     72  C   UNL A   1      37.056  22.526  24.301  1.00  0.00     0.041 A 
ATOM     73  C   UNL A   1      37.332  21.194  24.610  1.00  0.00     0.027 A 
ATOM     74  C   UNL A   1      37.572  23.458  25.226  1.00  0.00     0.027 A 
ATOM     75  C   UNL A   1      38.325  20.837  25.562  1.00  0.00     0.024 A 
ATOM     76  C   UNL A   1      38.629  23.122  26.158  1.00  0.00     0.024 A 
ATOM     77  C   UNL A   1      39.088  21.801  26.253  1.00  0.00     0.088 A 
BRANCH  77  78
ATOM     78  S   UNL A   1      40.839  21.253  26.610  1.00  0.00     0.264 S 
ATOM     79  O   UNL A   1      40.809  20.839  28.001  1.00  0.00    -0.201 OA
ATOM     80  O   UNL A   1      41.105  20.262  25.584  1.00  0.00    -0.201 OA
BRANCH  78  81
ATOM     81  N   UNL A   1      42.010  22.433  26.473  1.00  0.00    -0.266 N 
ATOM     82  C   UNL A   1      42.778  22.768  25.234  1.00  0.00     0.140 C 
ATOM     83  C   UNL A   1      42.693  23.045  27.540  1.00  0.00     0.055 A 
ATOM     84  C   UNL A   1      43.462  24.137  25.575  1.00  0.00     0.060 C 
ATOM     85  C   UNL A   1      43.318  24.193  27.070  1.00  0.00    -0.022 A 
ATOM     86  C   UNL A   1      42.896  22.611  28.827  1.00  0.00     0.027 A 
ATOM     87  C   UNL A   1      43.700  25.171  27.969  1.00  0.00     0.006 A 
ATOM     88  C   UNL A   1      43.406  23.530  29.737  1.00  0.00     0.002 A 
ATOM     89  C   UNL A   1      43.683  24.843  29.328  1.00  0.00     0.000 A 
ENDBRANCH  78  81
ENDBRANCH  77  78
ENDBRANCH  70  72
ENDBRANCH  64  68
ENDBRANCH  60  62
ENDBRANCH  59  60
ENDBRANCH  58  59
ENDBRANCH   1  58
TORSDOF 18
ENDMDL
MODEL 3
REMARK VINA RESULT:     -11.5      2.486      8.132
REMARK SMILES O=C(OCCOCCOC(=O)[C@H]1CC=CC[C@H]1C(=O)Nc1ccc(S(=O)(=O)N2CCc3ccccc32)cc1)c1ccc(-c2c3nc(c(-c4ccccc4)c4ccc([nH]4)c(-c4ccccc4)c4nc(c(-c5ccccc5)c5ccc2[nH]5)C=C4)C=C3)cc1
REMARK SMILES IDX 7 1 6 2 5 3 4 4 3 5 2 6 1 7 39 8 40 9 86 10 41 11 85 12
REMARK SMILES IDX 42 13 43 14 44 15 79 16 45 17 84 18 78 19 80 20 46 21 83 22
REMARK SMILES IDX 77 23 76 24 47 26 69 27 54 28 68 29 55 30 58 31 67 32 81 33
REMARK SMILES IDX 56 34 57 35 66 37 82 38 59 39 48 40 49 41 53 42 50 43 52 44
REMARK SMILES IDX 51 45 70 46 71 47 75 48 72 49 74 50 73 51 60 52 61 53 65 54
REMARK SMILES IDX 62 55 64 56 63 57 8 58 9 59 10 60 11 61 12 62 13 63 17 64
REMARK SMILES IDX 14 65 16 66 15 67 18 68 19 69 20 70 21 72 22 73 38 74 23 75
REMARK SMILES IDX 37 76 24 77 25 78 26 79 27 80 28 81 29 82 36 83 30 84 31 85
REMARK SMILES IDX 35 86 32 87 34 88 33 89
REMARK H PARENT 80 25 58 36 20 71
REMARK Flexibility Score: inf
ROOT
ATOM      1  C   UNL A   1      33.127  27.925  26.177  1.00  0.00     0.202 C 
ENDROOT
BRANCH   1   2
ATOM      2  O   UNL A   1      33.314  28.618  27.395  1.00  0.00    -0.374 OA
BRANCH   2   3
ATOM      3  C   UNL A   1      34.103  29.800  27.315  1.00  0.00     0.202 C 
BRANCH   3   4
ATOM      4  C   UNL A   1      33.325  31.116  27.365  1.00  0.00     0.261 C 
BRANCH   4   5
ATOM      5  O   UNL A   1      34.069  32.333  27.249  1.00  0.00    -0.460 OA
BRANCH   5   6
ATOM      6  C   UNL A   1      33.678  33.340  28.052  1.00  0.00     0.338 C 
ATOM      7  O   UNL A   1      32.597  33.904  28.001  1.00  0.00    -0.246 OA
BRANCH   6   8
ATOM      8  C   UNL A   1      34.693  33.551  29.113  1.00  0.00     0.060 A 
ATOM      9  C   UNL A   1      35.910  34.205  28.906  1.00  0.00     0.016 A 
ATOM     10  C   UNL A   1      34.398  33.036  30.361  1.00  0.00     0.016 A 
ATOM     11  C   UNL A   1      36.921  34.070  29.839  1.00  0.00     0.010 A 
ATOM     12  C   UNL A   1      35.399  32.842  31.274  1.00  0.00     0.010 A 
ATOM     13  C   UNL A   1      36.681  33.250  30.935  1.00  0.00    -0.014 A 
BRANCH  13  14
ATOM     14  C   UNL A   1      37.756  32.537  31.609  1.00  0.00     0.031 A 
ATOM     15  C   UNL A   1      38.315  31.324  30.926  1.00  0.00     0.074 A 
ATOM     16  C   UNL A   1      37.977  32.831  32.893  1.00  0.00     0.049 A 
ATOM     17  N   UNL A   1      39.313  30.565  31.282  1.00  0.00    -0.248 NA
ATOM     18  C   UNL A   1      37.627  30.866  29.699  1.00  0.00     0.031 C 
ATOM     19  C   UNL A   1      37.255  33.854  33.656  1.00  0.00     0.029 A 
ATOM     20  N   UNL A   1      38.819  32.259  33.791  1.00  0.00    -0.354 N 
ATOM     21  C   UNL A   1      39.406  29.586  30.300  1.00  0.00     0.074 A 
ATOM     22  C   UNL A   1      38.299  29.767  29.395  1.00  0.00     0.031 C 
ATOM     23  C   UNL A   1      37.683  33.826  34.927  1.00  0.00     0.029 A 
ATOM     24  C   UNL A   1      38.741  32.832  35.032  1.00  0.00     0.049 A 
ATOM     25  H   UNL A   1      39.420  31.512  33.573  1.00  0.00     0.167 HD
ATOM     26  C   UNL A   1      40.379  28.655  30.161  1.00  0.00     0.031 A 
ATOM     27  C   UNL A   1      39.514  32.602  36.102  1.00  0.00     0.031 A 
ATOM     28  C   UNL A   1      41.415  28.512  31.147  1.00  0.00     0.049 A 
ATOM     29  C   UNL A   1      40.665  31.659  35.898  1.00  0.00     0.074 A 
ATOM     30  C   UNL A   1      42.547  27.726  31.132  1.00  0.00     0.029 A 
ATOM     31  N   UNL A   1      41.412  29.199  32.359  1.00  0.00    -0.354 N 
ATOM     32  N   UNL A   1      40.925  30.887  34.866  1.00  0.00    -0.248 NA
ATOM     33  C   UNL A   1      41.669  31.617  36.960  1.00  0.00     0.031 C 
ATOM     34  C   UNL A   1      43.213  27.918  32.351  1.00  0.00     0.029 A 
ATOM     35  C   UNL A   1      42.520  28.859  33.103  1.00  0.00     0.049 A 
ATOM     36  H   UNL A   1      40.718  29.837  32.642  1.00  0.00     0.167 HD
ATOM     37  C   UNL A   1      42.149  30.295  35.131  1.00  0.00     0.074 A 
ATOM     38  C   UNL A   1      42.578  30.817  36.419  1.00  0.00     0.031 C 
ATOM     39  C   UNL A   1      42.867  29.411  34.391  1.00  0.00     0.031 A 
BRANCH  26  40
ATOM     40  C   UNL A   1      40.372  27.810  28.913  1.00  0.00    -0.014 A 
ATOM     41  C   UNL A   1      39.866  26.496  28.941  1.00  0.00     0.009 A 
ATOM     42  C   UNL A   1      40.863  28.305  27.697  1.00  0.00     0.009 A 
ATOM     43  C   UNL A   1      39.902  25.684  27.804  1.00  0.00     0.001 A 
ATOM     44  C   UNL A   1      40.870  27.502  26.550  1.00  0.00     0.001 A 
ATOM     45  C   UNL A   1      40.403  26.188  26.606  1.00  0.00     0.000 A 
ENDBRANCH  26  40
BRANCH  27  46
ATOM     46  C   UNL A   1      39.330  33.423  37.321  1.00  0.00    -0.014 A 
ATOM     47  C   UNL A   1      39.958  34.673  37.425  1.00  0.00     0.009 A 
ATOM     48  C   UNL A   1      38.461  33.014  38.343  1.00  0.00     0.009 A 
ATOM     49  C   UNL A   1      39.762  35.475  38.551  1.00  0.00     0.001 A 
ATOM     50  C   UNL A   1      38.246  33.830  39.457  1.00  0.00     0.001 A 
ATOM     51  C   UNL A   1      38.907  35.053  39.566  1.00  0.00     0.000 A 
ENDBRANCH  27  46
BRANCH  39  52
ATOM     52  C   UNL A   1      44.177  28.978  34.976  1.00  0.00    -0.014 A 
ATOM     53  C   UNL A   1      44.256  27.850  35.805  1.00  0.00     0.009 A 
ATOM     54  C   UNL A   1      45.345  29.683  34.651  1.00  0.00     0.009 A 
ATOM     55  C   UNL A   1      45.483  27.456  36.331  1.00  0.00     0.001 A 
ATOM     56  C   UNL A   1      46.576  29.263  35.149  1.00  0.00     0.001 A 
ATOM     57  C   UNL A   1      46.641  28.157  35.996  1.00  0.00     0.000 A 
ENDBRANCH  39  52
ENDBRANCH  13  14
ENDBRANCH   6   8
ENDBRANCH   5   6
ENDBRANCH   4   5
ENDBRANCH   3   4
ENDBRANCH   2   3
ENDBRANCH   1   2
BRANCH   1  58
ATOM     58  C   UNL A   1      32.378  26.650  26.381  1.00  0.00     0.261 C 
BRANCH  58  59
ATOM     59  O   UNL A   1      33.165  25.480  26.206  1.00  0.00    -0.463 OA
BRANCH  59  60
ATOM     60  C   UNL A   1      33.819  24.854  25.218  1.00  0.00     0.310 C 
ATOM     61  O   UNL A   1      34.470  25.284  24.270  1.00  0.00    -0.252 OA
BRANCH  60  62
ATOM     62  C   UNL A   1      33.617  23.403  25.480  1.00  0.00     0.116 C 
ATOM     63  C   UNL A   1      32.395  23.252  26.419  1.00  0.00     0.043 C 
ATOM     64  C   UNL A   1      33.458  22.752  24.098  1.00  0.00     0.097 C 
ATOM     65  C   UNL A   1      31.072  23.453  25.732  1.00  0.00    -0.030 C 
ATOM     66  C   UNL A   1      32.048  22.880  23.467  1.00  0.00     0.041 C 
ATOM     67  C   UNL A   1      30.922  23.279  24.407  1.00  0.00    -0.030 C 
BRANCH  64  68
ATOM     68  C   UNL A   1      34.685  22.981  23.141  1.00  0.00     0.228 C 
ATOM     69  O   UNL A   1      34.373  23.404  22.007  1.00  0.00    -0.274 OA
ATOM     70  N   UNL A   1      36.043  22.810  23.272  1.00  0.00    -0.326 N 
ATOM     71  H   UNL A   1      36.481  22.949  22.401  1.00  0.00     0.169 HD
BRANCH  70  72
ATOM     72  C   UNL A   1      37.024  22.499  24.258  1.00  0.00     0.041 A 
ATOM     73  C   UNL A   1      37.309  21.160  24.528  1.00  0.00     0.027 A 
ATOM     74  C   UNL A   1      37.521  23.405  25.218  1.00  0.00     0.027 A 
ATOM     75  C   UNL A   1      38.295  20.782  25.479  1.00  0.00     0.024 A 
ATOM     76  C   UNL A   1      38.571  23.049  26.150  1.00  0.00     0.024 A 
ATOM     77  C   UNL A   1      39.041  21.730  26.208  1.00  0.00     0.088 A 
BRANCH  77  78
ATOM     78  S   UNL A   1      40.794  21.187  26.566  1.00  0.00     0.264 S 
ATOM     79  O   UNL A   1      40.778  20.828  27.973  1.00  0.00    -0.201 OA
ATOM     80  O   UNL A   1      41.043  20.155  25.577  1.00  0.00    -0.201 OA
BRANCH  78  81
ATOM     81  N   UNL A   1      41.969  22.355  26.370  1.00  0.00    -0.266 N 
ATOM     82  C   UNL A   1      42.750  22.612  25.121  1.00  0.00     0.140 C 
ATOM     83  C   UNL A   1      42.642  23.028  27.406  1.00  0.00     0.055 A 
ATOM     84  C   UNL A   1      43.435  23.998  25.386  1.00  0.00     0.060 C 
ATOM     85  C   UNL A   1      43.275  24.145  26.873  1.00  0.00    -0.022 A 
ATOM     86  C   UNL A   1      42.831  22.673  28.718  1.00  0.00     0.027 A 
ATOM     87  C   UNL A   1      43.650  25.175  27.715  1.00  0.00     0.006 A 
ATOM     88  C   UNL A   1      43.334  23.645  29.576  1.00  0.00     0.002 A 
ATOM     89  C   UNL A   1      43.618  24.930  29.091  1.00  0.00     0.000 A 
ENDBRANCH  78  81
ENDBRANCH  77  78
ENDBRANCH  70  72
ENDBRANCH  64  68
ENDBRANCH  60  62
ENDBRANCH  59  60
ENDBRANCH  58  59
ENDBRANCH   1  58
TORSDOF 18
ENDMDL
