MODEL 1
REMARK VINA RESULT:     -11.4      0.000      0.000
REMARK SMILES CN1C(=O)C[C@@H](C(=O)OCCOCCOC(=O)c2ccc(-c3c4nc(c(-c5ccccc5)c5ccc([nH]5)c(-c5ccccc5)c5nc(c(-c6ccccc6)c6ccc3[nH]6)C=C5)C=C4)cc2)C12CCN(S(=O)(=O)c1ccccc1F)CC2
REMARK SMILES IDX 12 1 11 2 10 3 9 4 7 5 8 6 6 7 1 8 2 9 3 10 66 11 4 12 5 13
REMARK SMILES IDX 67 14 81 15 68 16 80 17 69 18 70 19 71 20 72 21 73 22 74 23
REMARK SMILES IDX 78 24 75 25 77 26 79 27 76 28 13 29 14 30 15 31 16 32 17 33
REMARK SMILES IDX 18 34 19 35 65 36 20 37 64 38 21 39 22 40 23 41 58 42 24 43
REMARK SMILES IDX 63 44 57 45 59 46 25 47 62 48 56 49 55 50 26 52 48 53 33 54
REMARK SMILES IDX 47 55 34 56 37 57 46 58 60 59 35 60 36 61 45 63 61 64 38 65
REMARK SMILES IDX 27 66 28 67 32 68 29 69 31 70 30 71 49 72 50 73 54 74 51 75
REMARK SMILES IDX 53 76 52 77 39 78 40 79 44 80 41 81 43 82 42 83
REMARK H PARENT 59 51 37 62
REMARK Flexibility Score: inf
ROOT
ATOM      1  O   UNL A   1      35.970  21.495  25.264  1.00  0.00    -0.374 OA
ENDROOT
BRANCH   1   2
ATOM      2  C   UNL A   1      35.279  22.740  25.227  1.00  0.00     0.202 C 
BRANCH   2   3
ATOM      3  C   UNL A   1      34.460  23.140  26.463  1.00  0.00     0.261 C 
BRANCH   3   4
ATOM      4  O   UNL A   1      33.138  22.567  26.574  1.00  0.00    -0.463 OA
BRANCH   4   5
ATOM      5  C   UNL A   1      32.119  23.459  26.616  1.00  0.00     0.311 C 
ATOM      6  O   UNL A   1      31.796  24.079  27.626  1.00  0.00    -0.252 OA
BRANCH   5   7
ATOM      7  C   UNL A   1      31.285  23.579  25.349  1.00  0.00     0.134 C 
ATOM      8  C   UNL A   1      33.063  23.912  22.050  1.00  0.00     0.147 C 
ATOM      9  N   UNL A   1      32.335  23.521  23.248  1.00  0.00    -0.339 N 
ATOM     10  C   UNL A   1      32.111  22.197  23.578  1.00  0.00     0.223 C 
ATOM     11  C   UNL A   1      31.650  24.474  24.135  1.00  0.00     0.059 C 
ATOM     12  O   UNL A   1      32.530  21.214  22.991  1.00  0.00    -0.275 OA
ATOM     13  C   UNL A   1      31.195  22.159  24.768  1.00  0.00     0.118 C 
ATOM     14  C   UNL A   1      32.531  25.691  24.440  1.00  0.00     0.046 C 
ATOM     15  C   UNL A   1      30.335  24.959  23.428  1.00  0.00     0.046 C 
ATOM     16  C   UNL A   1      31.767  26.803  25.132  1.00  0.00     0.105 C 
ATOM     17  C   UNL A   1      29.676  26.195  24.054  1.00  0.00     0.105 C 
ATOM     18  N   UNL A   1      30.660  27.292  24.292  1.00  0.00    -0.198 NA
BRANCH  18  19
ATOM     19  S   UNL A   1      30.996  28.267  22.914  1.00  0.00     0.245 S 
ATOM     20  O   UNL A   1      32.301  28.871  23.081  1.00  0.00    -0.207 OA
ATOM     21  O   UNL A   1      30.742  27.427  21.760  1.00  0.00    -0.207 OA
BRANCH  19  22
ATOM     22  C   UNL A   1      29.794  29.566  22.897  1.00  0.00     0.118 A 
ATOM     23  C   UNL A   1      28.919  29.704  21.813  1.00  0.00     0.025 A 
ATOM     24  C   UNL A   1      29.800  30.537  23.895  1.00  0.00     0.143 A 
ATOM     25  C   UNL A   1      28.030  30.785  21.771  1.00  0.00     0.002 A 
ATOM     26  C   UNL A   1      28.890  31.591  23.874  1.00  0.00     0.041 A 
ATOM     27  F   UNL A   1      30.652  30.484  24.925  1.00  0.00    -0.206 F 
ATOM     28  C   UNL A   1      28.006  31.719  22.807  1.00  0.00     0.003 A 
ENDBRANCH  19  22
ENDBRANCH  18  19
ENDBRANCH   5   7
ENDBRANCH   4   5
ENDBRANCH   3   4
ENDBRANCH   2   3
ENDBRANCH   1   2
BRANCH   1  29
ATOM     29  C   UNL A   1      37.240  21.418  24.622  1.00  0.00     0.202 C 
BRANCH  29  30
ATOM     30  C   UNL A   1      38.133  20.250  25.051  1.00  0.00     0.261 C 
BRANCH  30  31
ATOM     31  O   UNL A   1      38.922  20.608  26.197  1.00  0.00    -0.460 OA
BRANCH  31  32
ATOM     32  C   UNL A   1      40.193  20.150  26.146  1.00  0.00     0.338 C 
ATOM     33  O   UNL A   1      40.575  19.093  25.675  1.00  0.00    -0.246 OA
BRANCH  32  34
ATOM     34  C   UNL A   1      41.121  21.190  26.623  1.00  0.00     0.060 A 
ATOM     35  C   UNL A   1      41.180  21.450  27.998  1.00  0.00     0.016 A 
ATOM     36  C   UNL A   1      41.788  22.008  25.713  1.00  0.00     0.016 A 
ATOM     37  C   UNL A   1      41.856  22.581  28.463  1.00  0.00     0.010 A 
ATOM     38  C   UNL A   1      42.467  23.138  26.182  1.00  0.00     0.010 A 
ATOM     39  C   UNL A   1      42.461  23.459  27.553  1.00  0.00    -0.014 A 
BRANCH  39  40
ATOM     40  C   UNL A   1      42.918  24.798  28.009  1.00  0.00     0.031 A 
ATOM     41  C   UNL A   1      41.889  25.866  28.275  1.00  0.00     0.074 A 
ATOM     42  C   UNL A   1      44.220  25.060  28.216  1.00  0.00     0.049 A 
ATOM     43  N   UNL A   1      42.057  27.107  28.657  1.00  0.00    -0.248 NA
ATOM     44  C   UNL A   1      40.480  25.479  28.087  1.00  0.00     0.031 C 
ATOM     45  C   UNL A   1      45.312  24.102  28.053  1.00  0.00     0.029 A 
ATOM     46  N   UNL A   1      44.843  26.217  28.614  1.00  0.00    -0.354 N 
ATOM     47  C   UNL A   1      40.780  27.649  28.749  1.00  0.00     0.074 A 
ATOM     48  C   UNL A   1      39.850  26.614  28.351  1.00  0.00     0.031 C 
ATOM     49  C   UNL A   1      46.472  24.710  28.354  1.00  0.00     0.029 A 
ATOM     50  C   UNL A   1      46.210  26.107  28.696  1.00  0.00     0.049 A 
ATOM     51  H   UNL A   1      44.355  27.047  28.822  1.00  0.00     0.167 HD
ATOM     52  C   UNL A   1      40.408  28.894  29.135  1.00  0.00     0.031 A 
ATOM     53  C   UNL A   1      47.143  27.032  28.997  1.00  0.00     0.031 A 
ATOM     54  C   UNL A   1      41.329  29.933  29.511  1.00  0.00     0.049 A 
ATOM     55  C   UNL A   1      46.715  28.437  29.327  1.00  0.00     0.074 A 
ATOM     56  C   UNL A   1      41.053  31.228  29.912  1.00  0.00     0.029 A 
ATOM     57  N   UNL A   1      42.709  29.794  29.524  1.00  0.00    -0.354 N 
ATOM     58  N   UNL A   1      45.505  28.934  29.419  1.00  0.00    -0.248 NA
ATOM     59  C   UNL A   1      47.785  29.410  29.601  1.00  0.00     0.031 C 
ATOM     60  C   UNL A   1      42.269  31.889  30.119  1.00  0.00     0.029 A 
ATOM     61  C   UNL A   1      43.298  30.987  29.905  1.00  0.00     0.049 A 
ATOM     62  H   UNL A   1      43.196  28.970  29.297  1.00  0.00     0.167 HD
ATOM     63  C   UNL A   1      45.666  30.261  29.798  1.00  0.00     0.074 A 
ATOM     64  C   UNL A   1      47.090  30.493  29.920  1.00  0.00     0.031 C 
ATOM     65  C   UNL A   1      44.716  31.201  30.034  1.00  0.00     0.031 A 
BRANCH  52  66
ATOM     66  C   UNL A   1      38.937  29.204  29.131  1.00  0.00    -0.014 A 
ATOM     67  C   UNL A   1      38.289  29.653  27.969  1.00  0.00     0.009 A 
ATOM     68  C   UNL A   1      38.186  29.040  30.305  1.00  0.00     0.009 A 
ATOM     69  C   UNL A   1      36.929  29.973  27.995  1.00  0.00     0.001 A 
ATOM     70  C   UNL A   1      36.820  29.332  30.321  1.00  0.00     0.001 A 
ATOM     71  C   UNL A   1      36.196  29.809  29.170  1.00  0.00     0.000 A 
ENDBRANCH  52  66
BRANCH  53  72
ATOM     72  C   UNL A   1      48.582  26.660  29.000  1.00  0.00    -0.014 A 
ATOM     73  C   UNL A   1      49.188  26.162  30.164  1.00  0.00     0.009 A 
ATOM     74  C   UNL A   1      49.360  26.806  27.841  1.00  0.00     0.009 A 
ATOM     75  C   UNL A   1      50.546  25.836  30.172  1.00  0.00     0.001 A 
ATOM     76  C   UNL A   1      50.711  26.452  27.844  1.00  0.00     0.001 A 
ATOM     77  C   UNL A   1      51.305  25.973  29.011  1.00  0.00     0.000 A 
ENDBRANCH  53  72
BRANCH  65  78
ATOM     78  C   UNL A   1      45.176  32.552  30.506  1.00  0.00    -0.014 A 
ATOM     79  C   UNL A   1      45.486  33.579  29.602  1.00  0.00     0.009 A 
ATOM     80  C   UNL A   1      45.231  32.818  31.884  1.00  0.00     0.009 A 
ATOM     81  C   UNL A   1      45.865  34.840  30.071  1.00  0.00     0.001 A 
ATOM     82  C   UNL A   1      45.583  34.085  32.349  1.00  0.00     0.001 A 
ATOM     83  C   UNL A   1      45.906  35.092  31.442  1.00  0.00     0.000 A 
ENDBRANCH  65  78
ENDBRANCH  39  40
ENDBRANCH  32  34
ENDBRANCH  31  32
ENDBRANCH  30  31
ENDBRANCH  29  30
ENDBRANCH   1  29
TORSDOF 16
ENDMDL
MODEL 2
REMARK VINA RESULT:     -11.3      1.927      2.460
REMARK SMILES CN1C(=O)C[C@@H](C(=O)OCCOCCOC(=O)c2ccc(-c3c4nc(c(-c5ccccc5)c5ccc([nH]5)c(-c5ccccc5)c5nc(c(-c6ccccc6)c6ccc3[nH]6)C=C5)C=C4)cc2)C12CCN(S(=O)(=O)c1ccccc1F)CC2
REMARK SMILES IDX 12 1 11 2 10 3 9 4 7 5 8 6 6 7 1 8 2 9 3 10 66 11 4 12 5 13
REMARK SMILES IDX 67 14 81 15 68 16 80 17 69 18 70 19 71 20 72 21 73 22 74 23
REMARK SMILES IDX 78 24 75 25 77 26 79 27 76 28 13 29 14 30 15 31 16 32 17 33
REMARK SMILES IDX 18 34 19 35 65 36 20 37 64 38 21 39 22 40 23 41 58 42 24 43
REMARK SMILES IDX 63 44 57 45 59 46 25 47 62 48 56 49 55 50 26 52 48 53 33 54
REMARK SMILES IDX 47 55 34 56 37 57 46 58 60 59 35 60 36 61 45 63 61 64 38 65
REMARK SMILES IDX 27 66 28 67 32 68 29 69 31 70 30 71 49 72 50 73 54 74 51 75
REMARK SMILES IDX 53 76 52 77 39 78 40 79 44 80 41 81 43 82 42 83
REMARK H PARENT 59 51 37 62
REMARK Flexibility Score: inf
ROOT
ATOM      1  O   UNL A   1      34.788  20.799  25.738  1.00  0.00    -0.374 OA
ENDROOT
BRANCH   1   2
ATOM      2  C   UNL A   1      34.499  21.533  26.924  1.00  0.00     0.202 C 
BRANCH   2   3
ATOM      3  C   UNL A   1      33.487  22.683  26.823  1.00  0.00     0.261 C 
BRANCH   3   4
ATOM      4  O   UNL A   1      32.147  22.330  26.409  1.00  0.00    -0.463 OA
BRANCH   4   5
ATOM      5  C   UNL A   1      31.276  23.363  26.318  1.00  0.00     0.311 C 
ATOM      6  O   UNL A   1      30.678  23.838  27.280  1.00  0.00    -0.252 OA
BRANCH   5   7
ATOM      7  C   UNL A   1      30.965  23.851  24.911  1.00  0.00     0.134 C 
ATOM      8  C   UNL A   1      33.792  25.139  22.788  1.00  0.00     0.147 C 
ATOM      9  N   UNL A   1      32.721  24.414  23.455  1.00  0.00    -0.339 N 
ATOM     10  C   UNL A   1      32.541  23.051  23.298  1.00  0.00     0.223 C 
ATOM     11  C   UNL A   1      31.651  25.064  24.228  1.00  0.00     0.059 C 
ATOM     12  O   UNL A   1      33.257  22.284  22.677  1.00  0.00    -0.275 OA
ATOM     13  C   UNL A   1      31.259  22.665  23.979  1.00  0.00     0.118 C 
ATOM     14  C   UNL A   1      32.212  26.136  25.169  1.00  0.00     0.046 C 
ATOM     15  C   UNL A   1      30.648  25.737  23.225  1.00  0.00     0.046 C 
ATOM     16  C   UNL A   1      31.124  26.996  25.783  1.00  0.00     0.105 C 
ATOM     17  C   UNL A   1      29.668  26.734  23.856  1.00  0.00     0.105 C 
ATOM     18  N   UNL A   1      30.361  27.712  24.745  1.00  0.00    -0.198 NA
BRANCH  18  19
ATOM     19  S   UNL A   1      31.072  29.049  23.929  1.00  0.00     0.245 S 
ATOM     20  O   UNL A   1      31.767  29.869  24.899  1.00  0.00    -0.207 OA
ATOM     21  O   UNL A   1      31.808  28.488  22.813  1.00  0.00    -0.207 OA
BRANCH  19  22
ATOM     22  C   UNL A   1      29.745  30.008  23.257  1.00  0.00     0.118 A 
ATOM     23  C   UNL A   1      29.163  29.650  22.035  1.00  0.00     0.025 A 
ATOM     24  C   UNL A   1      29.362  31.198  23.871  1.00  0.00     0.143 A 
ATOM     25  C   UNL A   1      28.172  30.464  21.474  1.00  0.00     0.002 A 
ATOM     26  C   UNL A   1      28.350  31.988  23.334  1.00  0.00     0.041 A 
ATOM     27  F   UNL A   1      29.924  31.615  25.012  1.00  0.00    -0.206 F 
ATOM     28  C   UNL A   1      27.756  31.624  22.129  1.00  0.00     0.003 A 
ENDBRANCH  19  22
ENDBRANCH  18  19
ENDBRANCH   5   7
ENDBRANCH   4   5
ENDBRANCH   3   4
ENDBRANCH   2   3
ENDBRANCH   1   2
BRANCH   1  29
ATOM     29  C   UNL A   1      35.782  21.317  24.857  1.00  0.00     0.202 C 
BRANCH  29  30
ATOM     30  C   UNL A   1      37.152  20.637  24.925  1.00  0.00     0.261 C 
BRANCH  30  31
ATOM     31  O   UNL A   1      38.200  21.614  25.021  1.00  0.00    -0.460 OA
BRANCH  31  32
ATOM     32  C   UNL A   1      39.129  21.325  25.960  1.00  0.00     0.338 C 
ATOM     33  O   UNL A   1      39.654  20.244  26.166  1.00  0.00    -0.246 OA
BRANCH  32  34
ATOM     34  C   UNL A   1      39.555  22.559  26.643  1.00  0.00     0.060 A 
ATOM     35  C   UNL A   1      38.928  23.763  26.297  1.00  0.00     0.016 A 
ATOM     36  C   UNL A   1      40.669  22.551  27.479  1.00  0.00     0.016 A 
ATOM     37  C   UNL A   1      39.462  24.976  26.735  1.00  0.00     0.010 A 
ATOM     38  C   UNL A   1      41.201  23.769  27.920  1.00  0.00     0.010 A 
ATOM     39  C   UNL A   1      40.631  24.989  27.508  1.00  0.00    -0.014 A 
BRANCH  39  40
ATOM     40  C   UNL A   1      41.362  26.264  27.725  1.00  0.00     0.031 A 
ATOM     41  C   UNL A   1      40.741  27.318  28.606  1.00  0.00     0.074 A 
ATOM     42  C   UNL A   1      42.572  26.479  27.180  1.00  0.00     0.049 A 
ATOM     43  N   UNL A   1      41.185  28.509  28.920  1.00  0.00    -0.248 NA
ATOM     44  C   UNL A   1      39.445  26.978  29.218  1.00  0.00     0.031 C 
ATOM     45  C   UNL A   1      43.311  25.523  26.357  1.00  0.00     0.029 A 
ATOM     46  N   UNL A   1      43.395  27.577  27.243  1.00  0.00    -0.354 N 
ATOM     47  C   UNL A   1      40.223  29.062  29.757  1.00  0.00     0.074 A 
ATOM     48  C   UNL A   1      39.157  28.091  29.876  1.00  0.00     0.031 C 
ATOM     49  C   UNL A   1      44.482  26.076  25.996  1.00  0.00     0.029 A 
ATOM     50  C   UNL A   1      44.560  27.434  26.531  1.00  0.00     0.049 A 
ATOM     51  H   UNL A   1      43.170  28.390  27.753  1.00  0.00     0.167 HD
ATOM     52  C   UNL A   1      40.226  30.266  30.379  1.00  0.00     0.031 A 
ATOM     53  C   UNL A   1      45.566  28.305  26.321  1.00  0.00     0.031 A 
ATOM     54  C   UNL A   1      41.273  31.243  30.246  1.00  0.00     0.049 A 
ATOM     55  C   UNL A   1      45.503  29.676  26.941  1.00  0.00     0.074 A 
ATOM     56  C   UNL A   1      41.365  32.494  30.829  1.00  0.00     0.029 A 
ATOM     57  N   UNL A   1      42.408  31.079  29.467  1.00  0.00    -0.354 N 
ATOM     58  N   UNL A   1      44.592  30.182  27.736  1.00  0.00    -0.248 NA
ATOM     59  C   UNL A   1      46.611  30.594  26.635  1.00  0.00     0.031 C 
ATOM     60  C   UNL A   1      42.533  33.108  30.363  1.00  0.00     0.029 A 
ATOM     61  C   UNL A   1      43.196  32.214  29.538  1.00  0.00     0.049 A 
ATOM     62  H   UNL A   1      42.621  30.273  28.943  1.00  0.00     0.167 HD
ATOM     63  C   UNL A   1      45.036  31.460  28.058  1.00  0.00     0.074 A 
ATOM     64  C   UNL A   1      46.297  31.652  27.372  1.00  0.00     0.031 C 
ATOM     65  C   UNL A   1      44.454  32.387  28.859  1.00  0.00     0.031 A 
BRANCH  52  66
ATOM     66  C   UNL A   1      39.032  30.603  31.229  1.00  0.00    -0.014 A 
ATOM     67  C   UNL A   1      37.898  31.224  30.683  1.00  0.00     0.009 A 
ATOM     68  C   UNL A   1      39.039  30.287  32.597  1.00  0.00     0.009 A 
ATOM     69  C   UNL A   1      36.814  31.563  31.498  1.00  0.00     0.001 A 
ATOM     70  C   UNL A   1      37.943  30.601  33.404  1.00  0.00     0.001 A 
ATOM     71  C   UNL A   1      36.837  31.249  32.856  1.00  0.00     0.000 A 
ENDBRANCH  52  66
BRANCH  53  72
ATOM     72  C   UNL A   1      46.728  27.908  25.483  1.00  0.00    -0.014 A 
ATOM     73  C   UNL A   1      46.687  28.064  24.088  1.00  0.00     0.009 A 
ATOM     74  C   UNL A   1      47.882  27.367  26.070  1.00  0.00     0.009 A 
ATOM     75  C   UNL A   1      47.771  27.669  23.300  1.00  0.00     0.001 A 
ATOM     76  C   UNL A   1      48.974  26.999  25.282  1.00  0.00     0.001 A 
ATOM     77  C   UNL A   1      48.916  27.144  23.897  1.00  0.00     0.000 A 
ENDBRANCH  53  72
BRANCH  65  78
ATOM     78  C   UNL A   1      45.198  33.673  29.089  1.00  0.00    -0.014 A 
ATOM     79  C   UNL A   1      44.979  34.801  28.285  1.00  0.00     0.009 A 
ATOM     80  C   UNL A   1      46.081  33.772  30.177  1.00  0.00     0.009 A 
ATOM     81  C   UNL A   1      45.650  35.998  28.553  1.00  0.00     0.001 A 
ATOM     82  C   UNL A   1      46.729  34.975  30.458  1.00  0.00     0.001 A 
ATOM     83  C   UNL A   1      46.517  36.085  29.642  1.00  0.00     0.000 A 
ENDBRANCH  65  78
ENDBRANCH  39  40
ENDBRANCH  32  34
ENDBRANCH  31  32
ENDBRANCH  30  31
ENDBRANCH  29  30
ENDBRANCH   1  29
TORSDOF 16
ENDMDL
MODEL 3
REMARK VINA RESULT:     -11.3      2.523      8.307
REMARK SMILES CN1C(=O)C[C@@H](C(=O)OCCOCCOC(=O)c2ccc(-c3c4nc(c(-c5ccccc5)c5ccc([nH]5)c(-c5ccccc5)c5nc(c(-c6ccccc6)c6ccc3[nH]6)C=C5)C=C4)cc2)C12CCN(S(=O)(=O)c1ccccc1F)CC2
REMARK SMILES IDX 12 1 11 2 10 3 9 4 7 5 8 6 6 7 1 8 2 9 3 10 66 11 4 12 5 13
REMARK SMILES IDX 67 14 81 15 68 16 80 17 69 18 70 19 71 20 72 21 73 22 74 23
REMARK SMILES IDX 78 24 75 25 77 26 79 27 76 28 13 29 14 30 15 31 16 32 17 33
REMARK SMILES IDX 18 34 19 35 65 36 20 37 64 38 21 39 22 40 23 41 58 42 24 43
REMARK SMILES IDX 63 44 57 45 59 46 25 47 62 48 56 49 55 50 26 52 48 53 33 54
REMARK SMILES IDX 47 55 34 56 37 57 46 58 60 59 35 60 36 61 45 63 61 64 38 65
REMARK SMILES IDX 27 66 28 67 32 68 29 69 31 70 30 71 49 72 50 73 54 74 51 75
REMARK SMILES IDX 53 76 52 77 39 78 40 79 44 80 41 81 43 82 42 83
REMARK H PARENT 59 51 37 62
REMARK Flexibility Score: inf
ROOT
ATOM      1  O   UNL A   1      32.192  33.372  27.477  1.00  0.00    -0.374 OA
ENDROOT
BRANCH   1   2
ATOM      2  C   UNL A   1      31.475  32.508  26.602  1.00  0.00     0.202 C 
BRANCH   2   3
ATOM      3  C   UNL A   1      31.836  31.015  26.617  1.00  0.00     0.261 C 
BRANCH   3   4
ATOM      4  O   UNL A   1      31.433  30.242  25.464  1.00  0.00    -0.463 OA
BRANCH   4   5
ATOM      5  C   UNL A   1      32.400  29.469  24.915  1.00  0.00     0.311 C 
ATOM      6  O   UNL A   1      33.559  29.432  25.325  1.00  0.00    -0.252 OA
BRANCH   5   7
ATOM      7  C   UNL A   1      32.014  28.710  23.654  1.00  0.00     0.134 C 
ATOM      8  C   UNL A   1      29.308  26.106  23.879  1.00  0.00     0.147 C 
ATOM      9  N   UNL A   1      30.158  27.270  23.679  1.00  0.00    -0.339 N 
ATOM     10  C   UNL A   1      29.643  28.522  23.393  1.00  0.00     0.223 C 
ATOM     11  C   UNL A   1      31.626  27.208  23.613  1.00  0.00     0.059 C 
ATOM     12  O   UNL A   1      28.466  28.837  23.345  1.00  0.00    -0.275 OA
ATOM     13  C   UNL A   1      30.790  29.441  23.082  1.00  0.00     0.118 C 
ATOM     14  C   UNL A   1      32.202  26.336  24.735  1.00  0.00     0.046 C 
ATOM     15  C   UNL A   1      32.040  26.598  22.227  1.00  0.00     0.046 C 
ATOM     16  C   UNL A   1      33.677  26.042  24.544  1.00  0.00     0.105 C 
ATOM     17  C   UNL A   1      33.504  26.152  22.123  1.00  0.00     0.105 C 
ATOM     18  N   UNL A   1      33.917  25.313  23.286  1.00  0.00    -0.198 NA
BRANCH  18  19
ATOM     19  S   UNL A   1      33.485  23.652  23.163  1.00  0.00     0.245 S 
ATOM     20  O   UNL A   1      32.278  23.429  23.930  1.00  0.00    -0.207 OA
ATOM     21  O   UNL A   1      33.498  23.341  21.747  1.00  0.00    -0.207 OA
BRANCH  19  22
ATOM     22  C   UNL A   1      34.788  22.723  23.919  1.00  0.00     0.118 A 
ATOM     23  C   UNL A   1      36.092  23.232  23.950  1.00  0.00     0.025 A 
ATOM     24  C   UNL A   1      34.553  21.427  24.368  1.00  0.00     0.143 A 
ATOM     25  C   UNL A   1      37.130  22.453  24.475  1.00  0.00     0.002 A 
ATOM     26  C   UNL A   1      35.576  20.665  24.926  1.00  0.00     0.041 A 
ATOM     27  F   UNL A   1      33.337  20.871  24.312  1.00  0.00    -0.206 F 
ATOM     28  C   UNL A   1      36.870  21.177  24.976  1.00  0.00     0.003 A 
ENDBRANCH  19  22
ENDBRANCH  18  19
ENDBRANCH   5   7
ENDBRANCH   4   5
ENDBRANCH   3   4
ENDBRANCH   2   3
ENDBRANCH   1   2
BRANCH   1  29
ATOM     29  C   UNL A   1      33.594  33.157  27.627  1.00  0.00     0.202 C 
BRANCH  29  30
ATOM     30  C   UNL A   1      34.123  33.196  29.064  1.00  0.00     0.261 C 
BRANCH  30  31
ATOM     31  O   UNL A   1      34.527  31.885  29.492  1.00  0.00    -0.460 OA
BRANCH  31  32
ATOM     32  C   UNL A   1      35.521  31.895  30.408  1.00  0.00     0.338 C 
ATOM     33  O   UNL A   1      35.549  32.519  31.455  1.00  0.00    -0.246 OA
BRANCH  32  34
ATOM     34  C   UNL A   1      36.551  30.908  30.042  1.00  0.00     0.060 A 
ATOM     35  C   UNL A   1      37.222  30.232  31.069  1.00  0.00     0.016 A 
ATOM     36  C   UNL A   1      36.965  30.783  28.717  1.00  0.00     0.016 A 
ATOM     37  C   UNL A   1      38.361  29.478  30.777  1.00  0.00     0.010 A 
ATOM     38  C   UNL A   1      38.105  30.024  28.428  1.00  0.00     0.010 A 
ATOM     39  C   UNL A   1      38.838  29.411  29.462  1.00  0.00    -0.014 A 
BRANCH  39  40
ATOM     40  C   UNL A   1      40.195  28.866  29.193  1.00  0.00     0.031 A 
ATOM     41  C   UNL A   1      41.388  29.770  29.359  1.00  0.00     0.074 A 
ATOM     42  C   UNL A   1      40.375  27.582  28.838  1.00  0.00     0.049 A 
ATOM     43  N   UNL A   1      42.658  29.519  29.161  1.00  0.00    -0.248 NA
ATOM     44  C   UNL A   1      41.110  31.143  29.814  1.00  0.00     0.031 C 
ATOM     45  C   UNL A   1      39.315  26.585  28.698  1.00  0.00     0.029 A 
ATOM     46  N   UNL A   1      41.525  26.895  28.534  1.00  0.00    -0.354 N 
ATOM     47  C   UNL A   1      43.327  30.700  29.460  1.00  0.00     0.074 A 
ATOM     48  C   UNL A   1      42.322  31.677  29.820  1.00  0.00     0.031 C 
ATOM     49  C   UNL A   1      39.865  25.413  28.340  1.00  0.00     0.029 A 
ATOM     50  C   UNL A   1      41.310  25.584  28.191  1.00  0.00     0.049 A 
ATOM     51  H   UNL A   1      42.420  27.306  28.560  1.00  0.00     0.167 HD
ATOM     52  C   UNL A   1      44.659  30.952  29.444  1.00  0.00     0.031 A 
ATOM     53  C   UNL A   1      42.176  24.633  27.788  1.00  0.00     0.031 A 
ATOM     54  C   UNL A   1      45.660  29.991  29.066  1.00  0.00     0.049 A 
ATOM     55  C   UNL A   1      43.642  24.963  27.681  1.00  0.00     0.074 A 
ATOM     56  C   UNL A   1      47.033  30.151  29.011  1.00  0.00     0.029 A 
ATOM     57  N   UNL A   1      45.391  28.690  28.670  1.00  0.00    -0.354 N 
ATOM     58  N   UNL A   1      44.262  26.080  27.974  1.00  0.00    -0.248 NA
ATOM     59  C   UNL A   1      44.528  23.896  27.191  1.00  0.00     0.031 C 
ATOM     60  C   UNL A   1      47.592  28.961  28.533  1.00  0.00     0.029 A 
ATOM     61  C   UNL A   1      46.571  28.043  28.348  1.00  0.00     0.049 A 
ATOM     62  H   UNL A   1      44.494  28.287  28.625  1.00  0.00     0.167 HD
ATOM     63  C   UNL A   1      45.611  25.839  27.743  1.00  0.00     0.074 A 
ATOM     64  C   UNL A   1      45.720  24.469  27.285  1.00  0.00     0.031 C 
ATOM     65  C   UNL A   1      46.666  26.676  27.906  1.00  0.00     0.031 A 
BRANCH  52  66
ATOM     66  C   UNL A   1      45.099  32.342  29.812  1.00  0.00    -0.014 A 
ATOM     67  C   UNL A   1      45.412  32.682  31.138  1.00  0.00     0.009 A 
ATOM     68  C   UNL A   1      45.209  33.326  28.816  1.00  0.00     0.009 A 
ATOM     69  C   UNL A   1      45.783  33.989  31.466  1.00  0.00     0.001 A 
ATOM     70  C   UNL A   1      45.609  34.624  29.142  1.00  0.00     0.001 A 
ATOM     71  C   UNL A   1      45.883  34.957  30.467  1.00  0.00     0.000 A 
ENDBRANCH  52  66
BRANCH  53  72
ATOM     72  C   UNL A   1      41.682  23.272  27.452  1.00  0.00    -0.014 A 
ATOM     73  C   UNL A   1      41.154  22.999  26.180  1.00  0.00     0.009 A 
ATOM     74  C   UNL A   1      41.730  22.240  28.402  1.00  0.00     0.009 A 
ATOM     75  C   UNL A   1      40.669  21.725  25.874  1.00  0.00     0.001 A 
ATOM     76  C   UNL A   1      41.269  20.961  28.083  1.00  0.00     0.001 A 
ATOM     77  C   UNL A   1      40.733  20.705  26.822  1.00  0.00     0.000 A 
ENDBRANCH  53  72
BRANCH  65  78
ATOM     78  C   UNL A   1      48.039  26.123  27.646  1.00  0.00    -0.014 A 
ATOM     79  C   UNL A   1      48.709  26.358  26.436  1.00  0.00     0.009 A 
ATOM     80  C   UNL A   1      48.700  25.413  28.662  1.00  0.00     0.009 A 
ATOM     81  C   UNL A   1      50.004  25.871  26.241  1.00  0.00     0.001 A 
ATOM     82  C   UNL A   1      50.003  24.952  28.475  1.00  0.00     0.001 A 
ATOM     83  C   UNL A   1      50.651  25.176  27.262  1.00  0.00     0.000 A 
ENDBRANCH  65  78
ENDBRANCH  39  40
ENDBRANCH  32  34
ENDBRANCH  31  32
ENDBRANCH  30  31
ENDBRANCH  29  30
ENDBRANCH   1  29
TORSDOF 16
ENDMDL
