MODEL 1
REMARK VINA RESULT:     -10.7      0.000      0.000
REMARK SMILES CC[C@H]([NH2+][C@@H](C)c1c(C)noc1C)C(=O)OCCOCCOC(=O)c1ccc(-c2c3nc(c(-c4ccccc4)c4ccc([nH]4)c(-c4ccccc4)c4nc(c(-c5ccccc5)c5ccc2[nH]5)C=C4)C=C3)cc1
REMARK SMILES IDX 18 1 17 2 16 3 14 4 15 5 3 6 2 7 1 8 4 9 5 12 6 13 7 14 8 15
REMARK SMILES IDX 12 16 9 17 10 18 11 19 13 20 19 21 20 22 21 23 22 24 23 25
REMARK SMILES IDX 24 26 25 27 26 28 72 29 27 30 71 31 28 32 29 33 30 34 65 35
REMARK SMILES IDX 31 36 70 37 64 38 66 39 32 40 69 41 63 42 62 43 33 45 55 46
REMARK SMILES IDX 40 47 54 48 41 49 44 50 53 51 67 52 42 53 43 54 52 56 68 57
REMARK SMILES IDX 45 58 34 59 35 60 39 61 36 62 38 63 37 64 56 65 57 66 61 67
REMARK SMILES IDX 58 68 60 69 59 70 46 71 47 72 51 73 48 74 50 75 49 76
REMARK H PARENT 4 10 4 11 66 44 44 55
REMARK Flexibility Score: inf
ROOT
ATOM      1  C   UNL A   1      32.223  27.882  24.384  1.00  0.00     0.202 C 
ENDROOT
BRANCH   1   2
ATOM      2  C   UNL A   1      33.374  26.738  23.734  1.00  0.00     0.261 C 
BRANCH   2   3
ATOM      3  O   UNL A   1      34.142  25.693  24.517  1.00  0.00    -0.459 OA
BRANCH   3   4
ATOM      4  C   UNL A   1      34.575  24.525  23.938  1.00  0.00     0.364 C 
ATOM      5  O   UNL A   1      34.565  24.381  22.713  1.00  0.00    -0.245 OA
BRANCH   4   6
ATOM      6  C   UNL A   1      35.308  23.431  24.834  1.00  0.00     0.293 C 
BRANCH   6   7
ATOM      7  C   UNL A   1      36.821  23.724  24.890  1.00  0.00     0.074 C 
ATOM      8  C   UNL A   1      37.591  22.627  25.602  1.00  0.00     0.011 C 
ENDBRANCH   6   7
BRANCH   6   9
ATOM      9  N   UNL A   1      35.131  21.961  24.737  1.00  0.00    -0.328 N 
ATOM     10  H   UNL A   1      36.074  21.573  24.752  1.00  0.00     0.347 HD
ATOM     11  H   UNL A   1      34.538  21.901  23.909  1.00  0.00     0.347 HD
BRANCH   9  12
ATOM     12  C   UNL A   1      34.371  21.159  25.660  1.00  0.00     0.216 C 
ATOM     13  C   UNL A   1      34.055  21.992  26.900  1.00  0.00     0.081 C 
BRANCH  12  14
ATOM     14  C   UNL A   1      33.141  20.536  24.993  1.00  0.00     0.074 A 
ATOM     15  C   UNL A   1      32.215  21.758  23.994  1.00  0.00     0.090 A 
ATOM     16  C   UNL A   1      32.991  19.026  24.289  1.00  0.00     0.143 A 
ATOM     17  C   UNL A   1      31.125  22.580  24.979  1.00  0.00     0.071 C 
ATOM     18  N   UNL A   1      31.840  21.146  22.374  1.00  0.00    -0.085 NA
ATOM     19  O   UNL A   1      32.215  19.188  22.613  1.00  0.00    -0.361 OA
ATOM     20  C   UNL A   1      33.746  17.768  24.474  1.00  0.00     0.091 C 
ENDBRANCH  12  14
ENDBRANCH   9  12
ENDBRANCH   6   9
ENDBRANCH   4   6
ENDBRANCH   3   4
ENDBRANCH   2   3
ENDBRANCH   1   2
BRANCH   1  21
ATOM     21  O   UNL A   1      32.489  29.261  24.987  1.00  0.00    -0.374 OA
BRANCH  21  22
ATOM     22  C   UNL A   1      32.419  29.712  26.541  1.00  0.00     0.202 C 
BRANCH  22  23
ATOM     23  C   UNL A   1      33.669  30.928  27.327  1.00  0.00     0.261 C 
BRANCH  23  24
ATOM     24  O   UNL A   1      32.909  32.906  27.655  1.00  0.00    -0.460 OA
BRANCH  24  25
ATOM     25  C   UNL A   1      33.249  34.071  28.434  1.00  0.00     0.338 C 
ATOM     26  O   UNL A   1      32.558  35.073  28.623  1.00  0.00    -0.246 OA
BRANCH  25  27
ATOM     27  C   UNL A   1      34.478  33.983  29.232  1.00  0.00     0.060 A 
ATOM     28  C   UNL A   1      35.695  34.270  28.586  1.00  0.00     0.016 A 
ATOM     29  C   UNL A   1      34.467  33.213  30.391  1.00  0.00     0.016 A 
ATOM     30  C   UNL A   1      36.897  33.773  29.093  1.00  0.00     0.010 A 
ATOM     31  C   UNL A   1      35.673  32.722  30.904  1.00  0.00     0.010 A 
ATOM     32  C   UNL A   1      36.889  32.963  30.237  1.00  0.00    -0.014 A 
BRANCH  32  33
ATOM     33  C   UNL A   1      38.133  32.275  30.665  1.00  0.00     0.031 A 
ATOM     34  C   UNL A   1      38.981  32.866  31.759  1.00  0.00     0.074 A 
ATOM     35  C   UNL A   1      38.484  31.111  30.093  1.00  0.00     0.049 A 
ATOM     36  N   UNL A   1      40.114  32.434  32.256  1.00  0.00    -0.248 NA
ATOM     37  C   UNL A   1      38.491  34.108  32.378  1.00  0.00     0.031 C 
ATOM     38  C   UNL A   1      37.712  30.414  29.064  1.00  0.00     0.029 A 
ATOM     39  N   UNL A   1      39.577  30.307  30.297  1.00  0.00    -0.354 N 
ATOM     40  C   UNL A   1      40.477  33.354  33.233  1.00  0.00     0.074 A 
ATOM     41  C   UNL A   1      39.459  34.383  33.240  1.00  0.00     0.031 C 
ATOM     42  C   UNL A   1      38.352  29.280  28.733  1.00  0.00     0.029 A 
ATOM     43  C   UNL A   1      39.599  29.197  29.488  1.00  0.00     0.049 A 
ATOM     44  H   UNL A   1      40.278  30.506  30.959  1.00  0.00     0.167 HD
ATOM     45  C   UNL A   1      41.559  33.341  34.050  1.00  0.00     0.031 A 
ATOM     46  C   UNL A   1      40.532  28.235  29.354  1.00  0.00     0.031 A 
ATOM     47  C   UNL A   1      42.576  32.320  34.024  1.00  0.00     0.049 A 
ATOM     48  C   UNL A   1      41.770  28.294  30.208  1.00  0.00     0.074 A 
ATOM     49  C   UNL A   1      43.704  32.204  34.818  1.00  0.00     0.029 A 
ATOM     50  N   UNL A   1      42.593  31.244  33.149  1.00  0.00    -0.354 N 
ATOM     51  N   UNL A   1      42.091  29.157  31.143  1.00  0.00    -0.248 NA
ATOM     52  C   UNL A   1      42.771  27.240  29.994  1.00  0.00     0.031 C 
ATOM     53  C   UNL A   1      44.444  31.106  34.369  1.00  0.00     0.029 A 
ATOM     54  C   UNL A   1      43.732  30.484  33.354  1.00  0.00     0.049 A 
ATOM     55  H   UNL A   1      41.897  31.049  32.479  1.00  0.00     0.167 HD
ATOM     56  C   UNL A   1      43.311  28.730  31.651  1.00  0.00     0.074 A 
ATOM     57  C   UNL A   1      43.663  27.524  30.932  1.00  0.00     0.031 C 
ATOM     58  C   UNL A   1      44.071  29.286  32.627  1.00  0.00     0.031 A 
BRANCH  45  59
ATOM     59  C   UNL A   1      41.731  34.494  35.005  1.00  0.00    -0.014 A 
ATOM     60  C   UNL A   1      42.327  35.702  34.608  1.00  0.00     0.009 A 
ATOM     61  C   UNL A   1      41.251  34.381  36.321  1.00  0.00     0.009 A 
ATOM     62  C   UNL A   1      42.474  36.754  35.517  1.00  0.00     0.001 A 
ATOM     63  C   UNL A   1      41.368  35.445  37.217  1.00  0.00     0.001 A 
ATOM     64  C   UNL A   1      41.990  36.626  36.819  1.00  0.00     0.000 A 
ENDBRANCH  45  59
BRANCH  46  65
ATOM     65  C   UNL A   1      40.344  27.146  28.358  1.00  0.00    -0.014 A 
ATOM     66  C   UNL A   1      39.588  26.006  28.672  1.00  0.00     0.009 A 
ATOM     67  C   UNL A   1      40.937  27.234  27.087  1.00  0.00     0.009 A 
ATOM     68  C   UNL A   1      39.456  24.967  27.747  1.00  0.00     0.001 A 
ATOM     69  C   UNL A   1      40.772  26.211  26.152  1.00  0.00     0.001 A 
ATOM     70  C   UNL A   1      40.042  25.073  26.487  1.00  0.00     0.000 A 
ENDBRANCH  46  65
BRANCH  58  71
ATOM     71  C   UNL A   1      45.339  28.568  33.007  1.00  0.00    -0.014 A 
ATOM     72  C   UNL A   1      46.573  28.890  32.420  1.00  0.00     0.009 A 
ATOM     73  C   UNL A   1      45.300  27.575  33.998  1.00  0.00     0.009 A 
ATOM     74  C   UNL A   1      47.731  28.204  32.788  1.00  0.00     0.001 A 
ATOM     75  C   UNL A   1      46.466  26.918  34.393  1.00  0.00     0.001 A 
ATOM     76  C   UNL A   1      47.678  27.223  33.778  1.00  0.00     0.000 A 
ENDBRANCH  58  71
ENDBRANCH  32  33
ENDBRANCH  25  27
ENDBRANCH  24  25
ENDBRANCH  23  24
ENDBRANCH  22  23
ENDBRANCH  21  22
ENDBRANCH   1  21
TORSDOF 18
ENDMDL
MODEL 2
REMARK VINA RESULT:     -10.7      2.044      2.904
REMARK SMILES CC[C@H]([NH2+][C@@H](C)c1c(C)noc1C)C(=O)OCCOCCOC(=O)c1ccc(-c2c3nc(c(-c4ccccc4)c4ccc([nH]4)c(-c4ccccc4)c4nc(c(-c5ccccc5)c5ccc2[nH]5)C=C4)C=C3)cc1
REMARK SMILES IDX 18 1 17 2 16 3 14 4 15 5 3 6 2 7 1 8 4 9 5 12 6 13 7 14 8 15
REMARK SMILES IDX 12 16 9 17 10 18 11 19 13 20 19 21 20 22 21 23 22 24 23 25
REMARK SMILES IDX 24 26 25 27 26 28 72 29 27 30 71 31 28 32 29 33 30 34 65 35
REMARK SMILES IDX 31 36 70 37 64 38 66 39 32 40 69 41 63 42 62 43 33 45 55 46
REMARK SMILES IDX 40 47 54 48 41 49 44 50 53 51 67 52 42 53 43 54 52 56 68 57
REMARK SMILES IDX 45 58 34 59 35 60 39 61 36 62 38 63 37 64 56 65 57 66 61 67
REMARK SMILES IDX 58 68 60 69 59 70 46 71 47 72 51 73 48 74 50 75 49 76
REMARK H PARENT 4 10 4 11 66 44 44 55
REMARK Flexibility Score: inf
ROOT
ATOM      1  C   UNL A   1      34.059  28.674  25.988  1.00  0.00     0.202 C 
ENDROOT
BRANCH   1   2
ATOM      2  C   UNL A   1      33.339  27.775  24.673  1.00  0.00     0.261 C 
BRANCH   2   3
ATOM      3  O   UNL A   1      32.910  26.322  24.706  1.00  0.00    -0.459 OA
BRANCH   3   4
ATOM      4  C   UNL A   1      33.815  25.302  24.864  1.00  0.00     0.364 C 
ATOM      5  O   UNL A   1      34.694  25.359  25.727  1.00  0.00    -0.245 OA
BRANCH   4   6
ATOM      6  C   UNL A   1      33.596  23.932  24.081  1.00  0.00     0.293 C 
BRANCH   6   7
ATOM      7  C   UNL A   1      34.804  23.648  23.167  1.00  0.00     0.074 C 
ATOM      8  C   UNL A   1      35.813  22.723  23.821  1.00  0.00     0.011 C 
ENDBRANCH   6   7
BRANCH   6   9
ATOM      9  N   UNL A   1      32.368  23.529  23.353  1.00  0.00    -0.328 N 
ATOM     10  H   UNL A   1      32.633  23.501  22.368  1.00  0.00     0.347 HD
ATOM     11  H   UNL A   1      31.706  24.219  23.711  1.00  0.00     0.347 HD
BRANCH   9  12
ATOM     12  C   UNL A   1      31.629  22.315  23.586  1.00  0.00     0.216 C 
ATOM     13  C   UNL A   1      32.164  21.223  22.663  1.00  0.00     0.081 C 
BRANCH  12  14
ATOM     14  C   UNL A   1      31.618  21.933  25.069  1.00  0.00     0.074 A 
ATOM     15  C   UNL A   1      33.042  20.872  25.512  1.00  0.00     0.090 A 
ATOM     16  C   UNL A   1      31.210  22.881  26.386  1.00  0.00     0.143 A 
ATOM     17  C   UNL A   1      32.659  19.261  25.208  1.00  0.00     0.071 C 
ATOM     18  N   UNL A   1      33.876  21.449  26.964  1.00  0.00    -0.085 NA
ATOM     19  O   UNL A   1      32.521  22.742  27.690  1.00  0.00    -0.361 OA
ATOM     20  C   UNL A   1      30.376  24.095  26.511  1.00  0.00     0.091 C 
ENDBRANCH  12  14
ENDBRANCH   9  12
ENDBRANCH   6   9
ENDBRANCH   4   6
ENDBRANCH   3   4
ENDBRANCH   2   3
ENDBRANCH   1   2
BRANCH   1  21
ATOM     21  O   UNL A   1      33.582  29.981  26.621  1.00  0.00    -0.374 OA
BRANCH  21  22
ATOM     22  C   UNL A   1      32.065  30.455  26.936  1.00  0.00     0.202 C 
BRANCH  22  23
ATOM     23  C   UNL A   1      31.343  32.111  26.310  1.00  0.00     0.261 C 
BRANCH  23  24
ATOM     24  O   UNL A   1      32.022  33.844  27.374  1.00  0.00    -0.460 OA
BRANCH  24  25
ATOM     25  C   UNL A   1      33.106  34.207  28.252  1.00  0.00     0.338 C 
ATOM     26  O   UNL A   1      33.125  35.118  29.082  1.00  0.00    -0.246 OA
BRANCH  25  27
ATOM     27  C   UNL A   1      34.249  33.286  28.290  1.00  0.00     0.060 A 
ATOM     28  C   UNL A   1      34.050  32.027  28.887  1.00  0.00     0.016 A 
ATOM     29  C   UNL A   1      35.533  33.810  28.177  1.00  0.00     0.016 A 
ATOM     30  C   UNL A   1      35.134  31.303  29.384  1.00  0.00     0.010 A 
ATOM     31  C   UNL A   1      36.621  33.080  28.668  1.00  0.00     0.010 A 
ATOM     32  C   UNL A   1      36.425  31.843  29.310  1.00  0.00    -0.014 A 
BRANCH  32  33
ATOM     33  C   UNL A   1      37.550  31.170  30.008  1.00  0.00     0.031 A 
ATOM     34  C   UNL A   1      37.808  31.452  31.465  1.00  0.00     0.074 A 
ATOM     35  C   UNL A   1      38.318  30.289  29.345  1.00  0.00     0.049 A 
ATOM     36  N   UNL A   1      38.752  30.988  32.245  1.00  0.00    -0.248 NA
ATOM     37  C   UNL A   1      36.880  32.378  32.133  1.00  0.00     0.031 C 
ATOM     38  C   UNL A   1      38.129  29.893  27.950  1.00  0.00     0.029 A 
ATOM     39  N   UNL A   1      39.409  29.565  29.756  1.00  0.00    -0.354 N 
ATOM     40  C   UNL A   1      38.541  31.573  33.488  1.00  0.00     0.074 A 
ATOM     41  C   UNL A   1      37.396  32.448  33.351  1.00  0.00     0.031 C 
ATOM     42  C   UNL A   1      39.067  28.990  27.623  1.00  0.00     0.029 A 
ATOM     43  C   UNL A   1      39.950  28.782  28.766  1.00  0.00     0.049 A 
ATOM     44  H   UNL A   1      39.768  29.603  30.671  1.00  0.00     0.167 HD
ATOM     45  C   UNL A   1      39.237  31.397  34.638  1.00  0.00     0.031 A 
ATOM     46  C   UNL A   1      41.049  28.003  28.775  1.00  0.00     0.031 A 
ATOM     47  C   UNL A   1      40.386  30.535  34.760  1.00  0.00     0.049 A 
ATOM     48  C   UNL A   1      41.859  27.897  30.039  1.00  0.00     0.074 A 
ATOM     49  C   UNL A   1      41.154  30.273  35.882  1.00  0.00     0.029 A 
ATOM     50  N   UNL A   1      40.940  29.805  33.719  1.00  0.00    -0.354 N 
ATOM     51  N   UNL A   1      41.636  28.438  31.214  1.00  0.00    -0.248 NA
ATOM     52  C   UNL A   1      43.068  27.063  29.981  1.00  0.00     0.031 C 
ATOM     53  C   UNL A   1      42.218  29.450  35.501  1.00  0.00     0.029 A 
ATOM     54  C   UNL A   1      42.063  29.126  34.161  1.00  0.00     0.049 A 
ATOM     55  H   UNL A   1      40.586  29.773  32.800  1.00  0.00     0.167 HD
ATOM     56  C   UNL A   1      42.655  27.983  32.041  1.00  0.00     0.074 A 
ATOM     57  C   UNL A   1      43.485  27.110  31.238  1.00  0.00     0.031 C 
ATOM     58  C   UNL A   1      42.882  28.262  33.349  1.00  0.00     0.031 A 
BRANCH  45  59
ATOM     59  C   UNL A   1      38.811  32.191  35.846  1.00  0.00    -0.014 A 
ATOM     60  C   UNL A   1      37.931  31.665  36.806  1.00  0.00     0.009 A 
ATOM     61  C   UNL A   1      39.334  33.480  36.048  1.00  0.00     0.009 A 
ATOM     62  C   UNL A   1      37.553  32.426  37.916  1.00  0.00     0.001 A 
ATOM     63  C   UNL A   1      38.982  34.225  37.174  1.00  0.00     0.001 A 
ATOM     64  C   UNL A   1      38.083  33.703  38.102  1.00  0.00     0.000 A 
ENDBRANCH  45  59
BRANCH  46  65
ATOM     65  C   UNL A   1      41.462  27.280  27.542  1.00  0.00    -0.014 A 
ATOM     66  C   UNL A   1      42.290  27.895  26.591  1.00  0.00     0.009 A 
ATOM     67  C   UNL A   1      41.015  25.970  27.302  1.00  0.00     0.009 A 
ATOM     68  C   UNL A   1      42.636  27.225  25.414  1.00  0.00     0.001 A 
ATOM     69  C   UNL A   1      41.393  25.289  26.144  1.00  0.00     0.001 A 
ATOM     70  C   UNL A   1      42.192  25.922  25.194  1.00  0.00     0.000 A 
ENDBRANCH  46  65
BRANCH  58  71
ATOM     71  C   UNL A   1      44.052  27.579  34.006  1.00  0.00    -0.014 A 
ATOM     72  C   UNL A   1      45.317  28.184  34.074  1.00  0.00     0.009 A 
ATOM     73  C   UNL A   1      43.871  26.320  34.601  1.00  0.00     0.009 A 
ATOM     74  C   UNL A   1      46.384  27.523  34.686  1.00  0.00     0.001 A 
ATOM     75  C   UNL A   1      44.929  25.679  35.247  1.00  0.00     0.001 A 
ATOM     76  C   UNL A   1      46.188  26.276  35.277  1.00  0.00     0.000 A 
ENDBRANCH  58  71
ENDBRANCH  32  33
ENDBRANCH  25  27
ENDBRANCH  24  25
ENDBRANCH  23  24
ENDBRANCH  22  23
ENDBRANCH  21  22
ENDBRANCH   1  21
TORSDOF 18
ENDMDL
MODEL 3
REMARK VINA RESULT:     -10.6      3.085      8.088
REMARK SMILES CC[C@H]([NH2+][C@@H](C)c1c(C)noc1C)C(=O)OCCOCCOC(=O)c1ccc(-c2c3nc(c(-c4ccccc4)c4ccc([nH]4)c(-c4ccccc4)c4nc(c(-c5ccccc5)c5ccc2[nH]5)C=C4)C=C3)cc1
REMARK SMILES IDX 18 1 17 2 16 3 14 4 15 5 3 6 2 7 1 8 4 9 5 12 6 13 7 14 8 15
REMARK SMILES IDX 12 16 9 17 10 18 11 19 13 20 19 21 20 22 21 23 22 24 23 25
REMARK SMILES IDX 24 26 25 27 26 28 72 29 27 30 71 31 28 32 29 33 30 34 65 35
REMARK SMILES IDX 31 36 70 37 64 38 66 39 32 40 69 41 63 42 62 43 33 45 55 46
REMARK SMILES IDX 40 47 54 48 41 49 44 50 53 51 67 52 42 53 43 54 52 56 68 57
REMARK SMILES IDX 45 58 34 59 35 60 39 61 36 62 38 63 37 64 56 65 57 66 61 67
REMARK SMILES IDX 58 68 60 69 59 70 46 71 47 72 51 73 48 74 50 75 49 76
REMARK H PARENT 4 10 4 11 66 44 44 55
REMARK Flexibility Score: inf
ROOT
ATOM      1  C   UNL A   1      39.762  21.581  25.983  1.00  0.00     0.202 C 
ENDROOT
BRANCH   1   2
ATOM      2  C   UNL A   1      38.117  21.261  25.488  1.00  0.00     0.261 C 
BRANCH   2   3
ATOM      3  O   UNL A   1      37.017  22.287  25.304  1.00  0.00    -0.459 OA
BRANCH   3   4
ATOM      4  C   UNL A   1      35.688  21.950  25.385  1.00  0.00     0.364 C 
ATOM      5  O   UNL A   1      35.247  20.957  24.800  1.00  0.00    -0.245 OA
BRANCH   4   6
ATOM      6  C   UNL A   1      34.749  22.711  26.422  1.00  0.00     0.293 C 
BRANCH   6   7
ATOM      7  C   UNL A   1      33.766  21.716  27.071  1.00  0.00     0.074 C 
ATOM      8  C   UNL A   1      32.799  22.401  28.019  1.00  0.00     0.011 C 
ENDBRANCH   6   7
BRANCH   6   9
ATOM      9  N   UNL A   1      34.018  23.977  26.172  1.00  0.00    -0.328 N 
ATOM     10  H   UNL A   1      34.684  24.721  26.381  1.00  0.00     0.347 HD
ATOM     11  H   UNL A   1      33.186  23.825  26.744  1.00  0.00     0.347 HD
BRANCH   9  12
ATOM     12  C   UNL A   1      33.409  24.347  24.921  1.00  0.00     0.216 C 
ATOM     13  C   UNL A   1      32.759  23.113  24.301  1.00  0.00     0.081 C 
BRANCH  12  14
ATOM     14  C   UNL A   1      32.463  25.541  25.079  1.00  0.00     0.074 A 
ATOM     15  C   UNL A   1      32.621  26.726  23.693  1.00  0.00     0.090 A 
ATOM     16  C   UNL A   1      30.885  25.554  25.633  1.00  0.00     0.143 A 
ATOM     17  C   UNL A   1      33.866  27.810  24.020  1.00  0.00     0.071 C 
ATOM     18  N   UNL A   1      31.046  27.178  23.021  1.00  0.00    -0.085 NA
ATOM     19  O   UNL A   1      29.815  26.513  24.461  1.00  0.00    -0.361 OA
ATOM     20  C   UNL A   1      30.131  24.617  26.493  1.00  0.00     0.091 C 
ENDBRANCH  12  14
ENDBRANCH   9  12
ENDBRANCH   6   9
ENDBRANCH   4   6
ENDBRANCH   3   4
ENDBRANCH   2   3
ENDBRANCH   1   2
BRANCH   1  21
ATOM     21  O   UNL A   1      40.593  20.860  27.044  1.00  0.00    -0.374 OA
BRANCH  21  22
ATOM     22  C   UNL A   1      42.204  20.840  27.221  1.00  0.00     0.202 C 
BRANCH  22  23
ATOM     23  C   UNL A   1      43.411  20.851  25.738  1.00  0.00     0.261 C 
BRANCH  23  24
ATOM     24  O   UNL A   1      43.497  22.706  24.667  1.00  0.00    -0.460 OA
BRANCH  24  25
ATOM     25  C   UNL A   1      44.027  24.032  24.858  1.00  0.00     0.338 C 
ATOM     26  O   UNL A   1      45.068  24.498  24.390  1.00  0.00    -0.246 OA
BRANCH  25  27
ATOM     27  C   UNL A   1      43.149  24.991  25.540  1.00  0.00     0.060 A 
ATOM     28  C   UNL A   1      43.633  26.299  25.724  1.00  0.00     0.016 A 
ATOM     29  C   UNL A   1      42.130  24.503  26.352  1.00  0.00     0.016 A 
ATOM     30  C   UNL A   1      43.109  27.110  26.732  1.00  0.00     0.010 A 
ATOM     31  C   UNL A   1      41.598  25.319  27.357  1.00  0.00     0.010 A 
ATOM     32  C   UNL A   1      42.111  26.610  27.580  1.00  0.00    -0.014 A 
BRANCH  32  33
ATOM     33  C   UNL A   1      41.690  27.394  28.769  1.00  0.00     0.031 A 
ATOM     34  C   UNL A   1      42.456  27.271  30.060  1.00  0.00     0.074 A 
ATOM     35  C   UNL A   1      40.643  28.231  28.682  1.00  0.00     0.049 A 
ATOM     36  N   UNL A   1      42.233  27.848  31.214  1.00  0.00    -0.248 NA
ATOM     37  C   UNL A   1      43.629  26.382  30.051  1.00  0.00     0.031 C 
ATOM     38  C   UNL A   1      39.861  28.476  27.471  1.00  0.00     0.029 A 
ATOM     39  N   UNL A   1      40.058  29.035  29.629  1.00  0.00    -0.354 N 
ATOM     40  C   UNL A   1      43.226  27.384  32.070  1.00  0.00     0.074 A 
ATOM     41  C   UNL A   1      44.036  26.457  31.309  1.00  0.00     0.031 C 
ATOM     42  C   UNL A   1      38.903  29.377  27.745  1.00  0.00     0.029 A 
ATOM     43  C   UNL A   1      38.973  29.733  29.159  1.00  0.00     0.049 A 
ATOM     44  H   UNL A   1      40.385  29.103  30.555  1.00  0.00     0.167 HD
ATOM     45  C   UNL A   1      43.443  27.703  33.370  1.00  0.00     0.031 A 
ATOM     46  C   UNL A   1      38.118  30.551  29.804  1.00  0.00     0.031 A 
ATOM     47  C   UNL A   1      42.620  28.616  34.123  1.00  0.00     0.049 A 
ATOM     48  C   UNL A   1      38.327  30.816  31.270  1.00  0.00     0.074 A 
ATOM     49  C   UNL A   1      42.761  29.020  35.440  1.00  0.00     0.029 A 
ATOM     50  N   UNL A   1      41.495  29.258  33.629  1.00  0.00    -0.354 N 
ATOM     51  N   UNL A   1      39.281  30.389  32.062  1.00  0.00    -0.248 NA
ATOM     52  C   UNL A   1      37.342  31.684  31.931  1.00  0.00     0.031 C 
ATOM     53  C   UNL A   1      41.677  29.840  35.764  1.00  0.00     0.029 A 
ATOM     54  C   UNL A   1      40.908  30.020  34.624  1.00  0.00     0.049 A 
ATOM     55  H   UNL A   1      41.162  29.182  32.704  1.00  0.00     0.167 HD
ATOM     56  C   UNL A   1      39.033  30.963  33.302  1.00  0.00     0.074 A 
ATOM     57  C   UNL A   1      37.848  31.782  33.152  1.00  0.00     0.031 C 
ATOM     58  C   UNL A   1      39.725  30.828  34.461  1.00  0.00     0.031 A 
BRANCH  45  59
ATOM     59  C   UNL A   1      44.583  27.020  34.080  1.00  0.00    -0.014 A 
ATOM     60  C   UNL A   1      45.869  27.583  34.129  1.00  0.00     0.009 A 
ATOM     61  C   UNL A   1      44.355  25.805  34.749  1.00  0.00     0.009 A 
ATOM     62  C   UNL A   1      46.907  26.925  34.795  1.00  0.00     0.001 A 
ATOM     63  C   UNL A   1      45.385  25.167  35.442  1.00  0.00     0.001 A 
ATOM     64  C   UNL A   1      46.663  25.721  35.455  1.00  0.00     0.000 A 
ENDBRANCH  45  59
BRANCH  46  65
ATOM     65  C   UNL A   1      36.974  31.160  29.074  1.00  0.00    -0.014 A 
ATOM     66  C   UNL A   1      35.847  30.396  28.736  1.00  0.00     0.009 A 
ATOM     67  C   UNL A   1      37.011  32.513  28.695  1.00  0.00     0.009 A 
ATOM     68  C   UNL A   1      34.797  30.965  28.010  1.00  0.00     0.001 A 
ATOM     69  C   UNL A   1      35.944  33.088  28.002  1.00  0.00     0.001 A 
ATOM     70  C   UNL A   1      34.844  32.310  27.649  1.00  0.00     0.000 A 
ENDBRANCH  46  65
BRANCH  58  71
ATOM     71  C   UNL A   1      39.243  31.619  35.648  1.00  0.00    -0.014 A 
ATOM     72  C   UNL A   1      39.738  32.902  35.929  1.00  0.00     0.009 A 
ATOM     73  C   UNL A   1      38.248  31.081  36.478  1.00  0.00     0.009 A 
ATOM     74  C   UNL A   1      39.277  33.610  37.040  1.00  0.00     0.001 A 
ATOM     75  C   UNL A   1      37.759  31.806  37.566  1.00  0.00     0.001 A 
ATOM     76  C   UNL A   1      38.284  33.064  37.853  1.00  0.00     0.000 A 
ENDBRANCH  58  71
ENDBRANCH  32  33
ENDBRANCH  25  27
ENDBRANCH  24  25
ENDBRANCH  23  24
ENDBRANCH  22  23
ENDBRANCH  21  22
ENDBRANCH   1  21
TORSDOF 18
ENDMDL
