MODEL 1
REMARK VINA RESULT:      -8.9      0.000      0.000
REMARK SMILES O=C(COCCNC(=O)c1ccn[nH]1)OCCOCCOC(=O)c1ccc(-c2c3nc(c(-c4ccccc4)c4ccc([nH]4)c(-c4ccccc4)c4nc(c(-c5ccccc5)c5ccc2[nH]5)C=C4)C=C3)cc1
REMARK SMILES IDX 16 1 15 2 2 3 1 4 3 5 4 6 5 7 6 8 7 9 8 10 9 12 10 13 11 14
REMARK SMILES IDX 14 15 12 16 13 17 17 19 18 20 19 21 20 22 21 23 22 24 23 25
REMARK SMILES IDX 24 26 25 27 71 28 26 29 70 30 27 31 28 32 29 33 64 34 30 35
REMARK SMILES IDX 69 36 63 37 65 38 31 39 68 40 62 41 61 42 32 44 54 45 39 46
REMARK SMILES IDX 53 47 40 48 43 49 52 50 66 51 41 52 42 53 51 55 67 56 44 57
REMARK SMILES IDX 33 58 34 59 38 60 35 61 37 62 36 63 55 64 56 65 60 66 57 67
REMARK SMILES IDX 59 68 58 69 45 70 46 71 50 72 47 73 49 74 48 75
REMARK H PARENT 7 11 14 18 65 43 43 54
REMARK Flexibility Score: inf
ROOT
ATOM      1  C   UNL A   1      31.437  26.971  27.249  1.00  0.00     0.261 C 
ENDROOT
BRANCH   1   2
ATOM      2  O   UNL A   1      30.638  26.147  26.383  1.00  0.00    -0.462 OA
BRANCH   2   3
ATOM      3  C   UNL A   1      30.928  24.843  26.173  1.00  0.00     0.332 C 
ATOM      4  O   UNL A   1      30.956  24.058  27.118  1.00  0.00    -0.250 OA
BRANCH   3   5
ATOM      5  C   UNL A   1      31.137  24.370  24.736  1.00  0.00     0.282 C 
BRANCH   5   6
ATOM      6  O   UNL A   1      31.985  25.193  23.955  1.00  0.00    -0.368 OA
BRANCH   6   7
ATOM      7  C   UNL A   1      31.758  25.101  22.545  1.00  0.00     0.182 C 
BRANCH   7   8
ATOM      8  C   UNL A   1      32.358  26.289  21.777  1.00  0.00     0.144 C 
BRANCH   8   9
ATOM      9  N   UNL A   1      32.995  27.283  22.634  1.00  0.00    -0.348 N 
ATOM     10  C   UNL A   1      32.608  28.566  22.920  1.00  0.00     0.269 C 
ATOM     11  H   UNL A   1      33.825  26.988  23.072  1.00  0.00     0.163 HD
ATOM     12  O   UNL A   1      33.439  29.330  23.405  1.00  0.00    -0.268 OA
BRANCH  10  13
ATOM     13  C   UNL A   1      31.259  28.969  22.655  1.00  0.00     0.122 A 
ATOM     14  C   UNL A   1      30.085  28.818  23.368  1.00  0.00     0.055 A 
ATOM     15  N   UNL A   1      30.924  29.754  21.584  1.00  0.00    -0.273 N 
ATOM     16  C   UNL A   1      29.105  29.482  22.612  1.00  0.00     0.135 A 
ATOM     17  N   UNL A   1      29.609  30.037  21.509  1.00  0.00    -0.183 NA
ATOM     18  H   UNL A   1      31.583  30.081  20.930  1.00  0.00     0.190 HD
ENDBRANCH  10  13
ENDBRANCH   8   9
ENDBRANCH   7   8
ENDBRANCH   6   7
ENDBRANCH   5   6
ENDBRANCH   3   5
ENDBRANCH   2   3
ENDBRANCH   1   2
BRANCH   1  19
ATOM     19  C   UNL A   1      32.135  28.065  26.441  1.00  0.00     0.202 C 
BRANCH  19  20
ATOM     20  O   UNL A   1      31.501  29.346  26.514  1.00  0.00    -0.374 OA
BRANCH  20  21
ATOM     21  C   UNL A   1      32.385  30.470  26.638  1.00  0.00     0.202 C 
BRANCH  21  22
ATOM     22  C   UNL A   1      33.658  30.210  27.453  1.00  0.00     0.261 C 
BRANCH  22  23
ATOM     23  O   UNL A   1      34.391  31.431  27.639  1.00  0.00    -0.460 OA
BRANCH  23  24
ATOM     24  C   UNL A   1      34.991  31.561  28.844  1.00  0.00     0.338 C 
ATOM     25  O   UNL A   1      34.540  32.100  29.843  1.00  0.00    -0.246 OA
BRANCH  24  26
ATOM     26  C   UNL A   1      36.208  30.724  28.859  1.00  0.00     0.060 A 
ATOM     27  C   UNL A   1      36.484  30.016  30.038  1.00  0.00     0.016 A 
ATOM     28  C   UNL A   1      37.046  30.606  27.748  1.00  0.00     0.016 A 
ATOM     29  C   UNL A   1      37.627  29.230  30.129  1.00  0.00     0.010 A 
ATOM     30  C   UNL A   1      38.204  29.833  27.845  1.00  0.00     0.010 A 
ATOM     31  C   UNL A   1      38.516  29.180  29.050  1.00  0.00    -0.014 A 
BRANCH  31  32
ATOM     32  C   UNL A   1      39.878  28.651  29.274  1.00  0.00     0.031 A 
ATOM     33  C   UNL A   1      40.853  29.523  30.015  1.00  0.00     0.074 A 
ATOM     34  C   UNL A   1      40.221  27.415  28.877  1.00  0.00     0.049 A 
ATOM     35  N   UNL A   1      42.102  29.294  30.327  1.00  0.00    -0.248 NA
ATOM     36  C   UNL A   1      40.349  30.832  30.467  1.00  0.00     0.031 C 
ATOM     37  C   UNL A   1      39.340  26.465  28.200  1.00  0.00     0.029 A 
ATOM     38  N   UNL A   1      41.414  26.750  28.990  1.00  0.00    -0.354 N 
ATOM     39  C   UNL A   1      42.530  30.428  31.006  1.00  0.00     0.074 A 
ATOM     40  C   UNL A   1      41.423  31.357  31.033  1.00  0.00     0.031 C 
ATOM     41  C   UNL A   1      40.030  25.337  27.949  1.00  0.00     0.029 A 
ATOM     42  C   UNL A   1      41.402  25.500  28.423  1.00  0.00     0.049 A 
ATOM     43  H   UNL A   1      42.205  27.132  29.436  1.00  0.00     0.167 HD
ATOM     44  C   UNL A   1      43.736  30.671  31.568  1.00  0.00     0.031 A 
ATOM     45  C   UNL A   1      42.398  24.604  28.287  1.00  0.00     0.031 A 
ATOM     46  C   UNL A   1      44.841  29.753  31.517  1.00  0.00     0.049 A 
ATOM     47  C   UNL A   1      43.759  24.935  28.842  1.00  0.00     0.074 A 
ATOM     48  C   UNL A   1      46.111  29.902  32.041  1.00  0.00     0.029 A 
ATOM     49  N   UNL A   1      44.802  28.516  30.895  1.00  0.00    -0.354 N 
ATOM     50  N   UNL A   1      44.150  26.003  29.496  1.00  0.00    -0.248 NA
ATOM     51  C   UNL A   1      44.814  23.929  28.648  1.00  0.00     0.031 C 
ATOM     52  C   UNL A   1      46.858  28.771  31.693  1.00  0.00     0.029 A 
ATOM     53  C   UNL A   1      46.034  27.895  31.004  1.00  0.00     0.049 A 
ATOM     54  H   UNL A   1      44.015  28.134  30.443  1.00  0.00     0.167 HD
ATOM     55  C   UNL A   1      45.485  25.786  29.817  1.00  0.00     0.074 A 
ATOM     56  C   UNL A   1      45.830  24.477  29.299  1.00  0.00     0.031 C 
ATOM     57  C   UNL A   1      46.349  26.592  30.481  1.00  0.00     0.031 A 
BRANCH  44  58
ATOM     58  C   UNL A   1      43.922  31.996  32.250  1.00  0.00    -0.014 A 
ATOM     59  C   UNL A   1      43.635  32.160  33.615  1.00  0.00     0.009 A 
ATOM     60  C   UNL A   1      44.398  33.096  31.519  1.00  0.00     0.009 A 
ATOM     61  C   UNL A   1      43.790  33.406  34.225  1.00  0.00     0.001 A 
ATOM     62  C   UNL A   1      44.578  34.334  32.138  1.00  0.00     0.001 A 
ATOM     63  C   UNL A   1      44.265  34.491  33.488  1.00  0.00     0.000 A 
ENDBRANCH  44  58
BRANCH  45  64
ATOM     64  C   UNL A   1      42.159  23.317  27.581  1.00  0.00    -0.014 A 
ATOM     65  C   UNL A   1      41.637  22.209  28.265  1.00  0.00     0.009 A 
ATOM     66  C   UNL A   1      42.481  23.184  26.221  1.00  0.00     0.009 A 
ATOM     67  C   UNL A   1      41.469  20.986  27.609  1.00  0.00     0.001 A 
ATOM     68  C   UNL A   1      42.284  21.970  25.561  1.00  0.00     0.001 A 
ATOM     69  C   UNL A   1      41.789  20.870  26.257  1.00  0.00     0.000 A 
ENDBRANCH  45  64
BRANCH  57  70
ATOM     70  C   UNL A   1      47.735  26.061  30.719  1.00  0.00    -0.014 A 
ATOM     71  C   UNL A   1      48.690  26.025  29.692  1.00  0.00     0.009 A 
ATOM     72  C   UNL A   1      48.099  25.630  32.005  1.00  0.00     0.009 A 
ATOM     73  C   UNL A   1      49.972  25.530  29.940  1.00  0.00     0.001 A 
ATOM     74  C   UNL A   1      49.390  25.166  32.256  1.00  0.00     0.001 A 
ATOM     75  C   UNL A   1      50.322  25.105  31.221  1.00  0.00     0.000 A 
ENDBRANCH  57  70
ENDBRANCH  31  32
ENDBRANCH  24  26
ENDBRANCH  23  24
ENDBRANCH  22  23
ENDBRANCH  21  22
ENDBRANCH  20  21
ENDBRANCH  19  20
ENDBRANCH   1  19
TORSDOF 19
ENDMDL
MODEL 2
REMARK VINA RESULT:      -8.7      2.830      7.476
REMARK SMILES O=C(COCCNC(=O)c1ccn[nH]1)OCCOCCOC(=O)c1ccc(-c2c3nc(c(-c4ccccc4)c4ccc([nH]4)c(-c4ccccc4)c4nc(c(-c5ccccc5)c5ccc2[nH]5)C=C4)C=C3)cc1
REMARK SMILES IDX 16 1 15 2 2 3 1 4 3 5 4 6 5 7 6 8 7 9 8 10 9 12 10 13 11 14
REMARK SMILES IDX 14 15 12 16 13 17 17 19 18 20 19 21 20 22 21 23 22 24 23 25
REMARK SMILES IDX 24 26 25 27 71 28 26 29 70 30 27 31 28 32 29 33 64 34 30 35
REMARK SMILES IDX 69 36 63 37 65 38 31 39 68 40 62 41 61 42 32 44 54 45 39 46
REMARK SMILES IDX 53 47 40 48 43 49 52 50 66 51 41 52 42 53 51 55 67 56 44 57
REMARK SMILES IDX 33 58 34 59 38 60 35 61 37 62 36 63 55 64 56 65 60 66 57 67
REMARK SMILES IDX 59 68 58 69 45 70 46 71 50 72 47 73 49 74 48 75
REMARK H PARENT 7 11 14 18 65 43 43 54
REMARK Flexibility Score: inf
ROOT
ATOM      1  C   UNL A   1      32.069  23.077  25.099  1.00  0.00     0.261 C 
ENDROOT
BRANCH   1   2
ATOM      2  O   UNL A   1      30.684  23.130  25.485  1.00  0.00    -0.462 OA
BRANCH   2   3
ATOM      3  C   UNL A   1      30.200  24.121  26.267  1.00  0.00     0.332 C 
ATOM      4  O   UNL A   1      29.552  23.850  27.276  1.00  0.00    -0.250 OA
BRANCH   3   5
ATOM      5  C   UNL A   1      30.547  25.564  25.905  1.00  0.00     0.282 C 
BRANCH   5   6
ATOM      6  O   UNL A   1      29.856  26.079  24.782  1.00  0.00    -0.368 OA
BRANCH   6   7
ATOM      7  C   UNL A   1      30.673  26.839  23.885  1.00  0.00     0.182 C 
BRANCH   7   8
ATOM      8  C   UNL A   1      29.890  27.964  23.191  1.00  0.00     0.144 C 
BRANCH   8   9
ATOM      9  N   UNL A   1      28.442  27.795  23.244  1.00  0.00    -0.348 N 
ATOM     10  C   UNL A   1      27.448  28.729  23.120  1.00  0.00     0.269 C 
ATOM     11  H   UNL A   1      28.134  26.872  23.390  1.00  0.00     0.163 HD
ATOM     12  O   UNL A   1      26.320  28.434  23.507  1.00  0.00    -0.268 OA
BRANCH  10  13
ATOM     13  C   UNL A   1      27.751  30.005  22.543  1.00  0.00     0.122 A 
ATOM     14  C   UNL A   1      28.156  31.204  23.095  1.00  0.00     0.055 A 
ATOM     15  N   UNL A   1      27.798  30.205  21.189  1.00  0.00    -0.273 N 
ATOM     16  C   UNL A   1      28.351  32.067  22.004  1.00  0.00     0.135 A 
ATOM     17  N   UNL A   1      28.112  31.468  20.838  1.00  0.00    -0.183 NA
ATOM     18  H   UNL A   1      27.620  29.493  20.533  1.00  0.00     0.190 HD
ENDBRANCH  10  13
ENDBRANCH   8   9
ENDBRANCH   7   8
ENDBRANCH   6   7
ENDBRANCH   5   6
ENDBRANCH   3   5
ENDBRANCH   2   3
ENDBRANCH   1   2
BRANCH   1  19
ATOM     19  C   UNL A   1      32.963  23.112  26.339  1.00  0.00     0.202 C 
BRANCH  19  20
ATOM     20  O   UNL A   1      34.269  23.650  26.106  1.00  0.00    -0.374 OA
BRANCH  20  21
ATOM     21  C   UNL A   1      35.019  23.024  25.054  1.00  0.00     0.202 C 
BRANCH  21  22
ATOM     22  C   UNL A   1      36.388  22.472  25.470  1.00  0.00     0.261 C 
BRANCH  22  23
ATOM     23  O   UNL A   1      37.211  23.523  26.001  1.00  0.00    -0.460 OA
BRANCH  23  24
ATOM     24  C   UNL A   1      38.511  23.197  26.180  1.00  0.00     0.338 C 
ATOM     25  O   UNL A   1      39.097  22.219  25.743  1.00  0.00    -0.246 OA
BRANCH  24  26
ATOM     26  C   UNL A   1      39.207  24.346  26.793  1.00  0.00     0.060 A 
ATOM     27  C   UNL A   1      39.024  24.546  28.170  1.00  0.00     0.016 A 
ATOM     28  C   UNL A   1      40.039  25.193  26.057  1.00  0.00     0.016 A 
ATOM     29  C   UNL A   1      39.630  25.625  28.804  1.00  0.00     0.010 A 
ATOM     30  C   UNL A   1      40.633  26.287  26.690  1.00  0.00     0.010 A 
ATOM     31  C   UNL A   1      40.392  26.526  28.054  1.00  0.00    -0.014 A 
BRANCH  31  32
ATOM     32  C   UNL A   1      40.725  27.840  28.644  1.00  0.00     0.031 A 
ATOM     33  C   UNL A   1      42.150  28.076  29.065  1.00  0.00     0.074 A 
ATOM     34  C   UNL A   1      39.804  28.810  28.756  1.00  0.00     0.049 A 
ATOM     35  N   UNL A   1      42.690  29.131  29.614  1.00  0.00    -0.248 NA
ATOM     36  C   UNL A   1      43.093  26.968  28.831  1.00  0.00     0.031 C 
ATOM     37  C   UNL A   1      38.409  28.709  28.331  1.00  0.00     0.029 A 
ATOM     38  N   UNL A   1      39.912  30.077  29.267  1.00  0.00    -0.354 N 
ATOM     39  C   UNL A   1      44.031  28.814  29.793  1.00  0.00     0.074 A 
ATOM     40  C   UNL A   1      44.216  27.458  29.327  1.00  0.00     0.031 C 
ATOM     41  C   UNL A   1      37.786  29.870  28.608  1.00  0.00     0.029 A 
ATOM     42  C   UNL A   1      38.732  30.778  29.253  1.00  0.00     0.049 A 
ATOM     43  H   UNL A   1      40.757  30.450  29.611  1.00  0.00     0.167 HD
ATOM     44  C   UNL A   1      45.022  29.585  30.292  1.00  0.00     0.031 A 
ATOM     45  C   UNL A   1      38.451  32.006  29.729  1.00  0.00     0.031 A 
ATOM     46  C   UNL A   1      44.826  30.924  30.776  1.00  0.00     0.049 A 
ATOM     47  C   UNL A   1      39.554  32.814  30.362  1.00  0.00     0.074 A 
ATOM     48  C   UNL A   1      45.758  31.793  31.314  1.00  0.00     0.029 A 
ATOM     49  N   UNL A   1      43.607  31.583  30.785  1.00  0.00    -0.354 N 
ATOM     50  N   UNL A   1      40.821  32.510  30.513  1.00  0.00    -0.248 NA
ATOM     51  C   UNL A   1      39.186  34.138  30.883  1.00  0.00     0.031 C 
ATOM     52  C   UNL A   1      45.090  32.962  31.695  1.00  0.00     0.029 A 
ATOM     53  C   UNL A   1      43.756  32.842  31.338  1.00  0.00     0.049 A 
ATOM     54  H   UNL A   1      42.760  31.210  30.448  1.00  0.00     0.167 HD
ATOM     55  C   UNL A   1      41.408  33.616  31.118  1.00  0.00     0.074 A 
ATOM     56  C   UNL A   1      40.360  34.602  31.290  1.00  0.00     0.031 C 
ATOM     57  C   UNL A   1      42.696  33.803  31.496  1.00  0.00     0.031 A 
BRANCH  44  58
ATOM     58  C   UNL A   1      46.394  28.979  30.368  1.00  0.00    -0.014 A 
ATOM     59  C   UNL A   1      46.815  28.267  31.504  1.00  0.00     0.009 A 
ATOM     60  C   UNL A   1      47.278  29.115  29.287  1.00  0.00     0.009 A 
ATOM     61  C   UNL A   1      48.103  27.732  31.567  1.00  0.00     0.001 A 
ATOM     62  C   UNL A   1      48.556  28.556  29.342  1.00  0.00     0.001 A 
ATOM     63  C   UNL A   1      48.971  27.873  30.484  1.00  0.00     0.000 A 
ENDBRANCH  44  58
BRANCH  45  64
ATOM     64  C   UNL A   1      37.068  32.545  29.645  1.00  0.00    -0.014 A 
ATOM     65  C   UNL A   1      36.672  33.345  28.563  1.00  0.00     0.009 A 
ATOM     66  C   UNL A   1      36.142  32.283  30.668  1.00  0.00     0.009 A 
ATOM     67  C   UNL A   1      35.388  33.895  28.520  1.00  0.00     0.001 A 
ATOM     68  C   UNL A   1      34.850  32.809  30.608  1.00  0.00     0.001 A 
ATOM     69  C   UNL A   1      34.478  33.623  29.541  1.00  0.00     0.000 A 
ENDBRANCH  45  64
BRANCH  57  70
ATOM     70  C   UNL A   1      43.048  35.137  32.092  1.00  0.00    -0.014 A 
ATOM     71  C   UNL A   1      43.540  36.185  31.300  1.00  0.00     0.009 A 
ATOM     72  C   UNL A   1      42.843  35.356  33.464  1.00  0.00     0.009 A 
ATOM     73  C   UNL A   1      43.857  37.415  31.878  1.00  0.00     0.001 A 
ATOM     74  C   UNL A   1      43.132  36.598  34.032  1.00  0.00     0.001 A 
ATOM     75  C   UNL A   1      43.649  37.622  33.241  1.00  0.00     0.000 A 
ENDBRANCH  57  70
ENDBRANCH  31  32
ENDBRANCH  24  26
ENDBRANCH  23  24
ENDBRANCH  22  23
ENDBRANCH  21  22
ENDBRANCH  20  21
ENDBRANCH  19  20
ENDBRANCH   1  19
TORSDOF 19
ENDMDL
MODEL 3
REMARK VINA RESULT:      -8.7      4.041      8.594
REMARK SMILES O=C(COCCNC(=O)c1ccn[nH]1)OCCOCCOC(=O)c1ccc(-c2c3nc(c(-c4ccccc4)c4ccc([nH]4)c(-c4ccccc4)c4nc(c(-c5ccccc5)c5ccc2[nH]5)C=C4)C=C3)cc1
REMARK SMILES IDX 16 1 15 2 2 3 1 4 3 5 4 6 5 7 6 8 7 9 8 10 9 12 10 13 11 14
REMARK SMILES IDX 14 15 12 16 13 17 17 19 18 20 19 21 20 22 21 23 22 24 23 25
REMARK SMILES IDX 24 26 25 27 71 28 26 29 70 30 27 31 28 32 29 33 64 34 30 35
REMARK SMILES IDX 69 36 63 37 65 38 31 39 68 40 62 41 61 42 32 44 54 45 39 46
REMARK SMILES IDX 53 47 40 48 43 49 52 50 66 51 41 52 42 53 51 55 67 56 44 57
REMARK SMILES IDX 33 58 34 59 38 60 35 61 37 62 36 63 55 64 56 65 60 66 57 67
REMARK SMILES IDX 59 68 58 69 45 70 46 71 50 72 47 73 49 74 48 75
REMARK H PARENT 7 11 14 18 65 43 43 54
REMARK Flexibility Score: inf
ROOT
ATOM      1  C   UNL A   1      36.044  23.638  24.869  1.00  0.00     0.261 C 
ENDROOT
BRANCH   1   2
ATOM      2  O   UNL A   1      35.151  23.886  23.770  1.00  0.00    -0.462 OA
BRANCH   2   3
ATOM      3  C   UNL A   1      33.849  24.194  23.966  1.00  0.00     0.332 C 
ATOM      4  O   UNL A   1      33.314  25.072  23.292  1.00  0.00    -0.250 OA
BRANCH   3   5
ATOM      5  C   UNL A   1      33.055  23.373  24.980  1.00  0.00     0.282 C 
BRANCH   5   6
ATOM      6  O   UNL A   1      32.507  22.170  24.473  1.00  0.00    -0.368 OA
BRANCH   6   7
ATOM      7  C   UNL A   1      33.230  20.991  24.843  1.00  0.00     0.182 C 
BRANCH   7   8
ATOM      8  C   UNL A   1      32.327  19.750  24.917  1.00  0.00     0.144 C 
BRANCH   8   9
ATOM      9  N   UNL A   1      32.052  19.144  23.619  1.00  0.00    -0.348 N 
ATOM     10  C   UNL A   1      32.615  18.041  23.032  1.00  0.00     0.269 C 
ATOM     11  H   UNL A   1      31.358  19.594  23.086  1.00  0.00     0.163 HD
ATOM     12  O   UNL A   1      32.470  17.887  21.822  1.00  0.00    -0.268 OA
BRANCH  10  13
ATOM     13  C   UNL A   1      33.340  17.108  23.842  1.00  0.00     0.122 A 
ATOM     14  C   UNL A   1      34.667  17.037  24.219  1.00  0.00     0.055 A 
ATOM     15  N   UNL A   1      32.722  16.099  24.532  1.00  0.00    -0.273 N 
ATOM     16  C   UNL A   1      34.751  15.923  25.070  1.00  0.00     0.135 A 
ATOM     17  N   UNL A   1      33.568  15.332  25.247  1.00  0.00    -0.183 NA
ATOM     18  H   UNL A   1      31.749  15.948  24.509  1.00  0.00     0.190 HD
ENDBRANCH  10  13
ENDBRANCH   8   9
ENDBRANCH   7   8
ENDBRANCH   6   7
ENDBRANCH   5   6
ENDBRANCH   3   5
ENDBRANCH   2   3
ENDBRANCH   1   2
BRANCH   1  19
ATOM     19  C   UNL A   1      36.444  22.162  24.901  1.00  0.00     0.202 C 
BRANCH  19  20
ATOM     20  O   UNL A   1      37.823  21.921  24.603  1.00  0.00    -0.374 OA
BRANCH  20  21
ATOM     21  C   UNL A   1      38.423  20.816  25.297  1.00  0.00     0.202 C 
BRANCH  21  22
ATOM     22  C   UNL A   1      39.724  21.143  26.040  1.00  0.00     0.261 C 
BRANCH  22  23
ATOM     23  O   UNL A   1      40.474  19.944  26.288  1.00  0.00    -0.460 OA
BRANCH  23  24
ATOM     24  C   UNL A   1      41.790  20.018  25.988  1.00  0.00     0.338 C 
ATOM     25  O   UNL A   1      42.424  19.285  25.245  1.00  0.00    -0.246 OA
BRANCH  24  26
ATOM     26  C   UNL A   1      42.323  21.293  26.509  1.00  0.00     0.060 A 
ATOM     27  C   UNL A   1      42.264  21.494  27.896  1.00  0.00     0.016 A 
ATOM     28  C   UNL A   1      42.894  22.259  25.676  1.00  0.00     0.016 A 
ATOM     29  C   UNL A   1      42.725  22.683  28.449  1.00  0.00     0.010 A 
ATOM     30  C   UNL A   1      43.339  23.461  26.229  1.00  0.00     0.010 A 
ATOM     31  C   UNL A   1      43.214  23.689  27.610  1.00  0.00    -0.014 A 
BRANCH  31  32
ATOM     32  C   UNL A   1      43.360  25.058  28.150  1.00  0.00     0.031 A 
ATOM     33  C   UNL A   1      44.741  25.516  28.526  1.00  0.00     0.074 A 
ATOM     34  C   UNL A   1      42.306  25.884  28.253  1.00  0.00     0.049 A 
ATOM     35  N   UNL A   1      45.129  26.659  29.028  1.00  0.00    -0.248 NA
ATOM     36  C   UNL A   1      45.834  24.553  28.305  1.00  0.00     0.031 C 
ATOM     37  C   UNL A   1      40.934  25.563  27.867  1.00  0.00     0.029 A 
ATOM     38  N   UNL A   1      42.235  27.170  28.720  1.00  0.00    -0.354 N 
ATOM     39  C   UNL A   1      46.506  26.550  29.184  1.00  0.00     0.074 A 
ATOM     40  C   UNL A   1      46.882  25.221  28.757  1.00  0.00     0.031 C 
ATOM     41  C   UNL A   1      40.151  26.627  28.122  1.00  0.00     0.029 A 
ATOM     42  C   UNL A   1      40.964  27.687  28.713  1.00  0.00     0.049 A 
ATOM     43  H   UNL A   1      43.021  27.676  29.031  1.00  0.00     0.167 HD
ATOM     44  C   UNL A   1      47.381  27.477  29.633  1.00  0.00     0.031 A 
ATOM     45  C   UNL A   1      40.513  28.877  29.157  1.00  0.00     0.031 A 
ATOM     46  C   UNL A   1      46.998  28.789  30.079  1.00  0.00     0.049 A 
ATOM     47  C   UNL A   1      41.495  29.860  29.737  1.00  0.00     0.074 A 
ATOM     48  C   UNL A   1      47.800  29.804  30.565  1.00  0.00     0.029 A 
ATOM     49  N   UNL A   1      45.694  29.259  30.098  1.00  0.00    -0.354 N 
ATOM     50  N   UNL A   1      42.796  29.753  29.865  1.00  0.00    -0.248 NA
ATOM     51  C   UNL A   1      40.945  31.134  30.223  1.00  0.00     0.031 C 
ATOM     52  C   UNL A   1      46.973  30.874  30.925  1.00  0.00     0.029 A 
ATOM     53  C   UNL A   1      45.665  30.545  30.606  1.00  0.00     0.049 A 
ATOM     54  H   UNL A   1      44.906  28.754  29.793  1.00  0.00     0.167 HD
ATOM     55  C   UNL A   1      43.224  30.955  30.420  1.00  0.00     0.074 A 
ATOM     56  C   UNL A   1      42.044  31.780  30.586  1.00  0.00     0.031 C 
ATOM     57  C   UNL A   1      44.477  31.344  30.759  1.00  0.00     0.031 A 
BRANCH  44  58
ATOM     58  C   UNL A   1      48.829  27.084  29.694  1.00  0.00    -0.014 A 
ATOM     59  C   UNL A   1      49.697  27.325  28.616  1.00  0.00     0.009 A 
ATOM     60  C   UNL A   1      49.336  26.467  30.849  1.00  0.00     0.009 A 
ATOM     61  C   UNL A   1      51.033  26.928  28.682  1.00  0.00     0.001 A 
ATOM     62  C   UNL A   1      50.680  26.095  30.922  1.00  0.00     0.001 A 
ATOM     63  C   UNL A   1      51.525  26.318  29.835  1.00  0.00     0.000 A 
ENDBRANCH  44  58
BRANCH  45  64
ATOM     64  C   UNL A   1      39.063  29.201  29.091  1.00  0.00    -0.014 A 
ATOM     65  C   UNL A   1      38.222  28.960  30.188  1.00  0.00     0.009 A 
ATOM     66  C   UNL A   1      38.507  29.729  27.915  1.00  0.00     0.009 A 
ATOM     67  C   UNL A   1      36.850  29.213  30.099  1.00  0.00     0.001 A 
ATOM     68  C   UNL A   1      37.141  30.009  27.839  1.00  0.00     0.001 A 
ATOM     69  C   UNL A   1      36.313  29.741  28.926  1.00  0.00     0.000 A 
ENDBRANCH  45  64
BRANCH  57  70
ATOM     70  C   UNL A   1      44.638  32.735  31.304  1.00  0.00    -0.014 A 
ATOM     71  C   UNL A   1      44.835  33.834  30.454  1.00  0.00     0.009 A 
ATOM     72  C   UNL A   1      44.551  32.950  32.689  1.00  0.00     0.009 A 
ATOM     73  C   UNL A   1      44.979  35.117  30.985  1.00  0.00     0.001 A 
ATOM     74  C   UNL A   1      44.664  34.238  33.213  1.00  0.00     0.001 A 
ATOM     75  C   UNL A   1      44.890  35.319  32.362  1.00  0.00     0.000 A 
ENDBRANCH  57  70
ENDBRANCH  31  32
ENDBRANCH  24  26
ENDBRANCH  23  24
ENDBRANCH  22  23
ENDBRANCH  21  22
ENDBRANCH  20  21
ENDBRANCH  19  20
ENDBRANCH   1  19
TORSDOF 19
ENDMDL
