MODEL 1
REMARK VINA RESULT:     -11.9      0.000      0.000
REMARK SMILES COc1ccc([C@H]2CC(c3ccc(S(C)(=O)=O)cc3)=NN2c2ccc(C(=O)OCCOCCOC(=O)c3ccc(-c4c5nc(c(-c6ccccc6)c6ccc([nH]6)c(-c6ccccc6)c6nc(c(-c7ccccc7)c7ccc4[nH]7)C=C6)C=C5)cc3)cc2)cc1OC
REMARK SMILES IDX 30 1 29 2 28 3 26 4 27 5 25 6 22 7 23 8 86 9 24 10 85 11
REMARK SMILES IDX 21 12 7 13 8 14 9 15 20 16 6 17 3 18 4 19 88 20 5 21 87 22
REMARK SMILES IDX 2 23 1 24 89 25 90 26 10 27 11 28 19 29 12 30 18 31 13 32
REMARK SMILES IDX 14 33 15 34 16 35 17 36 31 37 32 38 33 39 34 40 35 41 36 42
REMARK SMILES IDX 37 43 38 44 84 45 39 46 83 47 40 48 41 49 42 50 77 51 43 52
REMARK SMILES IDX 82 53 76 54 78 55 44 56 81 57 75 58 74 59 45 61 67 62 52 63
REMARK SMILES IDX 66 64 53 65 56 66 65 67 79 68 54 69 55 70 64 72 80 73 57 74
REMARK SMILES IDX 46 75 47 76 51 77 48 78 50 79 49 80 68 81 69 82 73 83 70 84
REMARK SMILES IDX 72 85 71 86 58 87 59 88 63 89 60 90 62 91 61 92
REMARK H PARENT 78 60 56 71
REMARK Flexibility Score: inf
ROOT
ATOM      1  C   UNL A   1      41.587  22.426  26.670  1.00  0.00     0.202 C 
ENDROOT
BRANCH   1   2
ATOM      2  C   UNL A   1      40.189  22.404  27.294  1.00  0.00     0.261 C 
BRANCH   2   3
ATOM      3  O   UNL A   1      39.207  22.940  26.393  1.00  0.00    -0.460 OA
BRANCH   3   4
ATOM      4  C   UNL A   1      38.472  22.011  25.735  1.00  0.00     0.338 C 
ATOM      5  O   UNL A   1      38.593  20.796  25.813  1.00  0.00    -0.246 OA
BRANCH   4   6
ATOM      6  C   UNL A   1      37.372  22.659  24.986  1.00  0.00     0.060 A 
ATOM      7  C   UNL A   1      35.144  23.830  23.727  1.00  0.00     0.060 A 
ATOM      8  C   UNL A   1      35.471  24.156  25.050  1.00  0.00     0.029 A 
ATOM      9  C   UNL A   1      35.998  22.966  23.023  1.00  0.00     0.029 A 
ATOM     10  C   UNL A   1      36.557  23.554  25.686  1.00  0.00     0.018 A 
ATOM     11  C   UNL A   1      37.119  22.395  23.638  1.00  0.00     0.018 A 
BRANCH   7  12
ATOM     12  N   UNL A   1      33.961  24.290  23.157  1.00  0.00    -0.257 N 
ATOM     13  C   UNL A   1      33.005  23.377  22.512  1.00  0.00     0.144 C 
ATOM     14  C   UNL A   1      31.769  24.264  22.323  1.00  0.00     0.091 C 
ATOM     15  C   UNL A   1      32.215  25.503  23.048  1.00  0.00     0.071 C 
ATOM     16  N   UNL A   1      33.424  25.489  23.517  1.00  0.00    -0.176 NA
BRANCH  13  17
ATOM     17  C   UNL A   1      32.719  22.132  23.344  1.00  0.00    -0.019 A 
ATOM     18  C   UNL A   1      32.300  19.787  24.862  1.00  0.00     0.160 A 
ATOM     19  C   UNL A   1      32.172  19.764  23.467  1.00  0.00     0.051 A 
ATOM     20  C   UNL A   1      32.644  20.977  25.512  1.00  0.00     0.161 A 
ATOM     21  C   UNL A   1      32.370  20.928  22.716  1.00  0.00     0.010 A 
ATOM     22  C   UNL A   1      32.855  22.131  24.744  1.00  0.00     0.056 A 
BRANCH  18  23
ATOM     23  O   UNL A   1      32.216  18.605  25.549  1.00  0.00    -0.493 OA
ATOM     24  C   UNL A   1      32.508  17.475  24.731  1.00  0.00     0.278 C 
ENDBRANCH  18  23
BRANCH  20  25
ATOM     25  O   UNL A   1      32.843  21.182  26.852  1.00  0.00    -0.493 OA
ATOM     26  C   UNL A   1      33.048  22.515  27.296  1.00  0.00     0.278 C 
ENDBRANCH  20  25
ENDBRANCH  13  17
BRANCH  15  27
ATOM     27  C   UNL A   1      31.336  26.677  23.128  1.00  0.00    -0.002 A 
ATOM     28  C   UNL A   1      31.854  27.923  22.760  1.00  0.00     0.011 A 
ATOM     29  C   UNL A   1      30.001  26.544  23.519  1.00  0.00     0.011 A 
ATOM     30  C   UNL A   1      31.024  29.046  22.754  1.00  0.00     0.021 A 
ATOM     31  C   UNL A   1      29.175  27.671  23.539  1.00  0.00     0.021 A 
ATOM     32  C   UNL A   1      29.689  28.914  23.152  1.00  0.00     0.067 A 
BRANCH  32  33
ATOM     33  S   UNL A   1      28.628  30.342  23.111  1.00  0.00     0.175 S 
ATOM     34  C   UNL A   1      28.767  30.949  21.451  1.00  0.00     0.163 C 
ATOM     35  O   UNL A   1      27.276  29.859  23.312  1.00  0.00    -0.224 OA
ATOM     36  O   UNL A   1      29.203  31.341  23.992  1.00  0.00    -0.224 OA
ENDBRANCH  32  33
ENDBRANCH  15  27
ENDBRANCH   7  12
ENDBRANCH   4   6
ENDBRANCH   3   4
ENDBRANCH   2   3
ENDBRANCH   1   2
BRANCH   1  37
ATOM     37  O   UNL A   1      41.905  21.323  25.821  1.00  0.00    -0.374 OA
BRANCH  37  38
ATOM     38  C   UNL A   1      42.038  20.048  26.454  1.00  0.00     0.202 C 
BRANCH  38  39
ATOM     39  C   UNL A   1      43.002  19.071  25.769  1.00  0.00     0.261 C 
BRANCH  39  40
ATOM     40  O   UNL A   1      43.412  19.558  24.477  1.00  0.00    -0.460 OA
BRANCH  40  41
ATOM     41  C   UNL A   1      44.743  19.746  24.332  1.00  0.00     0.338 C 
ATOM     42  O   UNL A   1      45.560  18.958  23.875  1.00  0.00    -0.246 OA
BRANCH  41  43
ATOM     43  C   UNL A   1      45.089  21.144  24.650  1.00  0.00     0.060 A 
ATOM     44  C   UNL A   1      45.666  21.397  25.901  1.00  0.00     0.016 A 
ATOM     45  C   UNL A   1      44.806  22.195  23.775  1.00  0.00     0.016 A 
ATOM     46  C   UNL A   1      45.915  22.707  26.304  1.00  0.00     0.010 A 
ATOM     47  C   UNL A   1      45.049  23.510  24.184  1.00  0.00     0.010 A 
ATOM     48  C   UNL A   1      45.571  23.774  25.464  1.00  0.00    -0.014 A 
BRANCH  48  49
ATOM     49  C   UNL A   1      45.625  25.162  25.982  1.00  0.00     0.031 A 
ATOM     50  C   UNL A   1      46.938  25.895  25.972  1.00  0.00     0.074 A 
ATOM     51  C   UNL A   1      44.515  25.776  26.427  1.00  0.00     0.049 A 
ATOM     52  N   UNL A   1      47.217  27.103  26.390  1.00  0.00    -0.248 NA
ATOM     53  C   UNL A   1      48.092  25.167  25.418  1.00  0.00     0.031 C 
ATOM     54  C   UNL A   1      43.175  25.192  26.448  1.00  0.00     0.029 A 
ATOM     55  N   UNL A   1      44.345  27.033  26.951  1.00  0.00    -0.354 N 
ATOM     56  C   UNL A   1      48.575  27.279  26.155  1.00  0.00     0.074 A 
ATOM     57  C   UNL A   1      49.070  26.044  25.587  1.00  0.00     0.031 C 
ATOM     58  C   UNL A   1      42.318  26.091  26.963  1.00  0.00     0.029 A 
ATOM     59  C   UNL A   1      43.054  27.298  27.336  1.00  0.00     0.049 A 
ATOM     60  H   UNL A   1      45.079  27.683  27.041  1.00  0.00     0.167 HD
ATOM     61  C   UNL A   1      49.342  28.371  26.387  1.00  0.00     0.031 A 
ATOM     62  C   UNL A   1      42.531  28.383  27.936  1.00  0.00     0.031 A 
ATOM     63  C   UNL A   1      48.856  29.595  26.964  1.00  0.00     0.049 A 
ATOM     64  C   UNL A   1      43.419  29.555  28.256  1.00  0.00     0.074 A 
ATOM     65  C   UNL A   1      49.553  30.763  27.222  1.00  0.00     0.029 A 
ATOM     66  N   UNL A   1      47.551  29.807  27.380  1.00  0.00    -0.354 N 
ATOM     67  N   UNL A   1      44.695  29.718  28.006  1.00  0.00    -0.248 NA
ATOM     68  C   UNL A   1      42.789  30.697  28.936  1.00  0.00     0.031 C 
ATOM     69  C   UNL A   1      48.681  31.663  27.845  1.00  0.00     0.029 A 
ATOM     70  C   UNL A   1      47.429  31.075  27.921  1.00  0.00     0.049 A 
ATOM     71  H   UNL A   1      46.820  29.152  27.303  1.00  0.00     0.167 HD
ATOM     72  C   UNL A   1      45.015  30.988  28.472  1.00  0.00     0.074 A 
ATOM     73  C   UNL A   1      43.795  31.557  29.007  1.00  0.00     0.031 C 
ATOM     74  C   UNL A   1      46.210  31.628  28.453  1.00  0.00     0.031 A 
BRANCH  61  75
ATOM     75  C   UNL A   1      50.801  28.273  26.044  1.00  0.00    -0.014 A 
ATOM     76  C   UNL A   1      51.743  27.823  26.983  1.00  0.00     0.009 A 
ATOM     77  C   UNL A   1      51.236  28.610  24.753  1.00  0.00     0.009 A 
ATOM     78  C   UNL A   1      53.096  27.745  26.644  1.00  0.00     0.001 A 
ATOM     79  C   UNL A   1      52.586  28.506  24.410  1.00  0.00     0.001 A 
ATOM     80  C   UNL A   1      53.515  28.084  25.358  1.00  0.00     0.000 A 
ENDBRANCH  61  75
BRANCH  62  81
ATOM     81  C   UNL A   1      41.088  28.410  28.295  1.00  0.00    -0.014 A 
ATOM     82  C   UNL A   1      40.148  28.993  27.434  1.00  0.00     0.009 A 
ATOM     83  C   UNL A   1      40.650  27.867  29.513  1.00  0.00     0.009 A 
ATOM     84  C   UNL A   1      38.799  29.051  27.795  1.00  0.00     0.001 A 
ATOM     85  C   UNL A   1      39.298  27.903  29.860  1.00  0.00     0.001 A 
ATOM     86  C   UNL A   1      38.375  28.502  29.004  1.00  0.00     0.000 A 
ENDBRANCH  62  81
BRANCH  74  87
ATOM     87  C   UNL A   1      46.251  33.028  28.997  1.00  0.00    -0.014 A 
ATOM     88  C   UNL A   1      46.089  34.142  28.160  1.00  0.00     0.009 A 
ATOM     89  C   UNL A   1      46.414  33.230  30.377  1.00  0.00     0.009 A 
ATOM     90  C   UNL A   1      46.119  35.434  28.692  1.00  0.00     0.001 A 
ATOM     91  C   UNL A   1      46.416  34.521  30.909  1.00  0.00     0.001 A 
ATOM     92  C   UNL A   1      46.278  35.622  30.064  1.00  0.00     0.000 A 
ENDBRANCH  74  87
ENDBRANCH  48  49
ENDBRANCH  41  43
ENDBRANCH  40  41
ENDBRANCH  39  40
ENDBRANCH  38  39
ENDBRANCH  37  38
ENDBRANCH   1  37
TORSDOF 20
ENDMDL
MODEL 2
REMARK VINA RESULT:     -11.5      4.116      7.581
REMARK SMILES COc1ccc([C@H]2CC(c3ccc(S(C)(=O)=O)cc3)=NN2c2ccc(C(=O)OCCOCCOC(=O)c3ccc(-c4c5nc(c(-c6ccccc6)c6ccc([nH]6)c(-c6ccccc6)c6nc(c(-c7ccccc7)c7ccc4[nH]7)C=C6)C=C5)cc3)cc2)cc1OC
REMARK SMILES IDX 30 1 29 2 28 3 26 4 27 5 25 6 22 7 23 8 86 9 24 10 85 11
REMARK SMILES IDX 21 12 7 13 8 14 9 15 20 16 6 17 3 18 4 19 88 20 5 21 87 22
REMARK SMILES IDX 2 23 1 24 89 25 90 26 10 27 11 28 19 29 12 30 18 31 13 32
REMARK SMILES IDX 14 33 15 34 16 35 17 36 31 37 32 38 33 39 34 40 35 41 36 42
REMARK SMILES IDX 37 43 38 44 84 45 39 46 83 47 40 48 41 49 42 50 77 51 43 52
REMARK SMILES IDX 82 53 76 54 78 55 44 56 81 57 75 58 74 59 45 61 67 62 52 63
REMARK SMILES IDX 66 64 53 65 56 66 65 67 79 68 54 69 55 70 64 72 80 73 57 74
REMARK SMILES IDX 46 75 47 76 51 77 48 78 50 79 49 80 68 81 69 82 73 83 70 84
REMARK SMILES IDX 72 85 71 86 58 87 59 88 63 89 60 90 62 91 61 92
REMARK H PARENT 78 60 56 71
REMARK Flexibility Score: inf
ROOT
ATOM      1  C   UNL A   1      41.233  21.796  26.285  1.00  0.00     0.202 C 
ENDROOT
BRANCH   1   2
ATOM      2  C   UNL A   1      40.242  22.579  27.151  1.00  0.00     0.261 C 
BRANCH   2   3
ATOM      3  O   UNL A   1      39.159  23.098  26.363  1.00  0.00    -0.460 OA
BRANCH   3   4
ATOM      4  C   UNL A   1      38.376  22.157  25.783  1.00  0.00     0.338 C 
ATOM      5  O   UNL A   1      38.454  20.946  25.940  1.00  0.00    -0.246 OA
BRANCH   4   6
ATOM      6  C   UNL A   1      37.285  22.795  25.014  1.00  0.00     0.060 A 
ATOM      7  C   UNL A   1      35.074  23.961  23.720  1.00  0.00     0.060 A 
ATOM      8  C   UNL A   1      35.426  24.346  25.020  1.00  0.00     0.029 A 
ATOM      9  C   UNL A   1      35.895  23.037  23.053  1.00  0.00     0.029 A 
ATOM     10  C   UNL A   1      36.503  23.748  25.674  1.00  0.00     0.018 A 
ATOM     11  C   UNL A   1      37.008  22.468  23.685  1.00  0.00     0.018 A 
BRANCH   7  12
ATOM     12  N   UNL A   1      33.896  24.423  23.139  1.00  0.00    -0.257 N 
ATOM     13  C   UNL A   1      32.952  23.514  22.473  1.00  0.00     0.144 C 
ATOM     14  C   UNL A   1      31.716  24.399  22.278  1.00  0.00     0.091 C 
ATOM     15  C   UNL A   1      32.149  25.633  23.021  1.00  0.00     0.071 C 
ATOM     16  N   UNL A   1      33.352  25.617  23.504  1.00  0.00    -0.176 NA
BRANCH  13  17
ATOM     17  C   UNL A   1      32.659  22.260  23.289  1.00  0.00    -0.019 A 
ATOM     18  C   UNL A   1      32.231  19.905  24.789  1.00  0.00     0.160 A 
ATOM     19  C   UNL A   1      32.240  19.865  23.389  1.00  0.00     0.051 A 
ATOM     20  C   UNL A   1      32.440  21.117  25.454  1.00  0.00     0.161 A 
ATOM     21  C   UNL A   1      32.443  21.033  22.646  1.00  0.00     0.010 A 
ATOM     22  C   UNL A   1      32.657  22.277  24.696  1.00  0.00     0.056 A 
BRANCH  18  23
ATOM     23  O   UNL A   1      32.149  18.725  25.480  1.00  0.00    -0.493 OA
ATOM     24  C   UNL A   1      32.935  17.691  24.892  1.00  0.00     0.278 C 
ENDBRANCH  18  23
BRANCH  20  25
ATOM     25  O   UNL A   1      32.495  21.343  26.804  1.00  0.00    -0.493 OA
ATOM     26  C   UNL A   1      33.305  22.415  27.265  1.00  0.00     0.278 C 
ENDBRANCH  20  25
ENDBRANCH  13  17
BRANCH  15  27
ATOM     27  C   UNL A   1      31.266  26.803  23.101  1.00  0.00    -0.002 A 
ATOM     28  C   UNL A   1      31.735  28.026  22.612  1.00  0.00     0.011 A 
ATOM     29  C   UNL A   1      29.970  26.687  23.613  1.00  0.00     0.011 A 
ATOM     30  C   UNL A   1      30.894  29.141  22.606  1.00  0.00     0.021 A 
ATOM     31  C   UNL A   1      29.135  27.807  23.632  1.00  0.00     0.021 A 
ATOM     32  C   UNL A   1      29.600  29.026  23.124  1.00  0.00     0.067 A 
BRANCH  32  33
ATOM     33  S   UNL A   1      28.523  30.441  23.084  1.00  0.00     0.175 S 
ATOM     34  C   UNL A   1      28.699  31.086  21.442  1.00  0.00     0.163 C 
ATOM     35  O   UNL A   1      27.171  29.937  23.237  1.00  0.00    -0.224 OA
ATOM     36  O   UNL A   1      29.060  31.428  24.002  1.00  0.00    -0.224 OA
ENDBRANCH  32  33
ENDBRANCH  15  27
ENDBRANCH   7  12
ENDBRANCH   4   6
ENDBRANCH   3   4
ENDBRANCH   2   3
ENDBRANCH   1   2
BRANCH   1  37
ATOM     37  O   UNL A   1      42.157  22.583  25.534  1.00  0.00    -0.374 OA
BRANCH  37  38
ATOM     38  C   UNL A   1      43.449  22.013  25.310  1.00  0.00     0.202 C 
BRANCH  38  39
ATOM     39  C   UNL A   1      44.412  22.872  24.482  1.00  0.00     0.261 C 
BRANCH  39  40
ATOM     40  O   UNL A   1      44.079  24.271  24.572  1.00  0.00    -0.460 OA
BRANCH  40  41
ATOM     41  C   UNL A   1      44.865  24.994  25.401  1.00  0.00     0.338 C 
ATOM     42  O   UNL A   1      46.072  25.175  25.313  1.00  0.00    -0.246 OA
BRANCH  41  43
ATOM     43  C   UNL A   1      44.030  25.713  26.381  1.00  0.00     0.060 A 
ATOM     44  C   UNL A   1      44.185  27.103  26.465  1.00  0.00     0.016 A 
ATOM     45  C   UNL A   1      43.155  25.045  27.240  1.00  0.00     0.016 A 
ATOM     46  C   UNL A   1      43.506  27.824  27.445  1.00  0.00     0.010 A 
ATOM     47  C   UNL A   1      42.479  25.770  28.228  1.00  0.00     0.010 A 
ATOM     48  C   UNL A   1      42.679  27.157  28.358  1.00  0.00    -0.014 A 
BRANCH  48  49
ATOM     49  C   UNL A   1      42.141  27.887  29.529  1.00  0.00     0.031 A 
ATOM     50  C   UNL A   1      40.820  28.596  29.405  1.00  0.00     0.074 A 
ATOM     51  C   UNL A   1      42.802  27.896  30.700  1.00  0.00     0.049 A 
ATOM     52  N   UNL A   1      40.173  29.306  30.294  1.00  0.00    -0.248 NA
ATOM     53  C   UNL A   1      40.139  28.491  28.104  1.00  0.00     0.031 C 
ATOM     54  C   UNL A   1      44.066  27.211  30.964  1.00  0.00     0.029 A 
ATOM     55  N   UNL A   1      42.493  28.508  31.889  1.00  0.00    -0.354 N 
ATOM     56  C   UNL A   1      39.014  29.736  29.659  1.00  0.00     0.074 A 
ATOM     57  C   UNL A   1      39.061  29.233  28.304  1.00  0.00     0.031 C 
ATOM     58  C   UNL A   1      44.429  27.445  32.238  1.00  0.00     0.029 A 
ATOM     59  C   UNL A   1      43.440  28.319  32.866  1.00  0.00     0.049 A 
ATOM     60  H   UNL A   1      41.672  29.031  32.029  1.00  0.00     0.167 HD
ATOM     61  C   UNL A   1      37.999  30.479  30.161  1.00  0.00     0.031 A 
ATOM     62  C   UNL A   1      43.508  28.810  34.117  1.00  0.00     0.031 A 
ATOM     63  C   UNL A   1      37.955  30.991  31.504  1.00  0.00     0.049 A 
ATOM     64  C   UNL A   1      42.406  29.699  34.627  1.00  0.00     0.074 A 
ATOM     65  C   UNL A   1      36.961  31.741  32.109  1.00  0.00     0.029 A 
ATOM     66  N   UNL A   1      38.954  30.814  32.448  1.00  0.00    -0.354 N 
ATOM     67  N   UNL A   1      41.304  30.077  34.027  1.00  0.00    -0.248 NA
ATOM     68  C   UNL A   1      42.556  30.222  35.993  1.00  0.00     0.031 C 
ATOM     69  C   UNL A   1      37.384  32.062  33.403  1.00  0.00     0.029 A 
ATOM     70  C   UNL A   1      38.615  31.466  33.622  1.00  0.00     0.049 A 
ATOM     71  H   UNL A   1      39.783  30.303  32.304  1.00  0.00     0.167 HD
ATOM     72  C   UNL A   1      40.617  30.858  34.948  1.00  0.00     0.074 A 
ATOM     73  C   UNL A   1      41.421  30.889  36.153  1.00  0.00     0.031 C 
ATOM     74  C   UNL A   1      39.425  31.490  34.811  1.00  0.00     0.031 A 
BRANCH  61  75
ATOM     75  C   UNL A   1      36.864  30.809  29.234  1.00  0.00    -0.014 A 
ATOM     76  C   UNL A   1      35.918  29.840  28.863  1.00  0.00     0.009 A 
ATOM     77  C   UNL A   1      36.724  32.117  28.745  1.00  0.00     0.009 A 
ATOM     78  C   UNL A   1      34.875  30.168  27.994  1.00  0.00     0.001 A 
ATOM     79  C   UNL A   1      35.664  32.448  27.898  1.00  0.00     0.001 A 
ATOM     80  C   UNL A   1      34.747  31.471  27.516  1.00  0.00     0.000 A 
ENDBRANCH  61  75
BRANCH  62  81
ATOM     81  C   UNL A   1      44.676  28.488  34.979  1.00  0.00    -0.014 A 
ATOM     82  C   UNL A   1      44.654  27.371  35.826  1.00  0.00     0.009 A 
ATOM     83  C   UNL A   1      45.813  29.311  34.969  1.00  0.00     0.009 A 
ATOM     84  C   UNL A   1      45.739  27.097  36.663  1.00  0.00     0.001 A 
ATOM     85  C   UNL A   1      46.907  29.019  35.787  1.00  0.00     0.001 A 
ATOM     86  C   UNL A   1      46.865  27.917  36.639  1.00  0.00     0.000 A 
ENDBRANCH  62  81
BRANCH  74  87
ATOM     87  C   UNL A   1      38.901  32.240  36.004  1.00  0.00    -0.014 A 
ATOM     88  C   UNL A   1      38.091  31.614  36.963  1.00  0.00     0.009 A 
ATOM     89  C   UNL A   1      39.261  33.585  36.189  1.00  0.00     0.009 A 
ATOM     90  C   UNL A   1      37.626  32.330  38.068  1.00  0.00     0.001 A 
ATOM     91  C   UNL A   1      38.818  34.290  37.309  1.00  0.00     0.001 A 
ATOM     92  C   UNL A   1      37.993  33.664  38.243  1.00  0.00     0.000 A 
ENDBRANCH  74  87
ENDBRANCH  48  49
ENDBRANCH  41  43
ENDBRANCH  40  41
ENDBRANCH  39  40
ENDBRANCH  38  39
ENDBRANCH  37  38
ENDBRANCH   1  37
TORSDOF 20
ENDMDL
MODEL 3
REMARK VINA RESULT:     -10.9      0.570      5.432
REMARK SMILES COc1ccc([C@H]2CC(c3ccc(S(C)(=O)=O)cc3)=NN2c2ccc(C(=O)OCCOCCOC(=O)c3ccc(-c4c5nc(c(-c6ccccc6)c6ccc([nH]6)c(-c6ccccc6)c6nc(c(-c7ccccc7)c7ccc4[nH]7)C=C6)C=C5)cc3)cc2)cc1OC
REMARK SMILES IDX 30 1 29 2 28 3 26 4 27 5 25 6 22 7 23 8 86 9 24 10 85 11
REMARK SMILES IDX 21 12 7 13 8 14 9 15 20 16 6 17 3 18 4 19 88 20 5 21 87 22
REMARK SMILES IDX 2 23 1 24 89 25 90 26 10 27 11 28 19 29 12 30 18 31 13 32
REMARK SMILES IDX 14 33 15 34 16 35 17 36 31 37 32 38 33 39 34 40 35 41 36 42
REMARK SMILES IDX 37 43 38 44 84 45 39 46 83 47 40 48 41 49 42 50 77 51 43 52
REMARK SMILES IDX 82 53 76 54 78 55 44 56 81 57 75 58 74 59 45 61 67 62 52 63
REMARK SMILES IDX 66 64 53 65 56 66 65 67 79 68 54 69 55 70 64 72 80 73 57 74
REMARK SMILES IDX 46 75 47 76 51 77 48 78 50 79 49 80 68 81 69 82 73 83 70 84
REMARK SMILES IDX 72 85 71 86 58 87 59 88 63 89 60 90 62 91 61 92
REMARK H PARENT 78 60 56 71
REMARK Flexibility Score: inf
ROOT
ATOM      1  C   UNL A   1      40.985  21.803  26.124  1.00  0.00     0.202 C 
ENDROOT
BRANCH   1   2
ATOM      2  C   UNL A   1      40.486  22.900  27.068  1.00  0.00     0.261 C 
BRANCH   2   3
ATOM      3  O   UNL A   1      39.103  23.205  26.827  1.00  0.00    -0.460 OA
BRANCH   3   4
ATOM      4  C   UNL A   1      38.443  22.294  26.071  1.00  0.00     0.338 C 
ATOM      5  O   UNL A   1      38.586  21.079  26.103  1.00  0.00    -0.246 OA
BRANCH   4   6
ATOM      6  C   UNL A   1      37.389  22.953  25.269  1.00  0.00     0.060 A 
ATOM      7  C   UNL A   1      35.239  24.146  23.898  1.00  0.00     0.060 A 
ATOM      8  C   UNL A   1      35.490  24.454  25.242  1.00  0.00     0.029 A 
ATOM      9  C   UNL A   1      36.130  23.288  23.234  1.00  0.00     0.029 A 
ATOM     10  C   UNL A   1      36.536  23.842  25.931  1.00  0.00     0.018 A 
ATOM     11  C   UNL A   1      37.214  22.707  23.905  1.00  0.00     0.018 A 
BRANCH   7  12
ATOM     12  N   UNL A   1      34.091  24.616  23.267  1.00  0.00    -0.257 N 
ATOM     13  C   UNL A   1      33.146  23.708  22.601  1.00  0.00     0.144 C 
ATOM     14  C   UNL A   1      31.938  24.614  22.339  1.00  0.00     0.091 C 
ATOM     15  C   UNL A   1      32.378  25.861  23.055  1.00  0.00     0.071 C 
ATOM     16  N   UNL A   1      33.565  25.834  23.577  1.00  0.00    -0.176 NA
BRANCH  13  17
ATOM     17  C   UNL A   1      32.799  22.488  23.447  1.00  0.00    -0.019 A 
ATOM     18  C   UNL A   1      32.269  20.193  25.007  1.00  0.00     0.160 A 
ATOM     19  C   UNL A   1      32.327  20.106  23.611  1.00  0.00     0.051 A 
ATOM     20  C   UNL A   1      32.480  21.423  25.639  1.00  0.00     0.161 A 
ATOM     21  C   UNL A   1      32.580  21.245  22.837  1.00  0.00     0.010 A 
ATOM     22  C   UNL A   1      32.748  22.552  24.851  1.00  0.00     0.056 A 
BRANCH  18  23
ATOM     23  O   UNL A   1      32.138  19.039  25.733  1.00  0.00    -0.493 OA
ATOM     24  C   UNL A   1      32.543  17.884  25.002  1.00  0.00     0.278 C 
ENDBRANCH  18  23
BRANCH  20  25
ATOM     25  O   UNL A   1      32.493  21.693  26.982  1.00  0.00    -0.493 OA
ATOM     26  C   UNL A   1      33.754  21.792  27.627  1.00  0.00     0.278 C 
ENDBRANCH  20  25
ENDBRANCH  13  17
BRANCH  15  27
ATOM     27  C   UNL A   1      31.521  27.053  23.070  1.00  0.00    -0.002 A 
ATOM     28  C   UNL A   1      30.156  26.895  22.808  1.00  0.00     0.011 A 
ATOM     29  C   UNL A   1      32.048  28.309  23.384  1.00  0.00     0.011 A 
ATOM     30  C   UNL A   1      29.302  27.997  22.887  1.00  0.00     0.021 A 
ATOM     31  C   UNL A   1      31.199  29.417  23.438  1.00  0.00     0.021 A 
ATOM     32  C   UNL A   1      29.831  29.255  23.194  1.00  0.00     0.067 A 
BRANCH  32  33
ATOM     33  S   UNL A   1      28.732  30.648  23.325  1.00  0.00     0.175 S 
ATOM     34  C   UNL A   1      28.774  31.397  21.717  1.00  0.00     0.163 C 
ATOM     35  O   UNL A   1      27.404  30.109  23.546  1.00  0.00    -0.224 OA
ATOM     36  O   UNL A   1      29.323  31.586  24.260  1.00  0.00    -0.224 OA
ENDBRANCH  32  33
ENDBRANCH  15  27
ENDBRANCH   7  12
ENDBRANCH   4   6
ENDBRANCH   3   4
ENDBRANCH   2   3
ENDBRANCH   1   2
BRANCH   1  37
ATOM     37  O   UNL A   1      42.011  20.958  26.644  1.00  0.00    -0.374 OA
BRANCH  37  38
ATOM     38  C   UNL A   1      41.786  19.549  26.552  1.00  0.00     0.202 C 
BRANCH  38  39
ATOM     39  C   UNL A   1      42.728  18.793  25.607  1.00  0.00     0.261 C 
BRANCH  39  40
ATOM     40  O   UNL A   1      44.059  19.343  25.642  1.00  0.00    -0.460 OA
BRANCH  40  41
ATOM     41  C   UNL A   1      44.460  19.945  24.499  1.00  0.00     0.338 C 
ATOM     42  O   UNL A   1      44.312  19.542  23.354  1.00  0.00    -0.246 OA
BRANCH  41  43
ATOM     43  C   UNL A   1      44.976  21.294  24.799  1.00  0.00     0.060 A 
ATOM     44  C   UNL A   1      45.394  21.548  26.112  1.00  0.00     0.016 A 
ATOM     45  C   UNL A   1      45.001  22.308  23.839  1.00  0.00     0.016 A 
ATOM     46  C   UNL A   1      45.789  22.831  26.483  1.00  0.00     0.010 A 
ATOM     47  C   UNL A   1      45.390  23.598  24.216  1.00  0.00     0.010 A 
ATOM     48  C   UNL A   1      45.752  23.873  25.548  1.00  0.00    -0.014 A 
BRANCH  48  49
ATOM     49  C   UNL A   1      45.952  25.271  25.998  1.00  0.00     0.031 A 
ATOM     50  C   UNL A   1      44.770  26.053  26.501  1.00  0.00     0.074 A 
ATOM     51  C   UNL A   1      47.175  25.830  25.989  1.00  0.00     0.049 A 
ATOM     52  N   UNL A   1      44.714  27.289  26.927  1.00  0.00    -0.248 NA
ATOM     53  C   UNL A   1      43.478  25.347  26.526  1.00  0.00     0.031 C 
ATOM     54  C   UNL A   1      48.407  25.165  25.569  1.00  0.00     0.029 A 
ATOM     55  N   UNL A   1      47.576  27.092  26.347  1.00  0.00    -0.354 N 
ATOM     56  C   UNL A   1      43.385  27.510  27.265  1.00  0.00     0.074 A 
ATOM     57  C   UNL A   1      42.663  26.293  26.966  1.00  0.00     0.031 C 
ATOM     58  C   UNL A   1      49.430  26.030  25.689  1.00  0.00     0.029 A 
ATOM     59  C   UNL A   1      48.919  27.314  26.164  1.00  0.00     0.049 A 
ATOM     60  H   UNL A   1      46.961  27.774  26.701  1.00  0.00     0.167 HD
ATOM     61  C   UNL A   1      42.815  28.626  27.782  1.00  0.00     0.031 A 
ATOM     62  C   UNL A   1      49.648  28.431  26.344  1.00  0.00     0.031 A 
ATOM     63  C   UNL A   1      43.527  29.842  28.067  1.00  0.00     0.049 A 
ATOM     64  C   UNL A   1      48.979  29.683  26.845  1.00  0.00     0.074 A 
ATOM     65  C   UNL A   1      43.040  31.020  28.607  1.00  0.00     0.029 A 
ATOM     66  N   UNL A   1      44.878  30.039  27.826  1.00  0.00    -0.354 N 
ATOM     67  N   UNL A   1      47.726  29.872  27.184  1.00  0.00    -0.248 NA
ATOM     68  C   UNL A   1      49.827  30.874  26.993  1.00  0.00     0.031 C 
ATOM     69  C   UNL A   1      44.086  31.948  28.643  1.00  0.00     0.029 A 
ATOM     70  C   UNL A   1      45.236  31.330  28.179  1.00  0.00     0.049 A 
ATOM     71  H   UNL A   1      45.492  29.363  27.459  1.00  0.00     0.167 HD
ATOM     72  C   UNL A   1      47.643  31.191  27.612  1.00  0.00     0.074 A 
ATOM     73  C   UNL A   1      48.974  31.752  27.501  1.00  0.00     0.031 C 
ATOM     74  C   UNL A   1      46.563  31.875  28.061  1.00  0.00     0.031 A 
BRANCH  61  75
ATOM     75  C   UNL A   1      41.336  28.587  28.039  1.00  0.00    -0.014 A 
ATOM     76  C   UNL A   1      40.820  28.126  29.262  1.00  0.00     0.009 A 
ATOM     77  C   UNL A   1      40.447  29.044  27.055  1.00  0.00     0.009 A 
ATOM     78  C   UNL A   1      39.440  28.093  29.477  1.00  0.00     0.001 A 
ATOM     79  C   UNL A   1      39.069  29.034  27.284  1.00  0.00     0.001 A 
ATOM     80  C   UNL A   1      38.567  28.550  28.491  1.00  0.00     0.000 A 
ENDBRANCH  61  75
BRANCH  62  81
ATOM     81  C   UNL A   1      51.102  28.428  26.031  1.00  0.00    -0.014 A 
ATOM     82  C   UNL A   1      51.554  28.713  24.734  1.00  0.00     0.009 A 
ATOM     83  C   UNL A   1      52.041  28.124  27.027  1.00  0.00     0.009 A 
ATOM     84  C   UNL A   1      52.919  28.669  24.437  1.00  0.00     0.001 A 
ATOM     85  C   UNL A   1      53.406  28.107  26.734  1.00  0.00     0.001 A 
ATOM     86  C   UNL A   1      53.843  28.372  25.437  1.00  0.00     0.000 A 
ENDBRANCH  62  81
BRANCH  74  87
ATOM     87  C   UNL A   1      46.780  33.298  28.498  1.00  0.00    -0.014 A 
ATOM     88  C   UNL A   1      47.213  33.605  29.796  1.00  0.00     0.009 A 
ATOM     89  C   UNL A   1      46.586  34.342  27.579  1.00  0.00     0.009 A 
ATOM     90  C   UNL A   1      47.419  34.933  30.175  1.00  0.00     0.001 A 
ATOM     91  C   UNL A   1      46.820  35.667  27.952  1.00  0.00     0.001 A 
ATOM     92  C   UNL A   1      47.227  35.961  29.252  1.00  0.00     0.000 A 
ENDBRANCH  74  87
ENDBRANCH  48  49
ENDBRANCH  41  43
ENDBRANCH  40  41
ENDBRANCH  39  40
ENDBRANCH  38  39
ENDBRANCH  37  38
ENDBRANCH   1  37
TORSDOF 20
ENDMDL
