MODEL 1
REMARK VINA RESULT:     -10.7      0.000      0.000
REMARK SMILES C#Cc1cc(Cl)c2c(c1)C=C(C(=O)OCCOCCOC(=O)c1ccc(-c3c4nc(c(-c5ccccc5)c5ccc([nH]5)c(-c5ccccc5)c5nc(c(-c6ccccc6)c6ccc3[nH]6)C=C5)C=C4)cc1)[C@@H](C(F)(F)F)O2
REMARK SMILES IDX 18 1 17 2 16 3 15 4 14 5 12 6 13 7 11 8 3 9 4 10 9 11 5 12
REMARK SMILES IDX 8 13 6 14 7 15 10 16 76 17 71 18 2 19 1 20 72 21 73 22 74 23
REMARK SMILES IDX 75 24 19 25 20 26 21 27 22 28 23 29 24 30 70 31 25 32 69 33
REMARK SMILES IDX 26 34 27 35 28 36 63 37 29 38 68 39 62 40 64 41 30 42 67 43
REMARK SMILES IDX 61 44 60 45 31 47 53 48 38 49 52 50 39 51 42 52 51 53 65 54
REMARK SMILES IDX 40 55 41 56 50 58 66 59 43 60 32 61 33 62 37 63 34 64 36 65
REMARK SMILES IDX 35 66 54 67 55 68 59 69 56 70 58 71 57 72 44 73 45 74 49 75
REMARK SMILES IDX 46 76 48 77 47 78
REMARK H PARENT 64 46 42 57
REMARK Flexibility Score: inf
ROOT
ATOM      1  C   UNL A   1      31.598  30.836  26.669  1.00  0.00     0.202 C 
ENDROOT
BRANCH   1   2
ATOM      2  O   UNL A   1      32.526  30.360  25.698  1.00  0.00    -0.374 OA
BRANCH   2   3
ATOM      3  C   UNL A   1      33.656  29.609  26.124  1.00  0.00     0.202 C 
BRANCH   3   4
ATOM      4  C   UNL A   1      33.849  28.182  25.602  1.00  0.00     0.261 C 
BRANCH   4   5
ATOM      5  O   UNL A   1      33.660  28.086  24.185  1.00  0.00    -0.460 OA
BRANCH   5   6
ATOM      6  C   UNL A   1      33.032  26.952  23.791  1.00  0.00     0.338 C 
ATOM      7  O   UNL A   1      33.505  25.828  23.754  1.00  0.00    -0.246 OA
BRANCH   6   8
ATOM      8  C   UNL A   1      31.609  27.238  23.532  1.00  0.00     0.087 C 
ATOM      9  C   UNL A   1      28.406  30.402  21.868  1.00  0.00     0.027 A 
ATOM     10  C   UNL A   1      27.379  29.702  22.500  1.00  0.00     0.041 A 
ATOM     11  C   UNL A   1      29.709  29.905  21.903  1.00  0.00     0.029 A 
ATOM     12  C   UNL A   1      27.655  28.494  23.148  1.00  0.00     0.084 A 
ATOM     13  C   UNL A   1      29.991  28.718  22.590  1.00  0.00     0.020 A 
ATOM     14  Cl  UNL A   1      26.353  27.667  23.926  1.00  0.00    -0.080 Cl
ATOM     15  C   UNL A   1      28.962  27.993  23.197  1.00  0.00     0.146 A 
ATOM     16  C   UNL A   1      31.369  28.294  22.746  1.00  0.00     0.027 C 
ATOM     17  O   UNL A   1      29.178  26.801  23.835  1.00  0.00    -0.474 OA
ATOM     18  C   UNL A   1      30.535  26.395  24.158  1.00  0.00     0.316 C 
BRANCH   9  19
ATOM     19  C   UNL A   1      28.141  31.646  21.218  1.00  0.00    -0.070 C 
ATOM     20  C   UNL A   1      27.940  32.702  20.679  1.00  0.00     0.010 C 
ENDBRANCH   9  19
BRANCH  18  21
ATOM     21  C   UNL A   1      30.672  26.308  25.685  1.00  0.00     0.430 C 
ATOM     22  F   UNL A   1      31.688  25.487  26.043  1.00  0.00    -0.167 F 
ATOM     23  F   UNL A   1      30.941  27.516  26.235  1.00  0.00    -0.167 F 
ATOM     24  F   UNL A   1      29.544  25.841  26.266  1.00  0.00    -0.167 F 
ENDBRANCH  18  21
ENDBRANCH   6   8
ENDBRANCH   5   6
ENDBRANCH   4   5
ENDBRANCH   3   4
ENDBRANCH   2   3
ENDBRANCH   1   2
BRANCH   1  25
ATOM     25  C   UNL A   1      31.416  32.345  26.889  1.00  0.00     0.261 C 
BRANCH  25  26
ATOM     26  O   UNL A   1      32.610  33.117  26.688  1.00  0.00    -0.460 OA
BRANCH  26  27
ATOM     27  C   UNL A   1      33.092  33.697  27.816  1.00  0.00     0.338 C 
ATOM     28  O   UNL A   1      32.550  34.543  28.507  1.00  0.00    -0.246 OA
BRANCH  27  29
ATOM     29  C   UNL A   1      34.333  33.022  28.227  1.00  0.00     0.060 A 
ATOM     30  C   UNL A   1      34.238  31.722  28.746  1.00  0.00     0.016 A 
ATOM     31  C   UNL A   1      35.554  33.693  28.200  1.00  0.00     0.016 A 
ATOM     32  C   UNL A   1      35.365  31.098  29.269  1.00  0.00     0.010 A 
ATOM     33  C   UNL A   1      36.682  33.069  28.739  1.00  0.00     0.010 A 
ATOM     34  C   UNL A   1      36.585  31.784  29.305  1.00  0.00    -0.014 A 
BRANCH  34  35
ATOM     35  C   UNL A   1      37.722  31.213  30.064  1.00  0.00     0.031 A 
ATOM     36  C   UNL A   1      38.647  30.247  29.377  1.00  0.00     0.074 A 
ATOM     37  C   UNL A   1      37.948  31.580  31.338  1.00  0.00     0.049 A 
ATOM     38  N   UNL A   1      39.676  29.601  29.862  1.00  0.00    -0.248 NA
ATOM     39  C   UNL A   1      38.381  29.973  27.954  1.00  0.00     0.031 C 
ATOM     40  C   UNL A   1      37.157  32.552  32.091  1.00  0.00     0.029 A 
ATOM     41  N   UNL A   1      38.917  31.177  32.222  1.00  0.00    -0.354 N 
ATOM     42  C   UNL A   1      40.174  28.843  28.809  1.00  0.00     0.074 A 
ATOM     43  C   UNL A   1      39.316  29.077  27.670  1.00  0.00     0.031 C 
ATOM     44  C   UNL A   1      37.677  32.675  33.324  1.00  0.00     0.029 A 
ATOM     45  C   UNL A   1      38.806  31.758  33.462  1.00  0.00     0.049 A 
ATOM     46  H   UNL A   1      39.624  30.533  31.990  1.00  0.00     0.167 HD
ATOM     47  C   UNL A   1      41.259  28.034  28.793  1.00  0.00     0.031 A 
ATOM     48  C   UNL A   1      39.524  31.558  34.585  1.00  0.00     0.031 A 
ATOM     49  C   UNL A   1      42.110  27.803  29.929  1.00  0.00     0.049 A 
ATOM     50  C   UNL A   1      40.663  30.574  34.565  1.00  0.00     0.074 A 
ATOM     51  C   UNL A   1      43.238  27.005  30.006  1.00  0.00     0.029 A 
ATOM     52  N   UNL A   1      41.930  28.365  31.182  1.00  0.00    -0.354 N 
ATOM     53  N   UNL A   1      41.136  29.876  33.559  1.00  0.00    -0.248 NA
ATOM     54  C   UNL A   1      41.374  30.354  35.833  1.00  0.00     0.031 C 
ATOM     55  C   UNL A   1      43.699  27.028  31.323  1.00  0.00     0.029 A 
ATOM     56  C   UNL A   1      42.906  27.903  32.048  1.00  0.00     0.049 A 
ATOM     57  H   UNL A   1      41.214  28.997  31.421  1.00  0.00     0.167 HD
ATOM     58  C   UNL A   1      42.215  29.161  34.066  1.00  0.00     0.074 A 
ATOM     59  C   UNL A   1      42.340  29.524  35.462  1.00  0.00     0.031 C 
ATOM     60  C   UNL A   1      43.025  28.278  33.433  1.00  0.00     0.031 A 
BRANCH  47  61
ATOM     61  C   UNL A   1      41.594  27.325  27.511  1.00  0.00    -0.014 A 
ATOM     62  C   UNL A   1      42.433  27.914  26.552  1.00  0.00     0.009 A 
ATOM     63  C   UNL A   1      41.150  26.008  27.307  1.00  0.00     0.009 A 
ATOM     64  C   UNL A   1      42.812  27.202  25.413  1.00  0.00     0.001 A 
ATOM     65  C   UNL A   1      41.555  25.289  26.183  1.00  0.00     0.001 A 
ATOM     66  C   UNL A   1      42.384  25.887  25.235  1.00  0.00     0.000 A 
ENDBRANCH  47  61
BRANCH  48  67
ATOM     67  C   UNL A   1      39.180  32.295  35.831  1.00  0.00    -0.014 A 
ATOM     68  C   UNL A   1      38.247  31.771  36.738  1.00  0.00     0.009 A 
ATOM     69  C   UNL A   1      39.772  33.536  36.115  1.00  0.00     0.009 A 
ATOM     70  C   UNL A   1      37.896  32.483  37.887  1.00  0.00     0.001 A 
ATOM     71  C   UNL A   1      39.448  34.230  37.283  1.00  0.00     0.001 A 
ATOM     72  C   UNL A   1      38.502  33.708  38.163  1.00  0.00     0.000 A 
ENDBRANCH  48  67
BRANCH  60  73
ATOM     73  C   UNL A   1      44.145  27.659  34.225  1.00  0.00    -0.014 A 
ATOM     74  C   UNL A   1      45.390  28.296  34.347  1.00  0.00     0.009 A 
ATOM     75  C   UNL A   1      43.922  26.465  34.932  1.00  0.00     0.009 A 
ATOM     76  C   UNL A   1      46.394  27.737  35.141  1.00  0.00     0.001 A 
ATOM     77  C   UNL A   1      44.915  25.930  35.753  1.00  0.00     0.001 A 
ATOM     78  C   UNL A   1      46.152  26.561  35.851  1.00  0.00     0.000 A 
ENDBRANCH  60  73
ENDBRANCH  34  35
ENDBRANCH  27  29
ENDBRANCH  26  27
ENDBRANCH  25  26
ENDBRANCH   1  25
TORSDOF 16
ENDMDL
MODEL 2
REMARK VINA RESULT:     -10.6      4.753     10.042
REMARK SMILES C#Cc1cc(Cl)c2c(c1)C=C(C(=O)OCCOCCOC(=O)c1ccc(-c3c4nc(c(-c5ccccc5)c5ccc([nH]5)c(-c5ccccc5)c5nc(c(-c6ccccc6)c6ccc3[nH]6)C=C5)C=C4)cc1)[C@@H](C(F)(F)F)O2
REMARK SMILES IDX 18 1 17 2 16 3 15 4 14 5 12 6 13 7 11 8 3 9 4 10 9 11 5 12
REMARK SMILES IDX 8 13 6 14 7 15 10 16 76 17 71 18 2 19 1 20 72 21 73 22 74 23
REMARK SMILES IDX 75 24 19 25 20 26 21 27 22 28 23 29 24 30 70 31 25 32 69 33
REMARK SMILES IDX 26 34 27 35 28 36 63 37 29 38 68 39 62 40 64 41 30 42 67 43
REMARK SMILES IDX 61 44 60 45 31 47 53 48 38 49 52 50 39 51 42 52 51 53 65 54
REMARK SMILES IDX 40 55 41 56 50 58 66 59 43 60 32 61 33 62 37 63 34 64 36 65
REMARK SMILES IDX 35 66 54 67 55 68 59 69 56 70 58 71 57 72 44 73 45 74 49 75
REMARK SMILES IDX 46 76 48 77 47 78
REMARK H PARENT 64 46 42 57
REMARK Flexibility Score: inf
ROOT
ATOM      1  C   UNL A   1      33.597  34.608  28.480  1.00  0.00     0.202 C 
ENDROOT
BRANCH   1   2
ATOM      2  O   UNL A   1      32.608  34.835  29.481  1.00  0.00    -0.374 OA
BRANCH   2   3
ATOM      3  C   UNL A   1      32.728  35.967  30.333  1.00  0.00     0.202 C 
BRANCH   3   4
ATOM      4  C   UNL A   1      32.469  35.807  31.834  1.00  0.00     0.261 C 
BRANCH   4   5
ATOM      5  O   UNL A   1      33.325  34.830  32.438  1.00  0.00    -0.460 OA
BRANCH   5   6
ATOM      6  C   UNL A   1      34.478  35.341  32.931  1.00  0.00     0.338 C 
ATOM      7  O   UNL A   1      34.778  36.520  33.020  1.00  0.00    -0.246 OA
BRANCH   6   8
ATOM      8  C   UNL A   1      35.301  34.254  33.493  1.00  0.00     0.087 C 
ATOM      9  C   UNL A   1      38.094  32.824  37.125  1.00  0.00     0.027 A 
ATOM     10  C   UNL A   1      38.591  31.784  36.340  1.00  0.00     0.041 A 
ATOM     11  C   UNL A   1      37.083  33.647  36.628  1.00  0.00     0.029 A 
ATOM     12  C   UNL A   1      38.060  31.558  35.067  1.00  0.00     0.084 A 
ATOM     13  C   UNL A   1      36.583  33.446  35.337  1.00  0.00     0.020 A 
ATOM     14  Cl  UNL A   1      38.714  30.264  34.127  1.00  0.00    -0.080 Cl
ATOM     15  C   UNL A   1      37.052  32.385  34.556  1.00  0.00     0.146 A 
ATOM     16  C   UNL A   1      35.643  34.398  34.779  1.00  0.00     0.027 C 
ATOM     17  O   UNL A   1      36.558  32.114  33.309  1.00  0.00    -0.474 OA
ATOM     18  C   UNL A   1      35.733  33.101  32.633  1.00  0.00     0.316 C 
BRANCH   9  19
ATOM     19  C   UNL A   1      38.640  33.078  38.420  1.00  0.00    -0.070 C 
ATOM     20  C   UNL A   1      39.108  33.270  39.511  1.00  0.00     0.010 C 
ENDBRANCH   9  19
BRANCH  18  21
ATOM     21  C   UNL A   1      36.459  33.559  31.359  1.00  0.00     0.430 C 
ATOM     22  F   UNL A   1      37.482  34.397  31.649  1.00  0.00    -0.167 F 
ATOM     23  F   UNL A   1      36.996  32.514  30.685  1.00  0.00    -0.167 F 
ATOM     24  F   UNL A   1      35.629  34.205  30.510  1.00  0.00    -0.167 F 
ENDBRANCH  18  21
ENDBRANCH   6   8
ENDBRANCH   5   6
ENDBRANCH   4   5
ENDBRANCH   3   4
ENDBRANCH   2   3
ENDBRANCH   1   2
BRANCH   1  25
ATOM     25  C   UNL A   1      33.629  33.277  27.714  1.00  0.00     0.261 C 
BRANCH  25  26
ATOM     26  O   UNL A   1      34.743  32.433  28.049  1.00  0.00    -0.460 OA
BRANCH  26  27
ATOM     27  C   UNL A   1      34.480  31.105  27.957  1.00  0.00     0.338 C 
ATOM     28  O   UNL A   1      33.447  30.576  27.584  1.00  0.00    -0.246 OA
BRANCH  27  29
ATOM     29  C   UNL A   1      35.712  30.340  28.202  1.00  0.00     0.060 A 
ATOM     30  C   UNL A   1      35.870  29.722  29.450  1.00  0.00     0.016 A 
ATOM     31  C   UNL A   1      36.739  30.317  27.259  1.00  0.00     0.016 A 
ATOM     32  C   UNL A   1      37.072  29.102  29.773  1.00  0.00     0.010 A 
ATOM     33  C   UNL A   1      37.950  29.706  27.590  1.00  0.00     0.010 A 
ATOM     34  C   UNL A   1      38.133  29.125  28.859  1.00  0.00    -0.014 A 
BRANCH  34  35
ATOM     35  C   UNL A   1      39.476  28.671  29.289  1.00  0.00     0.031 A 
ATOM     36  C   UNL A   1      40.267  29.529  30.239  1.00  0.00     0.074 A 
ATOM     37  C   UNL A   1      39.968  27.492  28.869  1.00  0.00     0.049 A 
ATOM     38  N   UNL A   1      41.473  29.343  30.711  1.00  0.00    -0.248 NA
ATOM     39  C   UNL A   1      39.614  30.758  30.721  1.00  0.00     0.031 C 
ATOM     40  C   UNL A   1      39.271  26.548  27.997  1.00  0.00     0.029 A 
ATOM     41  N   UNL A   1      41.173  26.887  29.127  1.00  0.00    -0.354 N 
ATOM     42  C   UNL A   1      41.723  30.430  31.540  1.00  0.00     0.074 A 
ATOM     43  C   UNL A   1      40.564  31.291  31.478  1.00  0.00     0.031 C 
ATOM     44  C   UNL A   1      40.058  25.478  27.796  1.00  0.00     0.029 A 
ATOM     45  C   UNL A   1      41.330  25.683  28.486  1.00  0.00     0.049 A 
ATOM     46  H   UNL A   1      41.858  27.280  29.713  1.00  0.00     0.167 HD
ATOM     47  C   UNL A   1      42.819  30.679  32.294  1.00  0.00     0.031 A 
ATOM     48  C   UNL A   1      42.389  24.850  28.446  1.00  0.00     0.031 A 
ATOM     49  C   UNL A   1      43.971  29.820  32.352  1.00  0.00     0.049 A 
ATOM     50  C   UNL A   1      43.634  25.204  29.215  1.00  0.00     0.074 A 
ATOM     51  C   UNL A   1      45.127  29.986  33.095  1.00  0.00     0.029 A 
ATOM     52  N   UNL A   1      44.116  28.639  31.643  1.00  0.00    -0.354 N 
ATOM     53  N   UNL A   1      43.854  26.226  30.009  1.00  0.00    -0.248 NA
ATOM     54  C   UNL A   1      44.777  24.288  29.089  1.00  0.00     0.031 C 
ATOM     55  C   UNL A   1      45.999  28.943  32.781  1.00  0.00     0.029 A 
ATOM     56  C   UNL A   1      45.357  28.084  31.905  1.00  0.00     0.049 A 
ATOM     57  H   UNL A   1      43.437  28.253  31.043  1.00  0.00     0.167 HD
ATOM     58  C   UNL A   1      45.143  26.057  30.498  1.00  0.00     0.074 A 
ATOM     59  C   UNL A   1      45.650  24.826  29.929  1.00  0.00     0.031 C 
ATOM     60  C   UNL A   1      45.847  26.854  31.339  1.00  0.00     0.031 A 
BRANCH  47  61
ATOM     61  C   UNL A   1      42.840  31.935  33.119  1.00  0.00    -0.014 A 
ATOM     62  C   UNL A   1      43.339  33.138  32.597  1.00  0.00     0.009 A 
ATOM     63  C   UNL A   1      42.256  31.939  34.397  1.00  0.00     0.009 A 
ATOM     64  C   UNL A   1      43.261  34.317  33.341  1.00  0.00     0.001 A 
ATOM     65  C   UNL A   1      42.153  33.124  35.125  1.00  0.00     0.001 A 
ATOM     66  C   UNL A   1      42.657  34.312  34.599  1.00  0.00     0.000 A 
ENDBRANCH  47  61
BRANCH  48  67
ATOM     67  C   UNL A   1      42.326  23.601  27.639  1.00  0.00    -0.014 A 
ATOM     68  C   UNL A   1      41.890  22.398  28.216  1.00  0.00     0.009 A 
ATOM     69  C   UNL A   1      42.715  23.599  26.289  1.00  0.00     0.009 A 
ATOM     70  C   UNL A   1      41.869  21.218  27.468  1.00  0.00     0.001 A 
ATOM     71  C   UNL A   1      42.658  22.427  25.533  1.00  0.00     0.001 A 
ATOM     72  C   UNL A   1      42.246  21.235  26.126  1.00  0.00     0.000 A 
ENDBRANCH  48  67
BRANCH  60  73
ATOM     73  C   UNL A   1      47.232  26.415  31.729  1.00  0.00    -0.014 A 
ATOM     74  C   UNL A   1      48.361  26.842  31.013  1.00  0.00     0.009 A 
ATOM     75  C   UNL A   1      47.417  25.637  32.885  1.00  0.00     0.009 A 
ATOM     76  C   UNL A   1      49.642  26.478  31.431  1.00  0.00     0.001 A 
ATOM     77  C   UNL A   1      48.701  25.306  33.320  1.00  0.00     0.001 A 
ATOM     78  C   UNL A   1      49.812  25.720  32.589  1.00  0.00     0.000 A 
ENDBRANCH  60  73
ENDBRANCH  34  35
ENDBRANCH  27  29
ENDBRANCH  26  27
ENDBRANCH  25  26
ENDBRANCH   1  25
TORSDOF 16
ENDMDL
MODEL 3
REMARK VINA RESULT:     -10.5      4.252      8.228
REMARK SMILES C#Cc1cc(Cl)c2c(c1)C=C(C(=O)OCCOCCOC(=O)c1ccc(-c3c4nc(c(-c5ccccc5)c5ccc([nH]5)c(-c5ccccc5)c5nc(c(-c6ccccc6)c6ccc3[nH]6)C=C5)C=C4)cc1)[C@@H](C(F)(F)F)O2
REMARK SMILES IDX 18 1 17 2 16 3 15 4 14 5 12 6 13 7 11 8 3 9 4 10 9 11 5 12
REMARK SMILES IDX 8 13 6 14 7 15 10 16 76 17 71 18 2 19 1 20 72 21 73 22 74 23
REMARK SMILES IDX 75 24 19 25 20 26 21 27 22 28 23 29 24 30 70 31 25 32 69 33
REMARK SMILES IDX 26 34 27 35 28 36 63 37 29 38 68 39 62 40 64 41 30 42 67 43
REMARK SMILES IDX 61 44 60 45 31 47 53 48 38 49 52 50 39 51 42 52 51 53 65 54
REMARK SMILES IDX 40 55 41 56 50 58 66 59 43 60 32 61 33 62 37 63 34 64 36 65
REMARK SMILES IDX 35 66 54 67 55 68 59 69 56 70 58 71 57 72 44 73 45 74 49 75
REMARK SMILES IDX 46 76 48 77 47 78
REMARK H PARENT 64 46 42 57
REMARK Flexibility Score: inf
ROOT
ATOM      1  C   UNL A   1      38.810  21.547  25.834  1.00  0.00     0.202 C 
ENDROOT
BRANCH   1   2
ATOM      2  O   UNL A   1      37.629  21.950  25.145  1.00  0.00    -0.374 OA
BRANCH   2   3
ATOM      3  C   UNL A   1      36.533  21.047  25.057  1.00  0.00     0.202 C 
BRANCH   3   4
ATOM      4  C   UNL A   1      35.111  21.604  24.945  1.00  0.00     0.261 C 
BRANCH   4   5
ATOM      5  O   UNL A   1      35.084  23.034  24.865  1.00  0.00    -0.460 OA
BRANCH   5   6
ATOM      6  C   UNL A   1      34.932  23.510  23.606  1.00  0.00     0.338 C 
ATOM      7  O   UNL A   1      35.428  23.059  22.587  1.00  0.00    -0.246 OA
BRANCH   6   8
ATOM      8  C   UNL A   1      33.942  24.604  23.607  1.00  0.00     0.087 C 
ATOM      9  C   UNL A   1      32.551  28.734  25.617  1.00  0.00     0.027 A 
ATOM     10  C   UNL A   1      31.290  28.598  25.037  1.00  0.00     0.041 A 
ATOM     11  C   UNL A   1      33.552  27.805  25.330  1.00  0.00     0.029 A 
ATOM     12  C   UNL A   1      31.041  27.544  24.153  1.00  0.00     0.084 A 
ATOM     13  C   UNL A   1      33.287  26.726  24.480  1.00  0.00     0.020 A 
ATOM     14  Cl  UNL A   1      29.462  27.410  23.465  1.00  0.00    -0.080 Cl
ATOM     15  C   UNL A   1      32.037  26.601  23.866  1.00  0.00     0.146 A 
ATOM     16  C   UNL A   1      34.286  25.689  24.309  1.00  0.00     0.027 C 
ATOM     17  O   UNL A   1      31.745  25.595  22.986  1.00  0.00    -0.474 OA
ATOM     18  C   UNL A   1      32.635  24.449  22.884  1.00  0.00     0.316 C 
BRANCH   9  19
ATOM     19  C   UNL A   1      32.813  29.794  26.537  1.00  0.00    -0.070 C 
ATOM     20  C   UNL A   1      33.040  30.672  27.328  1.00  0.00     0.010 C 
ENDBRANCH   9  19
BRANCH  18  21
ATOM     21  C   UNL A   1      31.867  23.192  23.319  1.00  0.00     0.430 C 
ATOM     22  F   UNL A   1      31.981  22.981  24.651  1.00  0.00    -0.167 F 
ATOM     23  F   UNL A   1      30.543  23.296  23.057  1.00  0.00    -0.167 F 
ATOM     24  F   UNL A   1      32.318  22.084  22.689  1.00  0.00    -0.167 F 
ENDBRANCH  18  21
ENDBRANCH   6   8
ENDBRANCH   5   6
ENDBRANCH   4   5
ENDBRANCH   3   4
ENDBRANCH   2   3
ENDBRANCH   1   2
BRANCH   1  25
ATOM     25  C   UNL A   1      39.391  20.143  25.613  1.00  0.00     0.261 C 
BRANCH  25  26
ATOM     26  O   UNL A   1      40.402  19.769  26.564  1.00  0.00    -0.460 OA
BRANCH  26  27
ATOM     27  C   UNL A   1      41.672  19.918  26.110  1.00  0.00     0.338 C 
ATOM     28  O   UNL A   1      42.264  19.213  25.312  1.00  0.00    -0.246 OA
BRANCH  27  29
ATOM     29  C   UNL A   1      42.218  21.200  26.584  1.00  0.00     0.060 A 
ATOM     30  C   UNL A   1      42.202  21.456  27.963  1.00  0.00     0.016 A 
ATOM     31  C   UNL A   1      42.642  22.173  25.681  1.00  0.00     0.016 A 
ATOM     32  C   UNL A   1      42.584  22.704  28.443  1.00  0.00     0.010 A 
ATOM     33  C   UNL A   1      43.011  23.431  26.165  1.00  0.00     0.010 A 
ATOM     34  C   UNL A   1      42.952  23.711  27.543  1.00  0.00    -0.014 A 
BRANCH  34  35
ATOM     35  C   UNL A   1      43.134  25.097  28.034  1.00  0.00     0.031 A 
ATOM     36  C   UNL A   1      44.523  25.585  28.343  1.00  0.00     0.074 A 
ATOM     37  C   UNL A   1      42.080  25.922  28.163  1.00  0.00     0.049 A 
ATOM     38  N   UNL A   1      44.905  26.742  28.819  1.00  0.00    -0.248 NA
ATOM     39  C   UNL A   1      45.628  24.646  28.084  1.00  0.00     0.031 C 
ATOM     40  C   UNL A   1      40.696  25.584  27.837  1.00  0.00     0.029 A 
ATOM     41  N   UNL A   1      42.015  27.221  28.603  1.00  0.00    -0.354 N 
ATOM     42  C   UNL A   1      46.289  26.669  28.919  1.00  0.00     0.074 A 
ATOM     43  C   UNL A   1      46.679  25.344  28.493  1.00  0.00     0.031 C 
ATOM     44  C   UNL A   1      39.917  26.650  28.082  1.00  0.00     0.029 A 
ATOM     45  C   UNL A   1      40.739  27.729  28.626  1.00  0.00     0.049 A 
ATOM     46  H   UNL A   1      42.806  27.737  28.877  1.00  0.00     0.167 HD
ATOM     47  C   UNL A   1      47.157  27.627  29.318  1.00  0.00     0.031 A 
ATOM     48  C   UNL A   1      40.285  28.924  29.055  1.00  0.00     0.031 A 
ATOM     49  C   UNL A   1      46.765  28.945  29.743  1.00  0.00     0.049 A 
ATOM     50  C   UNL A   1      41.264  29.934  29.590  1.00  0.00     0.074 A 
ATOM     51  C   UNL A   1      47.575  29.987  30.159  1.00  0.00     0.029 A 
ATOM     52  N   UNL A   1      45.459  29.401  29.807  1.00  0.00    -0.354 N 
ATOM     53  N   UNL A   1      42.573  29.860  29.664  1.00  0.00    -0.248 NA
ATOM     54  C   UNL A   1      40.707  31.197  30.097  1.00  0.00     0.031 C 
ATOM     55  C   UNL A   1      46.755  31.049  30.541  1.00  0.00     0.029 A 
ATOM     56  C   UNL A   1      45.439  30.698  30.288  1.00  0.00     0.049 A 
ATOM     57  H   UNL A   1      44.664  28.880  29.549  1.00  0.00     0.167 HD
ATOM     58  C   UNL A   1      42.993  31.074  30.194  1.00  0.00     0.074 A 
ATOM     59  C   UNL A   1      41.804  31.874  30.405  1.00  0.00     0.031 C 
ATOM     60  C   UNL A   1      44.250  31.487  30.486  1.00  0.00     0.031 A 
BRANCH  47  61
ATOM     61  C   UNL A   1      48.623  27.295  29.329  1.00  0.00    -0.014 A 
ATOM     62  C   UNL A   1      49.221  26.683  30.440  1.00  0.00     0.009 A 
ATOM     63  C   UNL A   1      49.392  27.503  28.172  1.00  0.00     0.009 A 
ATOM     64  C   UNL A   1      50.561  26.292  30.395  1.00  0.00     0.001 A 
ATOM     65  C   UNL A   1      50.722  27.085  28.120  1.00  0.00     0.001 A 
ATOM     66  C   UNL A   1      51.306  26.482  29.232  1.00  0.00     0.000 A 
ENDBRANCH  47  61
BRANCH  48  67
ATOM     67  C   UNL A   1      38.829  29.229  29.008  1.00  0.00    -0.014 A 
ATOM     68  C   UNL A   1      38.240  29.722  27.833  1.00  0.00     0.009 A 
ATOM     69  C   UNL A   1      38.021  29.044  30.141  1.00  0.00     0.009 A 
ATOM     70  C   UNL A   1      36.882  30.046  27.802  1.00  0.00     0.001 A 
ATOM     71  C   UNL A   1      36.656  29.333  30.097  1.00  0.00     0.001 A 
ATOM     72  C   UNL A   1      36.089  29.845  28.932  1.00  0.00     0.000 A 
ENDBRANCH  48  67
BRANCH  60  73
ATOM     73  C   UNL A   1      44.425  32.877  31.036  1.00  0.00    -0.014 A 
ATOM     74  C   UNL A   1      44.620  33.977  30.187  1.00  0.00     0.009 A 
ATOM     75  C   UNL A   1      44.302  33.100  32.418  1.00  0.00     0.009 A 
ATOM     76  C   UNL A   1      44.713  35.267  30.712  1.00  0.00     0.001 A 
ATOM     77  C   UNL A   1      44.358  34.394  32.936  1.00  0.00     0.001 A 
ATOM     78  C   UNL A   1      44.571  35.476  32.085  1.00  0.00     0.000 A 
ENDBRANCH  60  73
ENDBRANCH  34  35
ENDBRANCH  27  29
ENDBRANCH  26  27
ENDBRANCH  25  26
ENDBRANCH   1  25
TORSDOF 16
ENDMDL
