MODEL 1
REMARK VINA RESULT:     -10.1      0.000      0.000
REMARK SMILES [NH3+][C@]1(C(=O)OCCOCCOC(=O)c2ccc(-c3c4nc(c(-c5ccccc5)c5ccc([nH]5)c(-c5ccccc5)c5nc(c(-c6ccccc6)c6ccc3[nH]6)C=C5)C=C4)cc2)CC[N@H+](Cc2ccccc2O)C1
REMARK SMILES IDX 7 1 6 2 5 3 3 4 4 5 2 6 62 7 73 8 63 9 64 10 1 12 65 16
REMARK SMILES IDX 66 17 67 18 71 19 68 20 70 21 69 22 72 23 8 25 9 26 10 27
REMARK SMILES IDX 11 28 12 29 13 30 14 31 15 32 61 33 16 34 60 35 17 36 18 37
REMARK SMILES IDX 19 38 54 39 20 40 59 41 53 42 55 43 21 44 58 45 52 46 51 47
REMARK SMILES IDX 22 49 44 50 29 51 43 52 30 53 33 54 42 55 56 56 31 57 32 58
REMARK SMILES IDX 41 60 57 61 34 62 23 63 24 64 28 65 25 66 27 67 26 68 45 69
REMARK SMILES IDX 46 70 50 71 47 72 49 73 48 74 35 75 36 76 40 77 37 78 39 79
REMARK SMILES IDX 38 80
REMARK H PARENT 64 11 1 13 1 14 1 15 72 24 55 48 33 59
REMARK Flexibility Score: inf
ROOT
ATOM      1  C   UNL A   1      34.672  33.486  28.781  1.00  0.00     0.202 C 
ENDROOT
BRANCH   1   2
ATOM      2  C   UNL A   1      35.194  32.349  27.897  1.00  0.00     0.261 C 
BRANCH   2   3
ATOM      3  O   UNL A   1      34.138  31.413  27.604  1.00  0.00    -0.458 OA
BRANCH   3   4
ATOM      4  C   UNL A   1      34.509  30.104  27.535  1.00  0.00     0.374 C 
ATOM      5  O   UNL A   1      35.357  29.589  28.256  1.00  0.00    -0.244 OA
BRANCH   4   6
ATOM      6  C   UNL A   1      33.689  29.322  26.486  1.00  0.00     0.246 C 
ATOM      7  C   UNL A   1      32.788  28.317  27.212  1.00  0.00     0.148 C 
ATOM      8  C   UNL A   1      32.639  30.160  25.721  1.00  0.00     0.344 C 
ATOM      9  C   UNL A   1      31.606  28.092  26.283  1.00  0.00     0.270 C 
ATOM     10  N   UNL A   1      31.494  29.280  25.438  1.00  0.00    -0.325 N 
ATOM     11  H   UNL A   1      30.647  29.788  25.695  1.00  0.00     0.348 HD
BRANCH   6  12
ATOM     12  N   UNL A   1      34.635  28.624  25.585  1.00  0.00    -0.338 N 
ATOM     13  H   UNL A   1      35.207  29.312  25.094  1.00  0.00     0.345 HD
ATOM     14  H   UNL A   1      34.114  28.069  24.907  1.00  0.00     0.345 HD
ATOM     15  H   UNL A   1      35.238  28.011  26.134  1.00  0.00     0.345 HD
ENDBRANCH   6  12
BRANCH  10  16
ATOM     16  C   UNL A   1      31.169  29.036  24.026  1.00  0.00     0.303 C 
BRANCH  16  17
ATOM     17  C   UNL A   1      29.954  29.766  23.483  1.00  0.00     0.048 A 
ATOM     18  C   UNL A   1      29.149  29.104  22.536  1.00  0.00     0.013 A 
ATOM     19  C   UNL A   1      29.517  31.013  23.948  1.00  0.00     0.124 A 
ATOM     20  C   UNL A   1      27.899  29.606  22.170  1.00  0.00     0.001 A 
ATOM     21  C   UNL A   1      28.256  31.503  23.609  1.00  0.00     0.046 A 
ATOM     22  C   UNL A   1      27.438  30.790  22.735  1.00  0.00     0.004 A 
BRANCH  19  23
ATOM     23  O   UNL A   1      30.250  31.813  24.774  1.00  0.00    -0.507 OA
ATOM     24  H   UNL A   1      29.844  32.224  25.512  1.00  0.00     0.293 HD
ENDBRANCH  19  23
ENDBRANCH  16  17
ENDBRANCH  10  16
ENDBRANCH   4   6
ENDBRANCH   3   4
ENDBRANCH   2   3
ENDBRANCH   1   2
BRANCH   1  25
ATOM     25  O   UNL A   1      34.254  33.139  30.102  1.00  0.00    -0.374 OA
BRANCH  25  26
ATOM     26  C   UNL A   1      34.361  34.137  31.113  1.00  0.00     0.202 C 
BRANCH  26  27
ATOM     27  C   UNL A   1      34.533  33.649  32.556  1.00  0.00     0.261 C 
BRANCH  27  28
ATOM     28  O   UNL A   1      35.077  32.318  32.614  1.00  0.00    -0.460 OA
BRANCH  28  29
ATOM     29  C   UNL A   1      36.261  32.214  33.259  1.00  0.00     0.338 C 
ATOM     30  O   UNL A   1      36.491  32.455  34.435  1.00  0.00    -0.246 OA
BRANCH  29  31
ATOM     31  C   UNL A   1      37.243  31.552  32.381  1.00  0.00     0.060 A 
ATOM     32  C   UNL A   1      38.329  30.918  32.996  1.00  0.00     0.016 A 
ATOM     33  C   UNL A   1      37.132  31.578  30.989  1.00  0.00     0.016 A 
ATOM     34  C   UNL A   1      39.328  30.333  32.224  1.00  0.00     0.010 A 
ATOM     35  C   UNL A   1      38.144  31.003  30.213  1.00  0.00     0.010 A 
ATOM     36  C   UNL A   1      39.259  30.401  30.826  1.00  0.00    -0.014 A 
BRANCH  36  37
ATOM     37  C   UNL A   1      40.414  29.939  30.019  1.00  0.00     0.031 A 
ATOM     38  C   UNL A   1      41.548  30.888  29.747  1.00  0.00     0.074 A 
ATOM     39  C   UNL A   1      40.473  28.672  29.572  1.00  0.00     0.049 A 
ATOM     40  N   UNL A   1      42.645  30.691  29.063  1.00  0.00    -0.248 NA
ATOM     41  C   UNL A   1      41.432  32.237  30.325  1.00  0.00     0.031 C 
ATOM     42  C   UNL A   1      39.464  27.642  29.813  1.00  0.00     0.029 A 
ATOM     43  N   UNL A   1      41.429  28.039  28.819  1.00  0.00    -0.354 N 
ATOM     44  C   UNL A   1      43.348  31.889  29.122  1.00  0.00     0.074 A 
ATOM     45  C   UNL A   1      42.539  32.815  29.885  1.00  0.00     0.031 C 
ATOM     46  C   UNL A   1      39.854  26.504  29.214  1.00  0.00     0.029 A 
ATOM     47  C   UNL A   1      41.118  26.736  28.519  1.00  0.00     0.049 A 
ATOM     48  H   UNL A   1      42.259  28.477  28.522  1.00  0.00     0.167 HD
ATOM     49  C   UNL A   1      44.558  32.188  28.593  1.00  0.00     0.031 A 
ATOM     50  C   UNL A   1      41.766  25.839  27.750  1.00  0.00     0.031 A 
ATOM     51  C   UNL A   1      45.356  31.272  27.822  1.00  0.00     0.049 A 
ATOM     52  C   UNL A   1      43.065  26.229  27.096  1.00  0.00     0.074 A 
ATOM     53  C   UNL A   1      46.604  31.478  27.262  1.00  0.00     0.029 A 
ATOM     54  N   UNL A   1      44.978  29.980  27.492  1.00  0.00    -0.354 N 
ATOM     55  N   UNL A   1      43.733  27.353  27.185  1.00  0.00    -0.248 NA
ATOM     56  C   UNL A   1      43.701  25.220  26.236  1.00  0.00     0.031 C 
ATOM     57  C   UNL A   1      46.951  30.336  26.534  1.00  0.00     0.029 A 
ATOM     58  C   UNL A   1      45.950  29.392  26.700  1.00  0.00     0.049 A 
ATOM     59  H   UNL A   1      44.143  29.545  27.777  1.00  0.00     0.167 HD
ATOM     60  C   UNL A   1      44.876  27.180  26.415  1.00  0.00     0.074 A 
ATOM     61  C   UNL A   1      44.822  25.833  25.884  1.00  0.00     0.031 C 
ATOM     62  C   UNL A   1      45.881  28.055  26.169  1.00  0.00     0.031 A 
BRANCH  49  63
ATOM     63  C   UNL A   1      45.078  33.584  28.796  1.00  0.00    -0.014 A 
ATOM     64  C   UNL A   1      44.813  34.607  27.872  1.00  0.00     0.009 A 
ATOM     65  C   UNL A   1      45.805  33.890  29.957  1.00  0.00     0.009 A 
ATOM     66  C   UNL A   1      45.291  35.900  28.093  1.00  0.00     0.001 A 
ATOM     67  C   UNL A   1      46.256  35.191  30.190  1.00  0.00     0.001 A 
ATOM     68  C   UNL A   1      46.005  36.193  29.254  1.00  0.00     0.000 A 
ENDBRANCH  49  63
BRANCH  50  69
ATOM     69  C   UNL A   1      41.182  24.490  27.523  1.00  0.00    -0.014 A 
ATOM     70  C   UNL A   1      40.092  24.313  26.658  1.00  0.00     0.009 A 
ATOM     71  C   UNL A   1      41.698  23.373  28.200  1.00  0.00     0.009 A 
ATOM     72  C   UNL A   1      39.515  23.051  26.497  1.00  0.00     0.001 A 
ATOM     73  C   UNL A   1      41.140  22.108  28.012  1.00  0.00     0.001 A 
ATOM     74  C   UNL A   1      40.042  21.950  27.169  1.00  0.00     0.000 A 
ENDBRANCH  50  69
BRANCH  62  75
ATOM     75  C   UNL A   1      47.017  27.578  25.305  1.00  0.00    -0.014 A 
ATOM     76  C   UNL A   1      47.053  27.850  23.929  1.00  0.00     0.009 A 
ATOM     77  C   UNL A   1      48.087  26.877  25.886  1.00  0.00     0.009 A 
ATOM     78  C   UNL A   1      48.118  27.399  23.146  1.00  0.00     0.001 A 
ATOM     79  C   UNL A   1      49.166  26.457  25.108  1.00  0.00     0.001 A 
ATOM     80  C   UNL A   1      49.176  26.708  23.737  1.00  0.00     0.000 A 
ENDBRANCH  62  75
ENDBRANCH  36  37
ENDBRANCH  29  31
ENDBRANCH  28  29
ENDBRANCH  27  28
ENDBRANCH  26  27
ENDBRANCH  25  26
ENDBRANCH   1  25
TORSDOF 18
ENDMDL
MODEL 2
REMARK VINA RESULT:     -10.1      4.226      7.175
REMARK SMILES [NH3+][C@]1(C(=O)OCCOCCOC(=O)c2ccc(-c3c4nc(c(-c5ccccc5)c5ccc([nH]5)c(-c5ccccc5)c5nc(c(-c6ccccc6)c6ccc3[nH]6)C=C5)C=C4)cc2)CC[N@H+](Cc2ccccc2O)C1
REMARK SMILES IDX 7 1 6 2 5 3 3 4 4 5 2 6 62 7 73 8 63 9 64 10 1 12 65 16
REMARK SMILES IDX 66 17 67 18 71 19 68 20 70 21 69 22 72 23 8 25 9 26 10 27
REMARK SMILES IDX 11 28 12 29 13 30 14 31 15 32 61 33 16 34 60 35 17 36 18 37
REMARK SMILES IDX 19 38 54 39 20 40 59 41 53 42 55 43 21 44 58 45 52 46 51 47
REMARK SMILES IDX 22 49 44 50 29 51 43 52 30 53 33 54 42 55 56 56 31 57 32 58
REMARK SMILES IDX 41 60 57 61 34 62 23 63 24 64 28 65 25 66 27 67 26 68 45 69
REMARK SMILES IDX 46 70 50 71 47 72 49 73 48 74 35 75 36 76 40 77 37 78 39 79
REMARK SMILES IDX 38 80
REMARK H PARENT 64 11 1 13 1 14 1 15 72 24 55 48 33 59
REMARK Flexibility Score: inf
ROOT
ATOM      1  C   UNL A   1      32.842  36.227  29.747  1.00  0.00     0.202 C 
ENDROOT
BRANCH   1   2
ATOM      2  C   UNL A   1      32.721  36.621  31.223  1.00  0.00     0.261 C 
BRANCH   2   3
ATOM      3  O   UNL A   1      34.023  36.674  31.838  1.00  0.00    -0.458 OA
BRANCH   3   4
ATOM      4  C   UNL A   1      34.065  36.361  33.164  1.00  0.00     0.374 C 
ATOM      5  O   UNL A   1      33.583  37.056  34.052  1.00  0.00    -0.244 OA
BRANCH   4   6
ATOM      6  C   UNL A   1      34.733  34.992  33.416  1.00  0.00     0.246 C 
ATOM      7  C   UNL A   1      33.814  33.888  32.881  1.00  0.00     0.148 C 
ATOM      8  C   UNL A   1      36.017  34.731  32.596  1.00  0.00     0.344 C 
ATOM      9  C   UNL A   1      34.736  32.727  32.543  1.00  0.00     0.270 C 
ATOM     10  N   UNL A   1      36.061  33.292  32.292  1.00  0.00    -0.325 N 
ATOM     11  H   UNL A   1      36.279  33.194  31.300  1.00  0.00     0.348 HD
BRANCH   6  12
ATOM     12  N   UNL A   1      34.942  34.840  34.875  1.00  0.00    -0.338 N 
ATOM     13  H   UNL A   1      34.422  34.030  35.210  1.00  0.00     0.345 HD
ATOM     14  H   UNL A   1      34.614  35.678  35.355  1.00  0.00     0.345 HD
ATOM     15  H   UNL A   1      35.936  34.708  35.063  1.00  0.00     0.345 HD
ENDBRANCH   6  12
BRANCH  10  16
ATOM     16  C   UNL A   1      37.196  32.528  32.829  1.00  0.00     0.303 C 
BRANCH  16  17
ATOM     17  C   UNL A   1      38.146  33.289  33.735  1.00  0.00     0.048 A 
ATOM     18  C   UNL A   1      39.235  33.960  33.145  1.00  0.00     0.013 A 
ATOM     19  C   UNL A   1      37.945  33.462  35.112  1.00  0.00     0.124 A 
ATOM     20  C   UNL A   1      40.008  34.865  33.874  1.00  0.00     0.001 A 
ATOM     21  C   UNL A   1      38.695  34.389  35.834  1.00  0.00     0.046 A 
ATOM     22  C   UNL A   1      39.714  35.106  35.211  1.00  0.00     0.004 A 
BRANCH  19  23
ATOM     23  O   UNL A   1      37.004  32.786  35.830  1.00  0.00    -0.507 OA
ATOM     24  H   UNL A   1      36.840  33.017  36.723  1.00  0.00     0.293 HD
ENDBRANCH  19  23
ENDBRANCH  16  17
ENDBRANCH  10  16
ENDBRANCH   4   6
ENDBRANCH   3   4
ENDBRANCH   2   3
ENDBRANCH   1   2
BRANCH   1  25
ATOM     25  O   UNL A   1      32.660  34.846  29.430  1.00  0.00    -0.374 OA
BRANCH  25  26
ATOM     26  C   UNL A   1      33.524  34.273  28.452  1.00  0.00     0.202 C 
BRANCH  26  27
ATOM     27  C   UNL A   1      34.416  33.112  28.905  1.00  0.00     0.261 C 
BRANCH  27  28
ATOM     28  O   UNL A   1      34.868  32.315  27.796  1.00  0.00    -0.460 OA
BRANCH  28  29
ATOM     29  C   UNL A   1      34.641  30.987  27.920  1.00  0.00     0.338 C 
ATOM     30  O   UNL A   1      33.601  30.386  27.695  1.00  0.00    -0.246 OA
BRANCH  29  31
ATOM     31  C   UNL A   1      35.916  30.292  28.175  1.00  0.00     0.060 A 
ATOM     32  C   UNL A   1      36.078  29.687  29.427  1.00  0.00     0.016 A 
ATOM     33  C   UNL A   1      36.947  30.262  27.234  1.00  0.00     0.016 A 
ATOM     34  C   UNL A   1      37.282  29.074  29.759  1.00  0.00     0.010 A 
ATOM     35  C   UNL A   1      38.163  29.659  27.573  1.00  0.00     0.010 A 
ATOM     36  C   UNL A   1      38.345  29.085  28.846  1.00  0.00    -0.014 A 
BRANCH  36  37
ATOM     37  C   UNL A   1      39.676  28.595  29.276  1.00  0.00     0.031 A 
ATOM     38  C   UNL A   1      40.501  29.432  30.214  1.00  0.00     0.074 A 
ATOM     39  C   UNL A   1      40.125  27.393  28.873  1.00  0.00     0.049 A 
ATOM     40  N   UNL A   1      41.689  29.193  30.708  1.00  0.00    -0.248 NA
ATOM     41  C   UNL A   1      39.908  30.704  30.656  1.00  0.00     0.031 C 
ATOM     42  C   UNL A   1      39.399  26.465  28.007  1.00  0.00     0.029 A 
ATOM     43  N   UNL A   1      41.307  26.750  29.141  1.00  0.00    -0.354 N 
ATOM     44  C   UNL A   1      41.989  30.286  31.513  1.00  0.00     0.074 A 
ATOM     45  C   UNL A   1      40.871  31.200  31.419  1.00  0.00     0.031 C 
ATOM     46  C   UNL A   1      40.155  25.371  27.813  1.00  0.00     0.029 A 
ATOM     47  C   UNL A   1      41.429  25.538  28.507  1.00  0.00     0.049 A 
ATOM     48  H   UNL A   1      42.002  27.122  29.732  1.00  0.00     0.167 HD
ATOM     49  C   UNL A   1      43.093  30.505  32.266  1.00  0.00     0.031 A 
ATOM     50  C   UNL A   1      42.462  24.672  28.472  1.00  0.00     0.031 A 
ATOM     51  C   UNL A   1      44.212  29.603  32.348  1.00  0.00     0.049 A 
ATOM     52  C   UNL A   1      43.716  24.986  29.244  1.00  0.00     0.074 A 
ATOM     53  C   UNL A   1      45.367  29.731  33.100  1.00  0.00     0.029 A 
ATOM     54  N   UNL A   1      44.321  28.414  31.646  1.00  0.00    -0.354 N 
ATOM     55  N   UNL A   1      43.974  26.007  30.025  1.00  0.00    -0.248 NA
ATOM     56  C   UNL A   1      44.821  24.022  29.129  1.00  0.00     0.031 C 
ATOM     57  C   UNL A   1      46.205  28.653  32.799  1.00  0.00     0.029 A 
ATOM     58  C   UNL A   1      45.542  27.819  31.914  1.00  0.00     0.049 A 
ATOM     59  H   UNL A   1      43.633  28.047  31.045  1.00  0.00     0.167 HD
ATOM     60  C   UNL A   1      45.258  25.797  30.513  1.00  0.00     0.074 A 
ATOM     61  C   UNL A   1      45.717  24.541  29.957  1.00  0.00     0.031 C 
ATOM     62  C   UNL A   1      45.992  26.573  31.347  1.00  0.00     0.031 A 
BRANCH  49  63
ATOM     63  C   UNL A   1      43.166  31.796  33.033  1.00  0.00    -0.014 A 
ATOM     64  C   UNL A   1      42.855  31.856  34.401  1.00  0.00     0.009 A 
ATOM     65  C   UNL A   1      43.601  32.963  32.385  1.00  0.00     0.009 A 
ATOM     66  C   UNL A   1      42.950  33.063  35.095  1.00  0.00     0.001 A 
ATOM     67  C   UNL A   1      43.724  34.162  33.089  1.00  0.00     0.001 A 
ATOM     68  C   UNL A   1      43.391  34.213  34.441  1.00  0.00     0.000 A 
ENDBRANCH  49  63
BRANCH  50  69
ATOM     69  C   UNL A   1      42.372  23.438  27.646  1.00  0.00    -0.014 A 
ATOM     70  C   UNL A   1      41.914  22.233  28.200  1.00  0.00     0.009 A 
ATOM     71  C   UNL A   1      42.775  23.456  26.302  1.00  0.00     0.009 A 
ATOM     72  C   UNL A   1      41.888  21.067  27.431  1.00  0.00     0.001 A 
ATOM     73  C   UNL A   1      42.716  22.297  25.526  1.00  0.00     0.001 A 
ATOM     74  C   UNL A   1      42.283  21.101  26.095  1.00  0.00     0.000 A 
ENDBRANCH  50  69
BRANCH  62  75
ATOM     75  C   UNL A   1      47.361  26.076  31.728  1.00  0.00    -0.014 A 
ATOM     76  C   UNL A   1      47.602  25.489  32.980  1.00  0.00     0.009 A 
ATOM     77  C   UNL A   1      48.415  26.163  30.804  1.00  0.00     0.009 A 
ATOM     78  C   UNL A   1      48.879  25.033  33.313  1.00  0.00     0.001 A 
ATOM     79  C   UNL A   1      49.683  25.675  31.127  1.00  0.00     0.001 A 
ATOM     80  C   UNL A   1      49.916  25.121  32.384  1.00  0.00     0.000 A 
ENDBRANCH  62  75
ENDBRANCH  36  37
ENDBRANCH  29  31
ENDBRANCH  28  29
ENDBRANCH  27  28
ENDBRANCH  26  27
ENDBRANCH  25  26
ENDBRANCH   1  25
TORSDOF 18
ENDMDL
MODEL 3
REMARK VINA RESULT:     -10.0      4.870     11.195
REMARK SMILES [NH3+][C@]1(C(=O)OCCOCCOC(=O)c2ccc(-c3c4nc(c(-c5ccccc5)c5ccc([nH]5)c(-c5ccccc5)c5nc(c(-c6ccccc6)c6ccc3[nH]6)C=C5)C=C4)cc2)CC[N@H+](Cc2ccccc2O)C1
REMARK SMILES IDX 7 1 6 2 5 3 3 4 4 5 2 6 62 7 73 8 63 9 64 10 1 12 65 16
REMARK SMILES IDX 66 17 67 18 71 19 68 20 70 21 69 22 72 23 8 25 9 26 10 27
REMARK SMILES IDX 11 28 12 29 13 30 14 31 15 32 61 33 16 34 60 35 17 36 18 37
REMARK SMILES IDX 19 38 54 39 20 40 59 41 53 42 55 43 21 44 58 45 52 46 51 47
REMARK SMILES IDX 22 49 44 50 29 51 43 52 30 53 33 54 42 55 56 56 31 57 32 58
REMARK SMILES IDX 41 60 57 61 34 62 23 63 24 64 28 65 25 66 27 67 26 68 45 69
REMARK SMILES IDX 46 70 50 71 47 72 49 73 48 74 35 75 36 76 40 77 37 78 39 79
REMARK SMILES IDX 38 80
REMARK H PARENT 64 11 1 13 1 14 1 15 72 24 55 48 33 59
REMARK Flexibility Score: inf
ROOT
ATOM      1  C   UNL A   1      42.103  19.412  26.232  1.00  0.00     0.202 C 
ENDROOT
BRANCH   1   2
ATOM      2  C   UNL A   1      43.456  19.198  25.544  1.00  0.00     0.261 C 
BRANCH   2   3
ATOM      3  O   UNL A   1      43.756  20.302  24.668  1.00  0.00    -0.458 OA
BRANCH   3   4
ATOM      4  C   UNL A   1      44.671  21.197  25.136  1.00  0.00     0.374 C 
ATOM      5  O   UNL A   1      45.864  20.951  25.280  1.00  0.00    -0.244 OA
BRANCH   4   6
ATOM      6  C   UNL A   1      44.045  22.583  25.402  1.00  0.00     0.246 C 
ATOM      7  C   UNL A   1      44.028  22.835  26.914  1.00  0.00     0.148 C 
ATOM      8  C   UNL A   1      44.886  23.784  24.913  1.00  0.00     0.344 C 
ATOM      9  C   UNL A   1      44.056  24.347  27.071  1.00  0.00     0.270 C 
ATOM     10  N   UNL A   1      44.666  24.891  25.858  1.00  0.00    -0.325 N 
ATOM     11  H   UNL A   1      45.579  25.279  26.094  1.00  0.00     0.348 HD
BRANCH   6  12
ATOM     12  N   UNL A   1      42.669  22.583  24.854  1.00  0.00    -0.338 N 
ATOM     13  H   UNL A   1      41.999  22.491  25.617  1.00  0.00     0.345 HD
ATOM     14  H   UNL A   1      42.559  21.801  24.209  1.00  0.00     0.345 HD
ATOM     15  H   UNL A   1      42.502  23.458  24.358  1.00  0.00     0.345 HD
ENDBRANCH   6  12
BRANCH  10  16
ATOM     16  C   UNL A   1      44.053  26.115  25.325  1.00  0.00     0.303 C 
BRANCH  16  17
ATOM     17  C   UNL A   1      44.831  27.400  25.537  1.00  0.00     0.048 A 
ATOM     18  C   UNL A   1      44.243  28.412  26.322  1.00  0.00     0.013 A 
ATOM     19  C   UNL A   1      46.146  27.602  25.098  1.00  0.00     0.124 A 
ATOM     20  C   UNL A   1      44.982  29.514  26.755  1.00  0.00     0.001 A 
ATOM     21  C   UNL A   1      46.897  28.685  25.554  1.00  0.00     0.046 A 
ATOM     22  C   UNL A   1      46.322  29.631  26.399  1.00  0.00     0.004 A 
BRANCH  19  23
ATOM     23  O   UNL A   1      46.795  26.762  24.241  1.00  0.00    -0.507 OA
ATOM     24  H   UNL A   1      47.728  26.803  24.159  1.00  0.00     0.293 HD
ENDBRANCH  19  23
ENDBRANCH  16  17
ENDBRANCH  10  16
ENDBRANCH   4   6
ENDBRANCH   3   4
ENDBRANCH   2   3
ENDBRANCH   1   2
BRANCH   1  25
ATOM     25  O   UNL A   1      42.062  20.366  27.294  1.00  0.00    -0.374 OA
BRANCH  25  26
ATOM     26  C   UNL A   1      40.804  20.961  27.600  1.00  0.00     0.202 C 
BRANCH  26  27
ATOM     27  C   UNL A   1      39.766  21.011  26.474  1.00  0.00     0.261 C 
BRANCH  27  28
ATOM     28  O   UNL A   1      39.820  22.251  25.745  1.00  0.00    -0.460 OA
BRANCH  28  29
ATOM     29  C   UNL A   1      38.868  23.151  26.082  1.00  0.00     0.338 C 
ATOM     30  O   UNL A   1      37.656  23.009  26.021  1.00  0.00    -0.246 OA
BRANCH  29  31
ATOM     31  C   UNL A   1      39.497  24.303  26.753  1.00  0.00     0.060 A 
ATOM     32  C   UNL A   1      39.192  24.503  28.105  1.00  0.00     0.016 A 
ATOM     33  C   UNL A   1      40.335  25.191  26.075  1.00  0.00     0.016 A 
ATOM     34  C   UNL A   1      39.696  25.610  28.780  1.00  0.00     0.010 A 
ATOM     35  C   UNL A   1      40.830  26.312  26.751  1.00  0.00     0.010 A 
ATOM     36  C   UNL A   1      40.492  26.540  28.099  1.00  0.00    -0.014 A 
BRANCH  36  37
ATOM     37  C   UNL A   1      40.870  27.804  28.774  1.00  0.00     0.031 A 
ATOM     38  C   UNL A   1      39.848  28.898  28.916  1.00  0.00     0.074 A 
ATOM     39  C   UNL A   1      42.099  27.959  29.298  1.00  0.00     0.049 A 
ATOM     40  N   UNL A   1      39.971  30.079  29.465  1.00  0.00    -0.248 NA
ATOM     41  C   UNL A   1      38.509  28.623  28.370  1.00  0.00     0.031 C 
ATOM     42  C   UNL A   1      43.162  26.955  29.273  1.00  0.00     0.029 A 
ATOM     43  N   UNL A   1      42.658  29.026  29.955  1.00  0.00    -0.354 N 
ATOM     44  C   UNL A   1      38.731  30.691  29.326  1.00  0.00     0.074 A 
ATOM     45  C   UNL A   1      37.878  29.761  28.616  1.00  0.00     0.031 C 
ATOM     46  C   UNL A   1      44.248  27.457  29.885  1.00  0.00     0.029 A 
ATOM     47  C   UNL A   1      43.970  28.827  30.309  1.00  0.00     0.049 A 
ATOM     48  H   UNL A   1      42.166  29.856  30.152  1.00  0.00     0.167 HD
ATOM     49  C   UNL A   1      38.336  31.913  29.755  1.00  0.00     0.031 A 
ATOM     50  C   UNL A   1      44.853  29.664  30.889  1.00  0.00     0.031 A 
ATOM     51  C   UNL A   1      39.188  32.844  30.447  1.00  0.00     0.049 A 
ATOM     52  C   UNL A   1      44.414  31.052  31.271  1.00  0.00     0.074 A 
ATOM     53  C   UNL A   1      38.872  34.099  30.938  1.00  0.00     0.029 A 
ATOM     54  N   UNL A   1      40.526  32.627  30.736  1.00  0.00    -0.354 N 
ATOM     55  N   UNL A   1      43.231  31.607  31.162  1.00  0.00    -0.248 NA
ATOM     56  C   UNL A   1      45.437  31.930  31.861  1.00  0.00     0.031 C 
ATOM     57  C   UNL A   1      40.036  34.668  31.462  1.00  0.00     0.029 A 
ATOM     58  C   UNL A   1      41.060  33.741  31.361  1.00  0.00     0.049 A 
ATOM     59  H   UNL A   1      41.023  31.803  30.528  1.00  0.00     0.167 HD
ATOM     60  C   UNL A   1      43.360  32.885  31.690  1.00  0.00     0.074 A 
ATOM     61  C   UNL A   1      44.731  33.017  32.138  1.00  0.00     0.031 C 
ATOM     62  C   UNL A   1      42.428  33.864  31.794  1.00  0.00     0.031 A 
BRANCH  49  63
ATOM     63  C   UNL A   1      36.926  32.335  29.449  1.00  0.00    -0.014 A 
ATOM     64  C   UNL A   1      35.888  32.156  30.377  1.00  0.00     0.009 A 
ATOM     65  C   UNL A   1      36.642  32.969  28.228  1.00  0.00     0.009 A 
ATOM     66  C   UNL A   1      34.591  32.576  30.076  1.00  0.00     0.001 A 
ATOM     67  C   UNL A   1      35.350  33.414  27.943  1.00  0.00     0.001 A 
ATOM     68  C   UNL A   1      34.324  33.210  28.864  1.00  0.00     0.000 A 
ENDBRANCH  49  63
BRANCH  50  69
ATOM     69  C   UNL A   1      46.257  29.227  31.114  1.00  0.00    -0.014 A 
ATOM     70  C   UNL A   1      47.226  29.374  30.111  1.00  0.00     0.009 A 
ATOM     71  C   UNL A   1      46.625  28.630  32.330  1.00  0.00     0.009 A 
ATOM     72  C   UNL A   1      48.528  28.908  30.312  1.00  0.00     0.001 A 
ATOM     73  C   UNL A   1      47.935  28.195  32.541  1.00  0.00     0.001 A 
ATOM     74  C   UNL A   1      48.883  28.324  31.527  1.00  0.00     0.000 A 
ENDBRANCH  50  69
BRANCH  62  75
ATOM     75  C   UNL A   1      42.852  35.156  32.439  1.00  0.00    -0.014 A 
ATOM     76  C   UNL A   1      42.657  35.387  33.809  1.00  0.00     0.009 A 
ATOM     77  C   UNL A   1      43.492  36.142  31.669  1.00  0.00     0.009 A 
ATOM     78  C   UNL A   1      43.060  36.593  34.388  1.00  0.00     0.001 A 
ATOM     79  C   UNL A   1      43.924  37.332  32.256  1.00  0.00     0.001 A 
ATOM     80  C   UNL A   1      43.698  37.561  33.612  1.00  0.00     0.000 A 
ENDBRANCH  62  75
ENDBRANCH  36  37
ENDBRANCH  29  31
ENDBRANCH  28  29
ENDBRANCH  27  28
ENDBRANCH  26  27
ENDBRANCH  25  26
ENDBRANCH   1  25
TORSDOF 18
ENDMDL
