MODEL 1
REMARK VINA RESULT:     -11.2      0.000      0.000
REMARK SMILES CCN(CC)c1ccc([C@@H]2[NH2+][C@@H](C(=O)OCCOCCOC(=O)c3ccc(-c4c5nc(c(-c6ccccc6)c6ccc([nH]6)c(-c6ccccc6)c6nc(c(-c7ccccc7)c7ccc4[nH]7)C=C6)C=C5)cc3)Cc3c2[nH]c2ccccc32)cc1
REMARK SMILES IDX 17 1 16 2 15 3 13 4 14 5 12 6 10 7 11 8 74 9 73 12 75 13
REMARK SMILES IDX 72 14 81 15 76 16 80 18 77 19 79 20 78 21 9 22 6 23 7 24
REMARK SMILES IDX 83 25 8 26 82 27 3 28 2 29 1 30 4 31 5 32 18 33 19 34 20 35
REMARK SMILES IDX 21 36 22 37 23 38 24 39 25 40 71 41 26 42 70 43 27 44 28 45
REMARK SMILES IDX 29 46 64 47 30 48 69 49 63 50 65 51 31 52 68 53 62 54 61 55
REMARK SMILES IDX 32 57 54 58 39 59 53 60 40 61 43 62 52 63 66 64 41 65 42 66
REMARK SMILES IDX 51 68 67 69 44 70 33 71 34 72 38 73 35 74 37 75 36 76 55 77
REMARK SMILES IDX 56 78 60 79 57 80 59 81 58 82 45 83 46 84 50 85 47 86 49 87
REMARK SMILES IDX 48 88
REMARK H PARENT 11 10 11 11 75 17 65 56 43 67
REMARK Flexibility Score: inf
ROOT
ATOM      1  C   UNL A   1      40.003  21.053  26.667  1.00  0.00     0.202 C 
ENDROOT
BRANCH   1   2
ATOM      2  C   UNL A   1      39.079  21.851  25.735  1.00  0.00     0.261 C 
BRANCH   2   3
ATOM      3  O   UNL A   1      37.827  22.322  26.252  1.00  0.00    -0.459 OA
BRANCH   3   4
ATOM      4  C   UNL A   1      37.116  23.015  25.315  1.00  0.00     0.365 C 
ATOM      5  O   UNL A   1      37.615  23.517  24.309  1.00  0.00    -0.245 OA
BRANCH   4   6
ATOM      6  C   UNL A   1      35.683  23.320  25.736  1.00  0.00     0.298 C 
ATOM      7  C   UNL A   1      34.039  22.316  24.040  1.00  0.00     0.262 C 
ATOM      8  N   UNL A   1      34.862  22.195  25.280  1.00  0.00    -0.323 N 
ATOM      9  C   UNL A   1      33.541  23.725  23.935  1.00  0.00     0.083 A 
ATOM     10  H   UNL A   1      35.496  21.409  25.134  1.00  0.00     0.347 HD
ATOM     11  H   UNL A   1      34.160  22.107  26.015  1.00  0.00     0.347 HD
ATOM     12  C   UNL A   1      33.819  24.729  24.841  1.00  0.00    -0.006 A 
ATOM     13  N   UNL A   1      32.554  24.240  23.126  1.00  0.00    -0.353 N 
ATOM     14  C   UNL A   1      35.122  24.740  25.567  1.00  0.00     0.115 C 
ATOM     15  C   UNL A   1      32.502  25.181  25.140  1.00  0.00     0.003 A 
ATOM     16  C   UNL A   1      31.773  25.038  23.952  1.00  0.00     0.046 A 
ATOM     17  H   UNL A   1      32.428  24.076  22.163  1.00  0.00     0.166 HD
ATOM     18  C   UNL A   1      31.804  25.572  26.300  1.00  0.00     0.010 A 
ATOM     19  C   UNL A   1      30.456  25.478  23.800  1.00  0.00     0.026 A 
ATOM     20  C   UNL A   1      30.427  25.830  26.206  1.00  0.00     0.001 A 
ATOM     21  C   UNL A   1      29.783  25.844  24.968  1.00  0.00     0.002 A 
BRANCH   7  22
ATOM     22  C   UNL A   1      32.941  21.244  24.353  1.00  0.00     0.016 A 
ATOM     23  C   UNL A   1      32.569  18.435  24.489  1.00  0.00     0.037 A 
ATOM     24  C   UNL A   1      32.747  19.194  25.645  1.00  0.00     0.026 A 
ATOM     25  C   UNL A   1      32.327  19.142  23.305  1.00  0.00     0.026 A 
ATOM     26  C   UNL A   1      32.916  20.582  25.588  1.00  0.00     0.012 A 
ATOM     27  C   UNL A   1      32.455  20.536  23.237  1.00  0.00     0.012 A 
BRANCH  23  28
ATOM     28  N   UNL A   1      32.706  17.053  24.481  1.00  0.00    -0.372 N 
BRANCH  28  29
ATOM     29  C   UNL A   1      33.903  16.461  23.856  1.00  0.00     0.113 C 
ATOM     30  C   UNL A   1      35.208  17.004  24.416  1.00  0.00     0.027 C 
ENDBRANCH  28  29
BRANCH  28  31
ATOM     31  C   UNL A   1      31.958  16.230  25.433  1.00  0.00     0.113 C 
ATOM     32  C   UNL A   1      32.576  14.859  25.683  1.00  0.00     0.027 C 
ENDBRANCH  28  31
ENDBRANCH  23  28
ENDBRANCH   7  22
ENDBRANCH   4   6
ENDBRANCH   3   4
ENDBRANCH   2   3
ENDBRANCH   1   2
BRANCH   1  33
ATOM     33  O   UNL A   1      41.324  21.483  26.942  1.00  0.00    -0.374 OA
BRANCH  33  34
ATOM     34  C   UNL A   1      42.409  20.906  26.232  1.00  0.00     0.202 C 
BRANCH  34  35
ATOM     35  C   UNL A   1      43.354  21.802  25.422  1.00  0.00     0.261 C 
BRANCH  35  36
ATOM     36  O   UNL A   1      42.753  22.986  24.883  1.00  0.00    -0.460 OA
BRANCH  36  37
ATOM     37  C   UNL A   1      43.511  24.101  25.031  1.00  0.00     0.338 C 
ATOM     38  O   UNL A   1      44.566  24.361  24.480  1.00  0.00    -0.246 OA
BRANCH  37  39
ATOM     39  C   UNL A   1      42.820  25.077  25.895  1.00  0.00     0.060 A 
ATOM     40  C   UNL A   1      43.353  26.370  25.977  1.00  0.00     0.016 A 
ATOM     41  C   UNL A   1      41.744  24.696  26.697  1.00  0.00     0.016 A 
ATOM     42  C   UNL A   1      42.841  27.276  26.905  1.00  0.00     0.010 A 
ATOM     43  C   UNL A   1      41.239  25.602  27.633  1.00  0.00     0.010 A 
ATOM     44  C   UNL A   1      41.810  26.882  27.766  1.00  0.00    -0.014 A 
BRANCH  44  45
ATOM     45  C   UNL A   1      41.417  27.748  28.901  1.00  0.00     0.031 A 
ATOM     46  C   UNL A   1      42.177  27.645  30.195  1.00  0.00     0.074 A 
ATOM     47  C   UNL A   1      40.395  28.614  28.785  1.00  0.00     0.049 A 
ATOM     48  N   UNL A   1      41.949  28.241  31.338  1.00  0.00    -0.248 NA
ATOM     49  C   UNL A   1      43.346  26.752  30.201  1.00  0.00     0.031 C 
ATOM     50  C   UNL A   1      39.616  28.845  27.570  1.00  0.00     0.029 A 
ATOM     51  N   UNL A   1      39.832  29.451  29.714  1.00  0.00    -0.354 N 
ATOM     52  C   UNL A   1      42.938  27.784  32.201  1.00  0.00     0.074 A 
ATOM     53  C   UNL A   1      43.753  26.849  31.458  1.00  0.00     0.031 C 
ATOM     54  C   UNL A   1      38.663  29.757  27.833  1.00  0.00     0.029 A 
ATOM     55  C   UNL A   1      38.743  30.140  29.241  1.00  0.00     0.049 A 
ATOM     56  H   UNL A   1      40.176  29.549  30.632  1.00  0.00     0.167 HD
ATOM     57  C   UNL A   1      43.148  28.116  33.498  1.00  0.00     0.031 A 
ATOM     58  C   UNL A   1      37.889  30.963  29.880  1.00  0.00     0.031 A 
ATOM     59  C   UNL A   1      42.331  29.037  34.240  1.00  0.00     0.049 A 
ATOM     60  C   UNL A   1      38.090  31.247  31.344  1.00  0.00     0.074 A 
ATOM     61  C   UNL A   1      42.473  29.448  35.554  1.00  0.00     0.029 A 
ATOM     62  N   UNL A   1      41.215  29.685  33.735  1.00  0.00    -0.354 N 
ATOM     63  N   UNL A   1      39.036  30.821  32.147  1.00  0.00    -0.248 NA
ATOM     64  C   UNL A   1      37.104  32.127  31.990  1.00  0.00     0.031 C 
ATOM     65  C   UNL A   1      41.410  30.306  35.860  1.00  0.00     0.029 A 
ATOM     66  C   UNL A   1      40.642  30.472  34.719  1.00  0.00     0.049 A 
ATOM     67  H   UNL A   1      40.882  29.600  32.813  1.00  0.00     0.167 HD
ATOM     68  C   UNL A   1      38.776  31.404  33.381  1.00  0.00     0.074 A 
ATOM     69  C   UNL A   1      37.588  32.218  33.221  1.00  0.00     0.031 C 
ATOM     70  C   UNL A   1      39.464  31.280  34.543  1.00  0.00     0.031 A 
BRANCH  57  71
ATOM     71  C   UNL A   1      44.289  27.445  34.207  1.00  0.00    -0.014 A 
ATOM     72  C   UNL A   1      44.068  26.410  35.128  1.00  0.00     0.009 A 
ATOM     73  C   UNL A   1      45.607  27.830  33.920  1.00  0.00     0.009 A 
ATOM     74  C   UNL A   1      45.145  25.796  35.772  1.00  0.00     0.001 A 
ATOM     75  C   UNL A   1      46.683  27.197  34.544  1.00  0.00     0.001 A 
ATOM     76  C   UNL A   1      46.451  26.187  35.476  1.00  0.00     0.000 A 
ENDBRANCH  57  71
BRANCH  58  77
ATOM     77  C   UNL A   1      36.743  31.556  29.146  1.00  0.00    -0.014 A 
ATOM     78  C   UNL A   1      35.582  30.806  28.908  1.00  0.00     0.009 A 
ATOM     79  C   UNL A   1      36.810  32.875  28.670  1.00  0.00     0.009 A 
ATOM     80  C   UNL A   1      34.519  31.359  28.188  1.00  0.00     0.001 A 
ATOM     81  C   UNL A   1      35.735  33.434  27.975  1.00  0.00     0.001 A 
ATOM     82  C   UNL A   1      34.595  32.672  27.728  1.00  0.00     0.000 A 
ENDBRANCH  58  77
BRANCH  70  83
ATOM     83  C   UNL A   1      38.979  32.072  35.724  1.00  0.00    -0.014 A 
ATOM     84  C   UNL A   1      38.199  31.480  36.728  1.00  0.00     0.009 A 
ATOM     85  C   UNL A   1      39.367  33.415  35.862  1.00  0.00     0.009 A 
ATOM     86  C   UNL A   1      37.798  32.226  37.839  1.00  0.00     0.001 A 
ATOM     87  C   UNL A   1      38.985  34.150  36.986  1.00  0.00     0.001 A 
ATOM     88  C   UNL A   1      38.196  33.557  37.969  1.00  0.00     0.000 A 
ENDBRANCH  70  83
ENDBRANCH  44  45
ENDBRANCH  37  39
ENDBRANCH  36  37
ENDBRANCH  35  36
ENDBRANCH  34  35
ENDBRANCH  33  34
ENDBRANCH   1  33
TORSDOF 18
ENDMDL
MODEL 2
REMARK VINA RESULT:     -11.0      4.209      6.326
REMARK SMILES CCN(CC)c1ccc([C@@H]2[NH2+][C@@H](C(=O)OCCOCCOC(=O)c3ccc(-c4c5nc(c(-c6ccccc6)c6ccc([nH]6)c(-c6ccccc6)c6nc(c(-c7ccccc7)c7ccc4[nH]7)C=C6)C=C5)cc3)Cc3c2[nH]c2ccccc32)cc1
REMARK SMILES IDX 17 1 16 2 15 3 13 4 14 5 12 6 10 7 11 8 74 9 73 12 75 13
REMARK SMILES IDX 72 14 81 15 76 16 80 18 77 19 79 20 78 21 9 22 6 23 7 24
REMARK SMILES IDX 83 25 8 26 82 27 3 28 2 29 1 30 4 31 5 32 18 33 19 34 20 35
REMARK SMILES IDX 21 36 22 37 23 38 24 39 25 40 71 41 26 42 70 43 27 44 28 45
REMARK SMILES IDX 29 46 64 47 30 48 69 49 63 50 65 51 31 52 68 53 62 54 61 55
REMARK SMILES IDX 32 57 54 58 39 59 53 60 40 61 43 62 52 63 66 64 41 65 42 66
REMARK SMILES IDX 51 68 67 69 44 70 33 71 34 72 38 73 35 74 37 75 36 76 55 77
REMARK SMILES IDX 56 78 60 79 57 80 59 81 58 82 45 83 46 84 50 85 47 86 49 87
REMARK SMILES IDX 48 88
REMARK H PARENT 11 10 11 11 75 17 65 56 43 67
REMARK Flexibility Score: inf
ROOT
ATOM      1  C   UNL A   1      39.737  21.372  26.434  1.00  0.00     0.202 C 
ENDROOT
BRANCH   1   2
ATOM      2  C   UNL A   1      39.176  22.703  25.912  1.00  0.00     0.261 C 
BRANCH   2   3
ATOM      3  O   UNL A   1      37.863  23.103  26.328  1.00  0.00    -0.459 OA
BRANCH   3   4
ATOM      4  C   UNL A   1      37.018  23.263  25.269  1.00  0.00     0.365 C 
ATOM      5  O   UNL A   1      37.393  23.365  24.101  1.00  0.00    -0.245 OA
BRANCH   4   6
ATOM      6  C   UNL A   1      35.575  23.543  25.673  1.00  0.00     0.298 C 
ATOM      7  C   UNL A   1      33.968  22.494  23.969  1.00  0.00     0.262 C 
ATOM      8  N   UNL A   1      34.780  22.399  25.218  1.00  0.00    -0.323 N 
ATOM      9  C   UNL A   1      33.443  23.892  23.848  1.00  0.00     0.083 A 
ATOM     10  H   UNL A   1      35.431  21.624  25.085  1.00  0.00     0.347 HD
ATOM     11  H   UNL A   1      34.073  22.303  25.947  1.00  0.00     0.347 HD
ATOM     12  C   UNL A   1      33.693  24.908  24.748  1.00  0.00    -0.006 A 
ATOM     13  N   UNL A   1      32.455  24.381  23.025  1.00  0.00    -0.353 N 
ATOM     14  C   UNL A   1      34.988  24.951  25.488  1.00  0.00     0.115 C 
ATOM     15  C   UNL A   1      32.364  25.337  25.031  1.00  0.00     0.003 A 
ATOM     16  C   UNL A   1      31.650  25.170  23.837  1.00  0.00     0.046 A 
ATOM     17  H   UNL A   1      32.342  24.207  22.063  1.00  0.00     0.166 HD
ATOM     18  C   UNL A   1      31.647  25.723  26.180  1.00  0.00     0.010 A 
ATOM     19  C   UNL A   1      30.326  25.583  23.668  1.00  0.00     0.026 A 
ATOM     20  C   UNL A   1      30.266  25.954  26.071  1.00  0.00     0.001 A 
ATOM     21  C   UNL A   1      29.634  25.945  24.827  1.00  0.00     0.002 A 
BRANCH   7  22
ATOM     22  C   UNL A   1      32.888  21.404  24.279  1.00  0.00     0.016 A 
ATOM     23  C   UNL A   1      32.574  18.589  24.449  1.00  0.00     0.037 A 
ATOM     24  C   UNL A   1      32.717  19.367  25.597  1.00  0.00     0.026 A 
ATOM     25  C   UNL A   1      32.335  19.274  23.252  1.00  0.00     0.026 A 
ATOM     26  C   UNL A   1      32.857  20.758  25.523  1.00  0.00     0.012 A 
ATOM     27  C   UNL A   1      32.436  20.670  23.166  1.00  0.00     0.012 A 
BRANCH  23  28
ATOM     28  N   UNL A   1      32.740  17.210  24.463  1.00  0.00    -0.372 N 
BRANCH  28  29
ATOM     29  C   UNL A   1      33.938  16.633  23.826  1.00  0.00     0.113 C 
ATOM     30  C   UNL A   1      35.238  17.257  24.307  1.00  0.00     0.027 C 
ENDBRANCH  28  29
BRANCH  28  31
ATOM     31  C   UNL A   1      32.027  16.389  25.443  1.00  0.00     0.113 C 
ATOM     32  C   UNL A   1      32.609  14.990  25.616  1.00  0.00     0.027 C 
ENDBRANCH  28  31
ENDBRANCH  23  28
ENDBRANCH   7  22
ENDBRANCH   4   6
ENDBRANCH   3   4
ENDBRANCH   2   3
ENDBRANCH   1   2
BRANCH   1  33
ATOM     33  O   UNL A   1      41.105  21.037  26.280  1.00  0.00    -0.374 OA
BRANCH  33  34
ATOM     34  C   UNL A   1      41.579  19.794  26.772  1.00  0.00     0.202 C 
BRANCH  34  35
ATOM     35  C   UNL A   1      42.697  19.054  26.027  1.00  0.00     0.261 C 
BRANCH  35  36
ATOM     36  O   UNL A   1      43.020  19.586  24.737  1.00  0.00    -0.460 OA
BRANCH  36  37
ATOM     37  C   UNL A   1      44.353  19.698  24.508  1.00  0.00     0.338 C 
ATOM     38  O   UNL A   1      45.103  18.851  24.056  1.00  0.00    -0.246 OA
BRANCH  37  39
ATOM     39  C   UNL A   1      44.802  21.078  24.772  1.00  0.00     0.060 A 
ATOM     40  C   UNL A   1      45.358  21.356  26.029  1.00  0.00     0.016 A 
ATOM     41  C   UNL A   1      44.575  22.100  23.851  1.00  0.00     0.016 A 
ATOM     42  C   UNL A   1      45.640  22.672  26.389  1.00  0.00     0.010 A 
ATOM     43  C   UNL A   1      44.851  23.420  24.217  1.00  0.00     0.010 A 
ATOM     44  C   UNL A   1      45.348  23.714  25.501  1.00  0.00    -0.014 A 
BRANCH  44  45
ATOM     45  C   UNL A   1      45.427  25.122  25.955  1.00  0.00     0.031 A 
ATOM     46  C   UNL A   1      46.755  25.826  25.925  1.00  0.00     0.074 A 
ATOM     47  C   UNL A   1      44.330  25.765  26.393  1.00  0.00     0.049 A 
ATOM     48  N   UNL A   1      47.068  27.022  26.356  1.00  0.00    -0.248 NA
ATOM     49  C   UNL A   1      47.879  25.084  25.331  1.00  0.00     0.031 C 
ATOM     50  C   UNL A   1      42.978  25.211  26.422  1.00  0.00     0.029 A 
ATOM     51  N   UNL A   1      44.191  27.028  26.910  1.00  0.00    -0.354 N 
ATOM     52  C   UNL A   1      48.425  27.169  26.099  1.00  0.00     0.074 A 
ATOM     53  C   UNL A   1      48.879  25.937  25.493  1.00  0.00     0.031 C 
ATOM     54  C   UNL A   1      42.145  26.127  26.944  1.00  0.00     0.029 A 
ATOM     55  C   UNL A   1      42.913  27.312  27.322  1.00  0.00     0.049 A 
ATOM     56  H   UNL A   1      44.935  27.669  26.980  1.00  0.00     0.167 HD
ATOM     57  C   UNL A   1      49.221  28.237  26.344  1.00  0.00     0.031 A 
ATOM     58  C   UNL A   1      42.424  28.393  27.959  1.00  0.00     0.031 A 
ATOM     59  C   UNL A   1      48.773  29.459  26.955  1.00  0.00     0.049 A 
ATOM     60  C   UNL A   1      43.347  29.532  28.302  1.00  0.00     0.074 A 
ATOM     61  C   UNL A   1      49.501  30.602  27.232  1.00  0.00     0.029 A 
ATOM     62  N   UNL A   1      47.478  29.692  27.391  1.00  0.00    -0.354 N 
ATOM     63  N   UNL A   1      44.625  29.667  28.041  1.00  0.00    -0.248 NA
ATOM     64  C   UNL A   1      42.758  30.668  29.027  1.00  0.00     0.031 C 
ATOM     65  C   UNL A   1      48.659  31.509  27.884  1.00  0.00     0.029 A 
ATOM     66  C   UNL A   1      47.393  30.951  27.961  1.00  0.00     0.049 A 
ATOM     67  H   UNL A   1      46.730  29.058  27.307  1.00  0.00     0.167 HD
ATOM     68  C   UNL A   1      44.985  30.912  28.543  1.00  0.00     0.074 A 
ATOM     69  C   UNL A   1      43.790  31.496  29.117  1.00  0.00     0.031 C 
ATOM     70  C   UNL A   1      46.197  31.519  28.523  1.00  0.00     0.031 A 
BRANCH  57  71
ATOM     71  C   UNL A   1      50.674  28.114  25.982  1.00  0.00    -0.014 A 
ATOM     72  C   UNL A   1      51.618  27.644  26.907  1.00  0.00     0.009 A 
ATOM     73  C   UNL A   1      51.096  28.439  24.684  1.00  0.00     0.009 A 
ATOM     74  C   UNL A   1      52.964  27.532  26.547  1.00  0.00     0.001 A 
ATOM     75  C   UNL A   1      52.436  28.301  24.319  1.00  0.00     0.001 A 
ATOM     76  C   UNL A   1      53.370  27.856  25.253  1.00  0.00     0.000 A 
ENDBRANCH  57  71
BRANCH  58  77
ATOM     77  C   UNL A   1      40.991  28.442  28.345  1.00  0.00    -0.014 A 
ATOM     78  C   UNL A   1      40.557  27.876  29.554  1.00  0.00     0.009 A 
ATOM     79  C   UNL A   1      40.046  29.045  27.500  1.00  0.00     0.009 A 
ATOM     80  C   UNL A   1      39.203  27.895  29.897  1.00  0.00     0.001 A 
ATOM     81  C   UNL A   1      38.698  29.086  27.858  1.00  0.00     0.001 A 
ATOM     82  C   UNL A   1      38.276  28.504  29.053  1.00  0.00     0.000 A 
ENDBRANCH  58  77
BRANCH  70  83
ATOM     83  C   UNL A   1      46.288  32.903  29.101  1.00  0.00    -0.014 A 
ATOM     84  C   UNL A   1      46.634  33.111  30.444  1.00  0.00     0.009 A 
ATOM     85  C   UNL A   1      46.087  34.015  28.268  1.00  0.00     0.009 A 
ATOM     86  C   UNL A   1      46.756  34.408  30.947  1.00  0.00     0.001 A 
ATOM     87  C   UNL A   1      46.233  35.310  28.768  1.00  0.00     0.001 A 
ATOM     88  C   UNL A   1      46.562  35.505  30.108  1.00  0.00     0.000 A 
ENDBRANCH  70  83
ENDBRANCH  44  45
ENDBRANCH  37  39
ENDBRANCH  36  37
ENDBRANCH  35  36
ENDBRANCH  34  35
ENDBRANCH  33  34
ENDBRANCH   1  33
TORSDOF 18
ENDMDL
MODEL 3
REMARK VINA RESULT:     -11.0      3.820      8.260
REMARK SMILES CCN(CC)c1ccc([C@@H]2[NH2+][C@@H](C(=O)OCCOCCOC(=O)c3ccc(-c4c5nc(c(-c6ccccc6)c6ccc([nH]6)c(-c6ccccc6)c6nc(c(-c7ccccc7)c7ccc4[nH]7)C=C6)C=C5)cc3)Cc3c2[nH]c2ccccc32)cc1
REMARK SMILES IDX 17 1 16 2 15 3 13 4 14 5 12 6 10 7 11 8 74 9 73 12 75 13
REMARK SMILES IDX 72 14 81 15 76 16 80 18 77 19 79 20 78 21 9 22 6 23 7 24
REMARK SMILES IDX 83 25 8 26 82 27 3 28 2 29 1 30 4 31 5 32 18 33 19 34 20 35
REMARK SMILES IDX 21 36 22 37 23 38 24 39 25 40 71 41 26 42 70 43 27 44 28 45
REMARK SMILES IDX 29 46 64 47 30 48 69 49 63 50 65 51 31 52 68 53 62 54 61 55
REMARK SMILES IDX 32 57 54 58 39 59 53 60 40 61 43 62 52 63 66 64 41 65 42 66
REMARK SMILES IDX 51 68 67 69 44 70 33 71 34 72 38 73 35 74 37 75 36 76 55 77
REMARK SMILES IDX 56 78 60 79 57 80 59 81 58 82 45 83 46 84 50 85 47 86 49 87
REMARK SMILES IDX 48 88
REMARK H PARENT 11 10 11 11 75 17 65 56 43 67
REMARK Flexibility Score: inf
ROOT
ATOM      1  C   UNL A   1      35.301  20.669  25.145  1.00  0.00     0.202 C 
ENDROOT
BRANCH   1   2
ATOM      2  C   UNL A   1      34.486  21.510  26.140  1.00  0.00     0.261 C 
BRANCH   2   3
ATOM      3  O   UNL A   1      33.101  21.193  26.328  1.00  0.00    -0.459 OA
BRANCH   3   4
ATOM      4  C   UNL A   1      32.311  21.770  25.376  1.00  0.00     0.365 C 
ATOM      5  O   UNL A   1      32.098  21.275  24.270  1.00  0.00    -0.245 OA
BRANCH   4   6
ATOM      6  C   UNL A   1      31.900  23.201  25.706  1.00  0.00     0.298 C 
ATOM      7  C   UNL A   1      32.284  24.715  23.670  1.00  0.00     0.262 C 
ATOM      8  N   UNL A   1      31.412  23.796  24.459  1.00  0.00    -0.323 N 
ATOM      9  C   UNL A   1      33.127  25.506  24.623  1.00  0.00     0.083 A 
ATOM     10  H   UNL A   1      31.166  23.022  23.840  1.00  0.00     0.347 HD
ATOM     11  H   UNL A   1      30.658  24.407  24.774  1.00  0.00     0.347 HD
ATOM     12  C   UNL A   1      33.092  25.381  25.997  1.00  0.00    -0.006 A 
ATOM     13  N   UNL A   1      33.876  26.636  24.388  1.00  0.00    -0.353 N 
ATOM     14  C   UNL A   1      32.786  24.060  26.620  1.00  0.00     0.115 C 
ATOM     15  C   UNL A   1      32.885  26.738  26.377  1.00  0.00     0.003 A 
ATOM     16  C   UNL A   1      33.576  27.505  25.429  1.00  0.00     0.046 A 
ATOM     17  H   UNL A   1      34.495  26.795  23.639  1.00  0.00     0.166 HD
ATOM     18  C   UNL A   1      32.096  27.416  27.327  1.00  0.00     0.010 A 
ATOM     19  C   UNL A   1      33.710  28.893  25.514  1.00  0.00     0.026 A 
ATOM     20  C   UNL A   1      32.064  28.820  27.302  1.00  0.00     0.001 A 
ATOM     21  C   UNL A   1      32.904  29.541  26.453  1.00  0.00     0.002 A 
BRANCH   7  22
ATOM     22  C   UNL A   1      31.183  25.536  22.918  1.00  0.00     0.016 A 
ATOM     23  C   UNL A   1      30.074  28.144  22.784  1.00  0.00     0.037 A 
ATOM     24  C   UNL A   1      30.985  27.699  21.827  1.00  0.00     0.026 A 
ATOM     25  C   UNL A   1      29.545  27.174  23.645  1.00  0.00     0.026 A 
ATOM     26  C   UNL A   1      31.526  26.409  21.877  1.00  0.00     0.012 A 
ATOM     27  C   UNL A   1      30.049  25.867  23.684  1.00  0.00     0.012 A 
BRANCH  23  28
ATOM     28  N   UNL A   1      29.760  29.487  22.942  1.00  0.00    -0.372 N 
BRANCH  28  29
ATOM     29  C   UNL A   1      30.209  30.182  24.163  1.00  0.00     0.113 C 
ATOM     30  C   UNL A   1      29.582  31.555  24.341  1.00  0.00     0.027 C 
ENDBRANCH  28  29
BRANCH  28  31
ATOM     31  C   UNL A   1      29.411  30.306  21.781  1.00  0.00     0.113 C 
ATOM     32  C   UNL A   1      27.967  30.139  21.319  1.00  0.00     0.027 C 
ENDBRANCH  28  31
ENDBRANCH  23  28
ENDBRANCH   7  22
ENDBRANCH   4   6
ENDBRANCH   3   4
ENDBRANCH   2   3
ENDBRANCH   1   2
BRANCH   1  33
ATOM     33  O   UNL A   1      36.510  21.154  24.587  1.00  0.00    -0.374 OA
BRANCH  33  34
ATOM     34  C   UNL A   1      37.409  21.891  25.402  1.00  0.00     0.202 C 
BRANCH  34  35
ATOM     35  C   UNL A   1      38.902  21.536  25.405  1.00  0.00     0.261 C 
BRANCH  35  36
ATOM     36  O   UNL A   1      39.243  20.362  26.151  1.00  0.00    -0.460 OA
BRANCH  36  37
ATOM     37  C   UNL A   1      40.572  20.086  26.160  1.00  0.00     0.338 C 
ATOM     38  O   UNL A   1      41.129  19.098  25.715  1.00  0.00    -0.246 OA
BRANCH  37  39
ATOM     39  C   UNL A   1      41.328  21.234  26.694  1.00  0.00     0.060 A 
ATOM     40  C   UNL A   1      41.291  21.455  28.077  1.00  0.00     0.016 A 
ATOM     41  C   UNL A   1      41.962  22.139  25.843  1.00  0.00     0.016 A 
ATOM     42  C   UNL A   1      41.845  22.617  28.611  1.00  0.00     0.010 A 
ATOM     43  C   UNL A   1      42.509  23.308  26.379  1.00  0.00     0.010 A 
ATOM     44  C   UNL A   1      42.419  23.569  27.759  1.00  0.00    -0.014 A 
BRANCH  44  45
ATOM     45  C   UNL A   1      42.801  24.901  28.283  1.00  0.00     0.031 A 
ATOM     46  C   UNL A   1      41.736  25.947  28.465  1.00  0.00     0.074 A 
ATOM     47  C   UNL A   1      44.080  25.179  28.588  1.00  0.00     0.049 A 
ATOM     48  N   UNL A   1      41.858  27.199  28.823  1.00  0.00    -0.248 NA
ATOM     49  C   UNL A   1      40.349  25.524  28.208  1.00  0.00     0.031 C 
ATOM     50  C   UNL A   1      45.194  24.237  28.507  1.00  0.00     0.029 A 
ATOM     51  N   UNL A   1      44.654  26.348  29.020  1.00  0.00    -0.354 N 
ATOM     52  C   UNL A   1      40.568  27.717  28.821  1.00  0.00     0.074 A 
ATOM     53  C   UNL A   1      39.683  26.650  28.408  1.00  0.00     0.031 C 
ATOM     54  C   UNL A   1      46.325  24.870  28.864  1.00  0.00     0.029 A 
ATOM     55  C   UNL A   1      46.017  26.268  29.159  1.00  0.00     0.049 A 
ATOM     56  H   UNL A   1      44.139  27.165  29.212  1.00  0.00     0.167 HD
ATOM     57  C   UNL A   1      40.159  28.969  29.138  1.00  0.00     0.031 A 
ATOM     58  C   UNL A   1      46.919  27.223  29.462  1.00  0.00     0.031 A 
ATOM     59  C   UNL A   1      41.040  30.032  29.538  1.00  0.00     0.049 A 
ATOM     60  C   UNL A   1      46.449  28.629  29.722  1.00  0.00     0.074 A 
ATOM     61  C   UNL A   1      40.718  31.331  29.892  1.00  0.00     0.029 A 
ATOM     62  N   UNL A   1      42.418  29.920  29.631  1.00  0.00    -0.354 N 
ATOM     63  N   UNL A   1      45.227  29.104  29.731  1.00  0.00    -0.248 NA
ATOM     64  C   UNL A   1      47.486  29.631  30.013  1.00  0.00     0.031 C 
ATOM     65  C   UNL A   1      41.908  32.021  30.148  1.00  0.00     0.029 A 
ATOM     66  C   UNL A   1      42.965  31.135  30.009  1.00  0.00     0.049 A 
ATOM     67  H   UNL A   1      42.932  29.099  29.455  1.00  0.00     0.167 HD
ATOM     68  C   UNL A   1      45.346  30.450  30.058  1.00  0.00     0.074 A 
ATOM     69  C   UNL A   1      46.757  30.714  30.246  1.00  0.00     0.031 C 
ATOM     70  C   UNL A   1      44.370  31.381  30.196  1.00  0.00     0.031 A 
BRANCH  57  71
ATOM     71  C   UNL A   1      38.691  29.265  29.024  1.00  0.00    -0.014 A 
ATOM     72  C   UNL A   1      38.111  29.616  27.796  1.00  0.00     0.009 A 
ATOM     73  C   UNL A   1      37.872  29.156  30.158  1.00  0.00     0.009 A 
ATOM     74  C   UNL A   1      36.741  29.882  27.713  1.00  0.00     0.001 A 
ATOM     75  C   UNL A   1      36.500  29.397  30.067  1.00  0.00     0.001 A 
ATOM     76  C   UNL A   1      35.937  29.768  28.846  1.00  0.00     0.000 A 
ENDBRANCH  57  71
BRANCH  58  77
ATOM     77  C   UNL A   1      48.365  26.890  29.505  1.00  0.00    -0.014 A 
ATOM     78  C   UNL A   1      49.165  27.029  28.361  1.00  0.00     0.009 A 
ATOM     79  C   UNL A   1      48.951  26.420  30.691  1.00  0.00     0.009 A 
ATOM     80  C   UNL A   1      50.518  26.683  28.399  1.00  0.00     0.001 A 
ATOM     81  C   UNL A   1      50.310  26.101  30.733  1.00  0.00     0.001 A 
ATOM     82  C   UNL A   1      51.089  26.225  29.584  1.00  0.00     0.000 A 
ENDBRANCH  58  77
BRANCH  70  83
ATOM     83  C   UNL A   1      44.786  32.764  30.609  1.00  0.00    -0.014 A 
ATOM     84  C   UNL A   1      44.907  33.117  31.961  1.00  0.00     0.009 A 
ATOM     85  C   UNL A   1      45.126  33.707  29.625  1.00  0.00     0.009 A 
ATOM     86  C   UNL A   1      45.338  34.395  32.320  1.00  0.00     0.001 A 
ATOM     87  C   UNL A   1      45.581  34.976  29.987  1.00  0.00     0.001 A 
ATOM     88  C   UNL A   1      45.680  35.321  31.333  1.00  0.00     0.000 A 
ENDBRANCH  70  83
ENDBRANCH  44  45
ENDBRANCH  37  39
ENDBRANCH  36  37
ENDBRANCH  35  36
ENDBRANCH  34  35
ENDBRANCH  33  34
ENDBRANCH   1  33
TORSDOF 18
ENDMDL
