MODEL 1
REMARK VINA RESULT:     -10.5      0.000      0.000
REMARK SMILES CCc1n[nH]c(C(=O)N(C)[C@H]2COC[C@H]2C(=O)OCCOCCOC(=O)c2ccc(-c3c4nc(c(-c5ccccc5)c5ccc([nH]5)c(-c5ccccc5)c5nc(c(-c6ccccc6)c6ccc3[nH]6)C=C5)C=C4)cc2)n1
REMARK SMILES IDX 20 1 19 2 18 3 16 4 17 5 15 6 11 7 12 8 13 9 14 10 9 11
REMARK SMILES IDX 10 12 7 13 8 14 6 15 3 16 4 17 75 18 5 19 2 21 1 22 21 23
REMARK SMILES IDX 22 24 23 25 24 26 25 27 26 28 27 29 28 30 74 31 29 32 73 33
REMARK SMILES IDX 30 34 31 35 32 36 67 37 33 38 72 39 66 40 68 41 34 42 71 43
REMARK SMILES IDX 65 44 64 45 35 47 57 48 42 49 56 50 43 51 46 52 55 53 69 54
REMARK SMILES IDX 44 55 45 56 54 58 70 59 47 60 36 61 37 62 41 63 38 64 40 65
REMARK SMILES IDX 39 66 58 67 59 68 63 69 60 70 62 71 61 72 48 73 49 74 53 75
REMARK SMILES IDX 50 76 52 77 51 78
REMARK H PARENT 5 20 68 46 46 57
REMARK Flexibility Score: inf
ROOT
ATOM      1  C   UNL A   1      33.265  30.487  26.669  1.00  0.00     0.202 C 
ENDROOT
BRANCH   1   2
ATOM      2  C   UNL A   1      32.905  29.143  26.043  1.00  0.00     0.261 C 
BRANCH   2   3
ATOM      3  O   UNL A   1      31.479  28.978  25.877  1.00  0.00    -0.463 OA
BRANCH   3   4
ATOM      4  C   UNL A   1      31.065  29.159  24.606  1.00  0.00     0.313 C 
ATOM      5  O   UNL A   1      30.277  30.038  24.262  1.00  0.00    -0.252 OA
BRANCH   4   6
ATOM      6  C   UNL A   1      31.549  28.155  23.605  1.00  0.00     0.150 C 
ATOM      7  C   UNL A   1      31.923  26.678  23.785  1.00  0.00     0.127 C 
ATOM      8  C   UNL A   1      32.038  26.322  22.282  1.00  0.00     0.186 C 
ATOM      9  O   UNL A   1      31.031  27.073  21.573  1.00  0.00    -0.378 OA
ATOM     10  C   UNL A   1      30.675  28.206  22.375  1.00  0.00     0.177 C 
BRANCH   7  11
ATOM     11  N   UNL A   1      31.054  25.765  24.581  1.00  0.00    -0.333 N 
ATOM     12  C   UNL A   1      29.882  25.177  23.908  1.00  0.00     0.147 C 
BRANCH  11  13
ATOM     13  C   UNL A   1      31.566  25.195  25.805  1.00  0.00     0.291 C 
ATOM     14  O   UNL A   1      31.454  25.811  26.865  1.00  0.00    -0.265 OA
BRANCH  13  15
ATOM     15  C   UNL A   1      32.105  23.811  25.738  1.00  0.00     0.214 A 
ATOM     16  C   UNL A   1      33.695  21.843  24.293  1.00  0.00     0.151 A 
ATOM     17  N   UNL A   1      32.253  20.841  25.104  1.00  0.00    -0.158 NA
ATOM     18  N   UNL A   1      33.344  23.592  24.796  1.00  0.00    -0.207 NA
ATOM     19  N   UNL A   1      31.328  22.180  26.130  1.00  0.00    -0.255 N 
ATOM     20  H   UNL A   1      30.578  22.025  26.749  1.00  0.00     0.192 HD
BRANCH  16  21
ATOM     21  C   UNL A   1      35.359  21.854  24.345  1.00  0.00     0.076 C 
ATOM     22  C   UNL A   1      36.066  20.636  25.002  1.00  0.00     0.012 C 
ENDBRANCH  16  21
ENDBRANCH  13  15
ENDBRANCH  11  13
ENDBRANCH   7  11
ENDBRANCH   4   6
ENDBRANCH   3   4
ENDBRANCH   2   3
ENDBRANCH   1   2
BRANCH   1  23
ATOM     23  O   UNL A   1      34.200  30.530  27.740  1.00  0.00    -0.374 OA
BRANCH  23  24
ATOM     24  C   UNL A   1      34.787  31.775  28.120  1.00  0.00     0.202 C 
BRANCH  24  25
ATOM     25  C   UNL A   1      34.029  32.640  29.127  1.00  0.00     0.261 C 
BRANCH  25  26
ATOM     26  O   UNL A   1      34.653  32.464  30.411  1.00  0.00    -0.460 OA
BRANCH  26  27
ATOM     27  C   UNL A   1      35.165  33.534  31.040  1.00  0.00     0.338 C 
ATOM     28  O   UNL A   1      34.563  34.592  31.152  1.00  0.00    -0.246 OA
BRANCH  27  29
ATOM     29  C   UNL A   1      36.731  33.200  31.641  1.00  0.00     0.060 A 
ATOM     30  C   UNL A   1      37.401  33.169  30.021  1.00  0.00     0.016 A 
ATOM     31  C   UNL A   1      37.416  31.748  33.016  1.00  0.00     0.016 A 
ATOM     32  C   UNL A   1      38.395  31.954  29.596  1.00  0.00     0.010 A 
ATOM     33  C   UNL A   1      38.466  30.477  32.293  1.00  0.00     0.010 A 
ATOM     34  C   UNL A   1      38.941  30.716  30.621  1.00  0.00    -0.014 A 
BRANCH  34  35
ATOM     35  C   UNL A   1      40.177  30.044  30.102  1.00  0.00     0.031 A 
ATOM     36  C   UNL A   1      41.350  30.912  29.876  1.00  0.00     0.074 A 
ATOM     37  C   UNL A   1      40.154  28.754  29.672  1.00  0.00     0.049 A 
ATOM     38  N   UNL A   1      42.402  30.693  29.143  1.00  0.00    -0.248 NA
ATOM     39  C   UNL A   1      41.288  32.235  30.513  1.00  0.00     0.031 C 
ATOM     40  C   UNL A   1      39.044  27.792  29.809  1.00  0.00     0.029 A 
ATOM     41  N   UNL A   1      41.059  28.050  28.905  1.00  0.00    -0.354 N 
ATOM     42  C   UNL A   1      43.119  31.874  29.204  1.00  0.00     0.074 A 
ATOM     43  C   UNL A   1      42.319  32.830  29.940  1.00  0.00     0.031 C 
ATOM     44  C   UNL A   1      39.279  26.699  29.070  1.00  0.00     0.029 A 
ATOM     45  C   UNL A   1      40.572  26.846  28.432  1.00  0.00     0.049 A 
ATOM     46  H   UNL A   1      41.967  28.375  28.712  1.00  0.00     0.167 HD
ATOM     47  C   UNL A   1      44.362  32.112  28.732  1.00  0.00     0.031 A 
ATOM     48  C   UNL A   1      41.098  25.958  27.567  1.00  0.00     0.031 A 
ATOM     49  C   UNL A   1      45.130  31.133  28.017  1.00  0.00     0.049 A 
ATOM     50  C   UNL A   1      42.468  26.247  27.029  1.00  0.00     0.074 A 
ATOM     51  C   UNL A   1      46.430  31.220  27.563  1.00  0.00     0.029 A 
ATOM     52  N   UNL A   1      44.656  29.879  27.653  1.00  0.00    -0.354 N 
ATOM     53  N   UNL A   1      43.196  27.328  27.178  1.00  0.00    -0.248 NA
ATOM     54  C   UNL A   1      43.111  25.183  26.249  1.00  0.00     0.031 C 
ATOM     55  C   UNL A   1      46.723  30.040  26.870  1.00  0.00     0.029 A 
ATOM     56  C   UNL A   1      45.632  29.188  26.959  1.00  0.00     0.049 A 
ATOM     57  H   UNL A   1      43.757  29.532  27.859  1.00  0.00     0.167 HD
ATOM     58  C   UNL A   1      44.407  27.055  26.562  1.00  0.00     0.074 A 
ATOM     59  C   UNL A   1      44.312  25.704  26.041  1.00  0.00     0.031 C 
ATOM     60  C   UNL A   1      45.504  27.844  26.448  1.00  0.00     0.031 A 
BRANCH  47  61
ATOM     61  C   UNL A   1      44.921  33.478  29.004  1.00  0.00    -0.014 A 
ATOM     62  C   UNL A   1      44.755  34.526  28.080  1.00  0.00     0.009 A 
ATOM     63  C   UNL A   1      45.681  33.707  30.157  1.00  0.00     0.009 A 
ATOM     64  C   UNL A   1      45.409  35.744  28.262  1.00  0.00     0.001 A 
ATOM     65  C   UNL A   1      46.294  34.943  30.363  1.00  0.00     0.001 A 
ATOM     66  C   UNL A   1      46.176  35.952  29.405  1.00  0.00     0.000 A 
ENDBRANCH  47  61
BRANCH  48  67
ATOM     67  C   UNL A   1      40.381  24.696  27.214  1.00  0.00    -0.014 A 
ATOM     68  C   UNL A   1      40.897  23.453  27.619  1.00  0.00     0.009 A 
ATOM     69  C   UNL A   1      39.192  24.712  26.468  1.00  0.00     0.009 A 
ATOM     70  C   UNL A   1      40.269  22.260  27.251  1.00  0.00     0.001 A 
ATOM     71  C   UNL A   1      38.548  23.516  26.125  1.00  0.00     0.001 A 
ATOM     72  C   UNL A   1      39.093  22.291  26.505  1.00  0.00     0.000 A 
ENDBRANCH  48  67
BRANCH  60  73
ATOM     73  C   UNL A   1      46.704  27.240  25.777  1.00  0.00    -0.014 A 
ATOM     74  C   UNL A   1      46.963  27.439  24.412  1.00  0.00     0.009 A 
ATOM     75  C   UNL A   1      47.613  26.492  26.543  1.00  0.00     0.009 A 
ATOM     76  C   UNL A   1      48.088  26.865  23.820  1.00  0.00     0.001 A 
ATOM     77  C   UNL A   1      48.760  25.960  25.958  1.00  0.00     0.001 A 
ATOM     78  C   UNL A   1      48.989  26.135  24.596  1.00  0.00     0.000 A 
ENDBRANCH  60  73
ENDBRANCH  34  35
ENDBRANCH  27  29
ENDBRANCH  26  27
ENDBRANCH  25  26
ENDBRANCH  24  25
ENDBRANCH  23  24
ENDBRANCH   1  23
TORSDOF 18
ENDMDL
MODEL 2
REMARK VINA RESULT:     -10.5      1.946      3.135
REMARK SMILES CCc1n[nH]c(C(=O)N(C)[C@H]2COC[C@H]2C(=O)OCCOCCOC(=O)c2ccc(-c3c4nc(c(-c5ccccc5)c5ccc([nH]5)c(-c5ccccc5)c5nc(c(-c6ccccc6)c6ccc3[nH]6)C=C5)C=C4)cc2)n1
REMARK SMILES IDX 20 1 19 2 18 3 16 4 17 5 15 6 11 7 12 8 13 9 14 10 9 11
REMARK SMILES IDX 10 12 7 13 8 14 6 15 3 16 4 17 75 18 5 19 2 21 1 22 21 23
REMARK SMILES IDX 22 24 23 25 24 26 25 27 26 28 27 29 28 30 74 31 29 32 73 33
REMARK SMILES IDX 30 34 31 35 32 36 67 37 33 38 72 39 66 40 68 41 34 42 71 43
REMARK SMILES IDX 65 44 64 45 35 47 57 48 42 49 56 50 43 51 46 52 55 53 69 54
REMARK SMILES IDX 44 55 45 56 54 58 70 59 47 60 36 61 37 62 41 63 38 64 40 65
REMARK SMILES IDX 39 66 58 67 59 68 63 69 60 70 62 71 61 72 48 73 49 74 53 75
REMARK SMILES IDX 50 76 52 77 51 78
REMARK H PARENT 5 20 68 46 46 57
REMARK Flexibility Score: inf
ROOT
ATOM      1  C   UNL A   1      31.628  29.684  25.052  1.00  0.00     0.202 C 
ENDROOT
BRANCH   1   2
ATOM      2  C   UNL A   1      30.640  29.145  24.022  1.00  0.00     0.261 C 
BRANCH   2   3
ATOM      3  O   UNL A   1      30.886  27.758  23.698  1.00  0.00    -0.463 OA
BRANCH   3   4
ATOM      4  C   UNL A   1      29.805  26.970  23.870  1.00  0.00     0.313 C 
ATOM      5  O   UNL A   1      28.668  27.284  23.525  1.00  0.00    -0.252 OA
BRANCH   4   6
ATOM      6  C   UNL A   1      30.035  25.685  24.605  1.00  0.00     0.150 C 
ATOM      7  C   UNL A   1      30.953  24.502  24.270  1.00  0.00     0.127 C 
ATOM      8  C   UNL A   1      30.813  23.758  25.621  1.00  0.00     0.186 C 
ATOM      9  O   UNL A   1      30.714  24.750  26.663  1.00  0.00    -0.378 OA
ATOM     10  C   UNL A   1      30.264  25.974  26.070  1.00  0.00     0.177 C 
BRANCH   7  11
ATOM     11  N   UNL A   1      32.357  24.732  23.824  1.00  0.00    -0.333 N 
ATOM     12  C   UNL A   1      33.083  25.874  24.408  1.00  0.00     0.147 C 
BRANCH  11  13
ATOM     13  C   UNL A   1      33.070  23.663  23.164  1.00  0.00     0.291 C 
ATOM     14  O   UNL A   1      33.011  23.548  21.940  1.00  0.00    -0.265 OA
BRANCH  13  15
ATOM     15  C   UNL A   1      33.954  22.814  24.006  1.00  0.00     0.214 A 
ATOM     16  C   UNL A   1      36.629  21.785  24.527  1.00  0.00     0.151 A 
ATOM     17  N   UNL A   1      35.426  20.346  25.000  1.00  0.00    -0.158 NA
ATOM     18  N   UNL A   1      35.494  23.121  23.926  1.00  0.00    -0.207 NA
ATOM     19  N   UNL A   1      33.692  21.140  24.746  1.00  0.00    -0.255 N 
ATOM     20  H   UNL A   1      32.825  20.731  24.969  1.00  0.00     0.192 HD
BRANCH  16  21
ATOM     21  C   UNL A   1      37.790  22.708  25.282  1.00  0.00     0.076 C 
ATOM     22  C   UNL A   1      38.863  21.966  26.126  1.00  0.00     0.012 C 
ENDBRANCH  16  21
ENDBRANCH  13  15
ENDBRANCH  11  13
ENDBRANCH   7  11
ENDBRANCH   4   6
ENDBRANCH   3   4
ENDBRANCH   2   3
ENDBRANCH   1   2
BRANCH   1  23
ATOM     23  O   UNL A   1      31.413  29.419  26.432  1.00  0.00    -0.374 OA
BRANCH  23  24
ATOM     24  C   UNL A   1      32.379  28.669  27.169  1.00  0.00     0.202 C 
BRANCH  24  25
ATOM     25  C   UNL A   1      33.804  28.611  26.619  1.00  0.00     0.261 C 
BRANCH  25  26
ATOM     26  O   UNL A   1      34.697  29.003  27.677  1.00  0.00    -0.460 OA
BRANCH  26  27
ATOM     27  C   UNL A   1      35.033  30.296  27.802  1.00  0.00     0.338 C 
ATOM     28  O   UNL A   1      34.419  31.200  27.254  1.00  0.00    -0.246 OA
BRANCH  27  29
ATOM     29  C   UNL A   1      36.401  30.480  28.811  1.00  0.00     0.060 A 
ATOM     30  C   UNL A   1      37.493  30.245  27.460  1.00  0.00     0.016 A 
ATOM     31  C   UNL A   1      36.906  29.571  30.653  1.00  0.00     0.016 A 
ATOM     32  C   UNL A   1      38.755  29.233  27.624  1.00  0.00     0.010 A 
ATOM     33  C   UNL A   1      38.314  28.453  30.567  1.00  0.00     0.010 A 
ATOM     34  C   UNL A   1      39.191  28.417  29.048  1.00  0.00    -0.014 A 
BRANCH  34  35
ATOM     35  C   UNL A   1      40.617  27.954  29.029  1.00  0.00     0.031 A 
ATOM     36  C   UNL A   1      41.650  29.008  29.077  1.00  0.00     0.074 A 
ATOM     37  C   UNL A   1      40.937  26.656  28.777  1.00  0.00     0.049 A 
ATOM     38  N   UNL A   1      42.906  28.940  28.743  1.00  0.00    -0.248 NA
ATOM     39  C   UNL A   1      41.178  30.336  29.494  1.00  0.00     0.031 C 
ATOM     40  C   UNL A   1      40.006  25.516  28.677  1.00  0.00     0.029 A 
ATOM     41  N   UNL A   1      42.141  26.083  28.427  1.00  0.00    -0.354 N 
ATOM     42  C   UNL A   1      43.371  30.235  28.880  1.00  0.00     0.074 A 
ATOM     43  C   UNL A   1      42.235  31.073  29.204  1.00  0.00     0.031 C 
ATOM     44  C   UNL A   1      40.638  24.439  28.192  1.00  0.00     0.029 A 
ATOM     45  C   UNL A   1      42.030  24.780  27.977  1.00  0.00     0.049 A 
ATOM     46  H   UNL A   1      43.001  26.558  28.489  1.00  0.00     0.167 HD
ATOM     47  C   UNL A   1      44.647  30.668  28.796  1.00  0.00     0.031 A 
ATOM     48  C   UNL A   1      42.942  23.950  27.437  1.00  0.00     0.031 A 
ATOM     49  C   UNL A   1      45.750  29.803  28.484  1.00  0.00     0.049 A 
ATOM     50  C   UNL A   1      44.352  24.452  27.325  1.00  0.00     0.074 A 
ATOM     51  C   UNL A   1      47.097  30.100  28.453  1.00  0.00     0.029 A 
ATOM     52  N   UNL A   1      45.622  28.461  28.148  1.00  0.00    -0.354 N 
ATOM     53  N   UNL A   1      44.813  25.657  27.560  1.00  0.00    -0.248 NA
ATOM     54  C   UNL A   1      45.372  23.477  26.924  1.00  0.00     0.031 C 
ATOM     55  C   UNL A   1      47.781  28.952  28.039  1.00  0.00     0.029 A 
ATOM     56  C   UNL A   1      46.867  27.919  27.887  1.00  0.00     0.049 A 
ATOM     57  H   UNL A   1      44.771  27.968  28.103  1.00  0.00     0.167 HD
ATOM     58  C   UNL A   1      46.186  25.574  27.393  1.00  0.00     0.074 A 
ATOM     59  C   UNL A   1      46.478  24.197  27.040  1.00  0.00     0.031 C 
ATOM     60  C   UNL A   1      47.124  26.544  27.531  1.00  0.00     0.031 A 
BRANCH  47  61
ATOM     61  C   UNL A   1      44.867  32.129  29.057  1.00  0.00    -0.014 A 
ATOM     62  C   UNL A   1      45.108  32.604  30.360  1.00  0.00     0.009 A 
ATOM     63  C   UNL A   1      44.765  33.052  28.009  1.00  0.00     0.009 A 
ATOM     64  C   UNL A   1      45.154  33.974  30.619  1.00  0.00     0.001 A 
ATOM     65  C   UNL A   1      44.861  34.420  28.262  1.00  0.00     0.001 A 
ATOM     66  C   UNL A   1      45.032  34.880  29.569  1.00  0.00     0.000 A 
ENDBRANCH  47  61
BRANCH  48  67
ATOM     67  C   UNL A   1      42.586  22.556  27.038  1.00  0.00    -0.014 A 
ATOM     68  C   UNL A   1      42.183  21.623  28.008  1.00  0.00     0.009 A 
ATOM     69  C   UNL A   1      42.653  22.137  25.700  1.00  0.00     0.009 A 
ATOM     70  C   UNL A   1      41.900  20.299  27.659  1.00  0.00     0.001 A 
ATOM     71  C   UNL A   1      42.340  20.818  25.347  1.00  0.00     0.001 A 
ATOM     72  C   UNL A   1      41.976  19.897  26.327  1.00  0.00     0.000 A 
ENDBRANCH  48  67
BRANCH  60  73
ATOM     73  C   UNL A   1      48.556  26.130  27.351  1.00  0.00    -0.014 A 
ATOM     74  C   UNL A   1      49.302  25.580  28.405  1.00  0.00     0.009 A 
ATOM     75  C   UNL A   1      49.152  26.259  26.086  1.00  0.00     0.009 A 
ATOM     76  C   UNL A   1      50.630  25.204  28.203  1.00  0.00     0.001 A 
ATOM     77  C   UNL A   1      50.464  25.840  25.877  1.00  0.00     0.001 A 
ATOM     78  C   UNL A   1      51.206  25.325  26.938  1.00  0.00     0.000 A 
ENDBRANCH  60  73
ENDBRANCH  34  35
ENDBRANCH  27  29
ENDBRANCH  26  27
ENDBRANCH  25  26
ENDBRANCH  24  25
ENDBRANCH  23  24
ENDBRANCH   1  23
TORSDOF 18
ENDMDL
MODEL 3
REMARK VINA RESULT:     -10.4      4.124      6.467
REMARK SMILES CCc1n[nH]c(C(=O)N(C)[C@H]2COC[C@H]2C(=O)OCCOCCOC(=O)c2ccc(-c3c4nc(c(-c5ccccc5)c5ccc([nH]5)c(-c5ccccc5)c5nc(c(-c6ccccc6)c6ccc3[nH]6)C=C5)C=C4)cc2)n1
REMARK SMILES IDX 20 1 19 2 18 3 16 4 17 5 15 6 11 7 12 8 13 9 14 10 9 11
REMARK SMILES IDX 10 12 7 13 8 14 6 15 3 16 4 17 75 18 5 19 2 21 1 22 21 23
REMARK SMILES IDX 22 24 23 25 24 26 25 27 26 28 27 29 28 30 74 31 29 32 73 33
REMARK SMILES IDX 30 34 31 35 32 36 67 37 33 38 72 39 66 40 68 41 34 42 71 43
REMARK SMILES IDX 65 44 64 45 35 47 57 48 42 49 56 50 43 51 46 52 55 53 69 54
REMARK SMILES IDX 44 55 45 56 54 58 70 59 47 60 36 61 37 62 41 63 38 64 40 65
REMARK SMILES IDX 39 66 58 67 59 68 63 69 60 70 62 71 61 72 48 73 49 74 53 75
REMARK SMILES IDX 50 76 52 77 51 78
REMARK H PARENT 5 20 68 46 46 57
REMARK Flexibility Score: inf
ROOT
ATOM      1  C   UNL A   1      33.406  30.362  27.146  1.00  0.00     0.202 C 
ENDROOT
BRANCH   1   2
ATOM      2  C   UNL A   1      32.405  30.157  26.013  1.00  0.00     0.261 C 
BRANCH   2   3
ATOM      3  O   UNL A   1      32.383  28.793  25.538  1.00  0.00    -0.463 OA
BRANCH   3   4
ATOM      4  C   UNL A   1      31.602  28.618  24.452  1.00  0.00     0.313 C 
ATOM      5  O   UNL A   1      30.523  29.183  24.288  1.00  0.00    -0.252 OA
BRANCH   4   6
ATOM      6  C   UNL A   1      32.073  27.602  23.457  1.00  0.00     0.150 C 
ATOM      7  C   UNL A   1      32.568  26.165  23.668  1.00  0.00     0.127 C 
ATOM      8  C   UNL A   1      32.583  25.744  22.177  1.00  0.00     0.186 C 
ATOM      9  O   UNL A   1      31.469  26.387  21.526  1.00  0.00    -0.378 OA
ATOM     10  C   UNL A   1      31.098  27.531  22.306  1.00  0.00     0.177 C 
BRANCH   7  11
ATOM     11  N   UNL A   1      31.838  25.234  24.575  1.00  0.00    -0.333 N 
ATOM     12  C   UNL A   1      31.044  24.158  23.955  1.00  0.00     0.147 C 
BRANCH  11  13
ATOM     13  C   UNL A   1      32.218  25.164  25.967  1.00  0.00     0.291 C 
ATOM     14  O   UNL A   1      31.566  25.776  26.813  1.00  0.00    -0.265 OA
BRANCH  13  15
ATOM     15  C   UNL A   1      33.326  24.241  26.324  1.00  0.00     0.214 A 
ATOM     16  C   UNL A   1      35.810  22.936  25.537  1.00  0.00     0.151 A 
ATOM     17  N   UNL A   1      34.882  21.648  26.642  1.00  0.00    -0.158 NA
ATOM     18  N   UNL A   1      34.644  24.376  25.477  1.00  0.00    -0.207 NA
ATOM     19  N   UNL A   1      33.325  22.622  27.216  1.00  0.00    -0.255 N 
ATOM     20  H   UNL A   1      32.651  22.314  27.864  1.00  0.00     0.192 HD
BRANCH  16  21
ATOM     21  C   UNL A   1      37.266  23.742  25.556  1.00  0.00     0.076 C 
ATOM     22  C   UNL A   1      38.467  23.041  26.248  1.00  0.00     0.012 C 
ENDBRANCH  16  21
ENDBRANCH  13  15
ENDBRANCH  11  13
ENDBRANCH   7  11
ENDBRANCH   4   6
ENDBRANCH   3   4
ENDBRANCH   2   3
ENDBRANCH   1   2
BRANCH   1  23
ATOM     23  O   UNL A   1      34.051  31.621  27.289  1.00  0.00    -0.374 OA
BRANCH  23  24
ATOM     24  C   UNL A   1      33.628  32.525  28.310  1.00  0.00     0.202 C 
BRANCH  24  25
ATOM     25  C   UNL A   1      33.098  33.891  27.874  1.00  0.00     0.261 C 
BRANCH  25  26
ATOM     26  O   UNL A   1      32.460  34.495  29.013  1.00  0.00    -0.460 OA
BRANCH  26  27
ATOM     27  C   UNL A   1      32.902  35.682  29.456  1.00  0.00     0.338 C 
ATOM     28  O   UNL A   1      32.769  36.721  28.825  1.00  0.00    -0.246 OA
BRANCH  27  29
ATOM     29  C   UNL A   1      33.652  35.525  30.985  1.00  0.00     0.060 A 
ATOM     30  C   UNL A   1      35.163  35.022  30.249  1.00  0.00     0.016 A 
ATOM     31  C   UNL A   1      33.036  34.527  32.744  1.00  0.00     0.016 A 
ATOM     32  C   UNL A   1      35.947  33.730  30.848  1.00  0.00     0.010 A 
ATOM     33  C   UNL A   1      34.037  33.095  33.174  1.00  0.00     0.010 A 
ATOM     34  C   UNL A   1      35.484  32.837  32.216  1.00  0.00    -0.014 A 
BRANCH  34  35
ATOM     35  C   UNL A   1      36.615  32.035  32.787  1.00  0.00     0.031 A 
ATOM     36  C   UNL A   1      37.271  32.589  33.988  1.00  0.00     0.074 A 
ATOM     37  C   UNL A   1      37.136  30.971  32.119  1.00  0.00     0.049 A 
ATOM     38  N   UNL A   1      38.442  32.313  34.482  1.00  0.00    -0.248 NA
ATOM     39  C   UNL A   1      36.525  33.648  34.682  1.00  0.00     0.031 C 
ATOM     40  C   UNL A   1      36.599  30.338  30.899  1.00  0.00     0.029 A 
ATOM     41  N   UNL A   1      38.325  30.295  32.300  1.00  0.00    -0.354 N 
ATOM     42  C   UNL A   1      38.591  33.196  35.536  1.00  0.00     0.074 A 
ATOM     43  C   UNL A   1      37.447  34.084  35.522  1.00  0.00     0.031 C 
ATOM     44  C   UNL A   1      37.488  29.474  30.392  1.00  0.00     0.029 A 
ATOM     45  C   UNL A   1      38.648  29.445  31.259  1.00  0.00     0.049 A 
ATOM     46  H   UNL A   1      38.892  30.409  33.096  1.00  0.00     0.167 HD
ATOM     47  C   UNL A   1      39.571  33.219  36.464  1.00  0.00     0.031 A 
ATOM     48  C   UNL A   1      39.762  28.729  31.016  1.00  0.00     0.031 A 
ATOM     49  C   UNL A   1      40.683  32.312  36.452  1.00  0.00     0.049 A 
ATOM     50  C   UNL A   1      40.856  28.783  32.042  1.00  0.00     0.074 A 
ATOM     51  C   UNL A   1      41.696  32.175  37.380  1.00  0.00     0.029 A 
ATOM     52  N   UNL A   1      40.925  31.381  35.449  1.00  0.00    -0.354 N 
ATOM     53  N   UNL A   1      40.944  29.546  33.105  1.00  0.00    -0.248 NA
ATOM     54  C   UNL A   1      41.973  27.849  31.867  1.00  0.00     0.031 C 
ATOM     55  C   UNL A   1      42.584  31.202  36.908  1.00  0.00     0.029 A 
ATOM     56  C   UNL A   1      42.084  30.679  35.724  1.00  0.00     0.049 A 
ATOM     57  H   UNL A   1      40.354  31.242  34.658  1.00  0.00     0.167 HD
ATOM     58  C   UNL A   1      42.098  29.146  33.760  1.00  0.00     0.074 A 
ATOM     59  C   UNL A   1      42.670  28.070  32.973  1.00  0.00     0.031 C 
ATOM     60  C   UNL A   1      42.631  29.616  34.915  1.00  0.00     0.031 A 
BRANCH  47  61
ATOM     61  C   UNL A   1      39.437  34.256  37.541  1.00  0.00    -0.014 A 
ATOM     62  C   UNL A   1      39.927  35.562  37.354  1.00  0.00     0.009 A 
ATOM     63  C   UNL A   1      38.883  33.911  38.780  1.00  0.00     0.009 A 
ATOM     64  C   UNL A   1      39.943  36.472  38.410  1.00  0.00     0.001 A 
ATOM     65  C   UNL A   1      38.855  34.840  39.821  1.00  0.00     0.001 A 
ATOM     66  C   UNL A   1      39.404  36.110  39.643  1.00  0.00     0.000 A 
ENDBRANCH  47  61
BRANCH  48  67
ATOM     67  C   UNL A   1      39.876  27.852  29.812  1.00  0.00    -0.014 A 
ATOM     68  C   UNL A   1      40.567  28.301  28.673  1.00  0.00     0.009 A 
ATOM     69  C   UNL A   1      39.295  26.575  29.777  1.00  0.00     0.009 A 
ATOM     70  C   UNL A   1      40.635  27.516  27.518  1.00  0.00     0.001 A 
ATOM     71  C   UNL A   1      39.389  25.777  28.629  1.00  0.00     0.001 A 
ATOM     72  C   UNL A   1      40.048  26.253  27.497  1.00  0.00     0.000 A 
ENDBRANCH  48  67
BRANCH  60  73
ATOM     73  C   UNL A   1      43.867  28.928  35.419  1.00  0.00    -0.014 A 
ATOM     74  C   UNL A   1      45.151  29.372  35.067  1.00  0.00     0.009 A 
ATOM     75  C   UNL A   1      43.736  27.840  36.297  1.00  0.00     0.009 A 
ATOM     76  C   UNL A   1      46.279  28.712  35.554  1.00  0.00     0.001 A 
ATOM     77  C   UNL A   1      44.866  27.212  36.817  1.00  0.00     0.001 A 
ATOM     78  C   UNL A   1      46.135  27.640  36.435  1.00  0.00     0.000 A 
ENDBRANCH  60  73
ENDBRANCH  34  35
ENDBRANCH  27  29
ENDBRANCH  26  27
ENDBRANCH  25  26
ENDBRANCH  24  25
ENDBRANCH  23  24
ENDBRANCH   1  23
TORSDOF 18
ENDMDL
