MODEL 1
REMARK VINA RESULT:     -12.1      0.000      0.000
REMARK SMILES Cc1c(NC(=O)c2ccccc2NC(=O)[C@@H]2CCCO2)cccc1C(=O)OCCOCCOC(=O)c1ccc(-c2c3nc(c(-c4ccccc4)c4ccc([nH]4)c(-c4ccccc4)c4nc(c(-c5ccccc5)c5ccc2[nH]5)C=C4)C=C3)cc1
REMARK SMILES IDX 29 1 28 2 27 3 25 4 26 5 24 6 1 7 2 8 3 9 21 10 23 11 22 12
REMARK SMILES IDX 4 13 5 14 6 16 7 17 8 18 12 19 9 20 11 21 10 22 13 23 14 24
REMARK SMILES IDX 15 26 16 27 17 28 20 29 18 30 19 31 30 32 31 33 32 34 33 35
REMARK SMILES IDX 34 36 35 37 36 38 37 39 83 40 38 41 82 42 39 43 40 44 41 45
REMARK SMILES IDX 76 46 42 47 81 48 75 49 77 50 43 51 80 52 74 53 73 54 44 56
REMARK SMILES IDX 66 57 51 58 65 59 52 60 55 61 64 62 78 63 53 64 54 65 63 67
REMARK SMILES IDX 79 68 56 69 45 70 46 71 50 72 47 73 49 74 48 75 67 76 68 77
REMARK SMILES IDX 72 78 69 79 71 80 70 81 57 82 58 83 62 84 59 85 61 86 60 87
REMARK H PARENT 4 15 13 25 77 55 55 66
REMARK Flexibility Score: inf
ROOT
ATOM      1  C   UNL A   1      32.884  34.599  28.516  1.00  0.00     0.202 C 
ENDROOT
BRANCH   1   2
ATOM      2  C   UNL A   1      34.285  34.663  28.040  1.00  0.00     0.261 C 
BRANCH   2   3
ATOM      3  O   UNL A   1      34.771  33.342  27.800  1.00  0.00    -0.460 OA
BRANCH   3   4
ATOM      4  C   UNL A   1      34.453  32.265  28.535  1.00  0.00     0.338 C 
ATOM      5  O   UNL A   1      34.410  32.164  29.739  1.00  0.00    -0.246 OA
BRANCH   4   6
ATOM      6  C   UNL A   1      34.087  31.201  27.552  1.00  0.00     0.065 A 
ATOM      7  C   UNL A   1      31.827  32.253  26.712  1.00  0.00     0.047 C 
ATOM      8  C   UNL A   1      32.925  31.198  26.733  1.00  0.00    -0.013 A 
ATOM      9  C   UNL A   1      32.662  30.030  25.974  1.00  0.00     0.045 A 
ATOM     10  C   UNL A   1      33.529  28.934  25.995  1.00  0.00     0.026 A 
ATOM     11  C   UNL A   1      34.946  30.083  27.566  1.00  0.00     0.016 A 
ATOM     12  C   UNL A   1      34.667  28.957  26.797  1.00  0.00     0.003 A 
BRANCH   9  13
ATOM     13  N   UNL A   1      31.437  29.996  25.282  1.00  0.00    -0.322 N 
ATOM     14  C   UNL A   1      30.992  29.212  24.251  1.00  0.00     0.257 C 
ATOM     15  H   UNL A   1      30.780  30.658  25.597  1.00  0.00     0.170 HD
ATOM     16  O   UNL A   1      29.833  29.363  23.862  1.00  0.00    -0.269 OA
BRANCH  14  17
ATOM     17  C   UNL A   1      31.837  28.187  23.604  1.00  0.00     0.063 A 
ATOM     18  C   UNL A   1      32.696  28.720  22.627  1.00  0.00     0.016 A 
ATOM     19  C   UNL A   1      31.835  26.802  23.895  1.00  0.00     0.054 A 
ATOM     20  C   UNL A   1      33.635  27.917  22.002  1.00  0.00     0.001 A 
ATOM     21  C   UNL A   1      32.869  26.048  23.336  1.00  0.00     0.027 A 
ATOM     22  C   UNL A   1      33.748  26.591  22.391  1.00  0.00     0.002 A 
BRANCH  19  23
ATOM     23  N   UNL A   1      30.816  26.253  24.713  1.00  0.00    -0.323 N 
ATOM     24  C   UNL A   1      30.747  25.379  25.762  1.00  0.00     0.253 C 
ATOM     25  H   UNL A   1      29.925  26.590  24.460  1.00  0.00     0.170 HD
ATOM     26  O   UNL A   1      29.632  25.227  26.278  1.00  0.00    -0.272 OA
BRANCH  24  27
ATOM     27  C   UNL A   1      31.956  24.576  26.249  1.00  0.00     0.207 C 
ATOM     28  C   UNL A   1      32.215  23.399  25.318  1.00  0.00     0.044 C 
ATOM     29  O   UNL A   1      31.804  23.986  27.556  1.00  0.00    -0.368 OA
ATOM     30  C   UNL A   1      33.015  22.477  26.194  1.00  0.00     0.032 C 
ATOM     31  C   UNL A   1      32.314  22.645  27.522  1.00  0.00     0.161 C 
ENDBRANCH  24  27
ENDBRANCH  19  23
ENDBRANCH  14  17
ENDBRANCH   9  13
ENDBRANCH   4   6
ENDBRANCH   3   4
ENDBRANCH   2   3
ENDBRANCH   1   2
BRANCH   1  32
ATOM     32  O   UNL A   1      32.556  35.949  28.792  1.00  0.00    -0.374 OA
BRANCH  32  33
ATOM     33  C   UNL A   1      33.343  36.551  29.792  1.00  0.00     0.202 C 
BRANCH  33  34
ATOM     34  C   UNL A   1      33.086  35.913  31.163  1.00  0.00     0.261 C 
BRANCH  34  35
ATOM     35  O   UNL A   1      34.024  36.450  32.130  1.00  0.00    -0.460 OA
BRANCH  35  36
ATOM     36  C   UNL A   1      34.456  35.607  33.113  1.00  0.00     0.338 C 
ATOM     37  O   UNL A   1      34.535  35.885  34.300  1.00  0.00    -0.246 OA
BRANCH  36  38
ATOM     38  C   UNL A   1      35.088  34.391  32.508  1.00  0.00     0.060 A 
ATOM     39  C   UNL A   1      34.889  33.120  33.089  1.00  0.00     0.016 A 
ATOM     40  C   UNL A   1      36.139  34.580  31.618  1.00  0.00     0.016 A 
ATOM     41  C   UNL A   1      35.844  32.100  32.916  1.00  0.00     0.010 A 
ATOM     42  C   UNL A   1      37.128  33.622  31.552  1.00  0.00     0.010 A 
ATOM     43  C   UNL A   1      37.018  32.390  32.225  1.00  0.00    -0.014 A 
BRANCH  43  44
ATOM     44  C   UNL A   1      38.263  31.604  32.226  1.00  0.00     0.031 A 
ATOM     45  C   UNL A   1      38.280  30.368  31.413  1.00  0.00     0.074 A 
ATOM     46  C   UNL A   1      39.441  32.123  32.670  1.00  0.00     0.049 A 
ATOM     47  N   UNL A   1      39.253  29.530  31.417  1.00  0.00    -0.248 NA
ATOM     48  C   UNL A   1      37.184  29.937  30.541  1.00  0.00     0.031 C 
ATOM     49  C   UNL A   1      40.811  31.768  32.283  1.00  0.00     0.029 A 
ATOM     50  N   UNL A   1      39.659  33.136  33.604  1.00  0.00    -0.354 N 
ATOM     51  C   UNL A   1      39.092  28.698  30.339  1.00  0.00     0.074 A 
ATOM     52  C   UNL A   1      37.736  28.902  29.905  1.00  0.00     0.031 C 
ATOM     53  C   UNL A   1      41.688  32.313  33.150  1.00  0.00     0.029 A 
ATOM     54  C   UNL A   1      40.917  32.962  34.195  1.00  0.00     0.049 A 
ATOM     55  H   UNL A   1      39.027  33.862  33.814  1.00  0.00     0.167 HD
ATOM     56  C   UNL A   1      40.187  28.037  29.877  1.00  0.00     0.031 A 
ATOM     57  C   UNL A   1      41.020  32.813  35.542  1.00  0.00     0.031 A 
ATOM     58  C   UNL A   1      41.331  28.235  30.780  1.00  0.00     0.049 A 
ATOM     59  C   UNL A   1      41.452  31.393  35.774  1.00  0.00     0.074 A 
ATOM     60  C   UNL A   1      42.503  28.966  30.690  1.00  0.00     0.029 A 
ATOM     61  N   UNL A   1      41.176  27.916  32.133  1.00  0.00    -0.354 N 
ATOM     62  N   UNL A   1      41.228  30.449  34.898  1.00  0.00    -0.248 NA
ATOM     63  C   UNL A   1      42.296  30.950  36.878  1.00  0.00     0.031 C 
ATOM     64  C   UNL A   1      42.985  29.174  32.020  1.00  0.00     0.029 A 
ATOM     65  C   UNL A   1      42.134  28.537  32.913  1.00  0.00     0.049 A 
ATOM     66  H   UNL A   1      40.473  27.325  32.485  1.00  0.00     0.167 HD
ATOM     67  C   UNL A   1      42.000  29.374  35.197  1.00  0.00     0.074 A 
ATOM     68  C   UNL A   1      42.590  29.696  36.487  1.00  0.00     0.031 C 
ATOM     69  C   UNL A   1      42.167  28.315  34.358  1.00  0.00     0.031 A 
BRANCH  56  70
ATOM     70  C   UNL A   1      40.278  27.357  28.530  1.00  0.00    -0.014 A 
ATOM     71  C   UNL A   1      39.686  26.093  28.358  1.00  0.00     0.009 A 
ATOM     72  C   UNL A   1      40.974  27.859  27.413  1.00  0.00     0.009 A 
ATOM     73  C   UNL A   1      39.775  25.387  27.147  1.00  0.00     0.001 A 
ATOM     74  C   UNL A   1      41.047  27.172  26.193  1.00  0.00     0.001 A 
ATOM     75  C   UNL A   1      40.448  25.931  26.060  1.00  0.00     0.000 A 
ENDBRANCH  56  70
BRANCH  57  76
ATOM     76  C   UNL A   1      40.019  33.663  36.267  1.00  0.00    -0.014 A 
ATOM     77  C   UNL A   1      39.170  32.993  37.184  1.00  0.00     0.009 A 
ATOM     78  C   UNL A   1      40.238  35.034  36.469  1.00  0.00     0.009 A 
ATOM     79  C   UNL A   1      38.690  33.632  38.337  1.00  0.00     0.001 A 
ATOM     80  C   UNL A   1      39.756  35.669  37.629  1.00  0.00     0.001 A 
ATOM     81  C   UNL A   1      39.020  34.961  38.580  1.00  0.00     0.000 A 
ENDBRANCH  57  76
BRANCH  69  82
ATOM     82  C   UNL A   1      42.397  26.933  34.889  1.00  0.00    -0.014 A 
ATOM     83  C   UNL A   1      41.414  26.222  35.594  1.00  0.00     0.009 A 
ATOM     84  C   UNL A   1      43.550  26.226  34.500  1.00  0.00     0.009 A 
ATOM     85  C   UNL A   1      41.601  24.887  35.949  1.00  0.00     0.001 A 
ATOM     86  C   UNL A   1      43.710  24.874  34.794  1.00  0.00     0.001 A 
ATOM     87  C   UNL A   1      42.743  24.210  35.538  1.00  0.00     0.000 A 
ENDBRANCH  69  82
ENDBRANCH  43  44
ENDBRANCH  36  38
ENDBRANCH  35  36
ENDBRANCH  34  35
ENDBRANCH  33  34
ENDBRANCH  32  33
ENDBRANCH   1  32
TORSDOF 18
ENDMDL
MODEL 2
REMARK VINA RESULT:     -12.1      2.821      5.381
REMARK SMILES Cc1c(NC(=O)c2ccccc2NC(=O)[C@@H]2CCCO2)cccc1C(=O)OCCOCCOC(=O)c1ccc(-c2c3nc(c(-c4ccccc4)c4ccc([nH]4)c(-c4ccccc4)c4nc(c(-c5ccccc5)c5ccc2[nH]5)C=C4)C=C3)cc1
REMARK SMILES IDX 29 1 28 2 27 3 25 4 26 5 24 6 1 7 2 8 3 9 21 10 23 11 22 12
REMARK SMILES IDX 4 13 5 14 6 16 7 17 8 18 12 19 9 20 11 21 10 22 13 23 14 24
REMARK SMILES IDX 15 26 16 27 17 28 20 29 18 30 19 31 30 32 31 33 32 34 33 35
REMARK SMILES IDX 34 36 35 37 36 38 37 39 83 40 38 41 82 42 39 43 40 44 41 45
REMARK SMILES IDX 76 46 42 47 81 48 75 49 77 50 43 51 80 52 74 53 73 54 44 56
REMARK SMILES IDX 66 57 51 58 65 59 52 60 55 61 64 62 78 63 53 64 54 65 63 67
REMARK SMILES IDX 79 68 56 69 45 70 46 71 50 72 47 73 49 74 48 75 67 76 68 77
REMARK SMILES IDX 72 78 69 79 71 80 70 81 57 82 58 83 62 84 59 85 61 86 60 87
REMARK H PARENT 4 15 13 25 77 55 55 66
REMARK Flexibility Score: inf
ROOT
ATOM      1  C   UNL A   1      33.787  28.413  25.092  1.00  0.00     0.202 C 
ENDROOT
BRANCH   1   2
ATOM      2  C   UNL A   1      33.521  28.634  23.652  1.00  0.00     0.261 C 
BRANCH   2   3
ATOM      3  O   UNL A   1      32.406  27.839  23.243  1.00  0.00    -0.460 OA
BRANCH   3   4
ATOM      4  C   UNL A   1      31.260  27.720  23.929  1.00  0.00     0.338 C 
ATOM      5  O   UNL A   1      30.471  28.586  24.230  1.00  0.00    -0.246 OA
BRANCH   4   6
ATOM      6  C   UNL A   1      31.104  26.259  24.201  1.00  0.00     0.065 A 
ATOM      7  C   UNL A   1      31.547  26.329  26.793  1.00  0.00     0.047 C 
ATOM      8  C   UNL A   1      31.221  25.639  25.475  1.00  0.00    -0.013 A 
ATOM      9  C   UNL A   1      31.197  24.222  25.518  1.00  0.00     0.045 A 
ATOM     10  C   UNL A   1      31.025  23.459  24.360  1.00  0.00     0.026 A 
ATOM     11  C   UNL A   1      30.938  25.472  23.043  1.00  0.00     0.016 A 
ATOM     12  C   UNL A   1      30.903  24.083  23.122  1.00  0.00     0.003 A 
BRANCH   9  13
ATOM     13  N   UNL A   1      31.455  23.630  26.768  1.00  0.00    -0.322 N 
ATOM     14  C   UNL A   1      32.544  22.954  27.251  1.00  0.00     0.257 C 
ATOM     15  H   UNL A   1      30.717  23.717  27.413  1.00  0.00     0.170 HD
ATOM     16  O   UNL A   1      32.524  22.579  28.424  1.00  0.00    -0.269 OA
BRANCH  14  17
ATOM     17  C   UNL A   1      33.740  22.676  26.430  1.00  0.00     0.063 A 
ATOM     18  C   UNL A   1      34.370  23.843  25.964  1.00  0.00     0.016 A 
ATOM     19  C   UNL A   1      34.255  21.395  26.114  1.00  0.00     0.054 A 
ATOM     20  C   UNL A   1      35.569  23.768  25.274  1.00  0.00     0.001 A 
ATOM     21  C   UNL A   1      35.519  21.361  25.524  1.00  0.00     0.027 A 
ATOM     22  C   UNL A   1      36.162  22.529  25.094  1.00  0.00     0.002 A 
BRANCH  19  23
ATOM     23  N   UNL A   1      33.489  20.237  26.400  1.00  0.00    -0.323 N 
ATOM     24  C   UNL A   1      33.177  19.069  25.759  1.00  0.00     0.253 C 
ATOM     25  H   UNL A   1      33.073  20.286  27.291  1.00  0.00     0.170 HD
ATOM     26  O   UNL A   1      32.528  18.242  26.411  1.00  0.00    -0.272 OA
BRANCH  24  27
ATOM     27  C   UNL A   1      33.548  18.805  24.297  1.00  0.00     0.207 C 
ATOM     28  C   UNL A   1      32.307  18.419  23.503  1.00  0.00     0.044 C 
ATOM     29  O   UNL A   1      34.470  17.715  24.095  1.00  0.00    -0.368 OA
ATOM     30  C   UNL A   1      32.902  17.703  22.323  1.00  0.00     0.032 C 
ATOM     31  C   UNL A   1      34.025  16.933  22.976  1.00  0.00     0.161 C 
ENDBRANCH  24  27
ENDBRANCH  19  23
ENDBRANCH  14  17
ENDBRANCH   9  13
ENDBRANCH   4   6
ENDBRANCH   3   4
ENDBRANCH   2   3
ENDBRANCH   1   2
BRANCH   1  32
ATOM     32  O   UNL A   1      33.942  29.720  25.614  1.00  0.00    -0.374 OA
BRANCH  32  33
ATOM     33  C   UNL A   1      32.835  30.196  26.342  1.00  0.00     0.202 C 
BRANCH  33  34
ATOM     34  C   UNL A   1      33.277  30.909  27.626  1.00  0.00     0.261 C 
BRANCH  34  35
ATOM     35  O   UNL A   1      34.536  31.589  27.393  1.00  0.00    -0.460 OA
BRANCH  35  36
ATOM     36  C   UNL A   1      35.392  31.695  28.451  1.00  0.00     0.338 C 
ATOM     37  O   UNL A   1      35.633  32.722  29.066  1.00  0.00    -0.246 OA
BRANCH  36  38
ATOM     38  C   UNL A   1      36.208  30.446  28.582  1.00  0.00     0.060 A 
ATOM     39  C   UNL A   1      36.256  29.749  29.809  1.00  0.00     0.016 A 
ATOM     40  C   UNL A   1      37.179  30.200  27.617  1.00  0.00     0.016 A 
ATOM     41  C   UNL A   1      37.370  28.952  30.133  1.00  0.00     0.010 A 
ATOM     42  C   UNL A   1      38.319  29.518  27.987  1.00  0.00     0.010 A 
ATOM     43  C   UNL A   1      38.451  28.920  29.254  1.00  0.00    -0.014 A 
BRANCH  43  44
ATOM     44  C   UNL A   1      39.814  28.447  29.544  1.00  0.00     0.031 A 
ATOM     45  C   UNL A   1      40.240  27.183  28.903  1.00  0.00     0.074 A 
ATOM     46  C   UNL A   1      40.756  29.261  30.096  1.00  0.00     0.049 A 
ATOM     47  N   UNL A   1      41.352  26.596  29.162  1.00  0.00    -0.248 NA
ATOM     48  C   UNL A   1      39.434  26.436  27.933  1.00  0.00     0.031 C 
ATOM     49  C   UNL A   1      42.216  29.201  29.972  1.00  0.00     0.029 A 
ATOM     50  N   UNL A   1      40.582  30.374  30.920  1.00  0.00    -0.354 N 
ATOM     51  C   UNL A   1      41.567  25.659  28.184  1.00  0.00     0.074 A 
ATOM     52  C   UNL A   1      40.299  25.505  27.524  1.00  0.00     0.031 C 
ATOM     53  C   UNL A   1      42.788  30.007  30.889  1.00  0.00     0.029 A 
ATOM     54  C   UNL A   1      41.722  30.548  31.714  1.00  0.00     0.049 A 
ATOM     55  H   UNL A   1      39.783  30.949  30.938  1.00  0.00     0.167 HD
ATOM     56  C   UNL A   1      42.843  25.232  27.981  1.00  0.00     0.031 A 
ATOM     57  C   UNL A   1      41.614  30.543  33.069  1.00  0.00     0.031 A 
ATOM     58  C   UNL A   1      43.739  25.768  29.018  1.00  0.00     0.049 A 
ATOM     59  C   UNL A   1      42.290  29.288  33.539  1.00  0.00     0.074 A 
ATOM     60  C   UNL A   1      44.724  26.740  29.019  1.00  0.00     0.029 A 
ATOM     61  N   UNL A   1      43.417  25.540  30.360  1.00  0.00    -0.354 N 
ATOM     62  N   UNL A   1      42.433  28.245  32.764  1.00  0.00    -0.248 NA
ATOM     63  C   UNL A   1      42.999  29.150  34.807  1.00  0.00     0.031 C 
ATOM     64  C   UNL A   1      44.906  27.168  30.372  1.00  0.00     0.029 A 
ATOM     65  C   UNL A   1      44.066  26.431  31.195  1.00  0.00     0.049 A 
ATOM     66  H   UNL A   1      42.805  24.835  30.670  1.00  0.00     0.167 HD
ATOM     67  C   UNL A   1      43.351  27.409  33.310  1.00  0.00     0.074 A 
ATOM     68  C   UNL A   1      43.619  27.969  34.625  1.00  0.00     0.031 C 
ATOM     69  C   UNL A   1      43.887  26.348  32.644  1.00  0.00     0.031 A 
BRANCH  56  70
ATOM     70  C   UNL A   1      43.315  24.478  26.760  1.00  0.00    -0.014 A 
ATOM     71  C   UNL A   1      42.642  23.306  26.374  1.00  0.00     0.009 A 
ATOM     72  C   UNL A   1      44.440  24.816  25.982  1.00  0.00     0.009 A 
ATOM     73  C   UNL A   1      43.058  22.533  25.278  1.00  0.00     0.001 A 
ATOM     74  C   UNL A   1      44.849  24.064  24.872  1.00  0.00     0.001 A 
ATOM     75  C   UNL A   1      44.158  22.918  24.520  1.00  0.00     0.000 A 
ENDBRANCH  56  70
BRANCH  57  76
ATOM     76  C   UNL A   1      40.341  31.198  33.520  1.00  0.00    -0.014 A 
ATOM     77  C   UNL A   1      39.385  30.355  34.140  1.00  0.00     0.009 A 
ATOM     78  C   UNL A   1      40.295  32.566  33.825  1.00  0.00     0.009 A 
ATOM     79  C   UNL A   1      38.525  30.837  35.139  1.00  0.00     0.001 A 
ATOM     80  C   UNL A   1      39.432  33.044  34.829  1.00  0.00     0.001 A 
ATOM     81  C   UNL A   1      38.579  32.175  35.512  1.00  0.00     0.000 A 
ENDBRANCH  57  76
BRANCH  69  82
ATOM     82  C   UNL A   1      44.309  25.109  33.372  1.00  0.00    -0.014 A 
ATOM     83  C   UNL A   1      45.637  24.656  33.385  1.00  0.00     0.009 A 
ATOM     84  C   UNL A   1      43.404  24.480  34.248  1.00  0.00     0.009 A 
ATOM     85  C   UNL A   1      46.029  23.585  34.187  1.00  0.00     0.001 A 
ATOM     86  C   UNL A   1      43.808  23.455  35.101  1.00  0.00     0.001 A 
ATOM     87  C   UNL A   1      45.117  22.994  35.054  1.00  0.00     0.000 A 
ENDBRANCH  69  82
ENDBRANCH  43  44
ENDBRANCH  36  38
ENDBRANCH  35  36
ENDBRANCH  34  35
ENDBRANCH  33  34
ENDBRANCH  32  33
ENDBRANCH   1  32
TORSDOF 18
ENDMDL
MODEL 3
REMARK VINA RESULT:     -12.1      4.406      9.685
REMARK SMILES Cc1c(NC(=O)c2ccccc2NC(=O)[C@@H]2CCCO2)cccc1C(=O)OCCOCCOC(=O)c1ccc(-c2c3nc(c(-c4ccccc4)c4ccc([nH]4)c(-c4ccccc4)c4nc(c(-c5ccccc5)c5ccc2[nH]5)C=C4)C=C3)cc1
REMARK SMILES IDX 29 1 28 2 27 3 25 4 26 5 24 6 1 7 2 8 3 9 21 10 23 11 22 12
REMARK SMILES IDX 4 13 5 14 6 16 7 17 8 18 12 19 9 20 11 21 10 22 13 23 14 24
REMARK SMILES IDX 15 26 16 27 17 28 20 29 18 30 19 31 30 32 31 33 32 34 33 35
REMARK SMILES IDX 34 36 35 37 36 38 37 39 83 40 38 41 82 42 39 43 40 44 41 45
REMARK SMILES IDX 76 46 42 47 81 48 75 49 77 50 43 51 80 52 74 53 73 54 44 56
REMARK SMILES IDX 66 57 51 58 65 59 52 60 55 61 64 62 78 63 53 64 54 65 63 67
REMARK SMILES IDX 79 68 56 69 45 70 46 71 50 72 47 73 49 74 48 75 67 76 68 77
REMARK SMILES IDX 72 78 69 79 71 80 70 81 57 82 58 83 62 84 59 85 61 86 60 87
REMARK H PARENT 4 15 13 25 77 55 55 66
REMARK Flexibility Score: inf
ROOT
ATOM      1  C   UNL A   1      36.738  20.564  25.044  1.00  0.00     0.202 C 
ENDROOT
BRANCH   1   2
ATOM      2  C   UNL A   1      35.461  21.046  25.617  1.00  0.00     0.261 C 
BRANCH   2   3
ATOM      3  O   UNL A   1      34.514  21.256  24.569  1.00  0.00    -0.460 OA
BRANCH   3   4
ATOM      4  C   UNL A   1      33.297  20.693  24.514  1.00  0.00     0.338 C 
ATOM      5  O   UNL A   1      33.009  19.519  24.567  1.00  0.00    -0.246 OA
BRANCH   4   6
ATOM      6  C   UNL A   1      32.331  21.830  24.439  1.00  0.00     0.065 A 
ATOM      7  C   UNL A   1      32.886  22.610  21.989  1.00  0.00     0.047 C 
ATOM      8  C   UNL A   1      32.139  22.678  23.314  1.00  0.00    -0.013 A 
ATOM      9  C   UNL A   1      31.292  23.803  23.478  1.00  0.00     0.045 A 
ATOM     10  C   UNL A   1      30.636  24.052  24.687  1.00  0.00     0.026 A 
ATOM     11  C   UNL A   1      31.666  22.102  25.651  1.00  0.00     0.016 A 
ATOM     12  C   UNL A   1      30.828  23.207  25.776  1.00  0.00     0.003 A 
BRANCH   9  13
ATOM     13  N   UNL A   1      31.228  24.701  22.398  1.00  0.00    -0.322 N 
ATOM     14  C   UNL A   1      31.470  26.047  22.314  1.00  0.00     0.257 C 
ATOM     15  H   UNL A   1      30.960  24.287  21.546  1.00  0.00     0.170 HD
ATOM     16  O   UNL A   1      31.387  26.587  21.210  1.00  0.00    -0.269 OA
BRANCH  14  17
ATOM     17  C   UNL A   1      31.841  26.867  23.486  1.00  0.00     0.063 A 
ATOM     18  C   UNL A   1      33.167  26.658  23.904  1.00  0.00     0.016 A 
ATOM     19  C   UNL A   1      31.002  27.787  24.158  1.00  0.00     0.054 A 
ATOM     20  C   UNL A   1      33.714  27.427  24.918  1.00  0.00     0.001 A 
ATOM     21  C   UNL A   1      31.617  28.624  25.091  1.00  0.00     0.027 A 
ATOM     22  C   UNL A   1      32.950  28.438  25.479  1.00  0.00     0.002 A 
BRANCH  19  23
ATOM     23  N   UNL A   1      29.615  27.819  23.869  1.00  0.00    -0.323 N 
ATOM     24  C   UNL A   1      28.765  28.627  23.164  1.00  0.00     0.253 C 
ATOM     25  H   UNL A   1      29.138  27.063  24.282  1.00  0.00     0.170 HD
ATOM     26  O   UNL A   1      27.592  28.245  23.074  1.00  0.00    -0.272 OA
BRANCH  24  27
ATOM     27  C   UNL A   1      29.206  29.965  22.563  1.00  0.00     0.207 C 
ATOM     28  C   UNL A   1      28.566  31.119  23.323  1.00  0.00     0.044 C 
ATOM     29  O   UNL A   1      28.818  30.168  21.189  1.00  0.00    -0.368 OA
ATOM     30  C   UNL A   1      28.651  32.237  22.324  1.00  0.00     0.032 C 
ATOM     31  C   UNL A   1      28.338  31.512  21.036  1.00  0.00     0.161 C 
ENDBRANCH  24  27
ENDBRANCH  19  23
ENDBRANCH  14  17
ENDBRANCH   9  13
ENDBRANCH   4   6
ENDBRANCH   3   4
ENDBRANCH   2   3
ENDBRANCH   1   2
BRANCH   1  32
ATOM     32  O   UNL A   1      37.389  21.749  24.619  1.00  0.00    -0.374 OA
BRANCH  32  33
ATOM     33  C   UNL A   1      38.055  22.451  25.642  1.00  0.00     0.202 C 
BRANCH  33  34
ATOM     34  C   UNL A   1      39.358  21.748  26.043  1.00  0.00     0.261 C 
BRANCH  34  35
ATOM     35  O   UNL A   1      40.007  22.499  27.101  1.00  0.00    -0.460 OA
BRANCH  35  36
ATOM     36  C   UNL A   1      40.937  23.425  26.726  1.00  0.00     0.338 C 
ATOM     37  O   UNL A   1      42.108  23.189  26.472  1.00  0.00    -0.246 OA
BRANCH  36  38
ATOM     38  C   UNL A   1      40.404  24.808  26.942  1.00  0.00     0.060 A 
ATOM     39  C   UNL A   1      40.765  25.857  26.068  1.00  0.00     0.016 A 
ATOM     40  C   UNL A   1      39.866  25.111  28.188  1.00  0.00     0.016 A 
ATOM     41  C   UNL A   1      40.756  27.192  26.515  1.00  0.00     0.010 A 
ATOM     42  C   UNL A   1      39.974  26.402  28.658  1.00  0.00     0.010 A 
ATOM     43  C   UNL A   1      40.453  27.451  27.850  1.00  0.00    -0.014 A 
BRANCH  43  44
ATOM     44  C   UNL A   1      40.714  28.695  28.592  1.00  0.00     0.031 A 
ATOM     45  C   UNL A   1      39.563  29.594  28.827  1.00  0.00     0.074 A 
ATOM     46  C   UNL A   1      41.857  28.878  29.310  1.00  0.00     0.049 A 
ATOM     47  N   UNL A   1      39.670  30.761  29.352  1.00  0.00    -0.248 NA
ATOM     48  C   UNL A   1      38.180  29.279  28.459  1.00  0.00     0.031 C 
ATOM     49  C   UNL A   1      42.082  29.723  30.488  1.00  0.00     0.029 A 
ATOM     50  N   UNL A   1      43.115  28.305  29.122  1.00  0.00    -0.354 N 
ATOM     51  C   UNL A   1      38.413  31.172  29.715  1.00  0.00     0.074 A 
ATOM     52  C   UNL A   1      37.513  30.286  29.027  1.00  0.00     0.031 C 
ATOM     53  C   UNL A   1      43.405  29.839  30.724  1.00  0.00     0.029 A 
ATOM     54  C   UNL A   1      44.097  29.155  29.646  1.00  0.00     0.049 A 
ATOM     55  H   UNL A   1      43.286  27.437  28.689  1.00  0.00     0.167 HD
ATOM     56  C   UNL A   1      38.310  32.140  30.665  1.00  0.00     0.031 A 
ATOM     57  C   UNL A   1      45.088  29.624  28.843  1.00  0.00     0.031 A 
ATOM     58  C   UNL A   1      39.637  32.685  30.996  1.00  0.00     0.049 A 
ATOM     59  C   UNL A   1      44.841  31.096  28.688  1.00  0.00     0.074 A 
ATOM     60  C   UNL A   1      40.471  32.565  32.093  1.00  0.00     0.029 A 
ATOM     61  N   UNL A   1      40.430  33.184  29.958  1.00  0.00    -0.354 N 
ATOM     62  N   UNL A   1      43.654  31.621  28.851  1.00  0.00    -0.248 NA
ATOM     63  C   UNL A   1      45.883  32.103  28.519  1.00  0.00     0.031 C 
ATOM     64  C   UNL A   1      41.796  32.894  31.665  1.00  0.00     0.029 A 
ATOM     65  C   UNL A   1      41.761  33.252  30.325  1.00  0.00     0.049 A 
ATOM     66  H   UNL A   1      40.084  33.452  29.077  1.00  0.00     0.167 HD
ATOM     67  C   UNL A   1      43.777  32.964  28.987  1.00  0.00     0.074 A 
ATOM     68  C   UNL A   1      45.176  33.235  28.691  1.00  0.00     0.031 C 
ATOM     69  C   UNL A   1      42.759  33.773  29.391  1.00  0.00     0.031 A 
BRANCH  56  70
ATOM     70  C   UNL A   1      37.044  32.476  31.419  1.00  0.00    -0.014 A 
ATOM     71  C   UNL A   1      35.878  32.786  30.698  1.00  0.00     0.009 A 
ATOM     72  C   UNL A   1      36.935  32.570  32.821  1.00  0.00     0.009 A 
ATOM     73  C   UNL A   1      34.682  33.153  31.337  1.00  0.00     0.001 A 
ATOM     74  C   UNL A   1      35.739  32.912  33.468  1.00  0.00     0.001 A 
ATOM     75  C   UNL A   1      34.610  33.206  32.723  1.00  0.00     0.000 A 
ENDBRANCH  56  70
BRANCH  57  76
ATOM     76  C   UNL A   1      45.518  28.592  27.842  1.00  0.00    -0.014 A 
ATOM     77  C   UNL A   1      45.466  28.977  26.478  1.00  0.00     0.009 A 
ATOM     78  C   UNL A   1      46.406  27.563  28.191  1.00  0.00     0.009 A 
ATOM     79  C   UNL A   1      46.372  28.464  25.538  1.00  0.00     0.001 A 
ATOM     80  C   UNL A   1      47.315  27.054  27.245  1.00  0.00     0.001 A 
ATOM     81  C   UNL A   1      47.326  27.532  25.934  1.00  0.00     0.000 A 
ENDBRANCH  57  76
BRANCH  69  82
ATOM     82  C   UNL A   1      42.652  35.187  28.907  1.00  0.00    -0.014 A 
ATOM     83  C   UNL A   1      43.015  36.286  29.701  1.00  0.00     0.009 A 
ATOM     84  C   UNL A   1      42.382  35.434  27.548  1.00  0.00     0.009 A 
ATOM     85  C   UNL A   1      43.045  37.578  29.178  1.00  0.00     0.001 A 
ATOM     86  C   UNL A   1      42.477  36.714  27.007  1.00  0.00     0.001 A 
ATOM     87  C   UNL A   1      42.788  37.789  27.829  1.00  0.00     0.000 A 
ENDBRANCH  69  82
ENDBRANCH  43  44
ENDBRANCH  36  38
ENDBRANCH  35  36
ENDBRANCH  34  35
ENDBRANCH  33  34
ENDBRANCH  32  33
ENDBRANCH   1  32
TORSDOF 18
ENDMDL
