MODEL 1
REMARK VINA RESULT:     -11.2      0.000      0.000
REMARK SMILES NS(=O)(=O)c1ccc(-n2nc(C(=O)OCCOCCOC(=O)c3ccc(-c4c5nc(c(-c6ccccc6)c6ccc([nH]6)c(-c6ccccc6)c6nc(c(-c7ccccc7)c7ccc4[nH]7)C=C6)C=C5)cc3)cc2-c2ccc(Cl)s2)cc1
REMARK SMILES IDX 16 1 15 2 14 3 12 4 13 5 11 6 9 7 10 8 72 9 71 10 8 11 5 12
REMARK SMILES IDX 6 13 80 14 7 15 79 16 2 17 3 18 4 19 1 20 73 23 74 24 78 25
REMARK SMILES IDX 75 26 76 27 77 28 17 29 18 30 19 31 20 32 21 33 22 34 23 35
REMARK SMILES IDX 24 36 70 37 25 38 69 39 26 40 27 41 28 42 63 43 29 44 68 45
REMARK SMILES IDX 62 46 64 47 30 48 67 49 61 50 60 51 31 53 53 54 38 55 52 56
REMARK SMILES IDX 39 57 42 58 51 59 65 60 40 61 41 62 50 64 66 65 43 66 32 67
REMARK SMILES IDX 33 68 37 69 34 70 36 71 35 72 54 73 55 74 59 75 56 76 58 77
REMARK SMILES IDX 57 78 44 79 45 80 49 81 46 82 48 83 47 84
REMARK H PARENT 1 21 1 22 64 52 42 63
REMARK Flexibility Score: inf
ROOT
ATOM      1  C   UNL A   1      35.670  22.768  24.349  1.00  0.00     0.202 C 
ENDROOT
BRANCH   1   2
ATOM      2  C   UNL A   1      35.119  22.720  22.922  1.00  0.00     0.261 C 
BRANCH   2   3
ATOM      3  O   UNL A   1      33.689  22.842  22.882  1.00  0.00    -0.458 OA
BRANCH   3   4
ATOM      4  C   UNL A   1      33.222  23.865  22.102  1.00  0.00     0.358 C 
ATOM      5  O   UNL A   1      33.223  23.858  20.877  1.00  0.00    -0.244 OA
BRANCH   4   6
ATOM      6  C   UNL A   1      32.636  24.945  22.906  1.00  0.00     0.171 A 
ATOM      7  N   UNL A   1      31.420  26.642  23.355  1.00  0.00    -0.231 N 
ATOM      8  N   UNL A   1      31.516  25.586  22.519  1.00  0.00    -0.160 NA
ATOM      9  C   UNL A   1      32.327  26.561  24.399  1.00  0.00     0.085 A 
ATOM     10  C   UNL A   1      33.094  25.443  24.151  1.00  0.00     0.068 A 
BRANCH   7  11
ATOM     11  C   UNL A   1      30.592  27.734  23.005  1.00  0.00     0.065 A 
ATOM     12  C   UNL A   1      29.013  29.917  22.350  1.00  0.00     0.082 A 
ATOM     13  C   UNL A   1      30.311  29.831  21.840  1.00  0.00     0.024 A 
ATOM     14  C   UNL A   1      28.493  28.909  23.172  1.00  0.00     0.024 A 
ATOM     15  C   UNL A   1      31.110  28.743  22.182  1.00  0.00     0.030 A 
ATOM     16  C   UNL A   1      29.276  27.792  23.476  1.00  0.00     0.030 A 
BRANCH  12  17
ATOM     17  S   UNL A   1      28.028  31.332  21.961  1.00  0.00     0.238 S 
ATOM     18  O   UNL A   1      27.048  31.527  23.011  1.00  0.00    -0.207 OA
ATOM     19  O   UNL A   1      27.683  31.283  20.565  1.00  0.00    -0.207 OA
BRANCH  17  20
ATOM     20  N   UNL A   1      29.108  32.611  22.136  1.00  0.00    -0.225 NA
ATOM     21  H   UNL A   1      29.877  32.499  21.475  1.00  0.00     0.137 HD
ATOM     22  H   UNL A   1      29.475  32.618  23.088  1.00  0.00     0.137 HD
ENDBRANCH  17  20
ENDBRANCH  12  17
ENDBRANCH   7  11
BRANCH   9  23
ATOM     23  C   UNL A   1      32.432  27.508  25.469  1.00  0.00     0.054 A 
ATOM     24  C   UNL A   1      31.662  27.529  26.616  1.00  0.00     0.024 A 
ATOM     25  S   UNL A   1      33.606  28.758  25.474  1.00  0.00    -0.122 S 
ATOM     26  C   UNL A   1      32.104  28.520  27.541  1.00  0.00     0.033 A 
ATOM     27  C   UNL A   1      33.157  29.236  27.032  1.00  0.00     0.094 A 
ATOM     28  Cl  UNL A   1      34.008  30.502  27.818  1.00  0.00    -0.072 Cl
ENDBRANCH   9  23
ENDBRANCH   4   6
ENDBRANCH   3   4
ENDBRANCH   2   3
ENDBRANCH   1   2
BRANCH   1  29
ATOM     29  O   UNL A   1      35.668  21.559  25.106  1.00  0.00    -0.374 OA
BRANCH  29  30
ATOM     30  C   UNL A   1      36.840  21.147  25.800  1.00  0.00     0.202 C 
BRANCH  30  31
ATOM     31  C   UNL A   1      38.166  21.778  25.416  1.00  0.00     0.261 C 
BRANCH  31  32
ATOM     32  O   UNL A   1      38.515  22.873  26.251  1.00  0.00    -0.460 OA
BRANCH  32  33
ATOM     33  C   UNL A   1      39.743  22.751  26.805  1.00  0.00     0.338 C 
ATOM     34  O   UNL A   1      40.280  21.732  27.204  1.00  0.00    -0.246 OA
BRANCH  33  35
ATOM     35  C   UNL A   1      40.266  24.094  27.061  1.00  0.00     0.060 A 
ATOM     36  C   UNL A   1      41.296  24.194  27.998  1.00  0.00     0.016 A 
ATOM     37  C   UNL A   1      39.526  25.208  26.639  1.00  0.00     0.016 A 
ATOM     38  C   UNL A   1      41.447  25.384  28.671  1.00  0.00     0.010 A 
ATOM     39  C   UNL A   1      39.654  26.382  27.335  1.00  0.00     0.010 A 
ATOM     40  C   UNL A   1      40.563  26.430  28.388  1.00  0.00    -0.014 A 
BRANCH  40  41
ATOM     41  C   UNL A   1      40.723  27.676  29.098  1.00  0.00     0.031 A 
ATOM     42  C   UNL A   1      41.763  28.521  28.472  1.00  0.00     0.074 A 
ATOM     43  C   UNL A   1      39.929  28.042  30.119  1.00  0.00     0.049 A 
ATOM     44  N   UNL A   1      42.922  28.798  28.962  1.00  0.00    -0.248 NA
ATOM     45  C   UNL A   1      41.595  28.913  27.061  1.00  0.00     0.031 C 
ATOM     46  C   UNL A   1      38.735  27.365  30.630  1.00  0.00     0.029 A 
ATOM     47  N   UNL A   1      39.962  29.185  30.853  1.00  0.00    -0.354 N 
ATOM     48  C   UNL A   1      43.539  29.599  28.013  1.00  0.00     0.074 A 
ATOM     49  C   UNL A   1      42.790  29.441  26.796  1.00  0.00     0.031 C 
ATOM     50  C   UNL A   1      38.031  28.228  31.401  1.00  0.00     0.029 A 
ATOM     51  C   UNL A   1      38.778  29.470  31.523  1.00  0.00     0.049 A 
ATOM     52  H   UNL A   1      40.758  29.762  30.906  1.00  0.00     0.167 HD
ATOM     53  C   UNL A   1      44.412  30.570  28.396  1.00  0.00     0.031 A 
ATOM     54  C   UNL A   1      38.423  30.667  32.066  1.00  0.00     0.031 A 
ATOM     55  C   UNL A   1      44.860  30.364  29.751  1.00  0.00     0.049 A 
ATOM     56  C   UNL A   1      39.663  31.468  32.219  1.00  0.00     0.074 A 
ATOM     57  C   UNL A   1      45.497  29.331  30.413  1.00  0.00     0.029 A 
ATOM     58  N   UNL A   1      44.269  31.137  30.724  1.00  0.00    -0.354 N 
ATOM     59  N   UNL A   1      40.586  31.185  33.092  1.00  0.00    -0.248 NA
ATOM     60  C   UNL A   1      40.101  32.279  31.091  1.00  0.00     0.031 C 
ATOM     61  C   UNL A   1      44.876  29.275  31.693  1.00  0.00     0.029 A 
ATOM     62  C   UNL A   1      43.964  30.327  31.785  1.00  0.00     0.049 A 
ATOM     63  H   UNL A   1      44.096  32.105  30.667  1.00  0.00     0.167 HD
ATOM     64  C   UNL A   1      41.777  31.345  32.399  1.00  0.00     0.074 A 
ATOM     65  C   UNL A   1      41.424  32.123  31.210  1.00  0.00     0.031 C 
ATOM     66  C   UNL A   1      42.862  30.569  32.688  1.00  0.00     0.031 A 
BRANCH  53  67
ATOM     67  C   UNL A   1      44.454  31.928  27.739  1.00  0.00    -0.014 A 
ATOM     68  C   UNL A   1      43.774  32.985  28.366  1.00  0.00     0.009 A 
ATOM     69  C   UNL A   1      44.862  32.139  26.408  1.00  0.00     0.009 A 
ATOM     70  C   UNL A   1      43.432  34.145  27.663  1.00  0.00     0.001 A 
ATOM     71  C   UNL A   1      44.561  33.313  25.717  1.00  0.00     0.001 A 
ATOM     72  C   UNL A   1      43.815  34.303  26.336  1.00  0.00     0.000 A 
ENDBRANCH  53  67
BRANCH  54  73
ATOM     73  C   UNL A   1      37.080  31.275  32.224  1.00  0.00    -0.014 A 
ATOM     74  C   UNL A   1      36.732  31.942  33.414  1.00  0.00     0.009 A 
ATOM     75  C   UNL A   1      36.230  31.443  31.117  1.00  0.00     0.009 A 
ATOM     76  C   UNL A   1      35.611  32.785  33.472  1.00  0.00     0.001 A 
ATOM     77  C   UNL A   1      35.108  32.278  31.177  1.00  0.00     0.001 A 
ATOM     78  C   UNL A   1      34.809  32.965  32.348  1.00  0.00     0.000 A 
ENDBRANCH  54  73
BRANCH  66  79
ATOM     79  C   UNL A   1      42.811  29.710  33.928  1.00  0.00    -0.014 A 
ATOM     80  C   UNL A   1      43.243  30.145  35.195  1.00  0.00     0.009 A 
ATOM     81  C   UNL A   1      42.159  28.471  33.840  1.00  0.00     0.009 A 
ATOM     82  C   UNL A   1      43.057  29.347  36.329  1.00  0.00     0.001 A 
ATOM     83  C   UNL A   1      41.951  27.686  34.975  1.00  0.00     0.001 A 
ATOM     84  C   UNL A   1      42.406  28.120  36.217  1.00  0.00     0.000 A 
ENDBRANCH  66  79
ENDBRANCH  40  41
ENDBRANCH  33  35
ENDBRANCH  32  33
ENDBRANCH  31  32
ENDBRANCH  30  31
ENDBRANCH  29  30
ENDBRANCH   1  29
TORSDOF 18
ENDMDL
MODEL 2
REMARK VINA RESULT:     -11.0      3.921      5.931
REMARK SMILES NS(=O)(=O)c1ccc(-n2nc(C(=O)OCCOCCOC(=O)c3ccc(-c4c5nc(c(-c6ccccc6)c6ccc([nH]6)c(-c6ccccc6)c6nc(c(-c7ccccc7)c7ccc4[nH]7)C=C6)C=C5)cc3)cc2-c2ccc(Cl)s2)cc1
REMARK SMILES IDX 16 1 15 2 14 3 12 4 13 5 11 6 9 7 10 8 72 9 71 10 8 11 5 12
REMARK SMILES IDX 6 13 80 14 7 15 79 16 2 17 3 18 4 19 1 20 73 23 74 24 78 25
REMARK SMILES IDX 75 26 76 27 77 28 17 29 18 30 19 31 20 32 21 33 22 34 23 35
REMARK SMILES IDX 24 36 70 37 25 38 69 39 26 40 27 41 28 42 63 43 29 44 68 45
REMARK SMILES IDX 62 46 64 47 30 48 67 49 61 50 60 51 31 53 53 54 38 55 52 56
REMARK SMILES IDX 39 57 42 58 51 59 65 60 40 61 41 62 50 64 66 65 43 66 32 67
REMARK SMILES IDX 33 68 37 69 34 70 36 71 35 72 54 73 55 74 59 75 56 76 58 77
REMARK SMILES IDX 57 78 44 79 45 80 49 81 46 82 48 83 47 84
REMARK H PARENT 1 21 1 22 64 52 42 63
REMARK Flexibility Score: inf
ROOT
ATOM      1  C   UNL A   1      41.282  20.048  27.424  1.00  0.00     0.202 C 
ENDROOT
BRANCH   1   2
ATOM      2  C   UNL A   1      40.703  21.450  27.224  1.00  0.00     0.261 C 
BRANCH   2   3
ATOM      3  O   UNL A   1      39.749  21.500  26.151  1.00  0.00    -0.458 OA
BRANCH   3   4
ATOM      4  C   UNL A   1      38.960  22.619  26.139  1.00  0.00     0.358 C 
ATOM      5  O   UNL A   1      39.319  23.724  26.528  1.00  0.00    -0.244 OA
BRANCH   4   6
ATOM      6  C   UNL A   1      37.654  22.363  25.520  1.00  0.00     0.171 A 
ATOM      7  N   UNL A   1      35.823  22.796  24.509  1.00  0.00    -0.231 N 
ATOM      8  N   UNL A   1      37.084  23.247  24.679  1.00  0.00    -0.160 NA
ATOM      9  C   UNL A   1      35.649  21.531  25.046  1.00  0.00     0.085 A 
ATOM     10  C   UNL A   1      36.838  21.214  25.665  1.00  0.00     0.068 A 
BRANCH   7  11
ATOM     11  C   UNL A   1      34.833  23.670  24.003  1.00  0.00     0.065 A 
ATOM     12  C   UNL A   1      32.851  25.367  23.063  1.00  0.00     0.082 A 
ATOM     13  C   UNL A   1      33.439  25.619  24.305  1.00  0.00     0.024 A 
ATOM     14  C   UNL A   1      33.259  24.280  22.280  1.00  0.00     0.024 A 
ATOM     15  C   UNL A   1      34.423  24.759  24.784  1.00  0.00     0.030 A 
ATOM     16  C   UNL A   1      34.281  23.443  22.737  1.00  0.00     0.030 A 
BRANCH  12  17
ATOM     17  S   UNL A   1      31.560  26.429  22.490  1.00  0.00     0.238 S 
ATOM     18  O   UNL A   1      32.012  27.804  22.568  1.00  0.00    -0.207 OA
ATOM     19  O   UNL A   1      30.313  25.980  23.050  1.00  0.00    -0.207 OA
BRANCH  17  20
ATOM     20  N   UNL A   1      31.487  26.092  20.843  1.00  0.00    -0.225 NA
ATOM     21  H   UNL A   1      30.539  25.808  20.596  1.00  0.00     0.137 HD
ATOM     22  H   UNL A   1      32.136  25.336  20.622  1.00  0.00     0.137 HD
ENDBRANCH  17  20
ENDBRANCH  12  17
ENDBRANCH   7  11
BRANCH   9  23
ATOM     23  C   UNL A   1      34.435  20.773  24.980  1.00  0.00     0.054 A 
ATOM     24  C   UNL A   1      33.157  21.263  25.175  1.00  0.00     0.024 A 
ATOM     25  S   UNL A   1      34.418  19.102  24.593  1.00  0.00    -0.122 S 
ATOM     26  C   UNL A   1      32.159  20.279  24.912  1.00  0.00     0.033 A 
ATOM     27  C   UNL A   1      32.727  19.076  24.578  1.00  0.00     0.094 A 
ATOM     28  Cl  UNL A   1      31.897  17.633  24.162  1.00  0.00    -0.072 Cl
ENDBRANCH   9  23
ENDBRANCH   4   6
ENDBRANCH   3   4
ENDBRANCH   2   3
ENDBRANCH   1   2
BRANCH   1  29
ATOM     29  O   UNL A   1      41.563  19.269  26.262  1.00  0.00    -0.374 OA
BRANCH  29  30
ATOM     30  C   UNL A   1      42.656  18.358  26.259  1.00  0.00     0.202 C 
BRANCH  30  31
ATOM     31  C   UNL A   1      43.830  18.640  25.339  1.00  0.00     0.261 C 
BRANCH  31  32
ATOM     32  O   UNL A   1      43.716  19.887  24.670  1.00  0.00    -0.460 OA
BRANCH  32  33
ATOM     33  C   UNL A   1      44.887  20.324  24.151  1.00  0.00     0.338 C 
ATOM     34  O   UNL A   1      45.738  19.663  23.582  1.00  0.00    -0.246 OA
BRANCH  33  35
ATOM     35  C   UNL A   1      45.087  21.710  24.574  1.00  0.00     0.060 A 
ATOM     36  C   UNL A   1      45.989  21.919  25.619  1.00  0.00     0.016 A 
ATOM     37  C   UNL A   1      44.166  22.689  24.173  1.00  0.00     0.016 A 
ATOM     38  C   UNL A   1      45.826  23.036  26.403  1.00  0.00     0.010 A 
ATOM     39  C   UNL A   1      43.980  23.783  24.976  1.00  0.00     0.010 A 
ATOM     40  C   UNL A   1      44.766  23.904  26.120  1.00  0.00    -0.014 A 
BRANCH  40  41
ATOM     41  C   UNL A   1      44.596  25.075  26.946  1.00  0.00     0.031 A 
ATOM     42  C   UNL A   1      45.683  26.051  26.724  1.00  0.00     0.074 A 
ATOM     43  C   UNL A   1      43.512  25.273  27.718  1.00  0.00     0.049 A 
ATOM     44  N   UNL A   1      46.623  26.353  27.553  1.00  0.00    -0.248 NA
ATOM     45  C   UNL A   1      45.886  26.581  25.363  1.00  0.00     0.031 C 
ATOM     46  C   UNL A   1      42.294  24.463  27.799  1.00  0.00     0.029 A 
ATOM     47  N   UNL A   1      43.224  26.329  28.522  1.00  0.00    -0.354 N 
ATOM     48  C   UNL A   1      47.403  27.293  26.896  1.00  0.00     0.074 A 
ATOM     49  C   UNL A   1      47.049  27.215  25.504  1.00  0.00     0.031 C 
ATOM     50  C   UNL A   1      41.320  25.188  28.399  1.00  0.00     0.029 A 
ATOM     51  C   UNL A   1      41.877  26.458  28.838  1.00  0.00     0.049 A 
ATOM     52  H   UNL A   1      43.912  26.951  28.852  1.00  0.00     0.167 HD
ATOM     53  C   UNL A   1      48.032  28.275  27.596  1.00  0.00     0.031 A 
ATOM     54  C   UNL A   1      41.268  27.562  29.350  1.00  0.00     0.031 A 
ATOM     55  C   UNL A   1      48.094  27.955  29.001  1.00  0.00     0.049 A 
ATOM     56  C   UNL A   1      42.329  28.426  29.926  1.00  0.00     0.074 A 
ATOM     57  C   UNL A   1      48.615  26.904  29.732  1.00  0.00     0.029 A 
ATOM     58  N   UNL A   1      47.179  28.577  29.820  1.00  0.00    -0.354 N 
ATOM     59  N   UNL A   1      42.988  28.115  31.003  1.00  0.00    -0.248 NA
ATOM     60  C   UNL A   1      42.988  29.382  29.047  1.00  0.00     0.031 C 
ATOM     61  C   UNL A   1      47.664  26.667  30.765  1.00  0.00     0.029 A 
ATOM     62  C   UNL A   1      46.666  27.638  30.674  1.00  0.00     0.049 A 
ATOM     63  H   UNL A   1      46.937  29.530  29.795  1.00  0.00     0.167 HD
ATOM     64  C   UNL A   1      44.306  28.430  30.704  1.00  0.00     0.074 A 
ATOM     65  C   UNL A   1      44.232  29.306  29.533  1.00  0.00     0.031 C 
ATOM     66  C   UNL A   1      45.335  27.704  31.233  1.00  0.00     0.031 A 
BRANCH  53  67
ATOM     67  C   UNL A   1      48.127  29.695  27.096  1.00  0.00    -0.014 A 
ATOM     68  C   UNL A   1      49.381  30.327  27.139  1.00  0.00     0.009 A 
ATOM     69  C   UNL A   1      47.009  30.523  26.878  1.00  0.00     0.009 A 
ATOM     70  C   UNL A   1      49.494  31.719  27.071  1.00  0.00     0.001 A 
ATOM     71  C   UNL A   1      47.122  31.909  26.766  1.00  0.00     0.001 A 
ATOM     72  C   UNL A   1      48.364  32.510  26.897  1.00  0.00     0.000 A 
ENDBRANCH  53  67
BRANCH  54  73
ATOM     73  C   UNL A   1      39.882  28.055  29.160  1.00  0.00    -0.014 A 
ATOM     74  C   UNL A   1      38.973  28.068  30.233  1.00  0.00     0.009 A 
ATOM     75  C   UNL A   1      39.524  28.767  28.002  1.00  0.00     0.009 A 
ATOM     76  C   UNL A   1      37.782  28.809  30.167  1.00  0.00     0.001 A 
ATOM     77  C   UNL A   1      38.334  29.500  27.933  1.00  0.00     0.001 A 
ATOM     78  C   UNL A   1      37.472  29.537  29.023  1.00  0.00     0.000 A 
ENDBRANCH  54  73
BRANCH  66  79
ATOM     79  C   UNL A   1      45.017  26.715  32.328  1.00  0.00    -0.014 A 
ATOM     80  C   UNL A   1      44.655  25.377  32.087  1.00  0.00     0.009 A 
ATOM     81  C   UNL A   1      45.245  27.111  33.654  1.00  0.00     0.009 A 
ATOM     82  C   UNL A   1      44.493  24.476  33.146  1.00  0.00     0.001 A 
ATOM     83  C   UNL A   1      45.109  26.207  34.708  1.00  0.00     0.001 A 
ATOM     84  C   UNL A   1      44.724  24.893  34.455  1.00  0.00     0.000 A 
ENDBRANCH  66  79
ENDBRANCH  40  41
ENDBRANCH  33  35
ENDBRANCH  32  33
ENDBRANCH  31  32
ENDBRANCH  30  31
ENDBRANCH  29  30
ENDBRANCH   1  29
TORSDOF 18
ENDMDL
MODEL 3
REMARK VINA RESULT:     -11.0      4.789      7.104
REMARK SMILES NS(=O)(=O)c1ccc(-n2nc(C(=O)OCCOCCOC(=O)c3ccc(-c4c5nc(c(-c6ccccc6)c6ccc([nH]6)c(-c6ccccc6)c6nc(c(-c7ccccc7)c7ccc4[nH]7)C=C6)C=C5)cc3)cc2-c2ccc(Cl)s2)cc1
REMARK SMILES IDX 16 1 15 2 14 3 12 4 13 5 11 6 9 7 10 8 72 9 71 10 8 11 5 12
REMARK SMILES IDX 6 13 80 14 7 15 79 16 2 17 3 18 4 19 1 20 73 23 74 24 78 25
REMARK SMILES IDX 75 26 76 27 77 28 17 29 18 30 19 31 20 32 21 33 22 34 23 35
REMARK SMILES IDX 24 36 70 37 25 38 69 39 26 40 27 41 28 42 63 43 29 44 68 45
REMARK SMILES IDX 62 46 64 47 30 48 67 49 61 50 60 51 31 53 53 54 38 55 52 56
REMARK SMILES IDX 39 57 42 58 51 59 65 60 40 61 41 62 50 64 66 65 43 66 32 67
REMARK SMILES IDX 33 68 37 69 34 70 36 71 35 72 54 73 55 74 59 75 56 76 58 77
REMARK SMILES IDX 57 78 44 79 45 80 49 81 46 82 48 83 47 84
REMARK H PARENT 1 21 1 22 64 52 42 63
REMARK Flexibility Score: inf
ROOT
ATOM      1  C   UNL A   1      41.411  20.962  27.429  1.00  0.00     0.202 C 
ENDROOT
BRANCH   1   2
ATOM      2  C   UNL A   1      40.260  21.967  27.515  1.00  0.00     0.261 C 
BRANCH   2   3
ATOM      3  O   UNL A   1      39.793  22.376  26.220  1.00  0.00    -0.458 OA
BRANCH   3   4
ATOM      4  C   UNL A   1      38.983  23.480  26.225  1.00  0.00     0.358 C 
ATOM      5  O   UNL A   1      39.370  24.622  26.447  1.00  0.00    -0.244 OA
BRANCH   4   6
ATOM      6  C   UNL A   1      37.603  23.151  25.846  1.00  0.00     0.171 A 
ATOM      7  N   UNL A   1      35.905  21.929  25.420  1.00  0.00    -0.231 N 
ATOM      8  N   UNL A   1      37.066  21.945  26.110  1.00  0.00    -0.160 NA
ATOM      9  C   UNL A   1      35.591  23.176  24.905  1.00  0.00     0.085 A 
ATOM     10  C   UNL A   1      36.658  23.993  25.210  1.00  0.00     0.068 A 
BRANCH   7  11
ATOM     11  C   UNL A   1      35.269  20.694  25.156  1.00  0.00     0.065 A 
ATOM     12  C   UNL A   1      34.044  18.275  24.575  1.00  0.00     0.082 A 
ATOM     13  C   UNL A   1      35.435  18.379  24.487  1.00  0.00     0.024 A 
ATOM     14  C   UNL A   1      33.262  19.369  24.967  1.00  0.00     0.024 A 
ATOM     15  C   UNL A   1      36.048  19.597  24.763  1.00  0.00     0.030 A 
ATOM     16  C   UNL A   1      33.881  20.579  25.294  1.00  0.00     0.030 A 
BRANCH  12  17
ATOM     17  S   UNL A   1      33.268  16.741  24.162  1.00  0.00     0.238 S 
ATOM     18  O   UNL A   1      32.266  16.435  25.163  1.00  0.00    -0.207 OA
ATOM     19  O   UNL A   1      34.284  15.806  23.757  1.00  0.00    -0.207 OA
BRANCH  17  20
ATOM     20  N   UNL A   1      32.391  17.116  22.775  1.00  0.00    -0.225 NA
ATOM     21  H   UNL A   1      31.453  17.417  23.037  1.00  0.00     0.137 HD
ATOM     22  H   UNL A   1      32.329  16.290  22.179  1.00  0.00     0.137 HD
ENDBRANCH  17  20
ENDBRANCH  12  17
ENDBRANCH   7  11
BRANCH   9  23
ATOM     23  C   UNL A   1      34.401  23.482  24.168  1.00  0.00     0.054 A 
ATOM     24  C   UNL A   1      34.194  23.248  22.822  1.00  0.00     0.024 A 
ATOM     25  S   UNL A   1      33.015  24.168  24.910  1.00  0.00    -0.122 S 
ATOM     26  C   UNL A   1      32.858  23.548  22.424  1.00  0.00     0.033 A 
ATOM     27  C   UNL A   1      32.129  24.041  23.476  1.00  0.00     0.094 A 
ATOM     28  Cl  UNL A   1      30.477  24.505  23.446  1.00  0.00    -0.072 Cl
ENDBRANCH   9  23
ENDBRANCH   4   6
ENDBRANCH   3   4
ENDBRANCH   2   3
ENDBRANCH   1   2
BRANCH   1  29
ATOM     29  O   UNL A   1      41.434  20.067  26.318  1.00  0.00    -0.374 OA
BRANCH  29  30
ATOM     30  C   UNL A   1      42.279  18.922  26.340  1.00  0.00     0.202 C 
BRANCH  30  31
ATOM     31  C   UNL A   1      43.504  18.911  25.443  1.00  0.00     0.261 C 
BRANCH  31  32
ATOM     32  O   UNL A   1      43.563  20.036  24.580  1.00  0.00    -0.460 OA
BRANCH  32  33
ATOM     33  C   UNL A   1      44.821  20.342  24.186  1.00  0.00     0.338 C 
ATOM     34  O   UNL A   1      45.660  19.585  23.731  1.00  0.00    -0.246 OA
BRANCH  33  35
ATOM     35  C   UNL A   1      45.109  21.716  24.599  1.00  0.00     0.060 A 
ATOM     36  C   UNL A   1      46.085  21.880  25.583  1.00  0.00     0.016 A 
ATOM     37  C   UNL A   1      44.207  22.736  24.262  1.00  0.00     0.016 A 
ATOM     38  C   UNL A   1      46.023  22.999  26.379  1.00  0.00     0.010 A 
ATOM     39  C   UNL A   1      44.122  23.833  25.078  1.00  0.00     0.010 A 
ATOM     40  C   UNL A   1      44.986  23.913  26.168  1.00  0.00    -0.014 A 
BRANCH  40  41
ATOM     41  C   UNL A   1      44.921  25.086  27.007  1.00  0.00     0.031 A 
ATOM     42  C   UNL A   1      46.093  25.961  26.797  1.00  0.00     0.074 A 
ATOM     43  C   UNL A   1      43.858  25.374  27.779  1.00  0.00     0.049 A 
ATOM     44  N   UNL A   1      47.055  26.168  27.630  1.00  0.00    -0.248 NA
ATOM     45  C   UNL A   1      46.347  26.485  25.442  1.00  0.00     0.031 C 
ATOM     46  C   UNL A   1      42.572  24.678  27.850  1.00  0.00     0.029 A 
ATOM     47  N   UNL A   1      43.667  26.443  28.595  1.00  0.00    -0.354 N 
ATOM     48  C   UNL A   1      47.920  27.039  26.984  1.00  0.00     0.074 A 
ATOM     49  C   UNL A   1      47.563  27.009  25.591  1.00  0.00     0.031 C 
ATOM     50  C   UNL A   1      41.666  25.482  28.458  1.00  0.00     0.029 A 
ATOM     51  C   UNL A   1      42.336  26.692  28.911  1.00  0.00     0.049 A 
ATOM     52  H   UNL A   1      44.408  26.996  28.933  1.00  0.00     0.167 HD
ATOM     53  C   UNL A   1      48.633  27.952  27.696  1.00  0.00     0.031 A 
ATOM     54  C   UNL A   1      41.829  27.840  29.434  1.00  0.00     0.031 A 
ATOM     55  C   UNL A   1      48.663  27.613  29.097  1.00  0.00     0.049 A 
ATOM     56  C   UNL A   1      42.963  28.598  30.020  1.00  0.00     0.074 A 
ATOM     57  C   UNL A   1      49.085  26.511  29.817  1.00  0.00     0.029 A 
ATOM     58  N   UNL A   1      47.807  28.307  29.921  1.00  0.00    -0.354 N 
ATOM     59  N   UNL A   1      43.589  28.217  31.095  1.00  0.00    -0.248 NA
ATOM     60  C   UNL A   1      43.709  29.499  29.152  1.00  0.00     0.031 C 
ATOM     61  C   UNL A   1      48.114  26.351  30.847  1.00  0.00     0.029 A 
ATOM     62  C   UNL A   1      47.209  27.410  30.765  1.00  0.00     0.049 A 
ATOM     63  H   UNL A   1      47.653  29.279  29.907  1.00  0.00     0.167 HD
ATOM     64  C   UNL A   1      44.931  28.413  30.801  1.00  0.00     0.074 A 
ATOM     65  C   UNL A   1      44.939  29.304  29.639  1.00  0.00     0.031 C 
ATOM     66  C   UNL A   1      45.888  27.591  31.322  1.00  0.00     0.031 A 
BRANCH  53  67
ATOM     67  C   UNL A   1      48.859  29.363  27.211  1.00  0.00    -0.014 A 
ATOM     68  C   UNL A   1      50.179  29.841  27.164  1.00  0.00     0.009 A 
ATOM     69  C   UNL A   1      47.834  30.322  27.093  1.00  0.00     0.009 A 
ATOM     70  C   UNL A   1      50.452  31.212  27.109  1.00  0.00     0.001 A 
ATOM     71  C   UNL A   1      48.103  31.687  26.994  1.00  0.00     0.001 A 
ATOM     72  C   UNL A   1      49.413  32.135  27.036  1.00  0.00     0.000 A 
ENDBRANCH  53  67
BRANCH  54  73
ATOM     73  C   UNL A   1      40.495  28.460  29.247  1.00  0.00    -0.014 A 
ATOM     74  C   UNL A   1      40.132  29.020  28.008  1.00  0.00     0.009 A 
ATOM     75  C   UNL A   1      39.472  28.266  30.192  1.00  0.00     0.009 A 
ATOM     76  C   UNL A   1      38.794  29.319  27.710  1.00  0.00     0.001 A 
ATOM     77  C   UNL A   1      38.138  28.571  29.897  1.00  0.00     0.001 A 
ATOM     78  C   UNL A   1      37.795  29.080  28.650  1.00  0.00     0.000 A 
ENDBRANCH  54  73
BRANCH  66  79
ATOM     79  C   UNL A   1      45.479  26.623  32.406  1.00  0.00    -0.014 A 
ATOM     80  C   UNL A   1      44.940  25.349  32.150  1.00  0.00     0.009 A 
ATOM     81  C   UNL A   1      45.798  26.953  33.732  1.00  0.00     0.009 A 
ATOM     82  C   UNL A   1      44.695  24.450  33.194  1.00  0.00     0.001 A 
ATOM     83  C   UNL A   1      45.578  26.047  34.770  1.00  0.00     0.001 A 
ATOM     84  C   UNL A   1      45.019  24.800  34.503  1.00  0.00     0.000 A 
ENDBRANCH  66  79
ENDBRANCH  40  41
ENDBRANCH  33  35
ENDBRANCH  32  33
ENDBRANCH  31  32
ENDBRANCH  30  31
ENDBRANCH  29  30
ENDBRANCH   1  29
TORSDOF 18
ENDMDL
