MODEL 1
REMARK VINA RESULT:     -12.2      0.000      0.000
REMARK SMILES CS(=O)(=O)c1ccc(C2=NN(c3ccc(C(=O)OCCOCCOC(=O)c4ccc(-c5c6nc(c(-c7ccccc7)c7ccc([nH]7)c(-c7ccccc7)c7nc(c(-c8ccccc8)c8ccc5[nH]8)C=C7)C=C6)cc4)cc3)[C@H](c3ccc(F)cc3)C2)cc1
REMARK SMILES IDX 20 1 19 2 18 3 16 4 17 5 15 6 12 7 13 8 76 9 14 10 75 11
REMARK SMILES IDX 11 12 9 13 10 14 85 15 77 16 8 17 5 18 6 19 87 20 7 21 86 22
REMARK SMILES IDX 2 23 1 24 3 25 4 26 78 27 79 28 84 29 80 30 83 31 81 32
REMARK SMILES IDX 82 33 21 34 22 35 23 36 24 37 25 38 26 39 27 40 28 41 74 42
REMARK SMILES IDX 29 43 73 44 30 45 31 46 32 47 67 48 33 49 72 50 66 51 68 52
REMARK SMILES IDX 34 53 71 54 65 55 64 56 35 58 57 59 42 60 56 61 43 62 46 63
REMARK SMILES IDX 55 64 69 65 44 66 45 67 54 69 70 70 47 71 36 72 37 73 41 74
REMARK SMILES IDX 38 75 40 76 39 77 58 78 59 79 63 80 60 81 62 82 61 83 48 84
REMARK SMILES IDX 49 85 53 86 50 87 52 88 51 89
REMARK H PARENT 68 57 46 68
REMARK Flexibility Score: inf
ROOT
ATOM      1  C   UNL A   1      36.442  33.404  29.251  1.00  0.00     0.202 C 
ENDROOT
BRANCH   1   2
ATOM      2  C   UNL A   1      35.765  33.102  27.912  1.00  0.00     0.261 C 
BRANCH   2   3
ATOM      3  O   UNL A   1      35.399  31.715  27.833  1.00  0.00    -0.460 OA
BRANCH   3   4
ATOM      4  C   UNL A   1      34.069  31.462  27.896  1.00  0.00     0.338 C 
ATOM      5  O   UNL A   1      33.248  32.053  28.579  1.00  0.00    -0.246 OA
BRANCH   4   6
ATOM      6  C   UNL A   1      33.695  30.400  26.928  1.00  0.00     0.060 A 
ATOM      7  C   UNL A   1      32.746  28.369  25.239  1.00  0.00     0.060 A 
ATOM      8  C   UNL A   1      32.078  29.596  25.309  1.00  0.00     0.029 A 
ATOM      9  C   UNL A   1      33.958  28.218  25.927  1.00  0.00     0.029 A 
ATOM     10  C   UNL A   1      32.544  30.603  26.156  1.00  0.00     0.018 A 
ATOM     11  C   UNL A   1      34.432  29.221  26.776  1.00  0.00     0.018 A 
BRANCH   7  12
ATOM     12  N   UNL A   1      32.141  27.249  24.656  1.00  0.00    -0.257 N 
ATOM     13  C   UNL A   1      32.343  25.196  24.101  1.00  0.00     0.071 C 
ATOM     14  N   UNL A   1      32.451  26.005  25.110  1.00  0.00    -0.176 NA
ATOM     15  C   UNL A   1      32.059  25.840  22.772  1.00  0.00     0.091 C 
ATOM     16  C   UNL A   1      31.899  27.302  23.202  1.00  0.00     0.144 C 
BRANCH  13  17
ATOM     17  C   UNL A   1      32.471  23.733  24.235  1.00  0.00    -0.002 A 
ATOM     18  C   UNL A   1      32.798  20.974  24.440  1.00  0.00     0.067 A 
ATOM     19  C   UNL A   1      33.522  21.684  23.479  1.00  0.00     0.021 A 
ATOM     20  C   UNL A   1      31.896  21.630  25.285  1.00  0.00     0.021 A 
ATOM     21  C   UNL A   1      33.354  23.066  23.377  1.00  0.00     0.011 A 
ATOM     22  C   UNL A   1      31.739  23.017  25.189  1.00  0.00     0.011 A 
BRANCH  18  23
ATOM     23  S   UNL A   1      32.998  19.209  24.538  1.00  0.00     0.175 S 
ATOM     24  C   UNL A   1      32.405  18.627  22.970  1.00  0.00     0.163 C 
ATOM     25  O   UNL A   1      32.102  18.738  25.571  1.00  0.00    -0.224 OA
ATOM     26  O   UNL A   1      34.424  18.933  24.597  1.00  0.00    -0.224 OA
ENDBRANCH  18  23
ENDBRANCH  13  17
BRANCH  16  27
ATOM     27  C   UNL A   1      30.574  28.000  22.924  1.00  0.00    -0.023 A 
ATOM     28  C   UNL A   1      29.339  27.540  23.407  1.00  0.00     0.009 A 
ATOM     29  C   UNL A   1      30.601  29.232  22.234  1.00  0.00     0.009 A 
ATOM     30  C   UNL A   1      28.175  28.289  23.208  1.00  0.00     0.039 A 
ATOM     31  C   UNL A   1      29.445  29.996  22.069  1.00  0.00     0.039 A 
ATOM     32  C   UNL A   1      28.241  29.515  22.556  1.00  0.00     0.123 A 
ATOM     33  F   UNL A   1      27.130  30.247  22.411  1.00  0.00    -0.207 F 
ENDBRANCH  16  27
ENDBRANCH   7  12
ENDBRANCH   4   6
ENDBRANCH   3   4
ENDBRANCH   2   3
ENDBRANCH   1   2
BRANCH   1  34
ATOM     34  O   UNL A   1      35.729  34.277  30.127  1.00  0.00    -0.374 OA
BRANCH  34  35
ATOM     35  C   UNL A   1      34.623  33.725  30.844  1.00  0.00     0.202 C 
BRANCH  35  36
ATOM     36  C   UNL A   1      34.869  33.398  32.321  1.00  0.00     0.261 C 
BRANCH  36  37
ATOM     37  O   UNL A   1      35.261  32.026  32.513  1.00  0.00    -0.460 OA
BRANCH  37  38
ATOM     38  C   UNL A   1      36.430  31.860  33.172  1.00  0.00     0.338 C 
ATOM     39  O   UNL A   1      36.668  32.130  34.341  1.00  0.00    -0.246 OA
BRANCH  38  40
ATOM     40  C   UNL A   1      37.393  31.133  32.325  1.00  0.00     0.060 A 
ATOM     41  C   UNL A   1      38.608  30.756  32.910  1.00  0.00     0.016 A 
ATOM     42  C   UNL A   1      37.158  30.902  30.967  1.00  0.00     0.016 A 
ATOM     43  C   UNL A   1      39.617  30.199  32.128  1.00  0.00     0.010 A 
ATOM     44  C   UNL A   1      38.175  30.349  30.182  1.00  0.00     0.010 A 
ATOM     45  C   UNL A   1      39.423  30.034  30.751  1.00  0.00    -0.014 A 
BRANCH  45  46
ATOM     46  C   UNL A   1      40.578  29.684  29.891  1.00  0.00     0.031 A 
ATOM     47  C   UNL A   1      40.607  28.334  29.224  1.00  0.00     0.074 A 
ATOM     48  C   UNL A   1      41.564  30.569  29.662  1.00  0.00     0.049 A 
ATOM     49  N   UNL A   1      41.516  27.817  28.436  1.00  0.00    -0.248 NA
ATOM     50  C   UNL A   1      39.455  27.452  29.475  1.00  0.00     0.031 C 
ATOM     51  C   UNL A   1      41.627  31.926  30.200  1.00  0.00     0.029 A 
ATOM     52  N   UNL A   1      42.703  30.452  28.905  1.00  0.00    -0.354 N 
ATOM     53  C   UNL A   1      41.046  26.554  28.097  1.00  0.00     0.074 A 
ATOM     54  C   UNL A   1      39.791  26.368  28.791  1.00  0.00     0.031 C 
ATOM     55  C   UNL A   1      42.748  32.519  29.754  1.00  0.00     0.029 A 
ATOM     56  C   UNL A   1      43.494  31.575  28.927  1.00  0.00     0.049 A 
ATOM     57  H   UNL A   1      42.932  29.642  28.395  1.00  0.00     0.167 HD
ATOM     58  C   UNL A   1      41.601  25.634  27.274  1.00  0.00     0.031 A 
ATOM     59  C   UNL A   1      44.692  31.805  28.354  1.00  0.00     0.031 A 
ATOM     60  C   UNL A   1      42.857  25.806  26.595  1.00  0.00     0.049 A 
ATOM     61  C   UNL A   1      45.334  30.728  27.520  1.00  0.00     0.074 A 
ATOM     62  C   UNL A   1      43.509  24.925  25.749  1.00  0.00     0.029 A 
ATOM     63  N   UNL A   1      43.653  26.936  26.687  1.00  0.00    -0.354 N 
ATOM     64  N   UNL A   1      44.876  29.542  27.204  1.00  0.00    -0.248 NA
ATOM     65  C   UNL A   1      46.660  31.030  26.960  1.00  0.00     0.031 C 
ATOM     66  C   UNL A   1      44.723  25.505  25.365  1.00  0.00     0.029 A 
ATOM     67  C   UNL A   1      44.798  26.769  25.928  1.00  0.00     0.049 A 
ATOM     68  H   UNL A   1      43.436  27.739  27.214  1.00  0.00     0.167 HD
ATOM     69  C   UNL A   1      45.838  28.972  26.379  1.00  0.00     0.074 A 
ATOM     70  C   UNL A   1      46.901  29.946  26.236  1.00  0.00     0.031 C 
ATOM     71  C   UNL A   1      45.841  27.752  25.788  1.00  0.00     0.031 A 
BRANCH  58  72
ATOM     72  C   UNL A   1      40.858  24.343  27.081  1.00  0.00    -0.014 A 
ATOM     73  C   UNL A   1      41.381  23.128  27.552  1.00  0.00     0.009 A 
ATOM     74  C   UNL A   1      39.604  24.345  26.452  1.00  0.00     0.009 A 
ATOM     75  C   UNL A   1      40.676  21.937  27.371  1.00  0.00     0.001 A 
ATOM     76  C   UNL A   1      38.889  23.156  26.295  1.00  0.00     0.001 A 
ATOM     77  C   UNL A   1      39.428  21.952  26.747  1.00  0.00     0.000 A 
ENDBRANCH  58  72
BRANCH  59  78
ATOM     78  C   UNL A   1      45.382  33.106  28.555  1.00  0.00    -0.014 A 
ATOM     79  C   UNL A   1      46.154  33.336  29.704  1.00  0.00     0.009 A 
ATOM     80  C   UNL A   1      45.238  34.140  27.618  1.00  0.00     0.009 A 
ATOM     81  C   UNL A   1      46.739  34.585  29.926  1.00  0.00     0.001 A 
ATOM     82  C   UNL A   1      45.846  35.379  27.828  1.00  0.00     0.001 A 
ATOM     83  C   UNL A   1      46.587  35.604  28.987  1.00  0.00     0.000 A 
ENDBRANCH  59  78
BRANCH  71  84
ATOM     84  C   UNL A   1      47.002  27.422  24.893  1.00  0.00    -0.014 A 
ATOM     85  C   UNL A   1      47.067  27.893  23.573  1.00  0.00     0.009 A 
ATOM     86  C   UNL A   1      48.067  26.656  25.395  1.00  0.00     0.009 A 
ATOM     87  C   UNL A   1      48.158  27.573  22.762  1.00  0.00     0.001 A 
ATOM     88  C   UNL A   1      49.169  26.361  24.591  1.00  0.00     0.001 A 
ATOM     89  C   UNL A   1      49.209  26.811  23.273  1.00  0.00     0.000 A 
ENDBRANCH  71  84
ENDBRANCH  45  46
ENDBRANCH  38  40
ENDBRANCH  37  38
ENDBRANCH  36  37
ENDBRANCH  35  36
ENDBRANCH  34  35
ENDBRANCH   1  34
TORSDOF 18
ENDMDL
MODEL 2
REMARK VINA RESULT:     -12.1      1.210      5.670
REMARK SMILES CS(=O)(=O)c1ccc(C2=NN(c3ccc(C(=O)OCCOCCOC(=O)c4ccc(-c5c6nc(c(-c7ccccc7)c7ccc([nH]7)c(-c7ccccc7)c7nc(c(-c8ccccc8)c8ccc5[nH]8)C=C7)C=C6)cc4)cc3)[C@H](c3ccc(F)cc3)C2)cc1
REMARK SMILES IDX 20 1 19 2 18 3 16 4 17 5 15 6 12 7 13 8 76 9 14 10 75 11
REMARK SMILES IDX 11 12 9 13 10 14 85 15 77 16 8 17 5 18 6 19 87 20 7 21 86 22
REMARK SMILES IDX 2 23 1 24 3 25 4 26 78 27 79 28 84 29 80 30 83 31 81 32
REMARK SMILES IDX 82 33 21 34 22 35 23 36 24 37 25 38 26 39 27 40 28 41 74 42
REMARK SMILES IDX 29 43 73 44 30 45 31 46 32 47 67 48 33 49 72 50 66 51 68 52
REMARK SMILES IDX 34 53 71 54 65 55 64 56 35 58 57 59 42 60 56 61 43 62 46 63
REMARK SMILES IDX 55 64 69 65 44 66 45 67 54 69 70 70 47 71 36 72 37 73 41 74
REMARK SMILES IDX 38 75 40 76 39 77 58 78 59 79 63 80 60 81 62 82 61 83 48 84
REMARK SMILES IDX 49 85 53 86 50 87 52 88 51 89
REMARK H PARENT 68 57 46 68
REMARK Flexibility Score: inf
ROOT
ATOM      1  C   UNL A   1      34.927  33.263  29.754  1.00  0.00     0.202 C 
ENDROOT
BRANCH   1   2
ATOM      2  C   UNL A   1      35.453  32.094  28.917  1.00  0.00     0.261 C 
BRANCH   2   3
ATOM      3  O   UNL A   1      34.441  31.084  28.769  1.00  0.00    -0.460 OA
BRANCH   3   4
ATOM      4  C   UNL A   1      33.715  31.154  27.628  1.00  0.00     0.338 C 
ATOM      5  O   UNL A   1      33.484  32.159  26.972  1.00  0.00    -0.246 OA
BRANCH   4   6
ATOM      6  C   UNL A   1      33.290  29.799  27.196  1.00  0.00     0.060 A 
ATOM      7  C   UNL A   1      32.492  27.333  26.119  1.00  0.00     0.060 A 
ATOM      8  C   UNL A   1      33.747  27.866  25.805  1.00  0.00     0.029 A 
ATOM      9  C   UNL A   1      31.698  27.986  27.072  1.00  0.00     0.029 A 
ATOM     10  C   UNL A   1      34.139  29.096  26.333  1.00  0.00     0.018 A 
ATOM     11  C   UNL A   1      32.085  29.218  27.606  1.00  0.00     0.018 A 
BRANCH   7  12
ATOM     12  N   UNL A   1      31.946  26.280  25.374  1.00  0.00    -0.257 N 
ATOM     13  C   UNL A   1      32.244  24.331  24.553  1.00  0.00     0.071 C 
ATOM     14  N   UNL A   1      32.297  24.999  25.664  1.00  0.00    -0.176 NA
ATOM     15  C   UNL A   1      31.963  25.138  23.316  1.00  0.00     0.091 C 
ATOM     16  C   UNL A   1      31.734  26.521  23.935  1.00  0.00     0.144 C 
BRANCH  13  17
ATOM     17  C   UNL A   1      32.428  22.869  24.492  1.00  0.00    -0.002 A 
ATOM     18  C   UNL A   1      32.769  20.112  24.279  1.00  0.00     0.067 A 
ATOM     19  C   UNL A   1      32.188  20.818  23.222  1.00  0.00     0.021 A 
ATOM     20  C   UNL A   1      33.162  20.771  25.449  1.00  0.00     0.021 A 
ATOM     21  C   UNL A   1      32.016  22.199  23.333  1.00  0.00     0.011 A 
ATOM     22  C   UNL A   1      33.000  22.157  25.552  1.00  0.00     0.011 A 
BRANCH  18  23
ATOM     23  S   UNL A   1      32.953  18.349  24.137  1.00  0.00     0.175 S 
ATOM     24  C   UNL A   1      34.635  18.056  24.616  1.00  0.00     0.163 C 
ATOM     25  O   UNL A   1      32.811  18.019  22.736  1.00  0.00    -0.224 OA
ATOM     26  O   UNL A   1      32.098  17.737  25.141  1.00  0.00    -0.224 OA
ENDBRANCH  18  23
ENDBRANCH  13  17
BRANCH  16  27
ATOM     27  C   UNL A   1      30.387  27.200  23.718  1.00  0.00    -0.023 A 
ATOM     28  C   UNL A   1      30.234  28.416  23.034  1.00  0.00     0.009 A 
ATOM     29  C   UNL A   1      29.222  26.520  24.134  1.00  0.00     0.009 A 
ATOM     30  C   UNL A   1      28.958  28.928  22.774  1.00  0.00     0.039 A 
ATOM     31  C   UNL A   1      27.951  27.012  23.840  1.00  0.00     0.039 A 
ATOM     32  C   UNL A   1      27.831  28.216  23.165  1.00  0.00     0.123 A 
ATOM     33  F   UNL A   1      26.614  28.690  22.870  1.00  0.00    -0.207 F 
ENDBRANCH  16  27
ENDBRANCH   7  12
ENDBRANCH   4   6
ENDBRANCH   3   4
ENDBRANCH   2   3
ENDBRANCH   1   2
BRANCH   1  34
ATOM     34  O   UNL A   1      34.050  32.917  30.826  1.00  0.00    -0.374 OA
BRANCH  34  35
ATOM     35  C   UNL A   1      34.645  32.406  32.019  1.00  0.00     0.202 C 
BRANCH  35  36
ATOM     36  C   UNL A   1      34.930  33.427  33.127  1.00  0.00     0.261 C 
BRANCH  36  37
ATOM     37  O   UNL A   1      36.105  33.089  33.885  1.00  0.00    -0.460 OA
BRANCH  37  38
ATOM     38  C   UNL A   1      37.234  33.722  33.489  1.00  0.00     0.338 C 
ATOM     39  O   UNL A   1      37.696  34.763  33.934  1.00  0.00    -0.246 OA
BRANCH  38  40
ATOM     40  C   UNL A   1      37.967  32.892  32.515  1.00  0.00     0.060 A 
ATOM     41  C   UNL A   1      38.687  31.800  33.015  1.00  0.00     0.016 A 
ATOM     42  C   UNL A   1      38.025  33.219  31.159  1.00  0.00     0.016 A 
ATOM     43  C   UNL A   1      39.516  31.065  32.172  1.00  0.00     0.010 A 
ATOM     44  C   UNL A   1      38.864  32.484  30.314  1.00  0.00     0.010 A 
ATOM     45  C   UNL A   1      39.644  31.431  30.826  1.00  0.00    -0.014 A 
BRANCH  45  46
ATOM     46  C   UNL A   1      40.711  30.813  30.003  1.00  0.00     0.031 A 
ATOM     47  C   UNL A   1      41.982  31.583  29.760  1.00  0.00     0.074 A 
ATOM     48  C   UNL A   1      40.578  29.565  29.519  1.00  0.00     0.049 A 
ATOM     49  N   UNL A   1      43.041  31.240  29.071  1.00  0.00    -0.248 NA
ATOM     50  C   UNL A   1      42.073  32.914  30.382  1.00  0.00     0.031 C 
ATOM     51  C   UNL A   1      39.423  28.693  29.730  1.00  0.00     0.029 A 
ATOM     52  N   UNL A   1      41.433  28.814  28.752  1.00  0.00    -0.354 N 
ATOM     53  C   UNL A   1      43.922  32.309  29.179  1.00  0.00     0.074 A 
ATOM     54  C   UNL A   1      43.262  33.326  29.967  1.00  0.00     0.031 C 
ATOM     55  C   UNL A   1      39.643  27.522  29.107  1.00  0.00     0.029 A 
ATOM     56  C   UNL A   1      40.937  27.574  28.430  1.00  0.00     0.049 A 
ATOM     57  H   UNL A   1      42.317  29.133  28.461  1.00  0.00     0.167 HD
ATOM     58  C   UNL A   1      45.173  32.433  28.675  1.00  0.00     0.031 A 
ATOM     59  C   UNL A   1      41.464  26.600  27.664  1.00  0.00     0.031 A 
ATOM     60  C   UNL A   1      45.828  31.434  27.876  1.00  0.00     0.049 A 
ATOM     61  C   UNL A   1      42.818  26.802  27.036  1.00  0.00     0.074 A 
ATOM     62  C   UNL A   1      47.091  31.472  27.309  1.00  0.00     0.029 A 
ATOM     63  N   UNL A   1      45.270  30.214  27.527  1.00  0.00    -0.354 N 
ATOM     64  N   UNL A   1      43.641  27.815  27.150  1.00  0.00    -0.248 NA
ATOM     65  C   UNL A   1      43.315  25.717  26.177  1.00  0.00     0.031 C 
ATOM     66  C   UNL A   1      47.279  30.293  26.579  1.00  0.00     0.029 A 
ATOM     67  C   UNL A   1      46.154  29.499  26.739  1.00  0.00     0.049 A 
ATOM     68  H   UNL A   1      44.376  29.903  27.800  1.00  0.00     0.167 HD
ATOM     69  C   UNL A   1      44.767  27.474  26.410  1.00  0.00     0.074 A 
ATOM     70  C   UNL A   1      44.525  26.156  25.858  1.00  0.00     0.031 C 
ATOM     71  C   UNL A   1      45.902  28.186  26.207  1.00  0.00     0.031 A 
BRANCH  58  72
ATOM     72  C   UNL A   1      45.908  33.712  28.959  1.00  0.00    -0.014 A 
ATOM     73  C   UNL A   1      46.824  33.801  30.020  1.00  0.00     0.009 A 
ATOM     74  C   UNL A   1      45.708  34.831  28.137  1.00  0.00     0.009 A 
ATOM     75  C   UNL A   1      47.504  34.995  30.268  1.00  0.00     0.001 A 
ATOM     76  C   UNL A   1      46.409  36.015  28.371  1.00  0.00     0.001 A 
ATOM     77  C   UNL A   1      47.300  36.100  29.441  1.00  0.00     0.000 A 
ENDBRANCH  58  72
BRANCH  59  78
ATOM     78  C   UNL A   1      40.711  25.342  27.426  1.00  0.00    -0.014 A 
ATOM     79  C   UNL A   1      41.148  24.130  27.984  1.00  0.00     0.009 A 
ATOM     80  C   UNL A   1      39.573  25.337  26.604  1.00  0.00     0.009 A 
ATOM     81  C   UNL A   1      40.480  22.937  27.696  1.00  0.00     0.001 A 
ATOM     82  C   UNL A   1      38.892  24.148  26.341  1.00  0.00     0.001 A 
ATOM     83  C   UNL A   1      39.352  22.947  26.878  1.00  0.00     0.000 A 
ENDBRANCH  59  78
BRANCH  71  84
ATOM     84  C   UNL A   1      46.989  27.534  25.397  1.00  0.00    -0.014 A 
ATOM     85  C   UNL A   1      47.865  26.598  25.967  1.00  0.00     0.009 A 
ATOM     86  C   UNL A   1      47.112  27.839  24.033  1.00  0.00     0.009 A 
ATOM     87  C   UNL A   1      48.865  26.006  25.192  1.00  0.00     0.001 A 
ATOM     88  C   UNL A   1      48.095  27.225  23.254  1.00  0.00     0.001 A 
ATOM     89  C   UNL A   1      48.977  26.318  23.837  1.00  0.00     0.000 A 
ENDBRANCH  71  84
ENDBRANCH  45  46
ENDBRANCH  38  40
ENDBRANCH  37  38
ENDBRANCH  36  37
ENDBRANCH  35  36
ENDBRANCH  34  35
ENDBRANCH   1  34
TORSDOF 18
ENDMDL
MODEL 3
REMARK VINA RESULT:     -12.0      4.672     10.354
REMARK SMILES CS(=O)(=O)c1ccc(C2=NN(c3ccc(C(=O)OCCOCCOC(=O)c4ccc(-c5c6nc(c(-c7ccccc7)c7ccc([nH]7)c(-c7ccccc7)c7nc(c(-c8ccccc8)c8ccc5[nH]8)C=C7)C=C6)cc4)cc3)[C@H](c3ccc(F)cc3)C2)cc1
REMARK SMILES IDX 20 1 19 2 18 3 16 4 17 5 15 6 12 7 13 8 76 9 14 10 75 11
REMARK SMILES IDX 11 12 9 13 10 14 85 15 77 16 8 17 5 18 6 19 87 20 7 21 86 22
REMARK SMILES IDX 2 23 1 24 3 25 4 26 78 27 79 28 84 29 80 30 83 31 81 32
REMARK SMILES IDX 82 33 21 34 22 35 23 36 24 37 25 38 26 39 27 40 28 41 74 42
REMARK SMILES IDX 29 43 73 44 30 45 31 46 32 47 67 48 33 49 72 50 66 51 68 52
REMARK SMILES IDX 34 53 71 54 65 55 64 56 35 58 57 59 42 60 56 61 43 62 46 63
REMARK SMILES IDX 55 64 69 65 44 66 45 67 54 69 70 70 47 71 36 72 37 73 41 74
REMARK SMILES IDX 38 75 40 76 39 77 58 78 59 79 63 80 60 81 62 82 61 83 48 84
REMARK SMILES IDX 49 85 53 86 50 87 52 88 51 89
REMARK H PARENT 68 57 46 68
REMARK Flexibility Score: inf
ROOT
ATOM      1  C   UNL A   1      41.609  23.026  26.673  1.00  0.00     0.202 C 
ENDROOT
BRANCH   1   2
ATOM      2  C   UNL A   1      40.362  22.317  27.209  1.00  0.00     0.261 C 
BRANCH   2   3
ATOM      3  O   UNL A   1      39.176  22.863  26.612  1.00  0.00    -0.460 OA
BRANCH   3   4
ATOM      4  C   UNL A   1      38.539  22.048  25.738  1.00  0.00     0.338 C 
ATOM      5  O   UNL A   1      38.846  20.900  25.457  1.00  0.00    -0.246 OA
BRANCH   4   6
ATOM      6  C   UNL A   1      37.318  22.706  25.206  1.00  0.00     0.060 A 
ATOM      7  C   UNL A   1      34.868  23.805  24.390  1.00  0.00     0.060 A 
ATOM      8  C   UNL A   1      35.355  24.048  25.679  1.00  0.00     0.029 A 
ATOM      9  C   UNL A   1      35.678  23.113  23.480  1.00  0.00     0.029 A 
ATOM     10  C   UNL A   1      36.569  23.493  26.088  1.00  0.00     0.018 A 
ATOM     11  C   UNL A   1      36.895  22.556  23.881  1.00  0.00     0.018 A 
BRANCH   7  12
ATOM     12  N   UNL A   1      33.534  24.074  24.059  1.00  0.00    -0.257 N 
ATOM     13  C   UNL A   1      31.913  25.461  24.159  1.00  0.00     0.071 C 
ATOM     14  N   UNL A   1      33.152  25.351  23.791  1.00  0.00    -0.176 NA
ATOM     15  C   UNL A   1      31.329  24.266  24.860  1.00  0.00     0.091 C 
ATOM     16  C   UNL A   1      32.502  23.284  24.755  1.00  0.00     0.144 C 
BRANCH  13  17
ATOM     17  C   UNL A   1      31.108  26.670  23.900  1.00  0.00    -0.002 A 
ATOM     18  C   UNL A   1      29.508  28.899  23.427  1.00  0.00     0.067 A 
ATOM     19  C   UNL A   1      28.949  27.621  23.348  1.00  0.00     0.021 A 
ATOM     20  C   UNL A   1      30.865  29.070  23.721  1.00  0.00     0.021 A 
ATOM     21  C   UNL A   1      29.754  26.506  23.583  1.00  0.00     0.011 A 
ATOM     22  C   UNL A   1      31.667  27.951  23.968  1.00  0.00     0.011 A 
BRANCH  18  23
ATOM     23  S   UNL A   1      28.477  30.311  23.094  1.00  0.00     0.175 S 
ATOM     24  C   UNL A   1      28.685  30.587  21.354  1.00  0.00     0.163 C 
ATOM     25  O   UNL A   1      29.049  31.431  23.808  1.00  0.00    -0.224 OA
ATOM     26  O   UNL A   1      27.098  29.907  23.313  1.00  0.00    -0.224 OA
ENDBRANCH  18  23
ENDBRANCH  13  17
BRANCH  16  27
ATOM     27  C   UNL A   1      32.281  21.965  24.026  1.00  0.00    -0.023 A 
ATOM     28  C   UNL A   1      32.030  21.873  22.649  1.00  0.00     0.009 A 
ATOM     29  C   UNL A   1      32.442  20.766  24.754  1.00  0.00     0.009 A 
ATOM     30  C   UNL A   1      31.946  20.624  22.023  1.00  0.00     0.039 A 
ATOM     31  C   UNL A   1      32.397  19.522  24.123  1.00  0.00     0.039 A 
ATOM     32  C   UNL A   1      32.146  19.464  22.761  1.00  0.00     0.123 A 
ATOM     33  F   UNL A   1      32.111  18.275  22.147  1.00  0.00    -0.207 F 
ENDBRANCH  16  27
ENDBRANCH   7  12
ENDBRANCH   4   6
ENDBRANCH   3   4
ENDBRANCH   2   3
ENDBRANCH   1   2
BRANCH   1  34
ATOM     34  O   UNL A   1      42.829  22.290  26.757  1.00  0.00    -0.374 OA
BRANCH  34  35
ATOM     35  C   UNL A   1      43.417  21.856  25.530  1.00  0.00     0.202 C 
BRANCH  35  36
ATOM     36  C   UNL A   1      44.863  22.298  25.276  1.00  0.00     0.261 C 
BRANCH  36  37
ATOM     37  O   UNL A   1      45.341  23.193  26.297  1.00  0.00    -0.460 OA
BRANCH  37  38
ATOM     38  C   UNL A   1      45.352  24.499  25.944  1.00  0.00     0.338 C 
ATOM     39  O   UNL A   1      45.488  24.963  24.822  1.00  0.00    -0.246 OA
BRANCH  38  40
ATOM     40  C   UNL A   1      45.008  25.342  27.104  1.00  0.00     0.060 A 
ATOM     41  C   UNL A   1      44.392  24.715  28.195  1.00  0.00     0.016 A 
ATOM     42  C   UNL A   1      45.199  26.725  27.097  1.00  0.00     0.016 A 
ATOM     43  C   UNL A   1      43.910  25.475  29.257  1.00  0.00     0.010 A 
ATOM     44  C   UNL A   1      44.708  27.489  28.161  1.00  0.00     0.010 A 
ATOM     45  C   UNL A   1      44.025  26.871  29.225  1.00  0.00    -0.014 A 
BRANCH  45  46
ATOM     46  C   UNL A   1      43.291  27.683  30.225  1.00  0.00     0.031 A 
ATOM     47  C   UNL A   1      43.914  27.913  31.576  1.00  0.00     0.074 A 
ATOM     48  C   UNL A   1      42.111  28.253  29.922  1.00  0.00     0.049 A 
ATOM     49  N   UNL A   1      43.451  28.585  32.599  1.00  0.00    -0.248 NA
ATOM     50  C   UNL A   1      45.238  27.309  31.800  1.00  0.00     0.031 C 
ATOM     51  C   UNL A   1      41.428  28.155  28.633  1.00  0.00     0.029 A 
ATOM     52  N   UNL A   1      41.281  29.035  30.686  1.00  0.00    -0.354 N 
ATOM     53  C   UNL A   1      44.425  28.487  33.586  1.00  0.00     0.074 A 
ATOM     54  C   UNL A   1      45.487  27.662  33.053  1.00  0.00     0.031 C 
ATOM     55  C   UNL A   1      40.281  28.854  28.695  1.00  0.00     0.029 A 
ATOM     56  C   UNL A   1      40.136  29.421  30.033  1.00  0.00     0.049 A 
ATOM     57  H   UNL A   1      41.487  29.296  31.612  1.00  0.00     0.167 HD
ATOM     58  C   UNL A   1      44.441  29.041  34.821  1.00  0.00     0.031 A 
ATOM     59  C   UNL A   1      39.084  30.138  30.474  1.00  0.00     0.031 A 
ATOM     60  C   UNL A   1      43.381  29.846  35.363  1.00  0.00     0.049 A 
ATOM     61  C   UNL A   1      39.084  30.662  31.886  1.00  0.00     0.074 A 
ATOM     62  C   UNL A   1      43.299  30.442  36.611  1.00  0.00     0.029 A 
ATOM     63  N   UNL A   1      42.213  30.168  34.689  1.00  0.00    -0.354 N 
ATOM     64  N   UNL A   1      40.013  30.566  32.805  1.00  0.00    -0.248 NA
ATOM     65  C   UNL A   1      37.887  31.400  32.316  1.00  0.00     0.031 C 
ATOM     66  C   UNL A   1      42.062  31.087  36.708  1.00  0.00     0.029 A 
ATOM     67  C   UNL A   1      41.398  30.938  35.500  1.00  0.00     0.049 A 
ATOM     68  H   UNL A   1      41.997  29.890  33.770  1.00  0.00     0.167 HD
ATOM     69  C   UNL A   1      39.530  31.262  33.906  1.00  0.00     0.074 A 
ATOM     70  C   UNL A   1      38.230  31.783  33.538  1.00  0.00     0.031 C 
ATOM     71  C   UNL A   1      40.112  31.457  35.115  1.00  0.00     0.031 A 
BRANCH  58  72
ATOM     72  C   UNL A   1      45.642  28.771  35.682  1.00  0.00    -0.014 A 
ATOM     73  C   UNL A   1      46.750  29.634  35.671  1.00  0.00     0.009 A 
ATOM     74  C   UNL A   1      45.653  27.662  36.541  1.00  0.00     0.009 A 
ATOM     75  C   UNL A   1      47.857  29.373  36.481  1.00  0.00     0.001 A 
ATOM     76  C   UNL A   1      46.750  27.418  37.369  1.00  0.00     0.001 A 
ATOM     77  C   UNL A   1      47.854  28.269  37.333  1.00  0.00     0.000 A 
ENDBRANCH  58  72
BRANCH  59  78
ATOM     78  C   UNL A   1      37.925  30.398  29.581  1.00  0.00    -0.014 A 
ATOM     79  C   UNL A   1      37.754  31.655  28.979  1.00  0.00     0.009 A 
ATOM     80  C   UNL A   1      36.960  29.404  29.359  1.00  0.00     0.009 A 
ATOM     81  C   UNL A   1      36.624  31.919  28.201  1.00  0.00     0.001 A 
ATOM     82  C   UNL A   1      35.846  29.662  28.559  1.00  0.00     0.001 A 
ATOM     83  C   UNL A   1      35.673  30.923  27.989  1.00  0.00     0.000 A 
ENDBRANCH  59  78
BRANCH  71  84
ATOM     84  C   UNL A   1      39.371  32.309  36.107  1.00  0.00    -0.014 A 
ATOM     85  C   UNL A   1      39.619  33.686  36.220  1.00  0.00     0.009 A 
ATOM     86  C   UNL A   1      38.383  31.727  36.917  1.00  0.00     0.009 A 
ATOM     87  C   UNL A   1      38.916  34.455  37.149  1.00  0.00     0.001 A 
ATOM     88  C   UNL A   1      37.662  32.504  37.826  1.00  0.00     0.001 A 
ATOM     89  C   UNL A   1      37.937  33.864  37.949  1.00  0.00     0.000 A 
ENDBRANCH  71  84
ENDBRANCH  45  46
ENDBRANCH  38  40
ENDBRANCH  37  38
ENDBRANCH  36  37
ENDBRANCH  35  36
ENDBRANCH  34  35
ENDBRANCH   1  34
TORSDOF 18
ENDMDL
