MODEL 1
REMARK VINA RESULT:      -9.7      0.000      0.000
REMARK SMILES CC[C@H](C)CN(CC)C(=O)Nc1ccc(C(=O)OCCOCCOC(=O)c2ccc(-c3c4nc(c(-c5ccccc5)c5ccc([nH]5)c(-c5ccccc5)c5nc(c(-c6ccccc6)c6ccc3[nH]6)C=C5)C=C4)cc2)cc1Cl
REMARK SMILES IDX 19 1 18 2 16 3 17 4 15 5 12 6 13 7 76 8 14 9 75 10 77 11
REMARK SMILES IDX 11 12 9 13 10 14 6 16 5 17 3 18 4 19 2 20 1 21 7 22 8 23
REMARK SMILES IDX 20 24 21 25 22 26 23 27 24 28 25 29 26 30 27 31 28 32 74 33
REMARK SMILES IDX 29 34 73 35 30 36 31 37 32 38 67 39 33 40 72 41 66 42 68 43
REMARK SMILES IDX 34 44 71 45 65 46 64 47 35 49 57 50 42 51 56 52 43 53 46 54
REMARK SMILES IDX 55 55 69 56 44 57 45 58 54 60 70 61 47 62 36 63 37 64 41 65
REMARK SMILES IDX 38 66 40 67 39 68 58 69 59 70 63 71 60 72 62 73 61 74 48 75
REMARK SMILES IDX 49 76 53 77 50 78 52 79 51 80
REMARK H PARENT 11 15 68 48 46 59
REMARK Flexibility Score: inf
ROOT
ATOM      1  C   UNL A   1      41.442  21.570  26.671  1.00  0.00     0.261 C 
ENDROOT
BRANCH   1   2
ATOM      2  O   UNL A   1      40.082  21.597  26.217  1.00  0.00    -0.460 OA
BRANCH   2   3
ATOM      3  C   UNL A   1      39.454  22.786  26.358  1.00  0.00     0.338 C 
ATOM      4  O   UNL A   1      39.949  23.830  26.753  1.00  0.00    -0.246 OA
BRANCH   3   5
ATOM      5  C   UNL A   1      38.046  22.694  25.895  1.00  0.00     0.061 A 
ATOM      6  C   UNL A   1      35.584  22.515  24.630  1.00  0.00     0.061 A 
ATOM      7  C   UNL A   1      36.397  21.382  24.700  1.00  0.00     0.028 A 
ATOM      8  C   UNL A   1      35.893  23.654  25.385  1.00  0.00     0.065 A 
ATOM      9  C   UNL A   1      37.641  21.483  25.316  1.00  0.00     0.018 A 
ATOM     10  C   UNL A   1      37.137  23.755  26.007  1.00  0.00     0.038 A 
ATOM     11  Cl  UNL A   1      34.748  24.931  25.599  1.00  0.00    -0.082 Cl
BRANCH   6  12
ATOM     12  N   UNL A   1      34.555  22.487  23.692  1.00  0.00    -0.306 N 
ATOM     13  C   UNL A   1      33.329  21.899  23.724  1.00  0.00     0.321 C 
ATOM     14  O   UNL A   1      32.736  21.869  22.638  1.00  0.00    -0.248 OA
ATOM     15  H   UNL A   1      34.749  22.978  22.861  1.00  0.00     0.171 HD
BRANCH  13  16
ATOM     16  N   UNL A   1      32.702  21.518  24.901  1.00  0.00    -0.325 N 
BRANCH  16  17
ATOM     17  C   UNL A   1      32.936  20.130  25.340  1.00  0.00     0.124 C 
BRANCH  17  18
ATOM     18  C   UNL A   1      33.405  19.215  24.174  1.00  0.00     0.005 C 
ATOM     19  C   UNL A   1      34.573  18.316  24.590  1.00  0.00     0.009 C 
BRANCH  18  20
ATOM     20  C   UNL A   1      32.208  18.458  23.551  1.00  0.00     0.002 C 
ATOM     21  C   UNL A   1      32.306  18.134  22.068  1.00  0.00     0.004 C 
ENDBRANCH  18  20
ENDBRANCH  17  18
ENDBRANCH  16  17
BRANCH  16  22
ATOM     22  C   UNL A   1      31.703  22.232  25.713  1.00  0.00     0.118 C 
ATOM     23  C   UNL A   1      31.102  23.437  24.998  1.00  0.00     0.027 C 
ENDBRANCH  16  22
ENDBRANCH  13  16
ENDBRANCH   6  12
ENDBRANCH   3   5
ENDBRANCH   2   3
ENDBRANCH   1   2
BRANCH   1  24
ATOM     24  C   UNL A   1      42.150  20.305  26.180  1.00  0.00     0.202 C 
BRANCH  24  25
ATOM     25  O   UNL A   1      43.118  20.458  25.141  1.00  0.00    -0.374 OA
BRANCH  25  26
ATOM     26  C   UNL A   1      44.092  21.489  25.267  1.00  0.00     0.202 C 
BRANCH  26  27
ATOM     27  C   UNL A   1      44.044  22.657  24.273  1.00  0.00     0.261 C 
BRANCH  27  28
ATOM     28  O   UNL A   1      43.573  23.885  24.849  1.00  0.00    -0.460 OA
BRANCH  28  29
ATOM     29  C   UNL A   1      44.568  24.733  25.209  1.00  0.00     0.338 C 
ATOM     30  O   UNL A   1      45.546  25.048  24.552  1.00  0.00    -0.246 OA
BRANCH  29  31
ATOM     31  C   UNL A   1      44.249  25.392  26.489  1.00  0.00     0.060 A 
ATOM     32  C   UNL A   1      43.370  24.718  27.345  1.00  0.00     0.016 A 
ATOM     33  C   UNL A   1      44.707  26.673  26.802  1.00  0.00     0.016 A 
ATOM     34  C   UNL A   1      42.893  25.350  28.488  1.00  0.00     0.010 A 
ATOM     35  C   UNL A   1      44.222  27.309  27.953  1.00  0.00     0.010 A 
ATOM     36  C   UNL A   1      43.280  26.666  28.775  1.00  0.00    -0.014 A 
BRANCH  36  37
ATOM     37  C   UNL A   1      42.576  27.385  29.863  1.00  0.00     0.031 A 
ATOM     38  C   UNL A   1      43.203  27.457  31.228  1.00  0.00     0.074 A 
ATOM     39  C   UNL A   1      41.429  28.040  29.615  1.00  0.00     0.049 A 
ATOM     40  N   UNL A   1      42.822  28.139  32.278  1.00  0.00    -0.248 NA
ATOM     41  C   UNL A   1      44.417  26.654  31.437  1.00  0.00     0.031 C 
ATOM     42  C   UNL A   1      40.726  28.059  28.333  1.00  0.00     0.029 A 
ATOM     43  N   UNL A   1      40.662  28.829  30.434  1.00  0.00    -0.354 N 
ATOM     44  C   UNL A   1      43.749  27.850  33.271  1.00  0.00     0.074 A 
ATOM     45  C   UNL A   1      44.689  26.903  32.710  1.00  0.00     0.031 C 
ATOM     46  C   UNL A   1      39.630  28.828  28.451  1.00  0.00     0.029 A 
ATOM     47  C   UNL A   1      39.552  29.346  29.814  1.00  0.00     0.049 A 
ATOM     48  H   UNL A   1      40.885  29.006  31.377  1.00  0.00     0.167 HD
ATOM     49  C   UNL A   1      43.820  28.334  34.535  1.00  0.00     0.031 A 
ATOM     50  C   UNL A   1      38.584  30.151  30.292  1.00  0.00     0.031 A 
ATOM     51  C   UNL A   1      42.882  29.266  35.102  1.00  0.00     0.049 A 
ATOM     52  C   UNL A   1      38.670  30.661  31.703  1.00  0.00     0.074 A 
ATOM     53  C   UNL A   1      42.890  29.843  36.360  1.00  0.00     0.029 A 
ATOM     54  N   UNL A   1      41.757  29.747  34.449  1.00  0.00    -0.354 N 
ATOM     55  N   UNL A   1      39.589  30.431  32.610  1.00  0.00    -0.248 NA
ATOM     56  C   UNL A   1      37.596  31.560  32.147  1.00  0.00     0.031 C 
ATOM     57  C   UNL A   1      41.741  30.632  36.487  1.00  0.00     0.029 A 
ATOM     58  C   UNL A   1      41.048  30.590  35.287  1.00  0.00     0.049 A 
ATOM     59  H   UNL A   1      41.501  29.522  33.526  1.00  0.00     0.167 HD
ATOM     60  C   UNL A   1      39.216  31.173  33.724  1.00  0.00     0.074 A 
ATOM     61  C   UNL A   1      37.998  31.875  33.371  1.00  0.00     0.031 C 
ATOM     62  C   UNL A   1      39.829  31.268  34.930  1.00  0.00     0.031 A 
BRANCH  49  63
ATOM     63  C   UNL A   1      44.942  27.831  35.401  1.00  0.00    -0.014 A 
ATOM     64  C   UNL A   1      44.816  26.648  36.146  1.00  0.00     0.009 A 
ATOM     65  C   UNL A   1      46.148  28.546  35.457  1.00  0.00     0.009 A 
ATOM     66  C   UNL A   1      45.863  26.212  36.961  1.00  0.00     0.001 A 
ATOM     67  C   UNL A   1      47.202  28.093  36.252  1.00  0.00     0.001 A 
ATOM     68  C   UNL A   1      47.056  26.933  37.012  1.00  0.00     0.000 A 
ENDBRANCH  49  63
BRANCH  50  69
ATOM     69  C   UNL A   1      37.447  30.531  29.414  1.00  0.00    -0.014 A 
ATOM     70  C   UNL A   1      37.372  31.811  28.846  1.00  0.00     0.009 A 
ATOM     71  C   UNL A   1      36.433  29.602  29.136  1.00  0.00     0.009 A 
ATOM     72  C   UNL A   1      36.292  32.159  28.032  1.00  0.00     0.001 A 
ATOM     73  C   UNL A   1      35.367  29.944  28.301  1.00  0.00     0.001 A 
ATOM     74  C   UNL A   1      35.294  31.225  27.756  1.00  0.00     0.000 A 
ENDBRANCH  50  69
BRANCH  62  75
ATOM     75  C   UNL A   1      39.198  32.179  35.947  1.00  0.00    -0.014 A 
ATOM     76  C   UNL A   1      39.579  33.525  36.056  1.00  0.00     0.009 A 
ATOM     77  C   UNL A   1      38.194  31.685  36.794  1.00  0.00     0.009 A 
ATOM     78  C   UNL A   1      38.996  34.349  37.023  1.00  0.00     0.001 A 
ATOM     79  C   UNL A   1      37.592  32.518  37.740  1.00  0.00     0.001 A 
ATOM     80  C   UNL A   1      38.003  33.845  37.861  1.00  0.00     0.000 A 
ENDBRANCH  62  75
ENDBRANCH  36  37
ENDBRANCH  29  31
ENDBRANCH  28  29
ENDBRANCH  27  28
ENDBRANCH  26  27
ENDBRANCH  25  26
ENDBRANCH  24  25
ENDBRANCH   1  24
TORSDOF 20
ENDMDL
MODEL 2
REMARK VINA RESULT:      -9.5      4.305      9.823
REMARK SMILES CC[C@H](C)CN(CC)C(=O)Nc1ccc(C(=O)OCCOCCOC(=O)c2ccc(-c3c4nc(c(-c5ccccc5)c5ccc([nH]5)c(-c5ccccc5)c5nc(c(-c6ccccc6)c6ccc3[nH]6)C=C5)C=C4)cc2)cc1Cl
REMARK SMILES IDX 19 1 18 2 16 3 17 4 15 5 12 6 13 7 76 8 14 9 75 10 77 11
REMARK SMILES IDX 11 12 9 13 10 14 6 16 5 17 3 18 4 19 2 20 1 21 7 22 8 23
REMARK SMILES IDX 20 24 21 25 22 26 23 27 24 28 25 29 26 30 27 31 28 32 74 33
REMARK SMILES IDX 29 34 73 35 30 36 31 37 32 38 67 39 33 40 72 41 66 42 68 43
REMARK SMILES IDX 34 44 71 45 65 46 64 47 35 49 57 50 42 51 56 52 43 53 46 54
REMARK SMILES IDX 55 55 69 56 44 57 45 58 54 60 70 61 47 62 36 63 37 64 41 65
REMARK SMILES IDX 38 66 40 67 39 68 58 69 59 70 63 71 60 72 62 73 61 74 48 75
REMARK SMILES IDX 49 76 53 77 50 78 52 79 51 80
REMARK H PARENT 11 15 68 48 46 59
REMARK Flexibility Score: inf
ROOT
ATOM      1  C   UNL A   1      35.384  31.159  28.476  1.00  0.00     0.261 C 
ENDROOT
BRANCH   1   2
ATOM      2  O   UNL A   1      34.877  30.678  27.224  1.00  0.00    -0.460 OA
BRANCH   2   3
ATOM      3  C   UNL A   1      33.529  30.619  27.135  1.00  0.00     0.338 C 
ATOM      4  O   UNL A   1      32.750  31.552  27.251  1.00  0.00    -0.246 OA
BRANCH   3   5
ATOM      5  C   UNL A   1      33.085  29.243  26.800  1.00  0.00     0.061 A 
ATOM      6  C   UNL A   1      32.195  26.623  26.603  1.00  0.00     0.061 A 
ATOM      7  C   UNL A   1      31.270  27.639  26.855  1.00  0.00     0.028 A 
ATOM      8  C   UNL A   1      33.505  26.939  26.223  1.00  0.00     0.065 A 
ATOM      9  C   UNL A   1      31.725  28.948  26.976  1.00  0.00     0.018 A 
ATOM     10  C   UNL A   1      33.961  28.251  26.338  1.00  0.00     0.038 A 
ATOM     11  Cl  UNL A   1      34.568  25.742  25.572  1.00  0.00    -0.082 Cl
BRANCH   6  12
ATOM     12  N   UNL A   1      31.781  25.321  26.875  1.00  0.00    -0.306 N 
ATOM     13  C   UNL A   1      31.321  24.337  26.055  1.00  0.00     0.321 C 
ATOM     14  O   UNL A   1      30.821  23.366  26.635  1.00  0.00    -0.248 OA
ATOM     15  H   UNL A   1      31.829  25.069  27.825  1.00  0.00     0.171 HD
BRANCH  13  16
ATOM     16  N   UNL A   1      31.546  24.325  24.687  1.00  0.00    -0.325 N 
BRANCH  16  17
ATOM     17  C   UNL A   1      30.420  24.761  23.841  1.00  0.00     0.124 C 
BRANCH  17  18
ATOM     18  C   UNL A   1      30.252  26.306  23.835  1.00  0.00     0.005 C 
ATOM     19  C   UNL A   1      31.072  26.964  22.722  1.00  0.00     0.009 C 
BRANCH  18  20
ATOM     20  C   UNL A   1      28.756  26.699  23.842  1.00  0.00     0.002 C 
ATOM     21  C   UNL A   1      28.407  28.058  23.256  1.00  0.00     0.004 C 
ENDBRANCH  18  20
ENDBRANCH  17  18
ENDBRANCH  16  17
BRANCH  16  22
ATOM     22  C   UNL A   1      32.687  23.794  23.922  1.00  0.00     0.118 C 
ATOM     23  C   UNL A   1      32.311  23.360  22.510  1.00  0.00     0.027 C 
ENDBRANCH  16  22
ENDBRANCH  13  16
ENDBRANCH   6  12
ENDBRANCH   3   5
ENDBRANCH   2   3
ENDBRANCH   1   2
BRANCH   1  24
ATOM     24  C   UNL A   1      35.587  32.675  28.428  1.00  0.00     0.202 C 
BRANCH  24  25
ATOM     25  O   UNL A   1      34.631  33.486  29.113  1.00  0.00    -0.374 OA
BRANCH  25  26
ATOM     26  C   UNL A   1      34.213  34.704  28.504  1.00  0.00     0.202 C 
BRANCH  26  27
ATOM     27  C   UNL A   1      33.275  35.625  29.296  1.00  0.00     0.261 C 
BRANCH  27  28
ATOM     28  O   UNL A   1      32.647  34.982  30.415  1.00  0.00    -0.460 OA
BRANCH  28  29
ATOM     29  C   UNL A   1      32.838  35.629  31.592  1.00  0.00     0.338 C 
ATOM     30  O   UNL A   1      32.178  36.548  32.046  1.00  0.00    -0.246 OA
BRANCH  29  31
ATOM     31  C   UNL A   1      33.892  34.967  32.382  1.00  0.00     0.060 A 
ATOM     32  C   UNL A   1      35.157  35.565  32.373  1.00  0.00     0.016 A 
ATOM     33  C   UNL A   1      33.685  33.746  33.027  1.00  0.00     0.016 A 
ATOM     34  C   UNL A   1      36.239  34.912  32.955  1.00  0.00     0.010 A 
ATOM     35  C   UNL A   1      34.777  33.088  33.608  1.00  0.00     0.010 A 
ATOM     36  C   UNL A   1      36.064  33.649  33.535  1.00  0.00    -0.014 A 
BRANCH  36  37
ATOM     37  C   UNL A   1      37.270  32.884  33.932  1.00  0.00     0.031 A 
ATOM     38  C   UNL A   1      37.837  31.857  32.991  1.00  0.00     0.074 A 
ATOM     39  C   UNL A   1      37.903  33.161  35.085  1.00  0.00     0.049 A 
ATOM     40  N   UNL A   1      38.950  31.174  33.085  1.00  0.00    -0.248 NA
ATOM     41  C   UNL A   1      37.047  31.561  31.787  1.00  0.00     0.031 C 
ATOM     42  C   UNL A   1      37.462  34.140  36.077  1.00  0.00     0.029 A 
ATOM     43  N   UNL A   1      39.063  32.648  35.607  1.00  0.00    -0.354 N 
ATOM     44  C   UNL A   1      38.995  30.369  31.954  1.00  0.00     0.074 A 
ATOM     45  C   UNL A   1      37.781  30.622  31.207  1.00  0.00     0.031 C 
ATOM     46  C   UNL A   1      38.347  34.161  37.088  1.00  0.00     0.029 A 
ATOM     47  C   UNL A   1      39.408  33.193  36.818  1.00  0.00     0.049 A 
ATOM     48  H   UNL A   1      39.597  31.954  35.157  1.00  0.00     0.167 HD
ATOM     49  C   UNL A   1      39.962  29.503  31.565  1.00  0.00     0.031 A 
ATOM     50  C   UNL A   1      40.462  32.944  37.617  1.00  0.00     0.031 A 
ATOM     51  C   UNL A   1      41.164  29.239  32.309  1.00  0.00     0.049 A 
ATOM     52  C   UNL A   1      41.513  31.965  37.176  1.00  0.00     0.074 A 
ATOM     53  C   UNL A   1      42.219  28.408  31.979  1.00  0.00     0.029 A 
ATOM     54  N   UNL A   1      41.464  29.795  33.544  1.00  0.00    -0.354 N 
ATOM     55  N   UNL A   1      41.575  31.260  36.072  1.00  0.00    -0.248 NA
ATOM     56  C   UNL A   1      42.652  31.765  38.083  1.00  0.00     0.031 C 
ATOM     57  C   UNL A   1      43.134  28.418  33.039  1.00  0.00     0.029 A 
ATOM     58  C   UNL A   1      42.673  29.302  34.003  1.00  0.00     0.049 A 
ATOM     59  H   UNL A   1      40.900  30.444  34.023  1.00  0.00     0.167 HD
ATOM     60  C   UNL A   1      42.767  30.550  36.141  1.00  0.00     0.074 A 
ATOM     61  C   UNL A   1      43.406  30.925  37.387  1.00  0.00     0.031 C 
ATOM     62  C   UNL A   1      43.289  29.669  35.252  1.00  0.00     0.031 A 
BRANCH  49  63
ATOM     63  C   UNL A   1      39.734  28.752  30.282  1.00  0.00    -0.014 A 
ATOM     64  C   UNL A   1      39.189  27.459  30.279  1.00  0.00     0.009 A 
ATOM     65  C   UNL A   1      40.057  29.358  29.058  1.00  0.00     0.009 A 
ATOM     66  C   UNL A   1      39.008  26.772  29.076  1.00  0.00     0.001 A 
ATOM     67  C   UNL A   1      39.850  28.679  27.856  1.00  0.00     0.001 A 
ATOM     68  C   UNL A   1      39.336  27.383  27.866  1.00  0.00     0.000 A 
ENDBRANCH  49  63
BRANCH  50  69
ATOM     69  C   UNL A   1      40.576  33.647  38.921  1.00  0.00    -0.014 A 
ATOM     70  C   UNL A   1      41.250  34.873  39.022  1.00  0.00     0.009 A 
ATOM     71  C   UNL A   1      39.999  33.090  40.073  1.00  0.00     0.009 A 
ATOM     72  C   UNL A   1      41.360  35.517  40.256  1.00  0.00     0.001 A 
ATOM     73  C   UNL A   1      40.089  33.749  41.300  1.00  0.00     0.001 A 
ATOM     74  C   UNL A   1      40.776  34.958  41.393  1.00  0.00     0.000 A 
ENDBRANCH  50  69
BRANCH  62  75
ATOM     75  C   UNL A   1      44.625  29.067  35.590  1.00  0.00    -0.014 A 
ATOM     76  C   UNL A   1      44.722  27.854  36.288  1.00  0.00     0.009 A 
ATOM     77  C   UNL A   1      45.802  29.716  35.185  1.00  0.00     0.009 A 
ATOM     78  C   UNL A   1      45.973  27.322  36.612  1.00  0.00     0.001 A 
ATOM     79  C   UNL A   1      47.052  29.167  35.485  1.00  0.00     0.001 A 
ATOM     80  C   UNL A   1      47.135  27.979  36.208  1.00  0.00     0.000 A 
ENDBRANCH  62  75
ENDBRANCH  36  37
ENDBRANCH  29  31
ENDBRANCH  28  29
ENDBRANCH  27  28
ENDBRANCH  26  27
ENDBRANCH  25  26
ENDBRANCH  24  25
ENDBRANCH   1  24
TORSDOF 20
ENDMDL
MODEL 3
REMARK VINA RESULT:      -9.4      3.983      7.756
REMARK SMILES CC[C@H](C)CN(CC)C(=O)Nc1ccc(C(=O)OCCOCCOC(=O)c2ccc(-c3c4nc(c(-c5ccccc5)c5ccc([nH]5)c(-c5ccccc5)c5nc(c(-c6ccccc6)c6ccc3[nH]6)C=C5)C=C4)cc2)cc1Cl
REMARK SMILES IDX 19 1 18 2 16 3 17 4 15 5 12 6 13 7 76 8 14 9 75 10 77 11
REMARK SMILES IDX 11 12 9 13 10 14 6 16 5 17 3 18 4 19 2 20 1 21 7 22 8 23
REMARK SMILES IDX 20 24 21 25 22 26 23 27 24 28 25 29 26 30 27 31 28 32 74 33
REMARK SMILES IDX 29 34 73 35 30 36 31 37 32 38 67 39 33 40 72 41 66 42 68 43
REMARK SMILES IDX 34 44 71 45 65 46 64 47 35 49 57 50 42 51 56 52 43 53 46 54
REMARK SMILES IDX 55 55 69 56 44 57 45 58 54 60 70 61 47 62 36 63 37 64 41 65
REMARK SMILES IDX 38 66 40 67 39 68 58 69 59 70 63 71 60 72 62 73 61 74 48 75
REMARK SMILES IDX 49 76 53 77 50 78 52 79 51 80
REMARK H PARENT 11 15 68 48 46 59
REMARK Flexibility Score: inf
ROOT
ATOM      1  C   UNL A   1      36.644  21.437  25.550  1.00  0.00     0.261 C 
ENDROOT
BRANCH   1   2
ATOM      2  O   UNL A   1      37.160  22.636  24.957  1.00  0.00    -0.460 OA
BRANCH   2   3
ATOM      3  C   UNL A   1      36.540  23.026  23.819  1.00  0.00     0.338 C 
ATOM      4  O   UNL A   1      37.003  22.996  22.690  1.00  0.00    -0.246 OA
BRANCH   3   5
ATOM      5  C   UNL A   1      35.147  23.453  24.102  1.00  0.00     0.061 A 
ATOM      6  C   UNL A   1      32.594  24.048  25.011  1.00  0.00     0.061 A 
ATOM      7  C   UNL A   1      33.684  24.746  25.536  1.00  0.00     0.028 A 
ATOM      8  C   UNL A   1      32.755  23.234  23.882  1.00  0.00     0.065 A 
ATOM      9  C   UNL A   1      34.965  24.427  25.094  1.00  0.00     0.018 A 
ATOM     10  C   UNL A   1      34.037  22.919  23.434  1.00  0.00     0.038 A 
ATOM     11  Cl  UNL A   1      31.393  22.639  23.000  1.00  0.00    -0.082 Cl
BRANCH   6  12
ATOM     12  N   UNL A   1      31.407  24.107  25.737  1.00  0.00    -0.306 N 
ATOM     13  C   UNL A   1      30.523  25.124  25.927  1.00  0.00     0.321 C 
ATOM     14  O   UNL A   1      29.681  24.924  26.811  1.00  0.00    -0.248 OA
ATOM     15  H   UNL A   1      31.166  23.268  26.191  1.00  0.00     0.171 HD
BRANCH  13  16
ATOM     16  N   UNL A   1      30.443  26.225  25.088  1.00  0.00    -0.325 N 
BRANCH  16  17
ATOM     17  C   UNL A   1      30.985  27.487  25.623  1.00  0.00     0.124 C 
BRANCH  17  18
ATOM     18  C   UNL A   1      31.668  28.347  24.524  1.00  0.00     0.005 C 
ATOM     19  C   UNL A   1      31.025  29.732  24.402  1.00  0.00     0.009 C 
BRANCH  18  20
ATOM     20  C   UNL A   1      33.203  28.372  24.715  1.00  0.00     0.002 C 
ATOM     21  C   UNL A   1      33.709  28.366  26.149  1.00  0.00     0.004 C 
ENDBRANCH  18  20
ENDBRANCH  17  18
ENDBRANCH  16  17
BRANCH  16  22
ATOM     22  C   UNL A   1      29.757  26.380  23.795  1.00  0.00     0.118 C 
ATOM     23  C   UNL A   1      28.283  26.743  23.939  1.00  0.00     0.027 C 
ENDBRANCH  16  22
ENDBRANCH  13  16
ENDBRANCH   6  12
ENDBRANCH   3   5
ENDBRANCH   2   3
ENDBRANCH   1   2
BRANCH   1  24
ATOM     24  C   UNL A   1      37.002  20.217  24.699  1.00  0.00     0.202 C 
BRANCH  24  25
ATOM     25  O   UNL A   1      38.249  19.574  24.967  1.00  0.00    -0.374 OA
BRANCH  25  26
ATOM     26  C   UNL A   1      39.225  20.277  25.731  1.00  0.00     0.202 C 
BRANCH  26  27
ATOM     27  C   UNL A   1      40.463  19.506  26.210  1.00  0.00     0.261 C 
BRANCH  27  28
ATOM     28  O   UNL A   1      41.562  19.551  25.288  1.00  0.00    -0.460 OA
BRANCH  28  29
ATOM     29  C   UNL A   1      42.733  19.930  25.856  1.00  0.00     0.338 C 
ATOM     30  O   UNL A   1      43.792  19.325  25.844  1.00  0.00    -0.246 OA
BRANCH  29  31
ATOM     31  C   UNL A   1      42.630  21.301  26.389  1.00  0.00     0.060 A 
ATOM     32  C   UNL A   1      42.765  22.348  25.470  1.00  0.00     0.016 A 
ATOM     33  C   UNL A   1      42.511  21.563  27.755  1.00  0.00     0.016 A 
ATOM     34  C   UNL A   1      42.847  23.661  25.919  1.00  0.00     0.010 A 
ATOM     35  C   UNL A   1      42.599  22.887  28.206  1.00  0.00     0.010 A 
ATOM     36  C   UNL A   1      42.811  23.935  27.293  1.00  0.00    -0.014 A 
BRANCH  36  37
ATOM     37  C   UNL A   1      43.134  25.308  27.746  1.00  0.00     0.031 A 
ATOM     38  C   UNL A   1      42.019  26.280  28.018  1.00  0.00     0.074 A 
ATOM     39  C   UNL A   1      44.408  25.661  27.993  1.00  0.00     0.049 A 
ATOM     40  N   UNL A   1      42.075  27.478  28.541  1.00  0.00    -0.248 NA
ATOM     41  C   UNL A   1      40.663  25.843  27.654  1.00  0.00     0.031 C 
ATOM     42  C   UNL A   1      45.577  24.810  27.781  1.00  0.00     0.029 A 
ATOM     43  N   UNL A   1      44.925  26.831  28.490  1.00  0.00    -0.354 N 
ATOM     44  C   UNL A   1      40.764  27.938  28.570  1.00  0.00     0.074 A 
ATOM     45  C   UNL A   1      39.941  26.905  27.979  1.00  0.00     0.031 C 
ATOM     46  C   UNL A   1      46.678  25.486  28.153  1.00  0.00     0.029 A 
ATOM     47  C   UNL A   1      46.291  26.815  28.618  1.00  0.00     0.049 A 
ATOM     48  H   UNL A   1      44.369  27.607  28.731  1.00  0.00     0.167 HD
ATOM     49  C   UNL A   1      40.286  29.110  29.052  1.00  0.00     0.031 A 
ATOM     50  C   UNL A   1      47.134  27.764  29.066  1.00  0.00     0.031 A 
ATOM     51  C   UNL A   1      41.101  30.146  29.628  1.00  0.00     0.049 A 
ATOM     52  C   UNL A   1      46.584  29.066  29.577  1.00  0.00     0.074 A 
ATOM     53  C   UNL A   1      40.704  31.352  30.178  1.00  0.00     0.029 A 
ATOM     54  N   UNL A   1      42.483  30.101  29.717  1.00  0.00    -0.354 N 
ATOM     55  N   UNL A   1      45.336  29.461  29.659  1.00  0.00    -0.248 NA
ATOM     56  C   UNL A   1      47.560  30.044  30.079  1.00  0.00     0.031 C 
ATOM     57  C   UNL A   1      41.852  32.062  30.551  1.00  0.00     0.029 A 
ATOM     58  C   UNL A   1      42.959  31.271  30.286  1.00  0.00     0.049 A 
ATOM     59  H   UNL A   1      43.045  29.349  29.420  1.00  0.00     0.167 HD
ATOM     60  C   UNL A   1      45.375  30.722  30.241  1.00  0.00     0.074 A 
ATOM     61  C   UNL A   1      46.768  31.017  30.508  1.00  0.00     0.031 C 
ATOM     62  C   UNL A   1      44.348  31.559  30.531  1.00  0.00     0.031 A 
BRANCH  49  63
ATOM     63  C   UNL A   1      38.804  29.344  28.941  1.00  0.00    -0.014 A 
ATOM     64  C   UNL A   1      38.219  29.769  27.738  1.00  0.00     0.009 A 
ATOM     65  C   UNL A   1      37.981  29.119  30.055  1.00  0.00     0.009 A 
ATOM     66  C   UNL A   1      36.843  30.000  27.665  1.00  0.00     0.001 A 
ATOM     67  C   UNL A   1      36.604  29.326  29.972  1.00  0.00     0.001 A 
ATOM     68  C   UNL A   1      36.037  29.777  28.780  1.00  0.00     0.000 A 
ENDBRANCH  49  63
BRANCH  50  69
ATOM     69  C   UNL A   1      48.598  27.509  29.055  1.00  0.00    -0.014 A 
ATOM     70  C   UNL A   1      49.396  27.940  27.985  1.00  0.00     0.009 A 
ATOM     71  C   UNL A   1      49.202  26.834  30.127  1.00  0.00     0.009 A 
ATOM     72  C   UNL A   1      50.768  27.684  27.982  1.00  0.00     0.001 A 
ATOM     73  C   UNL A   1      50.579  26.602  30.132  1.00  0.00     0.001 A 
ATOM     74  C   UNL A   1      51.360  27.020  29.056  1.00  0.00     0.000 A 
ENDBRANCH  50  69
BRANCH  62  75
ATOM     75  C   UNL A   1      44.698  32.866  31.188  1.00  0.00    -0.014 A 
ATOM     76  C   UNL A   1      44.955  34.018  30.429  1.00  0.00     0.009 A 
ATOM     77  C   UNL A   1      44.750  32.948  32.588  1.00  0.00     0.009 A 
ATOM     78  C   UNL A   1      45.300  35.217  31.058  1.00  0.00     0.001 A 
ATOM     79  C   UNL A   1      45.067  34.155  33.216  1.00  0.00     0.001 A 
ATOM     80  C   UNL A   1      45.353  35.284  32.450  1.00  0.00     0.000 A 
ENDBRANCH  62  75
ENDBRANCH  36  37
ENDBRANCH  29  31
ENDBRANCH  28  29
ENDBRANCH  27  28
ENDBRANCH  26  27
ENDBRANCH  25  26
ENDBRANCH  24  25
ENDBRANCH   1  24
TORSDOF 20
ENDMDL
