MODEL 1
REMARK VINA RESULT:      -9.4      0.000      0.000
REMARK SMILES CC(C)C[C@H](NC(=O)[C@H](Cc1ccccc1)NC(=O)CNC(=O)C[NH3+])C(=O)OCCOCCOC(=O)c1ccc(-c2c3nc(c(-c4ccccc4)c4ccc([nH]4)c(-c4ccccc4)c4nc(c(-c5ccccc5)c5ccc2[nH]5)C=C4)C=C3)cc1
REMARK SMILES IDX 29 1 28 2 26 3 27 4 5 5 4 6 2 7 1 8 3 9 6 10 7 11 8 13 9 14
REMARK SMILES IDX 17 15 18 16 19 18 20 19 21 20 22 21 23 23 24 24 25 25 10 29
REMARK SMILES IDX 11 30 12 31 16 32 13 33 15 34 14 35 30 36 31 37 32 38 33 39
REMARK SMILES IDX 34 40 35 41 36 42 37 43 38 44 84 45 39 46 83 47 40 48 41 49
REMARK SMILES IDX 42 50 77 51 43 52 82 53 76 54 78 55 44 56 81 57 75 58 74 59
REMARK SMILES IDX 45 61 67 62 52 63 66 64 53 65 56 66 65 67 79 68 54 69 55 70
REMARK SMILES IDX 64 72 80 73 57 74 46 75 47 76 51 77 48 78 50 79 49 80 68 81
REMARK SMILES IDX 69 82 73 83 70 84 72 85 71 86 58 87 59 88 63 89 60 90 62 91
REMARK SMILES IDX 61 92
REMARK H PARENT 6 12 17 17 21 22 25 26 25 27 25 28 78 60 56 71
REMARK Flexibility Score: inf
ROOT
ATOM      1  C   UNL A   1      33.272  21.212  25.462  1.00  0.00     0.261 C 
ENDROOT
BRANCH   1   2
ATOM      2  O   UNL A   1      33.767  22.514  25.260  1.00  0.00    -0.462 OA
BRANCH   2   3
ATOM      3  C   UNL A   1      33.509  22.956  24.011  1.00  0.00     0.328 C 
ATOM      4  O   UNL A   1      33.292  22.253  23.039  1.00  0.00    -0.250 OA
BRANCH   3   5
ATOM      5  C   UNL A   1      33.664  24.455  24.001  1.00  0.00     0.192 C 
BRANCH   5   6
ATOM      6  C   UNL A   1      33.105  25.007  25.322  1.00  0.00     0.040 C 
BRANCH   6   7
ATOM      7  C   UNL A   1      31.601  25.295  25.462  1.00  0.00    -0.015 C 
ATOM      8  C   UNL A   1      30.792  24.124  26.006  1.00  0.00     0.007 C 
ATOM      9  C   UNL A   1      31.413  26.488  26.405  1.00  0.00     0.007 C 
ENDBRANCH   6   7
ENDBRANCH   5   6
BRANCH   5  10
ATOM     10  N   UNL A   1      33.299  25.140  22.731  1.00  0.00    -0.341 N 
ATOM     11  C   UNL A   1      33.231  26.313  22.062  1.00  0.00     0.243 C 
ATOM     12  H   UNL A   1      32.968  24.444  22.118  1.00  0.00     0.164 HD
ATOM     13  O   UNL A   1      33.257  26.064  20.836  1.00  0.00    -0.273 OA
BRANCH  11  14
ATOM     14  C   UNL A   1      33.136  27.879  22.517  1.00  0.00     0.175 C 
BRANCH  14  15
ATOM     15  N   UNL A   1      31.766  27.810  23.072  1.00  0.00    -0.342 N 
ATOM     16  C   UNL A   1      30.603  28.286  22.572  1.00  0.00     0.240 C 
ATOM     17  H   UNL A   1      31.690  27.345  23.937  1.00  0.00     0.164 HD
ATOM     18  O   UNL A   1      29.613  27.553  22.636  1.00  0.00    -0.273 OA
BRANCH  16  19
ATOM     19  C   UNL A   1      30.519  29.639  21.898  1.00  0.00     0.216 C 
BRANCH  19  20
ATOM     20  N   UNL A   1      29.954  30.696  22.712  1.00  0.00    -0.342 N 
ATOM     21  C   UNL A   1      28.653  30.942  23.017  1.00  0.00     0.275 C 
ATOM     22  H   UNL A   1      30.605  31.325  23.099  1.00  0.00     0.164 HD
ATOM     23  O   UNL A   1      28.422  31.698  23.964  1.00  0.00    -0.268 OA
BRANCH  21  24
ATOM     24  C   UNL A   1      27.494  30.305  22.244  1.00  0.00     0.360 C 
BRANCH  24  25
ATOM     25  N   UNL A   1      27.008  29.059  22.841  1.00  0.00    -0.350 N 
ATOM     26  H   UNL A   1      27.440  28.930  23.757  1.00  0.00     0.344 HD
ATOM     27  H   UNL A   1      27.253  28.274  22.237  1.00  0.00     0.344 HD
ATOM     28  H   UNL A   1      25.995  29.104  22.946  1.00  0.00     0.344 HD
ENDBRANCH  24  25
ENDBRANCH  21  24
ENDBRANCH  19  20
ENDBRANCH  16  19
ENDBRANCH  14  15
BRANCH  14  29
ATOM     29  C   UNL A   1      34.093  28.369  23.716  1.00  0.00     0.070 C 
BRANCH  29  30
ATOM     30  C   UNL A   1      33.766  28.888  25.129  1.00  0.00    -0.045 A 
ATOM     31  C   UNL A   1      32.818  29.917  25.338  1.00  0.00     0.004 A 
ATOM     32  C   UNL A   1      34.564  28.589  26.235  1.00  0.00     0.004 A 
ATOM     33  C   UNL A   1      32.495  30.422  26.599  1.00  0.00     0.000 A 
ATOM     34  C   UNL A   1      34.331  29.185  27.490  1.00  0.00     0.000 A 
ATOM     35  C   UNL A   1      33.254  30.045  27.687  1.00  0.00     0.000 A 
ENDBRANCH  29  30
ENDBRANCH  14  29
ENDBRANCH  11  14
ENDBRANCH   5  10
ENDBRANCH   3   5
ENDBRANCH   2   3
ENDBRANCH   1   2
BRANCH   1  36
ATOM     36  C   UNL A   1      34.439  20.282  25.801  1.00  0.00     0.202 C 
BRANCH  36  37
ATOM     37  O   UNL A   1      35.544  19.821  25.011  1.00  0.00    -0.374 OA
BRANCH  37  38
ATOM     38  C   UNL A   1      36.813  20.444  24.678  1.00  0.00     0.202 C 
BRANCH  38  39
ATOM     39  C   UNL A   1      37.116  22.050  24.474  1.00  0.00     0.261 C 
BRANCH  39  40
ATOM     40  O   UNL A   1      37.619  22.837  25.634  1.00  0.00    -0.460 OA
BRANCH  40  41
ATOM     41  C   UNL A   1      38.921  22.782  26.109  1.00  0.00     0.338 C 
ATOM     42  O   UNL A   1      39.667  21.831  25.949  1.00  0.00    -0.246 OA
BRANCH  41  43
ATOM     43  C   UNL A   1      39.424  24.111  26.730  1.00  0.00     0.060 A 
ATOM     44  C   UNL A   1      39.119  24.409  28.070  1.00  0.00     0.016 A 
ATOM     45  C   UNL A   1      40.152  25.097  26.044  1.00  0.00     0.016 A 
ATOM     46  C   UNL A   1      39.670  25.524  28.760  1.00  0.00     0.010 A 
ATOM     47  C   UNL A   1      40.624  26.281  26.712  1.00  0.00     0.010 A 
ATOM     48  C   UNL A   1      40.415  26.503  28.092  1.00  0.00    -0.014 A 
BRANCH  48  49
ATOM     49  C   UNL A   1      40.561  27.869  28.746  1.00  0.00     0.031 A 
ATOM     50  C   UNL A   1      41.944  28.190  29.279  1.00  0.00     0.074 A 
ATOM     51  C   UNL A   1      39.645  28.867  28.798  1.00  0.00     0.049 A 
ATOM     52  N   UNL A   1      42.377  29.221  29.963  1.00  0.00    -0.248 NA
ATOM     53  C   UNL A   1      42.985  27.197  28.974  1.00  0.00     0.031 C 
ATOM     54  C   UNL A   1      38.312  28.853  28.206  1.00  0.00     0.029 A 
ATOM     55  N   UNL A   1      39.714  30.127  29.380  1.00  0.00    -0.354 N 
ATOM     56  C   UNL A   1      43.722  28.968  30.208  1.00  0.00     0.074 A 
ATOM     57  C   UNL A   1      44.037  27.702  29.590  1.00  0.00     0.031 C 
ATOM     58  C   UNL A   1      37.687  30.021  28.461  1.00  0.00     0.029 A 
ATOM     59  C   UNL A   1      38.555  30.873  29.274  1.00  0.00     0.049 A 
ATOM     60  H   UNL A   1      40.523  30.461  29.830  1.00  0.00     0.167 HD
ATOM     61  C   UNL A   1      44.630  29.701  30.895  1.00  0.00     0.031 A 
ATOM     62  C   UNL A   1      38.217  32.081  29.789  1.00  0.00     0.031 A 
ATOM     63  C   UNL A   1      44.359  30.966  31.514  1.00  0.00     0.049 A 
ATOM     64  C   UNL A   1      39.205  32.837  30.653  1.00  0.00     0.074 A 
ATOM     65  C   UNL A   1      45.213  31.759  32.260  1.00  0.00     0.029 A 
ATOM     66  N   UNL A   1      43.145  31.626  31.454  1.00  0.00    -0.354 N 
ATOM     67  N   UNL A   1      40.452  32.548  30.937  1.00  0.00    -0.248 NA
ATOM     68  C   UNL A   1      38.732  34.089  31.276  1.00  0.00     0.031 C 
ATOM     69  C   UNL A   1      44.499  32.880  32.694  1.00  0.00     0.029 A 
ATOM     70  C   UNL A   1      43.221  32.812  32.163  1.00  0.00     0.049 A 
ATOM     71  H   UNL A   1      42.346  31.301  30.978  1.00  0.00     0.167 HD
ATOM     72  C   UNL A   1      40.916  33.591  31.735  1.00  0.00     0.074 A 
ATOM     73  C   UNL A   1      39.825  34.528  31.884  1.00  0.00     0.031 C 
ATOM     74  C   UNL A   1      42.142  33.754  32.293  1.00  0.00     0.031 A 
BRANCH  61  75
ATOM     75  C   UNL A   1      45.984  29.079  31.086  1.00  0.00    -0.014 A 
ATOM     76  C   UNL A   1      46.304  28.333  32.233  1.00  0.00     0.009 A 
ATOM     77  C   UNL A   1      46.974  29.294  30.114  1.00  0.00     0.009 A 
ATOM     78  C   UNL A   1      47.606  27.865  32.426  1.00  0.00     0.001 A 
ATOM     79  C   UNL A   1      48.262  28.793  30.293  1.00  0.00     0.001 A 
ATOM     80  C   UNL A   1      48.582  28.093  31.455  1.00  0.00     0.000 A 
ENDBRANCH  61  75
BRANCH  62  81
ATOM     81  C   UNL A   1      36.855  32.670  29.576  1.00  0.00    -0.014 A 
ATOM     82  C   UNL A   1      35.813  32.439  30.492  1.00  0.00     0.009 A 
ATOM     83  C   UNL A   1      36.558  33.376  28.398  1.00  0.00     0.009 A 
ATOM     84  C   UNL A   1      34.510  32.881  30.225  1.00  0.00     0.001 A 
ATOM     85  C   UNL A   1      35.263  33.841  28.146  1.00  0.00     0.001 A 
ATOM     86  C   UNL A   1      34.236  33.585  29.054  1.00  0.00     0.000 A 
ENDBRANCH  62  81
BRANCH  74  87
ATOM     87  C   UNL A   1      42.405  35.021  33.062  1.00  0.00    -0.014 A 
ATOM     88  C   UNL A   1      43.127  36.087  32.505  1.00  0.00     0.009 A 
ATOM     89  C   UNL A   1      41.863  35.169  34.349  1.00  0.00     0.009 A 
ATOM     90  C   UNL A   1      43.328  37.262  33.235  1.00  0.00     0.001 A 
ATOM     91  C   UNL A   1      42.040  36.355  35.065  1.00  0.00     0.001 A 
ATOM     92  C   UNL A   1      42.780  37.397  34.511  1.00  0.00     0.000 A 
ENDBRANCH  74  87
ENDBRANCH  48  49
ENDBRANCH  41  43
ENDBRANCH  40  41
ENDBRANCH  39  40
ENDBRANCH  38  39
ENDBRANCH  37  38
ENDBRANCH  36  37
ENDBRANCH   1  36
TORSDOF 25
ENDMDL
MODEL 2
REMARK VINA RESULT:      -9.0      3.187      8.665
REMARK SMILES CC(C)C[C@H](NC(=O)[C@H](Cc1ccccc1)NC(=O)CNC(=O)C[NH3+])C(=O)OCCOCCOC(=O)c1ccc(-c2c3nc(c(-c4ccccc4)c4ccc([nH]4)c(-c4ccccc4)c4nc(c(-c5ccccc5)c5ccc2[nH]5)C=C4)C=C3)cc1
REMARK SMILES IDX 29 1 28 2 26 3 27 4 5 5 4 6 2 7 1 8 3 9 6 10 7 11 8 13 9 14
REMARK SMILES IDX 17 15 18 16 19 18 20 19 21 20 22 21 23 23 24 24 25 25 10 29
REMARK SMILES IDX 11 30 12 31 16 32 13 33 15 34 14 35 30 36 31 37 32 38 33 39
REMARK SMILES IDX 34 40 35 41 36 42 37 43 38 44 84 45 39 46 83 47 40 48 41 49
REMARK SMILES IDX 42 50 77 51 43 52 82 53 76 54 78 55 44 56 81 57 75 58 74 59
REMARK SMILES IDX 45 61 67 62 52 63 66 64 53 65 56 66 65 67 79 68 54 69 55 70
REMARK SMILES IDX 64 72 80 73 57 74 46 75 47 76 51 77 48 78 50 79 49 80 68 81
REMARK SMILES IDX 69 82 73 83 70 84 72 85 71 86 58 87 59 88 63 89 60 90 62 91
REMARK SMILES IDX 61 92
REMARK H PARENT 6 12 17 17 21 22 25 26 25 27 25 28 78 60 56 71
REMARK Flexibility Score: inf
ROOT
ATOM      1  C   UNL A   1      33.744  28.965  26.024  1.00  0.00     0.261 C 
ENDROOT
BRANCH   1   2
ATOM      2  O   UNL A   1      32.580  29.304  25.309  1.00  0.00    -0.462 OA
BRANCH   2   3
ATOM      3  C   UNL A   1      32.645  28.888  24.026  1.00  0.00     0.328 C 
ATOM      4  O   UNL A   1      33.494  29.215  23.215  1.00  0.00    -0.250 OA
BRANCH   3   5
ATOM      5  C   UNL A   1      31.420  28.058  23.737  1.00  0.00     0.192 C 
BRANCH   5   6
ATOM      6  C   UNL A   1      30.469  28.891  22.862  1.00  0.00     0.040 C 
BRANCH   6   7
ATOM      7  C   UNL A   1      29.212  29.524  23.478  1.00  0.00    -0.015 C 
ATOM      8  C   UNL A   1      29.158  31.042  23.359  1.00  0.00     0.007 C 
ATOM      9  C   UNL A   1      27.976  28.944  22.782  1.00  0.00     0.007 C 
ENDBRANCH   6   7
ENDBRANCH   5   6
BRANCH   5  10
ATOM     10  N   UNL A   1      30.854  27.308  24.892  1.00  0.00    -0.341 N 
ATOM     11  C   UNL A   1      31.017  26.283  25.759  1.00  0.00     0.243 C 
ATOM     12  H   UNL A   1      30.002  27.742  25.122  1.00  0.00     0.164 HD
ATOM     13  O   UNL A   1      30.349  26.533  26.786  1.00  0.00    -0.273 OA
BRANCH  11  14
ATOM     14  C   UNL A   1      31.865  24.888  25.724  1.00  0.00     0.175 C 
BRANCH  14  15
ATOM     15  N   UNL A   1      30.697  23.984  25.624  1.00  0.00    -0.342 N 
ATOM     16  C   UNL A   1      30.598  22.662  25.890  1.00  0.00     0.240 C 
ATOM     17  H   UNL A   1      29.865  24.412  25.316  1.00  0.00     0.164 HD
ATOM     18  O   UNL A   1      29.605  22.279  26.514  1.00  0.00    -0.273 OA
BRANCH  16  19
ATOM     19  C   UNL A   1      31.688  21.686  25.502  1.00  0.00     0.216 C 
BRANCH  19  20
ATOM     20  N   UNL A   1      32.788  21.589  26.440  1.00  0.00    -0.342 N 
ATOM     21  C   UNL A   1      34.040  21.095  26.248  1.00  0.00     0.275 C 
ATOM     22  H   UNL A   1      32.602  21.929  27.345  1.00  0.00     0.164 HD
ATOM     23  O   UNL A   1      34.902  21.389  27.079  1.00  0.00    -0.268 OA
BRANCH  21  24
ATOM     24  C   UNL A   1      34.401  20.219  25.044  1.00  0.00     0.360 C 
BRANCH  24  25
ATOM     25  N   UNL A   1      35.779  19.725  25.075  1.00  0.00    -0.350 N 
ATOM     26  H   UNL A   1      36.029  19.357  24.156  1.00  0.00     0.344 HD
ATOM     27  H   UNL A   1      35.858  18.982  25.771  1.00  0.00     0.344 HD
ATOM     28  H   UNL A   1      36.409  20.488  25.319  1.00  0.00     0.344 HD
ENDBRANCH  24  25
ENDBRANCH  21  24
ENDBRANCH  19  20
ENDBRANCH  16  19
ENDBRANCH  14  15
BRANCH  14  29
ATOM     29  C   UNL A   1      32.782  24.600  24.433  1.00  0.00     0.070 C 
BRANCH  29  30
ATOM     30  C   UNL A   1      34.262  24.189  24.309  1.00  0.00    -0.045 A 
ATOM     31  C   UNL A   1      34.706  23.326  23.280  1.00  0.00     0.004 A 
ATOM     32  C   UNL A   1      35.182  24.402  25.337  1.00  0.00     0.004 A 
ATOM     33  C   UNL A   1      36.035  22.922  23.134  1.00  0.00     0.000 A 
ATOM     34  C   UNL A   1      36.494  23.895  25.264  1.00  0.00     0.000 A 
ATOM     35  C   UNL A   1      36.939  23.218  24.133  1.00  0.00     0.000 A 
ENDBRANCH  29  30
ENDBRANCH  14  29
ENDBRANCH  11  14
ENDBRANCH   5  10
ENDBRANCH   3   5
ENDBRANCH   2   3
ENDBRANCH   1   2
BRANCH   1  36
ATOM     36  C   UNL A   1      33.874  29.896  27.231  1.00  0.00     0.202 C 
BRANCH  36  37
ATOM     37  O   UNL A   1      33.466  31.257  27.428  1.00  0.00    -0.374 OA
BRANCH  37  38
ATOM     38  C   UNL A   1      34.197  32.421  27.897  1.00  0.00     0.202 C 
BRANCH  38  39
ATOM     39  C   UNL A   1      34.044  33.180  29.350  1.00  0.00     0.261 C 
BRANCH  39  40
ATOM     40  O   UNL A   1      34.433  32.446  30.586  1.00  0.00    -0.460 OA
BRANCH  40  41
ATOM     41  C   UNL A   1      35.660  32.576  31.218  1.00  0.00     0.338 C 
ATOM     42  O   UNL A   1      35.842  33.234  32.228  1.00  0.00    -0.246 OA
BRANCH  41  43
ATOM     43  C   UNL A   1      36.774  31.674  30.628  1.00  0.00     0.060 A 
ATOM     44  C   UNL A   1      37.435  30.753  31.460  1.00  0.00     0.016 A 
ATOM     45  C   UNL A   1      37.227  31.716  29.299  1.00  0.00     0.016 A 
ATOM     46  C   UNL A   1      38.353  29.784  30.970  1.00  0.00     0.010 A 
ATOM     47  C   UNL A   1      38.234  30.806  28.820  1.00  0.00     0.010 A 
ATOM     48  C   UNL A   1      38.797  29.803  29.642  1.00  0.00    -0.014 A 
BRANCH  48  49
ATOM     49  C   UNL A   1      40.092  29.082  29.304  1.00  0.00     0.031 A 
ATOM     50  C   UNL A   1      41.357  29.901  29.475  1.00  0.00     0.074 A 
ATOM     51  C   UNL A   1      40.256  27.773  28.989  1.00  0.00     0.049 A 
ATOM     52  N   UNL A   1      42.604  29.616  29.191  1.00  0.00    -0.248 NA
ATOM     53  C   UNL A   1      41.170  31.233  30.070  1.00  0.00     0.031 C 
ATOM     54  C   UNL A   1      39.212  26.757  28.932  1.00  0.00     0.029 A 
ATOM     55  N   UNL A   1      41.404  27.059  28.668  1.00  0.00    -0.354 N 
ATOM     56  C   UNL A   1      43.332  30.752  29.527  1.00  0.00     0.074 A 
ATOM     57  C   UNL A   1      42.397  31.720  30.047  1.00  0.00     0.031 C 
ATOM     58  C   UNL A   1      39.750  25.568  28.587  1.00  0.00     0.029 A 
ATOM     59  C   UNL A   1      41.185  25.731  28.354  1.00  0.00     0.049 A 
ATOM     60  H   UNL A   1      42.300  27.466  28.663  1.00  0.00     0.167 HD
ATOM     61  C   UNL A   1      44.659  30.996  29.408  1.00  0.00     0.031 A 
ATOM     62  C   UNL A   1      42.026  24.765  27.908  1.00  0.00     0.031 A 
ATOM     63  C   UNL A   1      45.621  30.058  28.906  1.00  0.00     0.049 A 
ATOM     64  C   UNL A   1      43.487  25.086  27.669  1.00  0.00     0.074 A 
ATOM     65  C   UNL A   1      46.981  30.237  28.718  1.00  0.00     0.029 A 
ATOM     66  N   UNL A   1      45.327  28.764  28.516  1.00  0.00    -0.354 N 
ATOM     67  N   UNL A   1      44.147  26.191  27.922  1.00  0.00    -0.248 NA
ATOM     68  C   UNL A   1      44.320  24.023  27.073  1.00  0.00     0.031 C 
ATOM     69  C   UNL A   1      47.503  29.063  28.169  1.00  0.00     0.029 A 
ATOM     70  C   UNL A   1      46.478  28.135  28.075  1.00  0.00     0.049 A 
ATOM     71  H   UNL A   1      44.433  28.352  28.548  1.00  0.00     0.167 HD
ATOM     72  C   UNL A   1      45.466  25.943  27.552  1.00  0.00     0.074 A 
ATOM     73  C   UNL A   1      45.522  24.582  27.067  1.00  0.00     0.031 C 
ATOM     74  C   UNL A   1      46.537  26.774  27.612  1.00  0.00     0.031 A 
BRANCH  61  75
ATOM     75  C   UNL A   1      45.115  32.387  29.747  1.00  0.00    -0.014 A 
ATOM     76  C   UNL A   1      45.554  32.731  31.036  1.00  0.00     0.009 A 
ATOM     77  C   UNL A   1      45.051  33.382  28.759  1.00  0.00     0.009 A 
ATOM     78  C   UNL A   1      45.864  34.058  31.341  1.00  0.00     0.001 A 
ATOM     79  C   UNL A   1      45.398  34.699  29.059  1.00  0.00     0.001 A 
ATOM     80  C   UNL A   1      45.788  35.039  30.353  1.00  0.00     0.000 A 
ENDBRANCH  61  75
BRANCH  62  81
ATOM     81  C   UNL A   1      41.533  23.387  27.580  1.00  0.00    -0.014 A 
ATOM     82  C   UNL A   1      41.805  22.298  28.429  1.00  0.00     0.009 A 
ATOM     83  C   UNL A   1      40.882  23.132  26.362  1.00  0.00     0.009 A 
ATOM     84  C   UNL A   1      41.459  20.992  28.056  1.00  0.00     0.001 A 
ATOM     85  C   UNL A   1      40.511  21.830  26.005  1.00  0.00     0.001 A 
ATOM     86  C   UNL A   1      40.808  20.760  26.847  1.00  0.00     0.000 A 
ENDBRANCH  62  81
BRANCH  74  87
ATOM     87  C   UNL A   1      47.880  26.227  27.209  1.00  0.00    -0.014 A 
ATOM     88  C   UNL A   1      48.389  26.398  25.913  1.00  0.00     0.009 A 
ATOM     89  C   UNL A   1      48.676  25.583  28.170  1.00  0.00     0.009 A 
ATOM     90  C   UNL A   1      49.654  25.905  25.580  1.00  0.00     0.001 A 
ATOM     91  C   UNL A   1      49.951  25.116  27.843  1.00  0.00     0.001 A 
ATOM     92  C   UNL A   1      50.435  25.269  26.546  1.00  0.00     0.000 A 
ENDBRANCH  74  87
ENDBRANCH  48  49
ENDBRANCH  41  43
ENDBRANCH  40  41
ENDBRANCH  39  40
ENDBRANCH  38  39
ENDBRANCH  37  38
ENDBRANCH  36  37
ENDBRANCH   1  36
TORSDOF 25
ENDMDL
MODEL 3
REMARK VINA RESULT:      -8.9      2.957      6.398
REMARK SMILES CC(C)C[C@H](NC(=O)[C@H](Cc1ccccc1)NC(=O)CNC(=O)C[NH3+])C(=O)OCCOCCOC(=O)c1ccc(-c2c3nc(c(-c4ccccc4)c4ccc([nH]4)c(-c4ccccc4)c4nc(c(-c5ccccc5)c5ccc2[nH]5)C=C4)C=C3)cc1
REMARK SMILES IDX 29 1 28 2 26 3 27 4 5 5 4 6 2 7 1 8 3 9 6 10 7 11 8 13 9 14
REMARK SMILES IDX 17 15 18 16 19 18 20 19 21 20 22 21 23 23 24 24 25 25 10 29
REMARK SMILES IDX 11 30 12 31 16 32 13 33 15 34 14 35 30 36 31 37 32 38 33 39
REMARK SMILES IDX 34 40 35 41 36 42 37 43 38 44 84 45 39 46 83 47 40 48 41 49
REMARK SMILES IDX 42 50 77 51 43 52 82 53 76 54 78 55 44 56 81 57 75 58 74 59
REMARK SMILES IDX 45 61 67 62 52 63 66 64 53 65 56 66 65 67 79 68 54 69 55 70
REMARK SMILES IDX 64 72 80 73 57 74 46 75 47 76 51 77 48 78 50 79 49 80 68 81
REMARK SMILES IDX 69 82 73 83 70 84 72 85 71 86 58 87 59 88 63 89 60 90 62 91
REMARK SMILES IDX 61 92
REMARK H PARENT 6 12 17 17 21 22 25 26 25 27 25 28 78 60 56 71
REMARK Flexibility Score: inf
ROOT
ATOM      1  C   UNL A   1      30.246  22.943  26.861  1.00  0.00     0.261 C 
ENDROOT
BRANCH   1   2
ATOM      2  O   UNL A   1      30.445  24.315  26.616  1.00  0.00    -0.462 OA
BRANCH   2   3
ATOM      3  C   UNL A   1      30.938  24.533  25.378  1.00  0.00     0.328 C 
ATOM      4  O   UNL A   1      30.690  23.867  24.387  1.00  0.00    -0.250 OA
BRANCH   3   5
ATOM      5  C   UNL A   1      31.943  25.653  25.462  1.00  0.00     0.192 C 
BRANCH   5   6
ATOM      6  C   UNL A   1      33.331  25.082  25.129  1.00  0.00     0.040 C 
BRANCH   6   7
ATOM      7  C   UNL A   1      33.929  25.280  23.728  1.00  0.00    -0.015 C 
ATOM      8  C   UNL A   1      34.263  23.981  23.005  1.00  0.00     0.007 C 
ATOM      9  C   UNL A   1      32.927  26.062  22.871  1.00  0.00     0.007 C 
ENDBRANCH   6   7
ENDBRANCH   5   6
BRANCH   5  10
ATOM     10  N   UNL A   1      31.807  26.564  26.632  1.00  0.00    -0.341 N 
ATOM     11  C   UNL A   1      32.113  27.769  27.163  1.00  0.00     0.243 C 
ATOM     12  H   UNL A   1      31.265  26.088  27.301  1.00  0.00     0.164 HD
ATOM     13  O   UNL A   1      31.251  28.043  28.027  1.00  0.00    -0.273 OA
BRANCH  11  14
ATOM     14  C   UNL A   1      33.303  28.858  26.904  1.00  0.00     0.175 C 
BRANCH  14  15
ATOM     15  N   UNL A   1      33.407  28.648  25.443  1.00  0.00    -0.342 N 
ATOM     16  C   UNL A   1      32.793  29.296  24.427  1.00  0.00     0.240 C 
ATOM     17  H   UNL A   1      34.018  27.925  25.169  1.00  0.00     0.164 HD
ATOM     18  O   UNL A   1      33.478  29.595  23.446  1.00  0.00    -0.273 OA
BRANCH  16  19
ATOM     19  C   UNL A   1      31.337  29.703  24.506  1.00  0.00     0.216 C 
BRANCH  19  20
ATOM     20  N   UNL A   1      30.648  29.764  23.233  1.00  0.00    -0.342 N 
ATOM     21  C   UNL A   1      29.726  28.909  22.715  1.00  0.00     0.275 C 
ATOM     22  H   UNL A   1      30.879  30.531  22.663  1.00  0.00     0.164 HD
ATOM     23  O   UNL A   1      29.048  29.310  21.766  1.00  0.00    -0.268 OA
BRANCH  21  24
ATOM     24  C   UNL A   1      29.501  27.503  23.279  1.00  0.00     0.360 C 
BRANCH  24  25
ATOM     25  N   UNL A   1      28.089  27.178  23.492  1.00  0.00    -0.350 N 
ATOM     26  H   UNL A   1      27.613  27.981  23.904  1.00  0.00     0.344 HD
ATOM     27  H   UNL A   1      28.015  26.379  24.123  1.00  0.00     0.344 HD
ATOM     28  H   UNL A   1      27.654  26.946  22.599  1.00  0.00     0.344 HD
ENDBRANCH  24  25
ENDBRANCH  21  24
ENDBRANCH  19  20
ENDBRANCH  16  19
ENDBRANCH  14  15
BRANCH  14  29
ATOM     29  C   UNL A   1      32.953  30.414  27.121  1.00  0.00     0.070 C 
BRANCH  29  30
ATOM     30  C   UNL A   1      33.806  31.582  27.654  1.00  0.00    -0.045 A 
ATOM     31  C   UNL A   1      33.243  32.854  27.907  1.00  0.00     0.004 A 
ATOM     32  C   UNL A   1      35.202  31.546  27.651  1.00  0.00     0.004 A 
ATOM     33  C   UNL A   1      33.978  33.941  28.384  1.00  0.00     0.000 A 
ATOM     34  C   UNL A   1      35.965  32.674  28.010  1.00  0.00     0.000 A 
ATOM     35  C   UNL A   1      35.353  33.846  28.444  1.00  0.00     0.000 A 
ENDBRANCH  29  30
ENDBRANCH  14  29
ENDBRANCH  11  14
ENDBRANCH   5  10
ENDBRANCH   3   5
ENDBRANCH   2   3
ENDBRANCH   1   2
BRANCH   1  36
ATOM     36  C   UNL A   1      31.516  22.360  27.483  1.00  0.00     0.202 C 
BRANCH  36  37
ATOM     37  O   UNL A   1      32.868  22.838  27.504  1.00  0.00    -0.374 OA
BRANCH  37  38
ATOM     38  C   UNL A   1      34.137  22.137  27.412  1.00  0.00     0.202 C 
BRANCH  38  39
ATOM     39  C   UNL A   1      35.181  22.123  26.139  1.00  0.00     0.261 C 
BRANCH  39  40
ATOM     40  O   UNL A   1      36.275  21.113  26.121  1.00  0.00    -0.460 OA
BRANCH  40  41
ATOM     41  C   UNL A   1      37.452  21.249  25.401  1.00  0.00     0.338 C 
ATOM     42  O   UNL A   1      37.684  20.668  24.355  1.00  0.00    -0.246 OA
BRANCH  41  43
ATOM     43  C   UNL A   1      38.406  22.341  25.950  1.00  0.00     0.060 A 
ATOM     44  C   UNL A   1      38.031  23.695  25.868  1.00  0.00     0.016 A 
ATOM     45  C   UNL A   1      39.672  22.100  26.508  1.00  0.00     0.016 A 
ATOM     46  C   UNL A   1      38.770  24.742  26.484  1.00  0.00     0.010 A 
ATOM     47  C   UNL A   1      40.473  23.170  27.040  1.00  0.00     0.010 A 
ATOM     48  C   UNL A   1      40.024  24.511  27.063  1.00  0.00    -0.014 A 
BRANCH  48  49
ATOM     49  C   UNL A   1      40.955  25.696  27.264  1.00  0.00     0.031 A 
ATOM     50  C   UNL A   1      40.470  26.746  28.245  1.00  0.00     0.074 A 
ATOM     51  C   UNL A   1      42.207  25.863  26.768  1.00  0.00     0.049 A 
ATOM     52  N   UNL A   1      40.979  27.909  28.572  1.00  0.00    -0.248 NA
ATOM     53  C   UNL A   1      39.233  26.411  28.967  1.00  0.00     0.031 C 
ATOM     54  C   UNL A   1      42.947  24.913  25.945  1.00  0.00     0.029 A 
ATOM     55  N   UNL A   1      43.101  26.917  26.910  1.00  0.00    -0.354 N 
ATOM     56  C   UNL A   1      40.094  28.456  29.496  1.00  0.00     0.074 A 
ATOM     57  C   UNL A   1      39.031  27.498  29.687  1.00  0.00     0.031 C 
ATOM     58  C   UNL A   1      44.160  25.421  25.642  1.00  0.00     0.029 A 
ATOM     59  C   UNL A   1      44.286  26.761  26.216  1.00  0.00     0.049 A 
ATOM     60  H   UNL A   1      42.906  27.709  27.459  1.00  0.00     0.167 HD
ATOM     61  C   UNL A   1      40.134  29.652  30.128  1.00  0.00     0.031 A 
ATOM     62  C   UNL A   1      45.336  27.600  26.038  1.00  0.00     0.031 A 
ATOM     63  C   UNL A   1      41.176  30.626  29.972  1.00  0.00     0.049 A 
ATOM     64  C   UNL A   1      45.314  28.981  26.659  1.00  0.00     0.074 A 
ATOM     65  C   UNL A   1      41.276  31.879  30.549  1.00  0.00     0.029 A 
ATOM     66  N   UNL A   1      42.301  30.452  29.186  1.00  0.00    -0.354 N 
ATOM     67  N   UNL A   1      44.433  29.513  27.471  1.00  0.00    -0.248 NA
ATOM     68  C   UNL A   1      46.435  29.884  26.328  1.00  0.00     0.031 C 
ATOM     69  C   UNL A   1      42.442  32.486  30.073  1.00  0.00     0.029 A 
ATOM     70  C   UNL A   1      43.096  31.583  29.251  1.00  0.00     0.049 A 
ATOM     71  H   UNL A   1      42.506  29.646  28.659  1.00  0.00     0.167 HD
ATOM     72  C   UNL A   1      44.908  30.787  27.772  1.00  0.00     0.074 A 
ATOM     73  C   UNL A   1      46.160  30.950  27.068  1.00  0.00     0.031 C 
ATOM     74  C   UNL A   1      44.353  31.736  28.566  1.00  0.00     0.031 A 
BRANCH  61  75
ATOM     75  C   UNL A   1      38.944  29.999  30.978  1.00  0.00    -0.014 A 
ATOM     76  C   UNL A   1      38.922  29.751  32.360  1.00  0.00     0.009 A 
ATOM     77  C   UNL A   1      37.804  30.537  30.362  1.00  0.00     0.009 A 
ATOM     78  C   UNL A   1      37.758  29.983  33.097  1.00  0.00     0.001 A 
ATOM     79  C   UNL A   1      36.656  30.803  31.108  1.00  0.00     0.001 A 
ATOM     80  C   UNL A   1      36.628  30.510  32.471  1.00  0.00     0.000 A 
ENDBRANCH  61  75
BRANCH  62  81
ATOM     81  C   UNL A   1      46.507  27.218  25.183  1.00  0.00    -0.014 A 
ATOM     82  C   UNL A   1      47.542  26.408  25.687  1.00  0.00     0.009 A 
ATOM     83  C   UNL A   1      46.653  27.752  23.891  1.00  0.00     0.009 A 
ATOM     84  C   UNL A   1      48.696  26.162  24.931  1.00  0.00     0.001 A 
ATOM     85  C   UNL A   1      47.794  27.481  23.127  1.00  0.00     0.001 A 
ATOM     86  C   UNL A   1      48.819  26.695  23.649  1.00  0.00     0.000 A 
ENDBRANCH  62  81
BRANCH  74  87
ATOM     87  C   UNL A   1      45.116  33.015  28.780  1.00  0.00    -0.014 A 
ATOM     88  C   UNL A   1      44.959  34.121  27.931  1.00  0.00     0.009 A 
ATOM     89  C   UNL A   1      45.963  33.132  29.895  1.00  0.00     0.009 A 
ATOM     90  C   UNL A   1      45.661  35.305  28.176  1.00  0.00     0.001 A 
ATOM     91  C   UNL A   1      46.641  34.325  30.154  1.00  0.00     0.001 A 
ATOM     92  C   UNL A   1      46.496  35.407  29.289  1.00  0.00     0.000 A 
ENDBRANCH  74  87
ENDBRANCH  48  49
ENDBRANCH  41  43
ENDBRANCH  40  41
ENDBRANCH  39  40
ENDBRANCH  38  39
ENDBRANCH  37  38
ENDBRANCH  36  37
ENDBRANCH   1  36
TORSDOF 25
ENDMDL
