MODEL 1
REMARK VINA RESULT:     -10.5      0.000      0.000
REMARK SMILES CC(C)C(=O)Nc1ccc(Cl)c(C(=O)OCCOCCOC(=O)c2ccc(-c3c4nc(c(-c5ccccc5)c5ccc([nH]5)c(-c5ccccc5)c5nc(c(-c6ccccc6)c6ccc3[nH]6)C=C5)C=C4)cc2)c1
REMARK SMILES IDX 18 1 17 2 16 3 15 4 13 5 14 6 12 7 7 8 8 9 72 10 9 11 10 12
REMARK SMILES IDX 11 13 6 14 4 15 5 16 2 18 1 19 3 20 19 21 20 22 21 23 22 24
REMARK SMILES IDX 23 25 24 26 25 27 71 28 26 29 70 30 27 31 28 32 29 33 64 34
REMARK SMILES IDX 30 35 69 36 63 37 65 38 31 39 68 40 62 41 61 42 32 44 54 45
REMARK SMILES IDX 39 46 53 47 40 48 43 49 52 50 66 51 41 52 42 53 51 55 67 56
REMARK SMILES IDX 44 57 33 58 34 59 38 60 35 61 37 62 36 63 55 64 56 65 60 66
REMARK SMILES IDX 57 67 59 68 58 69 45 70 46 71 50 72 47 73 49 74 48 75
REMARK H PARENT 6 17 65 43 43 54
REMARK Flexibility Score: inf
ROOT
ATOM      1  O   UNL A   1      40.361  20.964  26.640  1.00  0.00    -0.374 OA
ENDROOT
BRANCH   1   2
ATOM      2  C   UNL A   1      39.200  21.014  25.807  1.00  0.00     0.202 C 
BRANCH   2   3
ATOM      3  C   UNL A   1      38.448  22.345  25.806  1.00  0.00     0.261 C 
BRANCH   3   4
ATOM      4  O   UNL A   1      37.036  22.089  25.769  1.00  0.00    -0.460 OA
BRANCH   4   5
ATOM      5  C   UNL A   1      36.439  22.230  24.570  1.00  0.00     0.339 C 
ATOM      6  O   UNL A   1      36.989  22.334  23.481  1.00  0.00    -0.246 OA
BRANCH   5   7
ATOM      7  C   UNL A   1      34.989  21.992  24.707  1.00  0.00     0.080 A 
ATOM      8  C   UNL A   1      33.290  20.404  25.378  1.00  0.00     0.042 A 
ATOM      9  C   UNL A   1      32.299  21.318  25.031  1.00  0.00     0.028 A 
ATOM     10  C   UNL A   1      34.630  20.763  25.285  1.00  0.00     0.043 A 
ATOM     11  C   UNL A   1      32.650  22.559  24.495  1.00  0.00     0.023 A 
ATOM     12  C   UNL A   1      33.996  22.892  24.304  1.00  0.00     0.055 A 
ATOM     13  Cl  UNL A   1      34.332  24.396  23.527  1.00  0.00    -0.083 Cl
BRANCH   8  14
ATOM     14  N   UNL A   1      32.970  19.130  25.840  1.00  0.00    -0.326 N 
ATOM     15  C   UNL A   1      32.884  17.963  25.134  1.00  0.00     0.226 C 
ATOM     16  O   UNL A   1      32.485  16.961  25.738  1.00  0.00    -0.274 OA
ATOM     17  H   UNL A   1      32.778  19.061  26.803  1.00  0.00     0.169 HD
BRANCH  15  18
ATOM     18  C   UNL A   1      33.363  17.836  23.682  1.00  0.00     0.072 C 
ATOM     19  C   UNL A   1      34.129  16.560  23.367  1.00  0.00     0.018 C 
ATOM     20  C   UNL A   1      32.266  18.124  22.659  1.00  0.00     0.018 C 
ENDBRANCH  15  18
ENDBRANCH   8  14
ENDBRANCH   5   7
ENDBRANCH   4   5
ENDBRANCH   3   4
ENDBRANCH   2   3
ENDBRANCH   1   2
BRANCH   1  21
ATOM     21  C   UNL A   1      41.520  20.311  26.123  1.00  0.00     0.202 C 
BRANCH  21  22
ATOM     22  C   UNL A   1      42.697  21.212  25.731  1.00  0.00     0.261 C 
BRANCH  22  23
ATOM     23  O   UNL A   1      42.271  22.503  25.265  1.00  0.00    -0.460 OA
BRANCH  23  24
ATOM     24  C   UNL A   1      43.245  23.443  25.239  1.00  0.00     0.338 C 
ATOM     25  O   UNL A   1      44.070  23.634  24.356  1.00  0.00    -0.246 OA
BRANCH  24  26
ATOM     26  C   UNL A   1      43.096  24.360  26.382  1.00  0.00     0.060 A 
ATOM     27  C   UNL A   1      42.379  23.897  27.493  1.00  0.00     0.016 A 
ATOM     28  C   UNL A   1      43.573  25.671  26.338  1.00  0.00     0.016 A 
ATOM     29  C   UNL A   1      42.095  24.760  28.548  1.00  0.00     0.010 A 
ATOM     30  C   UNL A   1      43.279  26.539  27.396  1.00  0.00     0.010 A 
ATOM     31  C   UNL A   1      42.510  26.096  28.488  1.00  0.00    -0.014 A 
BRANCH  31  32
ATOM     32  C   UNL A   1      42.026  27.059  29.505  1.00  0.00     0.031 A 
ATOM     33  C   UNL A   1      42.770  27.191  30.805  1.00  0.00     0.074 A 
ATOM     34  C   UNL A   1      40.945  27.822  29.267  1.00  0.00     0.049 A 
ATOM     35  N   UNL A   1      42.507  27.953  31.837  1.00  0.00    -0.248 NA
ATOM     36  C   UNL A   1      43.966  26.349  30.965  1.00  0.00     0.031 C 
ATOM     37  C   UNL A   1      40.158  27.813  28.035  1.00  0.00     0.029 A 
ATOM     38  N   UNL A   1      40.323  28.752  30.061  1.00  0.00    -0.354 N 
ATOM     39  C   UNL A   1      43.496  27.672  32.772  1.00  0.00     0.074 A 
ATOM     40  C   UNL A   1      44.347  26.654  32.196  1.00  0.00     0.031 C 
ATOM     41  C   UNL A   1      39.148  28.690  28.160  1.00  0.00     0.029 A 
ATOM     42  C   UNL A   1      39.200  29.297  29.488  1.00  0.00     0.049 A 
ATOM     43  H   UNL A   1      40.649  29.005  30.954  1.00  0.00     0.167 HD
ATOM     44  C   UNL A   1      43.681  28.216  33.998  1.00  0.00     0.031 A 
ATOM     45  C   UNL A   1      38.305  30.171  29.987  1.00  0.00     0.031 A 
ATOM     46  C   UNL A   1      42.829  29.222  34.575  1.00  0.00     0.049 A 
ATOM     47  C   UNL A   1      38.496  30.717  31.375  1.00  0.00     0.074 A 
ATOM     48  C   UNL A   1      42.954  29.860  35.798  1.00  0.00     0.029 A 
ATOM     49  N   UNL A   1      41.688  29.728  33.975  1.00  0.00    -0.354 N 
ATOM     50  N   UNL A   1      39.458  30.476  32.233  1.00  0.00    -0.248 NA
ATOM     51  C   UNL A   1      37.482  31.665  31.859  1.00  0.00     0.031 C 
ATOM     52  C   UNL A   1      41.854  30.708  35.962  1.00  0.00     0.029 A 
ATOM     53  C   UNL A   1      41.078  30.645  34.816  1.00  0.00     0.049 A 
ATOM     54  H   UNL A   1      41.359  29.474  33.083  1.00  0.00     0.167 HD
ATOM     55  C   UNL A   1      39.178  31.258  33.347  1.00  0.00     0.074 A 
ATOM     56  C   UNL A   1      37.965  31.992  33.050  1.00  0.00     0.031 C 
ATOM     57  C   UNL A   1      39.867  31.363  34.510  1.00  0.00     0.031 A 
BRANCH  44  58
ATOM     58  C   UNL A   1      44.830  27.696  34.817  1.00  0.00    -0.014 A 
ATOM     59  C   UNL A   1      44.644  26.708  35.797  1.00  0.00     0.009 A 
ATOM     60  C   UNL A   1      46.124  28.189  34.585  1.00  0.00     0.009 A 
ATOM     61  C   UNL A   1      45.726  26.254  36.555  1.00  0.00     0.001 A 
ATOM     62  C   UNL A   1      47.208  27.711  35.325  1.00  0.00     0.001 A 
ATOM     63  C   UNL A   1      47.006  26.752  36.316  1.00  0.00     0.000 A 
ENDBRANCH  44  58
BRANCH  45  64
ATOM     64  C   UNL A   1      37.129  30.567  29.170  1.00  0.00    -0.014 A 
ATOM     65  C   UNL A   1      36.992  31.881  28.697  1.00  0.00     0.009 A 
ATOM     66  C   UNL A   1      36.136  29.626  28.854  1.00  0.00     0.009 A 
ATOM     67  C   UNL A   1      35.876  32.248  27.943  1.00  0.00     0.001 A 
ATOM     68  C   UNL A   1      35.035  29.989  28.078  1.00  0.00     0.001 A 
ATOM     69  C   UNL A   1      34.902  31.301  27.629  1.00  0.00     0.000 A 
ENDBRANCH  45  64
BRANCH  57  70
ATOM     70  C   UNL A   1      39.344  32.327  35.539  1.00  0.00    -0.014 A 
ATOM     71  C   UNL A   1      38.430  31.920  36.523  1.00  0.00     0.009 A 
ATOM     72  C   UNL A   1      39.810  33.651  35.549  1.00  0.00     0.009 A 
ATOM     73  C   UNL A   1      37.970  32.829  37.478  1.00  0.00     0.001 A 
ATOM     74  C   UNL A   1      39.370  34.550  36.522  1.00  0.00     0.001 A 
ATOM     75  C   UNL A   1      38.443  34.141  37.480  1.00  0.00     0.000 A 
ENDBRANCH  57  70
ENDBRANCH  31  32
ENDBRANCH  24  26
ENDBRANCH  23  24
ENDBRANCH  22  23
ENDBRANCH  21  22
ENDBRANCH   1  21
TORSDOF 16
ENDMDL
MODEL 2
REMARK VINA RESULT:     -10.3      3.566      7.226
REMARK SMILES CC(C)C(=O)Nc1ccc(Cl)c(C(=O)OCCOCCOC(=O)c2ccc(-c3c4nc(c(-c5ccccc5)c5ccc([nH]5)c(-c5ccccc5)c5nc(c(-c6ccccc6)c6ccc3[nH]6)C=C5)C=C4)cc2)c1
REMARK SMILES IDX 18 1 17 2 16 3 15 4 13 5 14 6 12 7 7 8 8 9 72 10 9 11 10 12
REMARK SMILES IDX 11 13 6 14 4 15 5 16 2 18 1 19 3 20 19 21 20 22 21 23 22 24
REMARK SMILES IDX 23 25 24 26 25 27 71 28 26 29 70 30 27 31 28 32 29 33 64 34
REMARK SMILES IDX 30 35 69 36 63 37 65 38 31 39 68 40 62 41 61 42 32 44 54 45
REMARK SMILES IDX 39 46 53 47 40 48 43 49 52 50 66 51 41 52 42 53 51 55 67 56
REMARK SMILES IDX 44 57 33 58 34 59 38 60 35 61 37 62 36 63 55 64 56 65 60 66
REMARK SMILES IDX 57 67 59 68 58 69 45 70 46 71 50 72 47 73 49 74 48 75
REMARK H PARENT 6 17 65 43 43 54
REMARK Flexibility Score: inf
ROOT
ATOM      1  O   UNL A   1      37.871  22.343  26.172  1.00  0.00    -0.374 OA
ENDROOT
BRANCH   1   2
ATOM      2  C   UNL A   1      37.440  23.693  25.983  1.00  0.00     0.202 C 
BRANCH   2   3
ATOM      3  C   UNL A   1      36.071  23.861  25.323  1.00  0.00     0.261 C 
BRANCH   3   4
ATOM      4  O   UNL A   1      35.046  23.523  26.269  1.00  0.00    -0.460 OA
BRANCH   4   5
ATOM      5  C   UNL A   1      33.786  23.840  25.915  1.00  0.00     0.339 C 
ATOM      6  O   UNL A   1      33.208  24.901  26.117  1.00  0.00    -0.246 OA
BRANCH   5   7
ATOM      7  C   UNL A   1      33.250  22.805  25.011  1.00  0.00     0.080 A 
ATOM      8  C   UNL A   1      32.522  20.503  24.833  1.00  0.00     0.042 A 
ATOM      9  C   UNL A   1      32.259  20.691  23.479  1.00  0.00     0.028 A 
ATOM     10  C   UNL A   1      32.948  21.572  25.613  1.00  0.00     0.043 A 
ATOM     11  C   UNL A   1      32.518  21.927  22.882  1.00  0.00     0.023 A 
ATOM     12  C   UNL A   1      33.041  22.982  23.638  1.00  0.00     0.055 A 
ATOM     13  Cl  UNL A   1      33.441  24.433  22.793  1.00  0.00    -0.083 Cl
BRANCH   8  14
ATOM     14  N   UNL A   1      32.349  19.261  25.438  1.00  0.00    -0.326 N 
ATOM     15  C   UNL A   1      32.915  18.063  25.104  1.00  0.00     0.226 C 
ATOM     16  O   UNL A   1      32.539  17.063  25.726  1.00  0.00    -0.274 OA
ATOM     17  H   UNL A   1      31.737  19.244  26.209  1.00  0.00     0.169 HD
BRANCH  15  18
ATOM     18  C   UNL A   1      34.055  17.941  24.084  1.00  0.00     0.072 C 
ATOM     19  C   UNL A   1      35.414  18.409  24.581  1.00  0.00     0.018 C 
ATOM     20  C   UNL A   1      34.120  16.568  23.417  1.00  0.00     0.018 C 
ENDBRANCH  15  18
ENDBRANCH   8  14
ENDBRANCH   5   7
ENDBRANCH   4   5
ENDBRANCH   3   4
ENDBRANCH   2   3
ENDBRANCH   1   2
BRANCH   1  21
ATOM     21  C   UNL A   1      37.804  21.463  25.050  1.00  0.00     0.202 C 
BRANCH  21  22
ATOM     22  C   UNL A   1      38.689  20.212  25.107  1.00  0.00     0.261 C 
BRANCH  22  23
ATOM     23  O   UNL A   1      39.418  20.109  26.341  1.00  0.00    -0.460 OA
BRANCH  23  24
ATOM     24  C   UNL A   1      40.753  19.938  26.194  1.00  0.00     0.338 C 
ATOM     25  O   UNL A   1      41.327  19.011  25.641  1.00  0.00    -0.246 OA
BRANCH  24  26
ATOM     26  C   UNL A   1      41.472  21.136  26.662  1.00  0.00     0.060 A 
ATOM     27  C   UNL A   1      41.512  21.368  28.043  1.00  0.00     0.016 A 
ATOM     28  C   UNL A   1      42.023  22.057  25.769  1.00  0.00     0.016 A 
ATOM     29  C   UNL A   1      42.063  22.547  28.536  1.00  0.00     0.010 A 
ATOM     30  C   UNL A   1      42.570  23.245  26.266  1.00  0.00     0.010 A 
ATOM     31  C   UNL A   1      42.560  23.510  27.649  1.00  0.00    -0.014 A 
BRANCH  31  32
ATOM     32  C   UNL A   1      42.949  24.845  28.160  1.00  0.00     0.031 A 
ATOM     33  C   UNL A   1      41.886  25.886  28.378  1.00  0.00     0.074 A 
ATOM     34  C   UNL A   1      44.232  25.123  28.446  1.00  0.00     0.049 A 
ATOM     35  N   UNL A   1      42.008  27.120  28.797  1.00  0.00    -0.248 NA
ATOM     36  C   UNL A   1      40.502  25.484  28.081  1.00  0.00     0.031 C 
ATOM     37  C   UNL A   1      45.350  24.190  28.310  1.00  0.00     0.029 A 
ATOM     38  N   UNL A   1      44.810  26.279  28.907  1.00  0.00    -0.354 N 
ATOM     39  C   UNL A   1      40.722  27.645  28.800  1.00  0.00     0.074 A 
ATOM     40  C   UNL A   1      39.839  26.605  28.318  1.00  0.00     0.031 C 
ATOM     41  C   UNL A   1      46.483  24.816  28.670  1.00  0.00     0.029 A 
ATOM     42  C   UNL A   1      46.174  26.198  29.031  1.00  0.00     0.049 A 
ATOM     43  H   UNL A   1      44.295  27.089  29.127  1.00  0.00     0.167 HD
ATOM     44  C   UNL A   1      40.312  28.880  29.173  1.00  0.00     0.031 A 
ATOM     45  C   UNL A   1      47.075  27.138  29.376  1.00  0.00     0.031 A 
ATOM     46  C   UNL A   1      41.191  29.919  29.643  1.00  0.00     0.049 A 
ATOM     47  C   UNL A   1      46.603  28.522  29.730  1.00  0.00     0.074 A 
ATOM     48  C   UNL A   1      40.866  31.193  30.077  1.00  0.00     0.029 A 
ATOM     49  N   UNL A   1      42.569  29.806  29.729  1.00  0.00    -0.354 N 
ATOM     50  N   UNL A   1      45.380  28.994  29.768  1.00  0.00    -0.248 NA
ATOM     51  C   UNL A   1      47.638  29.501  30.096  1.00  0.00     0.031 C 
ATOM     52  C   UNL A   1      42.054  31.871  30.369  1.00  0.00     0.029 A 
ATOM     53  C   UNL A   1      43.114  30.999  30.176  1.00  0.00     0.049 A 
ATOM     54  H   UNL A   1      43.085  28.998  29.506  1.00  0.00     0.167 HD
ATOM     55  C   UNL A   1      45.496  30.315  30.186  1.00  0.00     0.074 A 
ATOM     56  C   UNL A   1      46.906  30.564  30.400  1.00  0.00     0.031 C 
ATOM     57  C   UNL A   1      44.520  31.236  30.378  1.00  0.00     0.031 A 
BRANCH  44  58
ATOM     58  C   UNL A   1      38.846  29.189  29.044  1.00  0.00    -0.014 A 
ATOM     59  C   UNL A   1      38.292  29.623  27.829  1.00  0.00     0.009 A 
ATOM     60  C   UNL A   1      38.002  29.019  30.153  1.00  0.00     0.009 A 
ATOM     61  C   UNL A   1      36.930  29.919  27.740  1.00  0.00     0.001 A 
ATOM     62  C   UNL A   1      36.635  29.287  30.052  1.00  0.00     0.001 A 
ATOM     63  C   UNL A   1      36.103  29.746  28.849  1.00  0.00     0.000 A 
ENDBRANCH  44  58
BRANCH  45  64
ATOM     64  C   UNL A   1      48.522  26.804  29.384  1.00  0.00    -0.014 A 
ATOM     65  C   UNL A   1      49.311  26.996  28.239  1.00  0.00     0.009 A 
ATOM     66  C   UNL A   1      49.124  26.293  30.545  1.00  0.00     0.009 A 
ATOM     67  C   UNL A   1      50.667  26.663  28.252  1.00  0.00     0.001 A 
ATOM     68  C   UNL A   1      50.486  25.987  30.563  1.00  0.00     0.001 A 
ATOM     69  C   UNL A   1      51.254  26.165  29.414  1.00  0.00     0.000 A 
ENDBRANCH  45  64
BRANCH  57  70
ATOM     70  C   UNL A   1      44.939  32.593  30.873  1.00  0.00    -0.014 A 
ATOM     71  C   UNL A   1      45.228  33.638  29.982  1.00  0.00     0.009 A 
ATOM     72  C   UNL A   1      45.000  32.839  32.254  1.00  0.00     0.009 A 
ATOM     73  C   UNL A   1      45.600  34.895  30.466  1.00  0.00     0.001 A 
ATOM     74  C   UNL A   1      45.345  34.104  32.734  1.00  0.00     0.001 A 
ATOM     75  C   UNL A   1      45.653  35.127  31.840  1.00  0.00     0.000 A 
ENDBRANCH  57  70
ENDBRANCH  31  32
ENDBRANCH  24  26
ENDBRANCH  23  24
ENDBRANCH  22  23
ENDBRANCH  21  22
ENDBRANCH   1  21
TORSDOF 16
ENDMDL
MODEL 3
REMARK VINA RESULT:     -10.2      4.763      9.323
REMARK SMILES CC(C)C(=O)Nc1ccc(Cl)c(C(=O)OCCOCCOC(=O)c2ccc(-c3c4nc(c(-c5ccccc5)c5ccc([nH]5)c(-c5ccccc5)c5nc(c(-c6ccccc6)c6ccc3[nH]6)C=C5)C=C4)cc2)c1
REMARK SMILES IDX 18 1 17 2 16 3 15 4 13 5 14 6 12 7 7 8 8 9 72 10 9 11 10 12
REMARK SMILES IDX 11 13 6 14 4 15 5 16 2 18 1 19 3 20 19 21 20 22 21 23 22 24
REMARK SMILES IDX 23 25 24 26 25 27 71 28 26 29 70 30 27 31 28 32 29 33 64 34
REMARK SMILES IDX 30 35 69 36 63 37 65 38 31 39 68 40 62 41 61 42 32 44 54 45
REMARK SMILES IDX 39 46 53 47 40 48 43 49 52 50 66 51 41 52 42 53 51 55 67 56
REMARK SMILES IDX 44 57 33 58 34 59 38 60 35 61 37 62 36 63 55 64 56 65 60 66
REMARK SMILES IDX 57 67 59 68 58 69 45 70 46 71 50 72 47 73 49 74 48 75
REMARK H PARENT 6 17 65 43 43 54
REMARK Flexibility Score: inf
ROOT
ATOM      1  O   UNL A   1      33.885  31.602  27.176  1.00  0.00    -0.374 OA
ENDROOT
BRANCH   1   2
ATOM      2  C   UNL A   1      34.017  30.237  27.579  1.00  0.00     0.202 C 
BRANCH   2   3
ATOM      3  C   UNL A   1      34.135  29.223  26.441  1.00  0.00     0.261 C 
BRANCH   3   4
ATOM      4  O   UNL A   1      33.071  29.442  25.502  1.00  0.00    -0.460 OA
BRANCH   4   5
ATOM      5  C   UNL A   1      33.130  28.726  24.363  1.00  0.00     0.339 C 
ATOM      6  O   UNL A   1      34.116  28.178  23.887  1.00  0.00    -0.246 OA
BRANCH   5   7
ATOM      7  C   UNL A   1      31.763  28.468  23.869  1.00  0.00     0.080 A 
ATOM      8  C   UNL A   1      30.020  29.214  22.363  1.00  0.00     0.042 A 
ATOM      9  C   UNL A   1      29.196  28.184  22.807  1.00  0.00     0.028 A 
ATOM     10  C   UNL A   1      31.324  29.316  22.837  1.00  0.00     0.043 A 
ATOM     11  C   UNL A   1      29.643  27.313  23.804  1.00  0.00     0.023 A 
ATOM     12  C   UNL A   1      30.918  27.467  24.359  1.00  0.00     0.055 A 
ATOM     13  Cl  UNL A   1      31.340  26.419  25.665  1.00  0.00    -0.083 Cl
BRANCH   8  14
ATOM     14  N   UNL A   1      29.574  30.147  21.430  1.00  0.00    -0.326 N 
ATOM     15  C   UNL A   1      28.907  31.319  21.648  1.00  0.00     0.226 C 
ATOM     16  O   UNL A   1      28.521  31.946  20.655  1.00  0.00    -0.274 OA
ATOM     17  H   UNL A   1      29.764  29.932  20.489  1.00  0.00     0.169 HD
BRANCH  15  18
ATOM     18  C   UNL A   1      28.726  31.923  23.047  1.00  0.00     0.072 C 
ATOM     19  C   UNL A   1      28.947  33.425  23.133  1.00  0.00     0.018 C 
ATOM     20  C   UNL A   1      27.430  31.486  23.728  1.00  0.00     0.018 C 
ENDBRANCH  15  18
ENDBRANCH   8  14
ENDBRANCH   5   7
ENDBRANCH   4   5
ENDBRANCH   3   4
ENDBRANCH   2   3
ENDBRANCH   1   2
BRANCH   1  21
ATOM     21  C   UNL A   1      32.744  32.323  27.638  1.00  0.00     0.202 C 
BRANCH  21  22
ATOM     22  C   UNL A   1      32.894  33.845  27.753  1.00  0.00     0.261 C 
BRANCH  22  23
ATOM     23  O   UNL A   1      32.544  34.336  29.058  1.00  0.00    -0.460 OA
BRANCH  23  24
ATOM     24  C   UNL A   1      33.555  34.946  29.720  1.00  0.00     0.338 C 
ATOM     25  O   UNL A   1      33.537  36.048  30.250  1.00  0.00    -0.246 OA
BRANCH  24  26
ATOM     26  C   UNL A   1      34.690  34.021  29.875  1.00  0.00     0.060 A 
ATOM     27  C   UNL A   1      34.528  32.939  30.750  1.00  0.00     0.016 A 
ATOM     28  C   UNL A   1      35.915  34.251  29.246  1.00  0.00     0.016 A 
ATOM     29  C   UNL A   1      35.607  32.106  31.036  1.00  0.00     0.010 A 
ATOM     30  C   UNL A   1      37.000  33.417  29.541  1.00  0.00     0.010 A 
ATOM     31  C   UNL A   1      36.858  32.364  30.463  1.00  0.00    -0.014 A 
BRANCH  31  32
ATOM     32  C   UNL A   1      38.046  31.611  30.931  1.00  0.00     0.031 A 
ATOM     33  C   UNL A   1      38.684  31.985  32.240  1.00  0.00     0.074 A 
ATOM     34  C   UNL A   1      38.540  30.591  30.208  1.00  0.00     0.049 A 
ATOM     35  N   UNL A   1      39.739  31.474  32.823  1.00  0.00    -0.248 NA
ATOM     36  C   UNL A   1      38.054  33.084  32.987  1.00  0.00     0.031 C 
ATOM     37  C   UNL A   1      37.991  30.109  28.941  1.00  0.00     0.029 A 
ATOM     38  N   UNL A   1      39.622  29.780  30.439  1.00  0.00    -0.354 N 
ATOM     39  C   UNL A   1      39.905  32.197  33.998  1.00  0.00     0.074 A 
ATOM     40  C   UNL A   1      38.861  33.197  34.032  1.00  0.00     0.031 C 
ATOM     41  C   UNL A   1      38.749  29.091  28.500  1.00  0.00     0.029 A 
ATOM     42  C   UNL A   1      39.850  28.872  29.436  1.00  0.00     0.049 A 
ATOM     43  H   UNL A   1      40.182  29.844  31.246  1.00  0.00     0.167 HD
ATOM     44  C   UNL A   1      40.842  32.040  34.963  1.00  0.00     0.031 A 
ATOM     45  C   UNL A   1      40.846  27.978  29.279  1.00  0.00     0.031 A 
ATOM     46  C   UNL A   1      41.887  31.052  34.926  1.00  0.00     0.049 A 
ATOM     47  C   UNL A   1      41.910  27.862  30.335  1.00  0.00     0.074 A 
ATOM     48  C   UNL A   1      42.864  30.793  35.874  1.00  0.00     0.029 A 
ATOM     49  N   UNL A   1      42.100  30.168  33.881  1.00  0.00    -0.354 N 
ATOM     50  N   UNL A   1      42.033  28.523  31.461  1.00  0.00    -0.248 NA
ATOM     51  C   UNL A   1      42.968  26.868  30.102  1.00  0.00     0.031 C 
ATOM     52  C   UNL A   1      43.703  29.792  35.373  1.00  0.00     0.029 A 
ATOM     53  C   UNL A   1      43.212  29.385  34.142  1.00  0.00     0.049 A 
ATOM     54  H   UNL A   1      41.543  30.106  33.072  1.00  0.00     0.167 HD
ATOM     55  C   UNL A   1      43.166  28.010  32.082  1.00  0.00     0.074 A 
ATOM     56  C   UNL A   1      43.685  26.974  31.213  1.00  0.00     0.031 C 
ATOM     57  C   UNL A   1      43.723  28.362  33.266  1.00  0.00     0.031 A 
BRANCH  44  58
ATOM     58  C   UNL A   1      40.801  32.994  36.125  1.00  0.00    -0.014 A 
ATOM     59  C   UNL A   1      41.561  34.175  36.131  1.00  0.00     0.009 A 
ATOM     60  C   UNL A   1      39.969  32.717  37.221  1.00  0.00     0.009 A 
ATOM     61  C   UNL A   1      41.518  35.037  37.230  1.00  0.00     0.001 A 
ATOM     62  C   UNL A   1      39.906  33.595  38.305  1.00  0.00     0.001 A 
ATOM     63  C   UNL A   1      40.688  34.749  38.312  1.00  0.00     0.000 A 
ENDBRANCH  44  58
BRANCH  45  64
ATOM     64  C   UNL A   1      40.892  27.134  28.057  1.00  0.00    -0.014 A 
ATOM     65  C   UNL A   1      40.266  25.880  28.026  1.00  0.00     0.009 A 
ATOM     66  C   UNL A   1      41.565  27.586  26.911  1.00  0.00     0.009 A 
ATOM     67  C   UNL A   1      40.329  25.087  26.878  1.00  0.00     0.001 A 
ATOM     68  C   UNL A   1      41.604  26.803  25.756  1.00  0.00     0.001 A 
ATOM     69  C   UNL A   1      40.992  25.551  25.743  1.00  0.00     0.000 A 
ENDBRANCH  45  64
BRANCH  57  70
ATOM     70  C   UNL A   1      44.942  27.602  33.709  1.00  0.00    -0.014 A 
ATOM     71  C   UNL A   1      46.234  28.025  33.359  1.00  0.00     0.009 A 
ATOM     72  C   UNL A   1      44.795  26.472  34.529  1.00  0.00     0.009 A 
ATOM     73  C   UNL A   1      47.353  27.312  33.796  1.00  0.00     0.001 A 
ATOM     74  C   UNL A   1      45.916  25.778  34.987  1.00  0.00     0.001 A 
ATOM     75  C   UNL A   1      47.193  26.193  34.613  1.00  0.00     0.000 A 
ENDBRANCH  57  70
ENDBRANCH  31  32
ENDBRANCH  24  26
ENDBRANCH  23  24
ENDBRANCH  22  23
ENDBRANCH  21  22
ENDBRANCH   1  21
TORSDOF 16
ENDMDL
