MODEL 1
REMARK VINA RESULT:      -9.9      0.000      0.000
REMARK SMILES CC(C)[C@H]1C[C@@](O)([C@H](F)C(=O)OCCOCCOC(=O)c2ccc(-c3c4nc(c(-c5ccccc5)c5ccc([nH]5)c(-c5ccccc5)c5nc(c(-c6ccccc6)c6ccc3[nH]6)C=C5)C=C4)cc2)CCO1
REMARK SMILES IDX 15 1 14 2 13 3 12 4 10 5 11 6 8 7 9 8 6 9 4 10 5 11 71 12
REMARK SMILES IDX 70 13 69 14 2 15 1 16 3 17 7 18 16 20 17 21 18 22 19 23
REMARK SMILES IDX 20 24 21 25 22 26 68 27 23 28 67 29 24 30 25 31 26 32 61 33
REMARK SMILES IDX 27 34 66 35 60 36 62 37 28 38 65 39 59 40 58 41 29 43 51 44
REMARK SMILES IDX 36 45 50 46 37 47 40 48 49 49 63 50 38 51 39 52 48 54 64 55
REMARK SMILES IDX 41 56 30 57 31 58 35 59 32 60 34 61 33 62 52 63 53 64 57 65
REMARK SMILES IDX 54 66 56 67 55 68 42 69 43 70 47 71 44 72 46 73 45 74
REMARK H PARENT 7 19 62 42 40 53
REMARK Flexibility Score: inf
ROOT
ATOM      1  O   UNL A   1      41.558  20.342  26.991  1.00  0.00    -0.374 OA
ENDROOT
BRANCH   1   2
ATOM      2  C   UNL A   1      40.281  20.332  26.357  1.00  0.00     0.202 C 
BRANCH   2   3
ATOM      3  C   UNL A   1      39.522  21.660  26.372  1.00  0.00     0.261 C 
BRANCH   3   4
ATOM      4  O   UNL A   1      38.501  21.681  25.363  1.00  0.00    -0.461 OA
BRANCH   4   5
ATOM      5  C   UNL A   1      37.506  22.599  25.541  1.00  0.00     0.343 C 
ATOM      6  O   UNL A   1      37.537  23.519  26.349  1.00  0.00    -0.249 OA
BRANCH   5   7
ATOM      7  C   UNL A   1      36.361  22.351  24.573  1.00  0.00     0.307 C 
ATOM      8  F   UNL A   1      36.802  21.938  23.342  1.00  0.00    -0.232 F 
BRANCH   7   9
ATOM      9  C   UNL A   1      35.350  21.321  25.115  1.00  0.00     0.111 C 
ATOM     10  C   UNL A   1      34.498  18.921  24.862  1.00  0.00     0.123 C 
ATOM     11  C   UNL A   1      35.635  19.910  24.567  1.00  0.00     0.071 C 
ATOM     12  O   UNL A   1      33.260  19.469  24.399  1.00  0.00    -0.378 OA
ATOM     13  C   UNL A   1      32.910  20.687  25.050  1.00  0.00     0.163 C 
ATOM     14  C   UNL A   1      33.931  21.763  24.723  1.00  0.00     0.067 C 
BRANCH  10  15
ATOM     15  C   UNL A   1      34.715  17.553  24.170  1.00  0.00     0.012 C 
ATOM     16  C   UNL A   1      34.757  16.397  25.171  1.00  0.00     0.010 C 
ATOM     17  C   UNL A   1      33.620  17.287  23.129  1.00  0.00     0.010 C 
ENDBRANCH  10  15
BRANCH   9  18
ATOM     18  O   UNL A   1      35.434  21.322  26.549  1.00  0.00    -0.386 OA
ATOM     19  H   UNL A   1      35.973  22.073  26.840  1.00  0.00     0.211 HD
ENDBRANCH   9  18
ENDBRANCH   7   9
ENDBRANCH   5   7
ENDBRANCH   4   5
ENDBRANCH   3   4
ENDBRANCH   2   3
ENDBRANCH   1   2
BRANCH   1  20
ATOM     20  C   UNL A   1      42.676  19.892  26.224  1.00  0.00     0.202 C 
BRANCH  20  21
ATOM     21  C   UNL A   1      43.562  20.982  25.612  1.00  0.00     0.261 C 
BRANCH  21  22
ATOM     22  O   UNL A   1      43.507  22.210  26.363  1.00  0.00    -0.460 OA
BRANCH  22  23
ATOM     23  C   UNL A   1      43.477  23.338  25.619  1.00  0.00     0.338 C 
ATOM     24  O   UNL A   1      43.820  23.471  24.454  1.00  0.00    -0.246 OA
BRANCH  23  25
ATOM     25  C   UNL A   1      42.808  24.415  26.369  1.00  0.00     0.060 A 
ATOM     26  C   UNL A   1      43.283  25.723  26.207  1.00  0.00     0.016 A 
ATOM     27  C   UNL A   1      41.803  24.132  27.295  1.00  0.00     0.016 A 
ATOM     28  C   UNL A   1      42.794  26.749  27.013  1.00  0.00     0.010 A 
ATOM     29  C   UNL A   1      41.324  25.157  28.112  1.00  0.00     0.010 A 
ATOM     30  C   UNL A   1      41.846  26.459  28.002  1.00  0.00    -0.014 A 
BRANCH  30  31
ATOM     31  C   UNL A   1      41.527  27.457  29.049  1.00  0.00     0.031 A 
ATOM     32  C   UNL A   1      42.320  27.432  30.326  1.00  0.00     0.074 A 
ATOM     33  C   UNL A   1      40.534  28.347  28.882  1.00  0.00     0.049 A 
ATOM     34  N   UNL A   1      42.125  28.095  31.436  1.00  0.00    -0.248 NA
ATOM     35  C   UNL A   1      43.489  26.537  30.354  1.00  0.00     0.031 C 
ATOM     36  C   UNL A   1      39.737  28.511  27.669  1.00  0.00     0.029 A 
ATOM     37  N   UNL A   1      40.017  29.269  29.757  1.00  0.00    -0.354 N 
ATOM     38  C   UNL A   1      43.128  27.678  32.302  1.00  0.00     0.074 A 
ATOM     39  C   UNL A   1      43.925  26.701  31.593  1.00  0.00     0.031 C 
ATOM     40  C   UNL A   1      38.812  29.462  27.884  1.00  0.00     0.029 A 
ATOM     41  C   UNL A   1      38.925  29.937  29.261  1.00  0.00     0.049 A 
ATOM     42  H   UNL A   1      40.393  29.435  30.652  1.00  0.00     0.167 HD
ATOM     43  C   UNL A   1      43.361  28.070  33.576  1.00  0.00     0.031 A 
ATOM     44  C   UNL A   1      38.090  30.802  29.868  1.00  0.00     0.031 A 
ATOM     45  C   UNL A   1      42.561  29.033  34.281  1.00  0.00     0.049 A 
ATOM     46  C   UNL A   1      38.316  31.161  31.313  1.00  0.00     0.074 A 
ATOM     47  C   UNL A   1      42.715  29.502  35.575  1.00  0.00     0.029 A 
ATOM     48  N   UNL A   1      41.453  29.673  33.750  1.00  0.00    -0.354 N 
ATOM     49  N   UNL A   1      39.265  30.761  32.124  1.00  0.00    -0.248 NA
ATOM     50  C   UNL A   1      37.352  32.087  31.927  1.00  0.00     0.031 C 
ATOM     51  C   UNL A   1      41.671  30.392  35.841  1.00  0.00     0.029 A 
ATOM     52  C   UNL A   1      40.899  30.517  34.695  1.00  0.00     0.049 A 
ATOM     53  H   UNL A   1      41.110  29.544  32.836  1.00  0.00     0.167 HD
ATOM     54  C   UNL A   1      39.033  31.411  33.330  1.00  0.00     0.074 A 
ATOM     55  C   UNL A   1      37.855  32.232  33.146  1.00  0.00     0.031 C 
ATOM     56  C   UNL A   1      39.737  31.340  34.486  1.00  0.00     0.031 A 
BRANCH  43  57
ATOM     57  C   UNL A   1      44.504  27.421  34.302  1.00  0.00    -0.014 A 
ATOM     58  C   UNL A   1      45.782  28.001  34.320  1.00  0.00     0.009 A 
ATOM     59  C   UNL A   1      44.289  26.224  35.002  1.00  0.00     0.009 A 
ATOM     60  C   UNL A   1      46.829  27.378  35.000  1.00  0.00     0.001 A 
ATOM     61  C   UNL A   1      45.333  25.615  35.702  1.00  0.00     0.001 A 
ATOM     62  C   UNL A   1      46.604  26.189  35.693  1.00  0.00     0.000 A 
ENDBRANCH  43  57
BRANCH  44  63
ATOM     63  C   UNL A   1      36.935  31.367  29.122  1.00  0.00    -0.014 A 
ATOM     64  C   UNL A   1      36.945  32.703  28.696  1.00  0.00     0.009 A 
ATOM     65  C   UNL A   1      35.811  30.573  28.842  1.00  0.00     0.009 A 
ATOM     66  C   UNL A   1      35.844  33.239  28.023  1.00  0.00     0.001 A 
ATOM     67  C   UNL A   1      34.723  31.104  28.147  1.00  0.00     0.001 A 
ATOM     68  C   UNL A   1      34.737  32.438  27.745  1.00  0.00     0.000 A 
ENDBRANCH  44  63
BRANCH  56  69
ATOM     69  C   UNL A   1      39.297  32.211  35.626  1.00  0.00    -0.014 A 
ATOM     70  C   UNL A   1      38.385  31.750  36.587  1.00  0.00     0.009 A 
ATOM     71  C   UNL A   1      39.872  33.482  35.783  1.00  0.00     0.009 A 
ATOM     72  C   UNL A   1      38.045  32.555  37.677  1.00  0.00     0.001 A 
ATOM     73  C   UNL A   1      39.548  34.274  36.885  1.00  0.00     0.001 A 
ATOM     74  C   UNL A   1      38.632  33.812  37.828  1.00  0.00     0.000 A 
ENDBRANCH  56  69
ENDBRANCH  30  31
ENDBRANCH  23  25
ENDBRANCH  22  23
ENDBRANCH  21  22
ENDBRANCH  20  21
ENDBRANCH   1  20
TORSDOF 17
ENDMDL
MODEL 2
REMARK VINA RESULT:      -9.6      5.134      9.771
REMARK SMILES CC(C)[C@H]1C[C@@](O)([C@H](F)C(=O)OCCOCCOC(=O)c2ccc(-c3c4nc(c(-c5ccccc5)c5ccc([nH]5)c(-c5ccccc5)c5nc(c(-c6ccccc6)c6ccc3[nH]6)C=C5)C=C4)cc2)CCO1
REMARK SMILES IDX 15 1 14 2 13 3 12 4 10 5 11 6 8 7 9 8 6 9 4 10 5 11 71 12
REMARK SMILES IDX 70 13 69 14 2 15 1 16 3 17 7 18 16 20 17 21 18 22 19 23
REMARK SMILES IDX 20 24 21 25 22 26 68 27 23 28 67 29 24 30 25 31 26 32 61 33
REMARK SMILES IDX 27 34 66 35 60 36 62 37 28 38 65 39 59 40 58 41 29 43 51 44
REMARK SMILES IDX 36 45 50 46 37 47 40 48 49 49 63 50 38 51 39 52 48 54 64 55
REMARK SMILES IDX 41 56 30 57 31 58 35 59 32 60 34 61 33 62 52 63 53 64 57 65
REMARK SMILES IDX 54 66 56 67 55 68 42 69 43 70 47 71 44 72 46 73 45 74
REMARK H PARENT 7 19 62 42 40 53
REMARK Flexibility Score: inf
ROOT
ATOM      1  O   UNL A   1      33.982  32.527  28.806  1.00  0.00    -0.374 OA
ENDROOT
BRANCH   1   2
ATOM      2  C   UNL A   1      35.025  31.972  28.007  1.00  0.00     0.202 C 
BRANCH   2   3
ATOM      3  C   UNL A   1      34.840  30.509  27.599  1.00  0.00     0.261 C 
BRANCH   3   4
ATOM      4  O   UNL A   1      33.867  30.386  26.550  1.00  0.00    -0.461 OA
BRANCH   4   5
ATOM      5  C   UNL A   1      33.198  29.197  26.494  1.00  0.00     0.343 C 
ATOM      6  O   UNL A   1      33.663  28.115  26.828  1.00  0.00    -0.249 OA
BRANCH   5   7
ATOM      7  C   UNL A   1      31.779  29.398  25.990  1.00  0.00     0.307 C 
ATOM      8  F   UNL A   1      31.290  30.642  26.298  1.00  0.00    -0.232 F 
BRANCH   7   9
ATOM      9  C   UNL A   1      31.659  29.174  24.470  1.00  0.00     0.111 C 
ATOM     10  C   UNL A   1      30.105  29.428  22.453  1.00  0.00     0.123 C 
ATOM     11  C   UNL A   1      30.402  29.855  23.898  1.00  0.00     0.071 C 
ATOM     12  O   UNL A   1      30.057  27.999  22.381  1.00  0.00    -0.378 OA
ATOM     13  C   UNL A   1      31.291  27.381  22.735  1.00  0.00     0.163 C 
ATOM     14  C   UNL A   1      31.612  27.662  24.192  1.00  0.00     0.067 C 
BRANCH  10  15
ATOM     15  C   UNL A   1      28.755  29.987  21.941  1.00  0.00     0.012 C 
ATOM     16  C   UNL A   1      27.569  29.492  22.772  1.00  0.00     0.010 C 
ATOM     17  C   UNL A   1      28.766  31.520  21.930  1.00  0.00     0.010 C 
ENDBRANCH  10  15
BRANCH   9  18
ATOM     18  O   UNL A   1      32.838  29.703  23.845  1.00  0.00    -0.386 OA
ATOM     19  H   UNL A   1      33.092  29.135  23.101  1.00  0.00     0.211 HD
ENDBRANCH   9  18
ENDBRANCH   7   9
ENDBRANCH   5   7
ENDBRANCH   4   5
ENDBRANCH   3   4
ENDBRANCH   2   3
ENDBRANCH   1   2
BRANCH   1  20
ATOM     20  C   UNL A   1      33.374  33.735  28.346  1.00  0.00     0.202 C 
BRANCH  20  21
ATOM     21  C   UNL A   1      33.548  34.966  29.243  1.00  0.00     0.261 C 
BRANCH  21  22
ATOM     22  O   UNL A   1      32.525  35.049  30.253  1.00  0.00    -0.460 OA
BRANCH  22  23
ATOM     23  C   UNL A   1      32.862  35.752  31.357  1.00  0.00     0.338 C 
ATOM     24  O   UNL A   1      32.323  36.758  31.793  1.00  0.00    -0.246 OA
BRANCH  23  25
ATOM     25  C   UNL A   1      33.918  35.042  32.099  1.00  0.00     0.060 A 
ATOM     26  C   UNL A   1      35.197  35.615  32.132  1.00  0.00     0.016 A 
ATOM     27  C   UNL A   1      33.686  33.786  32.661  1.00  0.00     0.016 A 
ATOM     28  C   UNL A   1      36.266  34.907  32.679  1.00  0.00     0.010 A 
ATOM     29  C   UNL A   1      34.760  33.071  33.195  1.00  0.00     0.010 A 
ATOM     30  C   UNL A   1      36.059  33.612  33.169  1.00  0.00    -0.014 A 
BRANCH  30  31
ATOM     31  C   UNL A   1      37.211  32.737  33.486  1.00  0.00     0.031 A 
ATOM     32  C   UNL A   1      37.944  32.961  34.779  1.00  0.00     0.074 A 
ATOM     33  C   UNL A   1      37.617  31.783  32.631  1.00  0.00     0.049 A 
ATOM     34  N   UNL A   1      39.064  32.432  35.200  1.00  0.00    -0.248 NA
ATOM     35  C   UNL A   1      37.333  33.912  35.723  1.00  0.00     0.031 C 
ATOM     36  C   UNL A   1      36.953  31.429  31.379  1.00  0.00     0.029 A 
ATOM     37  N   UNL A   1      38.706  30.952  32.686  1.00  0.00    -0.354 N 
ATOM     38  C   UNL A   1      39.304  33.005  36.442  1.00  0.00     0.074 A 
ATOM     39  C   UNL A   1      38.221  33.926  36.705  1.00  0.00     0.031 C 
ATOM     40  C   UNL A   1      37.665  30.465  30.769  1.00  0.00     0.029 A 
ATOM     41  C   UNL A   1      38.854  30.171  31.565  1.00  0.00     0.049 A 
ATOM     42  H   UNL A   1      39.322  30.918  33.453  1.00  0.00     0.167 HD
ATOM     43  C   UNL A   1      40.339  32.786  37.287  1.00  0.00     0.031 A 
ATOM     44  C   UNL A   1      39.857  29.347  31.210  1.00  0.00     0.031 A 
ATOM     45  C   UNL A   1      41.420  31.879  37.019  1.00  0.00     0.049 A 
ATOM     46  C   UNL A   1      41.042  29.183  32.125  1.00  0.00     0.074 A 
ATOM     47  C   UNL A   1      42.516  31.583  37.812  1.00  0.00     0.029 A 
ATOM     48  N   UNL A   1      41.542  31.122  35.865  1.00  0.00    -0.354 N 
ATOM     49  N   UNL A   1      41.262  29.729  33.296  1.00  0.00    -0.248 NA
ATOM     50  C   UNL A   1      42.118  28.292  31.666  1.00  0.00     0.031 C 
ATOM     51  C   UNL A   1      43.324  30.680  37.115  1.00  0.00     0.029 A 
ATOM     52  C   UNL A   1      42.704  30.375  35.912  1.00  0.00     0.049 A 
ATOM     53  H   UNL A   1      40.896  31.118  35.121  1.00  0.00     0.167 HD
ATOM     54  C   UNL A   1      42.481  29.223  33.729  1.00  0.00     0.074 A 
ATOM     55  C   UNL A   1      42.954  28.326  32.695  1.00  0.00     0.031 C 
ATOM     56  C   UNL A   1      43.147  29.473  34.882  1.00  0.00     0.031 A 
BRANCH  43  57
ATOM     57  C   UNL A   1      40.371  33.579  38.562  1.00  0.00    -0.014 A 
ATOM     58  C   UNL A   1      41.018  34.823  38.633  1.00  0.00     0.009 A 
ATOM     59  C   UNL A   1      39.718  33.085  39.702  1.00  0.00     0.009 A 
ATOM     60  C   UNL A   1      41.035  35.541  39.830  1.00  0.00     0.001 A 
ATOM     61  C   UNL A   1      39.716  33.817  40.890  1.00  0.00     0.001 A 
ATOM     62  C   UNL A   1      40.382  35.040  40.955  1.00  0.00     0.000 A 
ENDBRANCH  43  57
BRANCH  44  63
ATOM     63  C   UNL A   1      39.806  28.635  29.906  1.00  0.00    -0.014 A 
ATOM     64  C   UNL A   1      39.283  27.337  29.821  1.00  0.00     0.009 A 
ATOM     65  C   UNL A   1      40.293  29.248  28.741  1.00  0.00     0.009 A 
ATOM     66  C   UNL A   1      39.268  26.659  28.600  1.00  0.00     0.001 A 
ATOM     67  C   UNL A   1      40.252  28.579  27.516  1.00  0.00     0.001 A 
ATOM     68  C   UNL A   1      39.747  27.282  27.448  1.00  0.00     0.000 A 
ENDBRANCH  44  63
BRANCH  56  69
ATOM     69  C   UNL A   1      44.428  28.729  35.124  1.00  0.00    -0.014 A 
ATOM     70  C   UNL A   1      45.669  29.276  34.765  1.00  0.00     0.009 A 
ATOM     71  C   UNL A   1      44.393  27.498  35.798  1.00  0.00     0.009 A 
ATOM     72  C   UNL A   1      46.851  28.594  35.065  1.00  0.00     0.001 A 
ATOM     73  C   UNL A   1      45.576  26.831  36.116  1.00  0.00     0.001 A 
ATOM     74  C   UNL A   1      46.804  27.377  35.746  1.00  0.00     0.000 A 
ENDBRANCH  56  69
ENDBRANCH  30  31
ENDBRANCH  23  25
ENDBRANCH  22  23
ENDBRANCH  21  22
ENDBRANCH  20  21
ENDBRANCH   1  20
TORSDOF 17
ENDMDL
MODEL 3
REMARK VINA RESULT:      -9.5      1.586      2.703
REMARK SMILES CC(C)[C@H]1C[C@@](O)([C@H](F)C(=O)OCCOCCOC(=O)c2ccc(-c3c4nc(c(-c5ccccc5)c5ccc([nH]5)c(-c5ccccc5)c5nc(c(-c6ccccc6)c6ccc3[nH]6)C=C5)C=C4)cc2)CCO1
REMARK SMILES IDX 15 1 14 2 13 3 12 4 10 5 11 6 8 7 9 8 6 9 4 10 5 11 71 12
REMARK SMILES IDX 70 13 69 14 2 15 1 16 3 17 7 18 16 20 17 21 18 22 19 23
REMARK SMILES IDX 20 24 21 25 22 26 68 27 23 28 67 29 24 30 25 31 26 32 61 33
REMARK SMILES IDX 27 34 66 35 60 36 62 37 28 38 65 39 59 40 58 41 29 43 51 44
REMARK SMILES IDX 36 45 50 46 37 47 40 48 49 49 63 50 38 51 39 52 48 54 64 55
REMARK SMILES IDX 41 56 30 57 31 58 35 59 32 60 34 61 33 62 52 63 53 64 57 65
REMARK SMILES IDX 54 66 56 67 55 68 42 69 43 70 47 71 44 72 46 73 45 74
REMARK H PARENT 7 19 62 42 40 53
REMARK Flexibility Score: inf
ROOT
ATOM      1  O   UNL A   1      40.837  20.639  26.866  1.00  0.00    -0.374 OA
ENDROOT
BRANCH   1   2
ATOM      2  C   UNL A   1      39.636  20.732  26.103  1.00  0.00     0.202 C 
BRANCH   2   3
ATOM      3  C   UNL A   1      38.960  22.104  26.092  1.00  0.00     0.261 C 
BRANCH   3   4
ATOM      4  O   UNL A   1      37.919  22.157  25.106  1.00  0.00    -0.461 OA
BRANCH   4   5
ATOM      5  C   UNL A   1      36.651  21.945  25.566  1.00  0.00     0.343 C 
ATOM      6  O   UNL A   1      36.067  20.869  25.538  1.00  0.00    -0.249 OA
BRANCH   5   7
ATOM      7  C   UNL A   1      36.066  23.219  26.152  1.00  0.00     0.307 C 
ATOM      8  F   UNL A   1      36.781  24.332  25.791  1.00  0.00    -0.232 F 
BRANCH   7   9
ATOM      9  C   UNL A   1      34.589  23.420  25.759  1.00  0.00     0.111 C 
ATOM     10  C   UNL A   1      32.741  25.166  25.472  1.00  0.00     0.123 C 
ATOM     11  C   UNL A   1      34.251  24.913  25.592  1.00  0.00     0.071 C 
ATOM     12  O   UNL A   1      32.068  24.554  26.577  1.00  0.00    -0.378 OA
ATOM     13  C   UNL A   1      32.234  23.140  26.617  1.00  0.00     0.163 C 
ATOM     14  C   UNL A   1      33.696  22.795  26.844  1.00  0.00     0.067 C 
BRANCH  10  15
ATOM     15  C   UNL A   1      32.396  26.676  25.468  1.00  0.00     0.012 C 
ATOM     16  C   UNL A   1      31.097  26.976  26.219  1.00  0.00     0.010 C 
ATOM     17  C   UNL A   1      33.539  27.500  26.074  1.00  0.00     0.010 C 
ENDBRANCH  10  15
BRANCH   9  18
ATOM     18  O   UNL A   1      34.352  22.717  24.530  1.00  0.00    -0.386 OA
ATOM     19  H   UNL A   1      33.399  22.686  24.354  1.00  0.00     0.211 HD
ENDBRANCH   9  18
ENDBRANCH   7   9
ENDBRANCH   5   7
ENDBRANCH   4   5
ENDBRANCH   3   4
ENDBRANCH   2   3
ENDBRANCH   1   2
BRANCH   1  20
ATOM     20  C   UNL A   1      41.985  20.085  26.221  1.00  0.00     0.202 C 
BRANCH  20  21
ATOM     21  C   UNL A   1      43.055  21.083  25.767  1.00  0.00     0.261 C 
BRANCH  21  22
ATOM     22  O   UNL A   1      43.000  22.314  26.512  1.00  0.00    -0.460 OA
BRANCH  22  23
ATOM     23  C   UNL A   1      43.051  23.440  25.767  1.00  0.00     0.338 C 
ATOM     24  O   UNL A   1      43.428  23.552  24.610  1.00  0.00    -0.246 OA
BRANCH  23  25
ATOM     25  C   UNL A   1      42.424  24.554  26.499  1.00  0.00     0.060 A 
ATOM     26  C   UNL A   1      42.990  25.829  26.367  1.00  0.00     0.016 A 
ATOM     27  C   UNL A   1      41.366  24.332  27.383  1.00  0.00     0.016 A 
ATOM     28  C   UNL A   1      42.538  26.880  27.163  1.00  0.00     0.010 A 
ATOM     29  C   UNL A   1      40.924  25.382  28.190  1.00  0.00     0.010 A 
ATOM     30  C   UNL A   1      41.535  26.647  28.111  1.00  0.00    -0.014 A 
BRANCH  30  31
ATOM     31  C   UNL A   1      41.240  27.657  29.154  1.00  0.00     0.031 A 
ATOM     32  C   UNL A   1      42.043  27.629  30.425  1.00  0.00     0.074 A 
ATOM     33  C   UNL A   1      40.261  28.562  28.989  1.00  0.00     0.049 A 
ATOM     34  N   UNL A   1      41.868  28.302  31.532  1.00  0.00    -0.248 NA
ATOM     35  C   UNL A   1      43.197  26.714  30.450  1.00  0.00     0.031 C 
ATOM     36  C   UNL A   1      39.457  28.731  27.781  1.00  0.00     0.029 A 
ATOM     37  N   UNL A   1      39.767  29.499  29.861  1.00  0.00    -0.354 N 
ATOM     38  C   UNL A   1      42.871  27.874  32.392  1.00  0.00     0.074 A 
ATOM     39  C   UNL A   1      43.646  26.879  31.685  1.00  0.00     0.031 C 
ATOM     40  C   UNL A   1      38.549  29.699  27.997  1.00  0.00     0.029 A 
ATOM     41  C   UNL A   1      38.681  30.182  29.369  1.00  0.00     0.049 A 
ATOM     42  H   UNL A   1      40.152  29.664  30.751  1.00  0.00     0.167 HD
ATOM     43  C   UNL A   1      43.120  28.271  33.662  1.00  0.00     0.031 A 
ATOM     44  C   UNL A   1      37.865  31.065  29.977  1.00  0.00     0.031 A 
ATOM     45  C   UNL A   1      42.342  29.252  34.367  1.00  0.00     0.049 A 
ATOM     46  C   UNL A   1      38.109  31.429  31.418  1.00  0.00     0.074 A 
ATOM     47  C   UNL A   1      42.515  29.728  35.655  1.00  0.00     0.029 A 
ATOM     48  N   UNL A   1      41.240  29.906  33.840  1.00  0.00    -0.354 N 
ATOM     49  N   UNL A   1      39.058  31.019  32.224  1.00  0.00    -0.248 NA
ATOM     50  C   UNL A   1      37.166  32.375  32.032  1.00  0.00     0.031 C 
ATOM     51  C   UNL A   1      41.487  30.636  35.923  1.00  0.00     0.029 A 
ATOM     52  C   UNL A   1      40.708  30.766  34.783  1.00  0.00     0.049 A 
ATOM     53  H   UNL A   1      40.888  29.777  32.929  1.00  0.00     0.167 HD
ATOM     54  C   UNL A   1      38.846  31.682  33.427  1.00  0.00     0.074 A 
ATOM     55  C   UNL A   1      37.680  32.520  33.246  1.00  0.00     0.031 C 
ATOM     56  C   UNL A   1      39.558  31.606  34.577  1.00  0.00     0.031 A 
BRANCH  43  57
ATOM     57  C   UNL A   1      44.258  27.608  34.384  1.00  0.00    -0.014 A 
ATOM     58  C   UNL A   1      45.534  28.191  34.427  1.00  0.00     0.009 A 
ATOM     59  C   UNL A   1      44.040  26.395  35.054  1.00  0.00     0.009 A 
ATOM     60  C   UNL A   1      46.577  27.554  35.102  1.00  0.00     0.001 A 
ATOM     61  C   UNL A   1      45.079  25.773  35.749  1.00  0.00     0.001 A 
ATOM     62  C   UNL A   1      46.348  26.350  35.766  1.00  0.00     0.000 A 
ENDBRANCH  43  57
BRANCH  44  63
ATOM     63  C   UNL A   1      36.714  31.643  29.235  1.00  0.00    -0.014 A 
ATOM     64  C   UNL A   1      35.542  30.898  29.043  1.00  0.00     0.009 A 
ATOM     65  C   UNL A   1      36.789  32.941  28.705  1.00  0.00     0.009 A 
ATOM     66  C   UNL A   1      34.475  31.434  28.318  1.00  0.00     0.001 A 
ATOM     67  C   UNL A   1      35.711  33.483  28.003  1.00  0.00     0.001 A 
ATOM     68  C   UNL A   1      34.558  32.727  27.803  1.00  0.00     0.000 A 
ENDBRANCH  44  63
BRANCH  56  69
ATOM     69  C   UNL A   1      39.141  32.493  35.715  1.00  0.00    -0.014 A 
ATOM     70  C   UNL A   1      38.244  32.047  36.697  1.00  0.00     0.009 A 
ATOM     71  C   UNL A   1      39.724  33.763  35.848  1.00  0.00     0.009 A 
ATOM     72  C   UNL A   1      37.927  32.866  37.783  1.00  0.00     0.001 A 
ATOM     73  C   UNL A   1      39.423  34.569  36.945  1.00  0.00     0.001 A 
ATOM     74  C   UNL A   1      38.522  34.122  37.910  1.00  0.00     0.000 A 
ENDBRANCH  56  69
ENDBRANCH  30  31
ENDBRANCH  23  25
ENDBRANCH  22  23
ENDBRANCH  21  22
ENDBRANCH  20  21
ENDBRANCH   1  20
TORSDOF 17
ENDMDL
