MODEL 1
REMARK VINA RESULT:     -11.1      0.000      0.000
REMARK SMILES O=C(OCCOCCOC(=O)c1c(S(=O)(=O)N2CCO[C@@H](CCO)C2)sc2c1CC[NH2+]C2)c1ccc(-c2c3nc(c(-c4ccccc4)c4ccc([nH]4)c(-c4ccccc4)c4nc(c(-c5ccccc5)c5ccc2[nH]5)C=C4)C=C3)cc1
REMARK SMILES IDX 7 1 6 2 5 3 4 4 3 5 2 6 1 7 33 8 34 9 80 10 35 11 79 12
REMARK SMILES IDX 36 13 37 14 38 15 73 16 39 17 78 18 72 19 74 20 40 21 77 22
REMARK SMILES IDX 71 23 70 24 41 26 63 27 48 28 62 29 49 30 52 31 61 32 75 33
REMARK SMILES IDX 50 34 51 35 60 37 76 38 53 39 42 40 43 41 47 42 44 43 46 44
REMARK SMILES IDX 45 45 64 46 65 47 69 48 66 49 68 50 67 51 54 52 55 53 59 54
REMARK SMILES IDX 56 55 58 56 57 57 8 58 9 59 10 60 11 61 12 62 13 63 28 64
REMARK SMILES IDX 26 65 27 66 29 67 32 68 30 69 31 70 14 73 15 74 16 75 17 76
REMARK SMILES IDX 18 77 25 78 19 79 21 80 20 81 22 82 23 83 24 84
REMARK H PARENT 74 25 52 36 31 71 31 72 24 85
REMARK Flexibility Score: inf
ROOT
ATOM      1  C   UNL A   1      37.395  22.351  24.906  1.00  0.00     0.202 C 
ENDROOT
BRANCH   1   2
ATOM      2  O   UNL A   1      38.486  21.566  25.428  1.00  0.00    -0.374 OA
BRANCH   2   3
ATOM      3  C   UNL A   1      38.555  20.220  24.976  1.00  0.00     0.202 C 
BRANCH   3   4
ATOM      4  C   UNL A   1      39.297  19.197  25.838  1.00  0.00     0.261 C 
BRANCH   4   5
ATOM      5  O   UNL A   1      40.619  18.904  25.357  1.00  0.00    -0.460 OA
BRANCH   5   6
ATOM      6  C   UNL A   1      41.733  19.483  25.864  1.00  0.00     0.338 C 
ATOM      7  O   UNL A   1      42.846  19.018  25.642  1.00  0.00    -0.246 OA
BRANCH   6   8
ATOM      8  C   UNL A   1      41.599  20.863  26.388  1.00  0.00     0.060 A 
ATOM      9  C   UNL A   1      42.080  22.004  25.746  1.00  0.00     0.016 A 
ATOM     10  C   UNL A   1      41.057  20.974  27.675  1.00  0.00     0.016 A 
ATOM     11  C   UNL A   1      42.309  23.152  26.468  1.00  0.00     0.010 A 
ATOM     12  C   UNL A   1      41.192  22.155  28.376  1.00  0.00     0.010 A 
ATOM     13  C   UNL A   1      41.919  23.194  27.803  1.00  0.00    -0.014 A 
BRANCH  13  14
ATOM     14  C   UNL A   1      42.237  24.409  28.531  1.00  0.00     0.031 A 
ATOM     15  C   UNL A   1      41.342  25.557  28.244  1.00  0.00     0.074 A 
ATOM     16  C   UNL A   1      43.214  24.448  29.453  1.00  0.00     0.049 A 
ATOM     17  N   UNL A   1      41.660  26.737  27.825  1.00  0.00    -0.248 NA
ATOM     18  C   UNL A   1      39.892  25.311  28.323  1.00  0.00     0.031 C 
ATOM     19  C   UNL A   1      43.980  23.318  29.987  1.00  0.00     0.029 A 
ATOM     20  N   UNL A   1      43.619  25.495  30.222  1.00  0.00    -0.354 N 
ATOM     21  C   UNL A   1      40.464  27.448  27.767  1.00  0.00     0.074 A 
ATOM     22  C   UNL A   1      39.405  26.484  27.931  1.00  0.00     0.031 C 
ATOM     23  C   UNL A   1      44.538  23.688  31.159  1.00  0.00     0.029 A 
ATOM     24  C   UNL A   1      44.267  25.098  31.380  1.00  0.00     0.049 A 
ATOM     25  H   UNL A   1      43.467  26.438  29.979  1.00  0.00     0.167 HD
ATOM     26  C   UNL A   1      40.434  28.804  27.870  1.00  0.00     0.031 A 
ATOM     27  C   UNL A   1      44.469  25.848  32.489  1.00  0.00     0.031 A 
ATOM     28  C   UNL A   1      41.695  29.403  27.520  1.00  0.00     0.049 A 
ATOM     29  C   UNL A   1      44.292  27.271  32.122  1.00  0.00     0.074 A 
ATOM     30  C   UNL A   1      42.507  29.395  26.403  1.00  0.00     0.029 A 
ATOM     31  N   UNL A   1      42.471  29.896  28.541  1.00  0.00    -0.354 N 
ATOM     32  N   UNL A   1      45.124  27.933  31.370  1.00  0.00    -0.248 NA
ATOM     33  C   UNL A   1      42.972  27.868  32.263  1.00  0.00     0.031 C 
ATOM     34  C   UNL A   1      43.840  29.439  26.910  1.00  0.00     0.029 A 
ATOM     35  C   UNL A   1      43.761  29.506  28.301  1.00  0.00     0.049 A 
ATOM     36  H   UNL A   1      42.157  30.432  29.305  1.00  0.00     0.167 HD
ATOM     37  C   UNL A   1      44.321  28.768  30.606  1.00  0.00     0.074 A 
ATOM     38  C   UNL A   1      43.030  28.779  31.288  1.00  0.00     0.031 C 
ATOM     39  C   UNL A   1      44.691  29.134  29.342  1.00  0.00     0.031 A 
BRANCH  26  40
ATOM     40  C   UNL A   1      39.423  29.509  28.751  1.00  0.00    -0.014 A 
ATOM     41  C   UNL A   1      39.479  29.295  30.141  1.00  0.00     0.009 A 
ATOM     42  C   UNL A   1      38.243  30.097  28.253  1.00  0.00     0.009 A 
ATOM     43  C   UNL A   1      38.368  29.537  30.958  1.00  0.00     0.001 A 
ATOM     44  C   UNL A   1      37.152  30.384  29.073  1.00  0.00     0.001 A 
ATOM     45  C   UNL A   1      37.199  30.066  30.420  1.00  0.00     0.000 A 
ENDBRANCH  26  40
BRANCH  27  46
ATOM     46  C   UNL A   1      44.531  25.383  33.890  1.00  0.00    -0.014 A 
ATOM     47  C   UNL A   1      43.402  24.833  34.512  1.00  0.00     0.009 A 
ATOM     48  C   UNL A   1      45.767  25.265  34.553  1.00  0.00     0.009 A 
ATOM     49  C   UNL A   1      43.513  24.170  35.741  1.00  0.00     0.001 A 
ATOM     50  C   UNL A   1      45.877  24.615  35.784  1.00  0.00     0.001 A 
ATOM     51  C   UNL A   1      44.750  24.055  36.372  1.00  0.00     0.000 A 
ENDBRANCH  27  46
BRANCH  39  52
ATOM     52  C   UNL A   1      46.105  28.849  28.909  1.00  0.00    -0.014 A 
ATOM     53  C   UNL A   1      46.478  27.653  28.270  1.00  0.00     0.009 A 
ATOM     54  C   UNL A   1      47.061  29.870  29.019  1.00  0.00     0.009 A 
ATOM     55  C   UNL A   1      47.781  27.469  27.796  1.00  0.00     0.001 A 
ATOM     56  C   UNL A   1      48.355  29.695  28.526  1.00  0.00     0.001 A 
ATOM     57  C   UNL A   1      48.717  28.492  27.923  1.00  0.00     0.000 A 
ENDBRANCH  39  52
ENDBRANCH  13  14
ENDBRANCH   6   8
ENDBRANCH   5   6
ENDBRANCH   4   5
ENDBRANCH   3   4
ENDBRANCH   2   3
ENDBRANCH   1   2
BRANCH   1  58
ATOM     58  C   UNL A   1      36.638  23.292  25.865  1.00  0.00     0.261 C 
BRANCH  58  59
ATOM     59  O   UNL A   1      35.921  24.317  25.143  1.00  0.00    -0.460 OA
BRANCH  59  60
ATOM     60  C   UNL A   1      34.608  24.523  25.476  1.00  0.00     0.340 C 
ATOM     61  O   UNL A   1      34.094  24.170  26.520  1.00  0.00    -0.246 OA
BRANCH  60  62
ATOM     62  C   UNL A   1      33.995  25.506  24.576  1.00  0.00     0.095 A 
ATOM     63  C   UNL A   1      33.648  25.223  23.260  1.00  0.00     0.150 A 
ATOM     64  C   UNL A   1      33.708  26.896  24.883  1.00  0.00    -0.007 A 
ATOM     65  S   UNL A   1      33.462  26.670  22.369  1.00  0.00    -0.120 S 
ATOM     66  C   UNL A   1      33.191  27.551  23.783  1.00  0.00     0.064 A 
ATOM     67  C   UNL A   1      33.943  27.675  26.147  1.00  0.00     0.099 C 
ATOM     68  C   UNL A   1      32.573  28.910  23.810  1.00  0.00     0.308 C 
ATOM     69  C   UNL A   1      33.233  29.052  26.135  1.00  0.00     0.265 C 
ATOM     70  N   UNL A   1      33.237  29.740  24.826  1.00  0.00    -0.342 N 
ATOM     71  H   UNL A   1      34.201  29.914  24.541  1.00  0.00     0.346 HD
ATOM     72  H   UNL A   1      32.733  30.622  24.914  1.00  0.00     0.346 HD
BRANCH  63  73
ATOM     73  S   UNL A   1      33.453  23.702  22.358  1.00  0.00     0.253 S 
ATOM     74  O   UNL A   1      33.209  24.096  20.989  1.00  0.00    -0.206 OA
ATOM     75  O   UNL A   1      34.630  22.939  22.727  1.00  0.00    -0.206 OA
BRANCH  73  76
ATOM     76  N   UNL A   1      32.113  22.839  22.924  1.00  0.00    -0.192 NA
ATOM     77  C   UNL A   1      31.279  23.337  24.044  1.00  0.00     0.131 C 
ATOM     78  C   UNL A   1      32.104  21.362  22.813  1.00  0.00     0.134 C 
ATOM     79  C   UNL A   1      31.415  22.505  25.335  1.00  0.00     0.177 C 
ATOM     80  C   UNL A   1      32.517  20.749  24.157  1.00  0.00     0.135 C 
ATOM     81  O   UNL A   1      31.514  21.085  25.137  1.00  0.00    -0.375 OA
BRANCH  80  82
ATOM     82  C   UNL A   1      32.696  19.228  24.139  1.00  0.00     0.061 C 
BRANCH  82  83
ATOM     83  C   UNL A   1      33.454  18.681  25.342  1.00  0.00     0.159 C 
BRANCH  83  84
ATOM     84  O   UNL A   1      32.547  18.376  26.392  1.00  0.00    -0.396 OA
ATOM     85  H   UNL A   1      31.935  17.682  26.099  1.00  0.00     0.210 HD
ENDBRANCH  83  84
ENDBRANCH  82  83
ENDBRANCH  80  82
ENDBRANCH  73  76
ENDBRANCH  63  73
ENDBRANCH  60  62
ENDBRANCH  59  60
ENDBRANCH  58  59
ENDBRANCH   1  58
TORSDOF 19
ENDMDL
MODEL 2
REMARK VINA RESULT:     -10.8      3.083      6.875
REMARK SMILES O=C(OCCOCCOC(=O)c1c(S(=O)(=O)N2CCO[C@@H](CCO)C2)sc2c1CC[NH2+]C2)c1ccc(-c2c3nc(c(-c4ccccc4)c4ccc([nH]4)c(-c4ccccc4)c4nc(c(-c5ccccc5)c5ccc2[nH]5)C=C4)C=C3)cc1
REMARK SMILES IDX 7 1 6 2 5 3 4 4 3 5 2 6 1 7 33 8 34 9 80 10 35 11 79 12
REMARK SMILES IDX 36 13 37 14 38 15 73 16 39 17 78 18 72 19 74 20 40 21 77 22
REMARK SMILES IDX 71 23 70 24 41 26 63 27 48 28 62 29 49 30 52 31 61 32 75 33
REMARK SMILES IDX 50 34 51 35 60 37 76 38 53 39 42 40 43 41 47 42 44 43 46 44
REMARK SMILES IDX 45 45 64 46 65 47 69 48 66 49 68 50 67 51 54 52 55 53 59 54
REMARK SMILES IDX 56 55 58 56 57 57 8 58 9 59 10 60 11 61 12 62 13 63 28 64
REMARK SMILES IDX 26 65 27 66 29 67 32 68 30 69 31 70 14 73 15 74 16 75 17 76
REMARK SMILES IDX 18 77 25 78 19 79 21 80 20 81 22 82 23 83 24 84
REMARK H PARENT 74 25 52 36 31 71 31 72 24 85
REMARK Flexibility Score: inf
ROOT
ATOM      1  C   UNL A   1      37.727  23.723  26.122  1.00  0.00     0.202 C 
ENDROOT
BRANCH   1   2
ATOM      2  O   UNL A   1      38.633  22.614  25.965  1.00  0.00    -0.374 OA
BRANCH   2   3
ATOM      3  C   UNL A   1      39.728  22.572  26.871  1.00  0.00     0.202 C 
BRANCH   3   4
ATOM      4  C   UNL A   1      41.095  22.129  26.347  1.00  0.00     0.261 C 
BRANCH   4   5
ATOM      5  O   UNL A   1      42.178  22.939  26.832  1.00  0.00    -0.460 OA
BRANCH   5   6
ATOM      6  C   UNL A   1      42.442  24.179  26.356  1.00  0.00     0.338 C 
ATOM      7  O   UNL A   1      43.007  24.337  25.279  1.00  0.00    -0.246 OA
BRANCH   6   8
ATOM      8  C   UNL A   1      41.731  25.312  26.992  1.00  0.00     0.060 A 
ATOM      9  C   UNL A   1      40.918  26.219  26.311  1.00  0.00     0.016 A 
ATOM     10  C   UNL A   1      42.019  25.528  28.346  1.00  0.00     0.016 A 
ATOM     11  C   UNL A   1      40.662  27.455  26.859  1.00  0.00     0.010 A 
ATOM     12  C   UNL A   1      41.677  26.727  28.937  1.00  0.00     0.010 A 
ATOM     13  C   UNL A   1      41.103  27.721  28.151  1.00  0.00    -0.014 A 
BRANCH  13  14
ATOM     14  C   UNL A   1      40.854  29.059  28.655  1.00  0.00     0.031 A 
ATOM     15  C   UNL A   1      42.023  29.971  28.598  1.00  0.00     0.074 A 
ATOM     16  C   UNL A   1      39.633  29.450  29.057  1.00  0.00     0.049 A 
ATOM     17  N   UNL A   1      42.575  30.629  29.564  1.00  0.00    -0.248 NA
ATOM     18  C   UNL A   1      42.737  30.063  27.314  1.00  0.00     0.031 C 
ATOM     19  C   UNL A   1      38.372  28.715  28.919  1.00  0.00     0.029 A 
ATOM     20  N   UNL A   1      39.240  30.661  29.537  1.00  0.00    -0.354 N 
ATOM     21  C   UNL A   1      43.596  31.370  28.974  1.00  0.00     0.074 A 
ATOM     22  C   UNL A   1      43.747  30.867  27.632  1.00  0.00     0.031 C 
ATOM     23  C   UNL A   1      37.347  29.585  29.040  1.00  0.00     0.029 A 
ATOM     24  C   UNL A   1      37.882  30.891  29.383  1.00  0.00     0.049 A 
ATOM     25  H   UNL A   1      39.858  31.308  29.951  1.00  0.00     0.167 HD
ATOM     26  C   UNL A   1      44.051  32.525  29.530  1.00  0.00     0.031 A 
ATOM     27  C   UNL A   1      37.257  32.091  29.424  1.00  0.00     0.031 A 
ATOM     28  C   UNL A   1      43.774  32.596  30.941  1.00  0.00     0.049 A 
ATOM     29  C   UNL A   1      38.159  33.058  30.091  1.00  0.00     0.074 A 
ATOM     30  C   UNL A   1      44.081  31.816  32.038  1.00  0.00     0.029 A 
ATOM     31  N   UNL A   1      42.774  33.441  31.353  1.00  0.00    -0.354 N 
ATOM     32  N   UNL A   1      38.447  33.022  31.360  1.00  0.00    -0.248 NA
ATOM     33  C   UNL A   1      39.070  33.842  29.269  1.00  0.00     0.031 C 
ATOM     34  C   UNL A   1      42.944  31.914  32.895  1.00  0.00     0.029 A 
ATOM     35  C   UNL A   1      42.029  32.773  32.286  1.00  0.00     0.049 A 
ATOM     36  H   UNL A   1      42.620  34.360  31.034  1.00  0.00     0.167 HD
ATOM     37  C   UNL A   1      39.782  33.395  31.430  1.00  0.00     0.074 A 
ATOM     38  C   UNL A   1      40.070  34.011  30.137  1.00  0.00     0.031 C 
ATOM     39  C   UNL A   1      40.597  32.908  32.414  1.00  0.00     0.031 A 
BRANCH  26  40
ATOM     40  C   UNL A   1      44.293  33.765  28.693  1.00  0.00    -0.014 A 
ATOM     41  C   UNL A   1      43.215  34.307  27.969  1.00  0.00     0.009 A 
ATOM     42  C   UNL A   1      45.580  34.216  28.337  1.00  0.00     0.009 A 
ATOM     43  C   UNL A   1      43.429  35.148  26.870  1.00  0.00     0.001 A 
ATOM     44  C   UNL A   1      45.793  35.092  27.272  1.00  0.00     0.001 A 
ATOM     45  C   UNL A   1      44.719  35.527  26.511  1.00  0.00     0.000 A 
ENDBRANCH  26  40
BRANCH  27  46
ATOM     46  C   UNL A   1      36.051  32.503  28.678  1.00  0.00    -0.014 A 
ATOM     47  C   UNL A   1      35.117  31.552  28.248  1.00  0.00     0.009 A 
ATOM     48  C   UNL A   1      35.693  33.862  28.584  1.00  0.00     0.009 A 
ATOM     49  C   UNL A   1      33.863  31.946  27.764  1.00  0.00     0.001 A 
ATOM     50  C   UNL A   1      34.449  34.257  28.090  1.00  0.00     0.001 A 
ATOM     51  C   UNL A   1      33.527  33.297  27.692  1.00  0.00     0.000 A 
ENDBRANCH  27  46
BRANCH  39  52
ATOM     52  C   UNL A   1      39.955  32.193  33.574  1.00  0.00    -0.014 A 
ATOM     53  C   UNL A   1      39.710  32.818  34.810  1.00  0.00     0.009 A 
ATOM     54  C   UNL A   1      39.456  30.898  33.372  1.00  0.00     0.009 A 
ATOM     55  C   UNL A   1      39.024  32.148  35.828  1.00  0.00     0.001 A 
ATOM     56  C   UNL A   1      38.751  30.238  34.381  1.00  0.00     0.001 A 
ATOM     57  C   UNL A   1      38.543  30.859  35.611  1.00  0.00     0.000 A 
ENDBRANCH  39  52
ENDBRANCH  13  14
ENDBRANCH   6   8
ENDBRANCH   5   6
ENDBRANCH   4   5
ENDBRANCH   3   4
ENDBRANCH   2   3
ENDBRANCH   1   2
BRANCH   1  58
ATOM     58  C   UNL A   1      36.210  23.448  26.089  1.00  0.00     0.261 C 
BRANCH  58  59
ATOM     59  O   UNL A   1      35.492  24.518  25.439  1.00  0.00    -0.460 OA
BRANCH  59  60
ATOM     60  C   UNL A   1      34.143  24.602  25.662  1.00  0.00     0.340 C 
ATOM     61  O   UNL A   1      33.571  24.133  26.627  1.00  0.00    -0.246 OA
BRANCH  60  62
ATOM     62  C   UNL A   1      33.534  25.603  24.779  1.00  0.00     0.095 A 
ATOM     63  C   UNL A   1      33.369  25.414  23.412  1.00  0.00     0.150 A 
ATOM     64  C   UNL A   1      33.068  26.923  25.164  1.00  0.00    -0.007 A 
ATOM     65  S   UNL A   1      33.131  26.916  22.629  1.00  0.00    -0.120 S 
ATOM     66  C   UNL A   1      32.611  27.627  24.069  1.00  0.00     0.064 A 
ATOM     67  C   UNL A   1      33.075  27.596  26.509  1.00  0.00     0.099 C 
ATOM     68  C   UNL A   1      31.853  28.912  24.134  1.00  0.00     0.308 C 
ATOM     69  C   UNL A   1      32.228  28.893  26.526  1.00  0.00     0.265 C 
ATOM     70  N   UNL A   1      32.306  29.701  25.289  1.00  0.00    -0.342 N 
ATOM     71  H   UNL A   1      33.272  29.993  25.139  1.00  0.00     0.346 HD
ATOM     72  H   UNL A   1      31.705  30.518  25.388  1.00  0.00     0.346 HD
BRANCH  63  73
ATOM     73  S   UNL A   1      33.440  23.975  22.369  1.00  0.00     0.253 S 
ATOM     74  O   UNL A   1      33.067  24.437  21.051  1.00  0.00    -0.206 OA
ATOM     75  O   UNL A   1      34.757  23.432  22.635  1.00  0.00    -0.206 OA
BRANCH  73  76
ATOM     76  N   UNL A   1      32.319  22.814  22.877  1.00  0.00    -0.192 NA
ATOM     77  C   UNL A   1      31.155  23.169  23.723  1.00  0.00     0.131 C 
ATOM     78  C   UNL A   1      32.764  21.415  23.068  1.00  0.00     0.134 C 
ATOM     79  C   UNL A   1      31.245  22.620  25.161  1.00  0.00     0.177 C 
ATOM     80  C   UNL A   1      33.037  21.168  24.557  1.00  0.00     0.135 C 
ATOM     81  O   UNL A   1      31.792  21.297  25.275  1.00  0.00    -0.375 OA
BRANCH  80  82
ATOM     82  C   UNL A   1      33.649  19.802  24.879  1.00  0.00     0.061 C 
BRANCH  82  83
ATOM     83  C   UNL A   1      32.621  18.703  25.113  1.00  0.00     0.159 C 
BRANCH  83  84
ATOM     84  O   UNL A   1      32.528  18.411  26.501  1.00  0.00    -0.396 OA
ATOM     85  H   UNL A   1      32.895  19.150  27.012  1.00  0.00     0.210 HD
ENDBRANCH  83  84
ENDBRANCH  82  83
ENDBRANCH  80  82
ENDBRANCH  73  76
ENDBRANCH  63  73
ENDBRANCH  60  62
ENDBRANCH  59  60
ENDBRANCH  58  59
ENDBRANCH   1  58
TORSDOF 19
ENDMDL
MODEL 3
REMARK VINA RESULT:     -10.8      4.258      8.913
REMARK SMILES O=C(OCCOCCOC(=O)c1c(S(=O)(=O)N2CCO[C@@H](CCO)C2)sc2c1CC[NH2+]C2)c1ccc(-c2c3nc(c(-c4ccccc4)c4ccc([nH]4)c(-c4ccccc4)c4nc(c(-c5ccccc5)c5ccc2[nH]5)C=C4)C=C3)cc1
REMARK SMILES IDX 7 1 6 2 5 3 4 4 3 5 2 6 1 7 33 8 34 9 80 10 35 11 79 12
REMARK SMILES IDX 36 13 37 14 38 15 73 16 39 17 78 18 72 19 74 20 40 21 77 22
REMARK SMILES IDX 71 23 70 24 41 26 63 27 48 28 62 29 49 30 52 31 61 32 75 33
REMARK SMILES IDX 50 34 51 35 60 37 76 38 53 39 42 40 43 41 47 42 44 43 46 44
REMARK SMILES IDX 45 45 64 46 65 47 69 48 66 49 68 50 67 51 54 52 55 53 59 54
REMARK SMILES IDX 56 55 58 56 57 57 8 58 9 59 10 60 11 61 12 62 13 63 28 64
REMARK SMILES IDX 26 65 27 66 29 67 32 68 30 69 31 70 14 73 15 74 16 75 17 76
REMARK SMILES IDX 18 77 25 78 19 79 21 80 20 81 22 82 23 83 24 84
REMARK H PARENT 74 25 52 36 31 71 31 72 24 85
REMARK Flexibility Score: inf
ROOT
ATOM      1  C   UNL A   1      33.070  29.294  27.534  1.00  0.00     0.202 C 
ENDROOT
BRANCH   1   2
ATOM      2  O   UNL A   1      31.930  29.742  26.773  1.00  0.00    -0.374 OA
BRANCH   2   3
ATOM      3  C   UNL A   1      31.861  31.139  26.523  1.00  0.00     0.202 C 
BRANCH   3   4
ATOM      4  C   UNL A   1      32.873  32.057  27.210  1.00  0.00     0.261 C 
BRANCH   4   5
ATOM      5  O   UNL A   1      32.261  33.147  27.917  1.00  0.00    -0.460 OA
BRANCH   5   6
ATOM      6  C   UNL A   1      32.943  34.251  28.304  1.00  0.00     0.338 C 
ATOM      7  O   UNL A   1      32.360  35.301  28.553  1.00  0.00    -0.246 OA
BRANCH   6   8
ATOM      8  C   UNL A   1      34.343  34.060  28.748  1.00  0.00     0.060 A 
ATOM      9  C   UNL A   1      35.467  34.333  27.968  1.00  0.00     0.016 A 
ATOM     10  C   UNL A   1      34.506  33.447  29.998  1.00  0.00     0.016 A 
ATOM     11  C   UNL A   1      36.670  33.737  28.266  1.00  0.00     0.010 A 
ATOM     12  C   UNL A   1      35.736  32.932  30.354  1.00  0.00     0.010 A 
ATOM     13  C   UNL A   1      36.776  32.984  29.431  1.00  0.00    -0.014 A 
BRANCH  13  14
ATOM     14  C   UNL A   1      38.051  32.333  29.665  1.00  0.00     0.031 A 
ATOM     15  C   UNL A   1      38.063  30.874  29.392  1.00  0.00     0.074 A 
ATOM     16  C   UNL A   1      39.147  33.025  30.017  1.00  0.00     0.049 A 
ATOM     17  N   UNL A   1      38.388  29.911  30.189  1.00  0.00    -0.248 NA
ATOM     18  C   UNL A   1      37.525  30.433  28.094  1.00  0.00     0.031 C 
ATOM     19  C   UNL A   1      39.303  34.482  30.067  1.00  0.00     0.029 A 
ATOM     20  N   UNL A   1      40.406  32.566  30.257  1.00  0.00    -0.354 N 
ATOM     21  C   UNL A   1      38.278  28.747  29.433  1.00  0.00     0.074 A 
ATOM     22  C   UNL A   1      37.600  29.111  28.214  1.00  0.00     0.031 C 
ATOM     23  C   UNL A   1      40.619  34.779  30.042  1.00  0.00     0.029 A 
ATOM     24  C   UNL A   1      41.378  33.542  30.101  1.00  0.00     0.049 A 
ATOM     25  H   UNL A   1      40.605  31.636  30.514  1.00  0.00     0.167 HD
ATOM     26  C   UNL A   1      38.995  27.631  29.733  1.00  0.00     0.031 A 
ATOM     27  C   UNL A   1      42.704  33.338  29.920  1.00  0.00     0.031 A 
ATOM     28  C   UNL A   1      39.417  27.609  31.109  1.00  0.00     0.049 A 
ATOM     29  C   UNL A   1      43.021  31.958  30.353  1.00  0.00     0.074 A 
ATOM     30  C   UNL A   1      38.775  27.661  32.331  1.00  0.00     0.029 A 
ATOM     31  N   UNL A   1      40.742  27.860  31.374  1.00  0.00    -0.354 N 
ATOM     32  N   UNL A   1      43.002  31.566  31.595  1.00  0.00    -0.248 NA
ATOM     33  C   UNL A   1      42.977  30.890  29.364  1.00  0.00     0.031 C 
ATOM     34  C   UNL A   1      39.655  28.391  33.184  1.00  0.00     0.029 A 
ATOM     35  C   UNL A   1      40.793  28.711  32.444  1.00  0.00     0.049 A 
ATOM     36  H   UNL A   1      41.513  27.494  30.883  1.00  0.00     0.167 HD
ATOM     37  C   UNL A   1      42.506  30.271  31.549  1.00  0.00     0.074 A 
ATOM     38  C   UNL A   1      42.635  29.867  30.151  1.00  0.00     0.031 C 
ATOM     39  C   UNL A   1      41.775  29.761  32.585  1.00  0.00     0.031 A 
BRANCH  26  40
ATOM     40  C   UNL A   1      39.709  26.836  28.659  1.00  0.00    -0.014 A 
ATOM     41  C   UNL A   1      40.579  27.516  27.786  1.00  0.00     0.009 A 
ATOM     42  C   UNL A   1      39.317  25.539  28.271  1.00  0.00     0.009 A 
ATOM     43  C   UNL A   1      40.926  26.977  26.542  1.00  0.00     0.001 A 
ATOM     44  C   UNL A   1      39.701  24.979  27.052  1.00  0.00     0.001 A 
ATOM     45  C   UNL A   1      40.473  25.715  26.168  1.00  0.00     0.000 A 
ENDBRANCH  26  40
BRANCH  27  46
ATOM     46  C   UNL A   1      43.644  34.171  29.144  1.00  0.00    -0.014 A 
ATOM     47  C   UNL A   1      44.707  34.829  29.777  1.00  0.00     0.009 A 
ATOM     48  C   UNL A   1      43.639  34.139  27.736  1.00  0.00     0.009 A 
ATOM     49  C   UNL A   1      45.737  35.412  29.028  1.00  0.00     0.001 A 
ATOM     50  C   UNL A   1      44.658  34.731  26.988  1.00  0.00     0.001 A 
ATOM     51  C   UNL A   1      45.716  35.357  27.636  1.00  0.00     0.000 A 
ENDBRANCH  27  46
BRANCH  39  52
ATOM     52  C   UNL A   1      41.761  30.524  33.883  1.00  0.00    -0.014 A 
ATOM     53  C   UNL A   1      40.945  31.651  34.093  1.00  0.00     0.009 A 
ATOM     54  C   UNL A   1      42.482  30.013  34.972  1.00  0.00     0.009 A 
ATOM     55  C   UNL A   1      40.889  32.272  35.345  1.00  0.00     0.001 A 
ATOM     56  C   UNL A   1      42.408  30.619  36.227  1.00  0.00     0.001 A 
ATOM     57  C   UNL A   1      41.619  31.753  36.411  1.00  0.00     0.000 A 
ENDBRANCH  39  52
ENDBRANCH  13  14
ENDBRANCH   6   8
ENDBRANCH   5   6
ENDBRANCH   4   5
ENDBRANCH   3   4
ENDBRANCH   2   3
ENDBRANCH   1   2
BRANCH   1  58
ATOM     58  C   UNL A   1      34.216  28.576  26.793  1.00  0.00     0.261 C 
BRANCH  58  59
ATOM     59  O   UNL A   1      33.729  27.837  25.653  1.00  0.00    -0.460 OA
BRANCH  59  60
ATOM     60  C   UNL A   1      33.337  26.541  25.861  1.00  0.00     0.340 C 
ATOM     61  O   UNL A   1      32.538  26.187  26.706  1.00  0.00    -0.246 OA
BRANCH  60  62
ATOM     62  C   UNL A   1      33.738  25.692  24.734  1.00  0.00     0.095 A 
ATOM     63  C   UNL A   1      33.147  25.762  23.478  1.00  0.00     0.150 A 
ATOM     64  C   UNL A   1      34.745  24.646  24.758  1.00  0.00    -0.007 A 
ATOM     65  S   UNL A   1      33.466  24.336  22.591  1.00  0.00    -0.120 S 
ATOM     66  C   UNL A   1      34.822  24.002  23.540  1.00  0.00     0.064 A 
ATOM     67  C   UNL A   1      35.616  24.168  25.887  1.00  0.00     0.099 C 
ATOM     68  C   UNL A   1      35.898  23.046  23.144  1.00  0.00     0.308 C 
ATOM     69  C   UNL A   1      36.745  23.223  25.405  1.00  0.00     0.265 C 
ATOM     70  N   UNL A   1      36.355  22.294  24.322  1.00  0.00    -0.342 N 
ATOM     71  H   UNL A   1      35.600  21.693  24.651  1.00  0.00     0.346 HD
ATOM     72  H   UNL A   1      37.164  21.731  24.062  1.00  0.00     0.346 HD
BRANCH  63  73
ATOM     73  S   UNL A   1      32.102  26.970  22.695  1.00  0.00     0.253 S 
ATOM     74  O   UNL A   1      32.950  28.115  22.458  1.00  0.00    -0.206 OA
ATOM     75  O   UNL A   1      31.500  26.234  21.600  1.00  0.00    -0.206 OA
BRANCH  73  76
ATOM     76  N   UNL A   1      30.843  27.428  23.728  1.00  0.00    -0.192 NA
ATOM     77  C   UNL A   1      29.943  26.431  24.355  1.00  0.00     0.131 C 
ATOM     78  C   UNL A   1      30.195  28.747  23.537  1.00  0.00     0.134 C 
ATOM     79  C   UNL A   1      28.502  26.467  23.809  1.00  0.00     0.177 C 
ATOM     80  C   UNL A   1      28.894  28.564  22.745  1.00  0.00     0.135 C 
ATOM     81  O   UNL A   1      27.984  27.779  23.542  1.00  0.00    -0.375 OA
BRANCH  80  82
ATOM     82  C   UNL A   1      28.198  29.868  22.346  1.00  0.00     0.061 C 
BRANCH  82  83
ATOM     83  C   UNL A   1      28.996  30.721  21.368  1.00  0.00     0.159 C 
BRANCH  83  84
ATOM     84  O   UNL A   1      29.519  31.863  22.033  1.00  0.00    -0.396 OA
ATOM     85  H   UNL A   1      29.796  31.617  22.929  1.00  0.00     0.210 HD
ENDBRANCH  83  84
ENDBRANCH  82  83
ENDBRANCH  80  82
ENDBRANCH  73  76
ENDBRANCH  63  73
ENDBRANCH  60  62
ENDBRANCH  59  60
ENDBRANCH  58  59
ENDBRANCH   1  58
TORSDOF 19
ENDMDL
