MODEL 1
REMARK VINA RESULT:      -8.6      0.000      0.000
REMARK SMILES C=CCc1cccc(-c2ccc([C@@H](C)C(=O)OCCOCCOC(=O)c3ccc(-c4c5nc(c(-c6ccccc6)c6ccc([nH]6)c(-c6ccccc6)c6nc(c(-c7ccccc7)c7ccc4[nH]7)C=C6)C=C5)cc3)cc2)c1
REMARK SMILES IDX 19 1 18 2 17 3 15 4 16 5 13 6 14 7 12 8 9 9 10 10 75 11
REMARK SMILES IDX 11 12 74 13 8 14 4 15 5 16 76 17 6 18 7 19 3 20 2 21 1 22
REMARK SMILES IDX 20 23 21 24 22 25 23 26 24 27 25 28 26 29 27 30 73 31 28 32
REMARK SMILES IDX 72 33 29 34 30 35 31 36 66 37 32 38 71 39 65 40 67 41 33 42
REMARK SMILES IDX 70 43 64 44 63 45 34 47 56 48 41 49 55 50 42 51 45 52 54 53
REMARK SMILES IDX 68 54 43 55 44 56 53 58 69 59 46 60 35 61 36 62 40 63 37 64
REMARK SMILES IDX 39 65 38 66 57 67 58 68 62 69 59 70 61 71 60 72 47 73 48 74
REMARK SMILES IDX 52 75 49 76 51 77 50 78
REMARK H PARENT 67 46 45 57
REMARK Flexibility Score: inf
ROOT
ATOM      1  C   UNL A   1      35.709  34.436  33.310  1.00  0.00     0.202 C 
ENDROOT
BRANCH   1   2
ATOM      2  C   UNL A   1      36.177  34.133  34.735  1.00  0.00     0.261 C 
BRANCH   2   3
ATOM      3  O   UNL A   1      36.348  32.716  34.926  1.00  0.00    -0.463 OA
BRANCH   3   4
ATOM      4  C   UNL A   1      37.621  32.291  35.128  1.00  0.00     0.313 C 
ATOM      5  O   UNL A   1      38.282  32.537  36.134  1.00  0.00    -0.252 OA
BRANCH   4   6
ATOM      6  C   UNL A   1      38.201  31.504  33.964  1.00  0.00     0.126 C 
ATOM      7  C   UNL A   1      37.079  30.735  33.270  1.00  0.00     0.025 C 
BRANCH   6   8
ATOM      8  C   UNL A   1      39.413  30.618  34.233  1.00  0.00    -0.034 A 
ATOM      9  C   UNL A   1      41.503  28.766  34.822  1.00  0.00    -0.018 A 
ATOM     10  C   UNL A   1      41.311  29.921  35.597  1.00  0.00     0.009 A 
ATOM     11  C   UNL A   1      40.660  28.583  33.716  1.00  0.00     0.009 A 
ATOM     12  C   UNL A   1      40.284  30.832  35.309  1.00  0.00     0.005 A 
ATOM     13  C   UNL A   1      39.635  29.491  33.425  1.00  0.00     0.005 A 
BRANCH   9  14
ATOM     14  C   UNL A   1      42.501  27.743  35.190  1.00  0.00    -0.018 A 
ATOM     15  C   UNL A   1      43.452  25.492  34.946  1.00  0.00    -0.044 A 
ATOM     16  C   UNL A   1      44.329  25.750  36.005  1.00  0.00     0.004 A 
ATOM     17  C   UNL A   1      42.546  26.493  34.548  1.00  0.00     0.012 A 
ATOM     18  C   UNL A   1      44.308  26.986  36.647  1.00  0.00     0.001 A 
ATOM     19  C   UNL A   1      43.404  27.971  36.243  1.00  0.00     0.009 A 
BRANCH  15  20
ATOM     20  C   UNL A   1      43.441  24.140  34.272  1.00  0.00     0.062 C 
BRANCH  20  21
ATOM     21  C   UNL A   1      44.025  23.067  35.147  1.00  0.00    -0.030 C 
ATOM     22  C   UNL A   1      45.106  22.339  34.833  1.00  0.00     0.004 C 
ENDBRANCH  20  21
ENDBRANCH  15  20
ENDBRANCH   9  14
ENDBRANCH   6   8
ENDBRANCH   4   6
ENDBRANCH   3   4
ENDBRANCH   2   3
ENDBRANCH   1   2
BRANCH   1  23
ATOM     23  O   UNL A   1      35.239  35.765  33.083  1.00  0.00    -0.374 OA
BRANCH  23  24
ATOM     24  C   UNL A   1      33.838  35.930  32.858  1.00  0.00     0.202 C 
BRANCH  24  25
ATOM     25  C   UNL A   1      33.427  36.304  31.430  1.00  0.00     0.261 C 
BRANCH  25  26
ATOM     26  O   UNL A   1      32.738  35.229  30.766  1.00  0.00    -0.460 OA
BRANCH  26  27
ATOM     27  C   UNL A   1      33.118  35.011  29.487  1.00  0.00     0.338 C 
ATOM     28  O   UNL A   1      32.638  35.503  28.474  1.00  0.00    -0.246 OA
BRANCH  27  29
ATOM     29  C   UNL A   1      34.348  34.199  29.453  1.00  0.00     0.060 A 
ATOM     30  C   UNL A   1      34.395  33.070  30.280  1.00  0.00     0.016 A 
ATOM     31  C   UNL A   1      35.463  34.573  28.698  1.00  0.00     0.016 A 
ATOM     32  C   UNL A   1      35.575  32.341  30.401  1.00  0.00     0.010 A 
ATOM     33  C   UNL A   1      36.651  33.843  28.828  1.00  0.00     0.010 A 
ATOM     34  C   UNL A   1      36.724  32.749  29.708  1.00  0.00    -0.014 A 
BRANCH  34  35
ATOM     35  C   UNL A   1      38.025  32.114  30.031  1.00  0.00     0.031 A 
ATOM     36  C   UNL A   1      38.977  32.826  30.954  1.00  0.00     0.074 A 
ATOM     37  C   UNL A   1      38.336  30.894  29.558  1.00  0.00     0.049 A 
ATOM     38  N   UNL A   1      40.160  32.453  31.375  1.00  0.00    -0.248 NA
ATOM     39  C   UNL A   1      38.535  34.128  31.479  1.00  0.00     0.031 C 
ATOM     40  C   UNL A   1      37.484  30.078  28.695  1.00  0.00     0.029 A 
ATOM     41  N   UNL A   1      39.461  30.130  29.744  1.00  0.00    -0.354 N 
ATOM     42  C   UNL A   1      40.598  33.468  32.214  1.00  0.00     0.074 A 
ATOM     43  C   UNL A   1      39.573  34.489  32.219  1.00  0.00     0.031 C 
ATOM     44  C   UNL A   1      38.123  28.927  28.418  1.00  0.00     0.029 A 
ATOM     45  C   UNL A   1      39.434  28.938  29.062  1.00  0.00     0.049 A 
ATOM     46  H   UNL A   1      40.215  30.409  30.311  1.00  0.00     0.167 HD
ATOM     47  C   UNL A   1      41.747  33.544  32.927  1.00  0.00     0.031 A 
ATOM     48  C   UNL A   1      40.369  27.974  28.955  1.00  0.00     0.031 A 
ATOM     49  C   UNL A   1      42.780  32.544  32.914  1.00  0.00     0.049 A 
ATOM     50  C   UNL A   1      41.673  28.119  29.693  1.00  0.00     0.074 A 
ATOM     51  C   UNL A   1      43.986  32.540  33.594  1.00  0.00     0.029 A 
ATOM     52  N   UNL A   1      42.731  31.371  32.179  1.00  0.00    -0.354 N 
ATOM     53  N   UNL A   1      42.069  29.080  30.492  1.00  0.00    -0.248 NA
ATOM     54  C   UNL A   1      42.655  27.038  29.520  1.00  0.00     0.031 C 
ATOM     55  C   UNL A   1      44.685  31.382  33.237  1.00  0.00     0.029 A 
ATOM     56  C   UNL A   1      43.893  30.643  32.374  1.00  0.00     0.049 A 
ATOM     57  H   UNL A   1      41.981  31.095  31.603  1.00  0.00     0.167 HD
ATOM     58  C   UNL A   1      43.333  28.708  30.934  1.00  0.00     0.074 A 
ATOM     59  C   UNL A   1      43.631  27.427  30.330  1.00  0.00     0.031 C 
ATOM     60  C   UNL A   1      44.173  29.369  31.767  1.00  0.00     0.031 A 
BRANCH  47  61
ATOM     61  C   UNL A   1      41.955  34.766  33.773  1.00  0.00    -0.014 A 
ATOM     62  C   UNL A   1      41.530  34.802  35.110  1.00  0.00     0.009 A 
ATOM     63  C   UNL A   1      42.623  35.880  33.241  1.00  0.00     0.009 A 
ATOM     64  C   UNL A   1      41.746  35.939  35.890  1.00  0.00     0.001 A 
ATOM     65  C   UNL A   1      42.860  37.007  34.031  1.00  0.00     0.001 A 
ATOM     66  C   UNL A   1      42.416  37.039  35.352  1.00  0.00     0.000 A 
ENDBRANCH  47  61
BRANCH  48  67
ATOM     67  C   UNL A   1      40.126  26.792  28.088  1.00  0.00    -0.014 A 
ATOM     68  C   UNL A   1      39.309  25.738  28.518  1.00  0.00     0.009 A 
ATOM     69  C   UNL A   1      40.749  26.701  26.832  1.00  0.00     0.009 A 
ATOM     70  C   UNL A   1      39.143  24.601  27.721  1.00  0.00     0.001 A 
ATOM     71  C   UNL A   1      40.559  25.576  26.027  1.00  0.00     0.001 A 
ATOM     72  C   UNL A   1      39.766  24.523  26.477  1.00  0.00     0.000 A 
ENDBRANCH  48  67
BRANCH  60  73
ATOM     73  C   UNL A   1      45.478  28.703  32.102  1.00  0.00    -0.014 A 
ATOM     74  C   UNL A   1      46.601  28.846  31.273  1.00  0.00     0.009 A 
ATOM     75  C   UNL A   1      45.595  27.956  33.284  1.00  0.00     0.009 A 
ATOM     76  C   UNL A   1      47.807  28.227  31.607  1.00  0.00     0.001 A 
ATOM     77  C   UNL A   1      46.808  27.359  33.628  1.00  0.00     0.001 A 
ATOM     78  C   UNL A   1      47.911  27.487  32.785  1.00  0.00     0.000 A 
ENDBRANCH  60  73
ENDBRANCH  34  35
ENDBRANCH  27  29
ENDBRANCH  26  27
ENDBRANCH  25  26
ENDBRANCH  24  25
ENDBRANCH  23  24
ENDBRANCH   1  23
TORSDOF 18
ENDMDL
MODEL 2
REMARK VINA RESULT:      -8.1      0.800      5.919
REMARK SMILES C=CCc1cccc(-c2ccc([C@@H](C)C(=O)OCCOCCOC(=O)c3ccc(-c4c5nc(c(-c6ccccc6)c6ccc([nH]6)c(-c6ccccc6)c6nc(c(-c7ccccc7)c7ccc4[nH]7)C=C6)C=C5)cc3)cc2)c1
REMARK SMILES IDX 19 1 18 2 17 3 15 4 16 5 13 6 14 7 12 8 9 9 10 10 75 11
REMARK SMILES IDX 11 12 74 13 8 14 4 15 5 16 76 17 6 18 7 19 3 20 2 21 1 22
REMARK SMILES IDX 20 23 21 24 22 25 23 26 24 27 25 28 26 29 27 30 73 31 28 32
REMARK SMILES IDX 72 33 29 34 30 35 31 36 66 37 32 38 71 39 65 40 67 41 33 42
REMARK SMILES IDX 70 43 64 44 63 45 34 47 56 48 41 49 55 50 42 51 45 52 54 53
REMARK SMILES IDX 68 54 43 55 44 56 53 58 69 59 46 60 35 61 36 62 40 63 37 64
REMARK SMILES IDX 39 65 38 66 57 67 58 68 62 69 59 70 61 71 60 72 47 73 48 74
REMARK SMILES IDX 52 75 49 76 51 77 50 78
REMARK H PARENT 67 46 45 57
REMARK Flexibility Score: inf
ROOT
ATOM      1  C   UNL A   1      36.064  34.811  33.755  1.00  0.00     0.202 C 
ENDROOT
BRANCH   1   2
ATOM      2  C   UNL A   1      36.470  33.538  34.501  1.00  0.00     0.261 C 
BRANCH   2   3
ATOM      3  O   UNL A   1      37.055  32.580  33.598  1.00  0.00    -0.463 OA
BRANCH   3   4
ATOM      4  C   UNL A   1      37.603  31.479  34.170  1.00  0.00     0.313 C 
ATOM      5  O   UNL A   1      37.680  31.293  35.382  1.00  0.00    -0.252 OA
BRANCH   4   6
ATOM      6  C   UNL A   1      38.176  30.485  33.172  1.00  0.00     0.126 C 
ATOM      7  C   UNL A   1      37.098  29.468  32.803  1.00  0.00     0.025 C 
BRANCH   6   8
ATOM      8  C   UNL A   1      39.499  29.809  33.514  1.00  0.00    -0.034 A 
ATOM      9  C   UNL A   1      41.827  28.357  34.298  1.00  0.00    -0.018 A 
ATOM     10  C   UNL A   1      41.555  29.633  34.815  1.00  0.00     0.009 A 
ATOM     11  C   UNL A   1      40.939  27.843  33.344  1.00  0.00     0.009 A 
ATOM     12  C   UNL A   1      40.410  30.348  34.432  1.00  0.00     0.005 A 
ATOM     13  C   UNL A   1      39.796  28.554  32.957  1.00  0.00     0.005 A 
BRANCH   9  14
ATOM     14  C   UNL A   1      42.961  27.549  34.787  1.00  0.00    -0.018 A 
ATOM     15  C   UNL A   1      44.415  25.576  34.625  1.00  0.00    -0.044 A 
ATOM     16  C   UNL A   1      45.045  25.944  35.819  1.00  0.00     0.004 A 
ATOM     17  C   UNL A   1      43.379  26.384  34.121  1.00  0.00     0.012 A 
ATOM     18  C   UNL A   1      44.655  27.101  36.490  1.00  0.00     0.001 A 
ATOM     19  C   UNL A   1      43.624  27.893  35.979  1.00  0.00     0.009 A 
BRANCH  15  20
ATOM     20  C   UNL A   1      44.805  24.302  33.914  1.00  0.00     0.062 C 
BRANCH  20  21
ATOM     21  C   UNL A   1      44.663  24.420  32.422  1.00  0.00    -0.030 C 
ATOM     22  C   UNL A   1      44.166  23.459  31.631  1.00  0.00     0.004 C 
ENDBRANCH  20  21
ENDBRANCH  15  20
ENDBRANCH   9  14
ENDBRANCH   6   8
ENDBRANCH   4   6
ENDBRANCH   3   4
ENDBRANCH   2   3
ENDBRANCH   1   2
BRANCH   1  23
ATOM     23  O   UNL A   1      34.705  35.215  33.918  1.00  0.00    -0.374 OA
BRANCH  23  24
ATOM     24  C   UNL A   1      33.760  34.716  32.970  1.00  0.00     0.202 C 
BRANCH  24  25
ATOM     25  C   UNL A   1      33.820  35.335  31.570  1.00  0.00     0.261 C 
BRANCH  25  26
ATOM     26  O   UNL A   1      32.848  34.757  30.680  1.00  0.00    -0.460 OA
BRANCH  26  27
ATOM     27  C   UNL A   1      33.287  34.537  29.420  1.00  0.00     0.338 C 
ATOM     28  O   UNL A   1      32.799  34.955  28.379  1.00  0.00    -0.246 OA
BRANCH  27  29
ATOM     29  C   UNL A   1      34.583  33.836  29.449  1.00  0.00     0.060 A 
ATOM     30  C   UNL A   1      34.704  32.745  30.319  1.00  0.00     0.016 A 
ATOM     31  C   UNL A   1      35.683  34.279  28.710  1.00  0.00     0.016 A 
ATOM     32  C   UNL A   1      35.939  32.127  30.499  1.00  0.00     0.010 A 
ATOM     33  C   UNL A   1      36.926  33.662  28.899  1.00  0.00     0.010 A 
ATOM     34  C   UNL A   1      37.068  32.609  29.821  1.00  0.00    -0.014 A 
BRANCH  34  35
ATOM     35  C   UNL A   1      38.409  32.104  30.201  1.00  0.00     0.031 A 
ATOM     36  C   UNL A   1      38.862  30.765  29.682  1.00  0.00     0.074 A 
ATOM     37  C   UNL A   1      39.241  32.848  30.952  1.00  0.00     0.049 A 
ATOM     38  N   UNL A   1      39.992  30.136  29.883  1.00  0.00    -0.248 NA
ATOM     39  C   UNL A   1      37.916  30.042  28.816  1.00  0.00     0.031 C 
ATOM     40  C   UNL A   1      38.946  34.179  31.479  1.00  0.00     0.029 A 
ATOM     41  N   UNL A   1      40.511  32.581  31.399  1.00  0.00    -0.354 N 
ATOM     42  C   UNL A   1      39.896  28.952  29.166  1.00  0.00     0.074 A 
ATOM     43  C   UNL A   1      38.587  28.930  28.552  1.00  0.00     0.031 C 
ATOM     44  C   UNL A   1      40.004  34.611  32.187  1.00  0.00     0.029 A 
ATOM     45  C   UNL A   1      41.038  33.578  32.184  1.00  0.00     0.049 A 
ATOM     46  H   UNL A   1      40.999  31.756  31.179  1.00  0.00     0.167 HD
ATOM     47  C   UNL A   1      40.819  27.970  29.021  1.00  0.00     0.031 A 
ATOM     48  C   UNL A   1      42.212  33.642  32.840  1.00  0.00     0.031 A 
ATOM     49  C   UNL A   1      42.115  27.973  29.643  1.00  0.00     0.049 A 
ATOM     50  C   UNL A   1      43.188  32.501  32.729  1.00  0.00     0.074 A 
ATOM     51  C   UNL A   1      43.112  27.016  29.564  1.00  0.00     0.029 A 
ATOM     52  N   UNL A   1      42.593  28.983  30.461  1.00  0.00    -0.354 N 
ATOM     53  N   UNL A   1      43.088  31.391  32.038  1.00  0.00    -0.248 NA
ATOM     54  C   UNL A   1      44.445  32.628  33.483  1.00  0.00     0.031 C 
ATOM     55  C   UNL A   1      44.178  27.427  30.371  1.00  0.00     0.029 A 
ATOM     56  C   UNL A   1      43.864  28.664  30.910  1.00  0.00     0.049 A 
ATOM     57  H   UNL A   1      42.102  29.805  30.691  1.00  0.00     0.167 HD
ATOM     58  C   UNL A   1      44.276  30.702  32.255  1.00  0.00     0.074 A 
ATOM     59  C   UNL A   1      45.087  31.525  33.126  1.00  0.00     0.031 C 
ATOM     60  C   UNL A   1      44.660  29.495  31.774  1.00  0.00     0.031 A 
BRANCH  47  61
ATOM     61  C   UNL A   1      40.446  26.794  28.165  1.00  0.00    -0.014 A 
ATOM     62  C   UNL A   1      39.647  25.756  28.669  1.00  0.00     0.009 A 
ATOM     63  C   UNL A   1      40.863  26.744  26.825  1.00  0.00     0.009 A 
ATOM     64  C   UNL A   1      39.294  24.679  27.856  1.00  0.00     0.001 A 
ATOM     65  C   UNL A   1      40.488  25.677  26.007  1.00  0.00     0.001 A 
ATOM     66  C   UNL A   1      39.709  24.642  26.524  1.00  0.00     0.000 A 
ENDBRANCH  47  61
BRANCH  48  67
ATOM     67  C   UNL A   1      42.527  34.817  33.694  1.00  0.00    -0.014 A 
ATOM     68  C   UNL A   1      42.184  34.834  35.053  1.00  0.00     0.009 A 
ATOM     69  C   UNL A   1      43.144  35.948  33.134  1.00  0.00     0.009 A 
ATOM     70  C   UNL A   1      42.424  35.971  35.828  1.00  0.00     0.001 A 
ATOM     71  C   UNL A   1      43.408  37.072  33.919  1.00  0.00     0.001 A 
ATOM     72  C   UNL A   1      43.038  37.087  35.262  1.00  0.00     0.000 A 
ENDBRANCH  48  67
BRANCH  60  73
ATOM     73  C   UNL A   1      46.029  29.006  32.152  1.00  0.00    -0.014 A 
ATOM     74  C   UNL A   1      46.251  28.316  33.354  1.00  0.00     0.009 A 
ATOM     75  C   UNL A   1      47.105  29.204  31.273  1.00  0.00     0.009 A 
ATOM     76  C   UNL A   1      47.530  27.863  33.682  1.00  0.00     0.001 A 
ATOM     77  C   UNL A   1      48.377  28.728  31.591  1.00  0.00     0.001 A 
ATOM     78  C   UNL A   1      48.591  28.065  32.799  1.00  0.00     0.000 A 
ENDBRANCH  60  73
ENDBRANCH  34  35
ENDBRANCH  27  29
ENDBRANCH  26  27
ENDBRANCH  25  26
ENDBRANCH  24  25
ENDBRANCH  23  24
ENDBRANCH   1  23
TORSDOF 18
ENDMDL
MODEL 3
REMARK VINA RESULT:      -7.7      4.930     10.548
REMARK SMILES C=CCc1cccc(-c2ccc([C@@H](C)C(=O)OCCOCCOC(=O)c3ccc(-c4c5nc(c(-c6ccccc6)c6ccc([nH]6)c(-c6ccccc6)c6nc(c(-c7ccccc7)c7ccc4[nH]7)C=C6)C=C5)cc3)cc2)c1
REMARK SMILES IDX 19 1 18 2 17 3 15 4 16 5 13 6 14 7 12 8 9 9 10 10 75 11
REMARK SMILES IDX 11 12 74 13 8 14 4 15 5 16 76 17 6 18 7 19 3 20 2 21 1 22
REMARK SMILES IDX 20 23 21 24 22 25 23 26 24 27 25 28 26 29 27 30 73 31 28 32
REMARK SMILES IDX 72 33 29 34 30 35 31 36 66 37 32 38 71 39 65 40 67 41 33 42
REMARK SMILES IDX 70 43 64 44 63 45 34 47 56 48 41 49 55 50 42 51 45 52 54 53
REMARK SMILES IDX 68 54 43 55 44 56 53 58 69 59 46 60 35 61 36 62 40 63 37 64
REMARK SMILES IDX 39 65 38 66 57 67 58 68 62 69 59 70 61 71 60 72 47 73 48 74
REMARK SMILES IDX 52 75 49 76 51 77 50 78
REMARK H PARENT 67 46 45 57
REMARK Flexibility Score: inf
ROOT
ATOM      1  C   UNL A   1      44.964  21.432  24.765  1.00  0.00     0.202 C 
ENDROOT
BRANCH   1   2
ATOM      2  C   UNL A   1      43.554  21.116  25.268  1.00  0.00     0.261 C 
BRANCH   2   3
ATOM      3  O   UNL A   1      42.666  22.225  25.033  1.00  0.00    -0.463 OA
BRANCH   3   4
ATOM      4  C   UNL A   1      41.836  22.552  26.055  1.00  0.00     0.313 C 
ATOM      5  O   UNL A   1      40.679  22.156  26.163  1.00  0.00    -0.252 OA
BRANCH   4   6
ATOM      6  C   UNL A   1      42.448  23.512  27.063  1.00  0.00     0.126 C 
ATOM      7  C   UNL A   1      42.943  22.722  28.272  1.00  0.00     0.025 C 
BRANCH   6   8
ATOM      8  C   UNL A   1      41.630  24.731  27.479  1.00  0.00    -0.034 A 
ATOM      9  C   UNL A   1      40.292  27.166  28.126  1.00  0.00    -0.018 A 
ATOM     10  C   UNL A   1      40.938  26.404  29.113  1.00  0.00     0.009 A 
ATOM     11  C   UNL A   1      40.285  26.659  26.820  1.00  0.00     0.009 A 
ATOM     12  C   UNL A   1      41.598  25.207  28.796  1.00  0.00     0.005 A 
ATOM     13  C   UNL A   1      40.941  25.464  26.500  1.00  0.00     0.005 A 
BRANCH   9  14
ATOM     14  C   UNL A   1      39.702  28.484  28.429  1.00  0.00    -0.018 A 
ATOM     15  C   UNL A   1      39.644  30.553  29.753  1.00  0.00    -0.044 A 
ATOM     16  C   UNL A   1      38.475  30.942  29.089  1.00  0.00     0.004 A 
ATOM     17  C   UNL A   1      40.246  29.327  29.414  1.00  0.00     0.012 A 
ATOM     18  C   UNL A   1      37.925  30.128  28.101  1.00  0.00     0.001 A 
ATOM     19  C   UNL A   1      38.533  28.913  27.777  1.00  0.00     0.009 A 
BRANCH  15  20
ATOM     20  C   UNL A   1      40.223  31.412  30.852  1.00  0.00     0.062 C 
BRANCH  20  21
ATOM     21  C   UNL A   1      39.160  32.175  31.592  1.00  0.00    -0.030 C 
ATOM     22  C   UNL A   1      38.751  31.889  32.836  1.00  0.00     0.004 C 
ENDBRANCH  20  21
ENDBRANCH  15  20
ENDBRANCH   9  14
ENDBRANCH   6   8
ENDBRANCH   4   6
ENDBRANCH   3   4
ENDBRANCH   2   3
ENDBRANCH   1   2
BRANCH   1  23
ATOM     23  O   UNL A   1      45.922  21.755  25.772  1.00  0.00    -0.374 OA
BRANCH  23  24
ATOM     24  C   UNL A   1      46.217  23.139  25.969  1.00  0.00     0.202 C 
BRANCH  24  25
ATOM     25  C   UNL A   1      46.406  23.973  24.698  1.00  0.00     0.261 C 
BRANCH  25  26
ATOM     26  O   UNL A   1      45.528  25.114  24.664  1.00  0.00    -0.460 OA
BRANCH  26  27
ATOM     27  C   UNL A   1      46.130  26.305  24.877  1.00  0.00     0.338 C 
ATOM     28  O   UNL A   1      46.858  26.918  24.108  1.00  0.00    -0.246 OA
BRANCH  27  29
ATOM     29  C   UNL A   1      45.658  26.894  26.143  1.00  0.00     0.060 A 
ATOM     30  C   UNL A   1      44.281  27.120  26.272  1.00  0.00     0.016 A 
ATOM     31  C   UNL A   1      46.540  27.298  27.148  1.00  0.00     0.016 A 
ATOM     32  C   UNL A   1      43.786  27.800  27.381  1.00  0.00     0.010 A 
ATOM     33  C   UNL A   1      46.040  27.991  28.258  1.00  0.00     0.010 A 
ATOM     34  C   UNL A   1      44.667  28.278  28.361  1.00  0.00    -0.014 A 
BRANCH  34  35
ATOM     35  C   UNL A   1      44.157  29.203  29.402  1.00  0.00     0.031 A 
ATOM     36  C   UNL A   1      43.788  28.652  30.754  1.00  0.00     0.074 A 
ATOM     37  C   UNL A   1      44.076  30.526  29.172  1.00  0.00     0.049 A 
ATOM     38  N   UNL A   1      43.330  29.279  31.808  1.00  0.00    -0.248 NA
ATOM     39  C   UNL A   1      43.966  27.203  30.944  1.00  0.00     0.031 C 
ATOM     40  C   UNL A   1      44.446  31.193  27.926  1.00  0.00     0.029 A 
ATOM     41  N   UNL A   1      43.653  31.544  29.989  1.00  0.00    -0.354 N 
ATOM     42  C   UNL A   1      43.171  28.305  32.785  1.00  0.00     0.074 A 
ATOM     43  C   UNL A   1      43.548  27.041  32.191  1.00  0.00     0.031 C 
ATOM     44  C   UNL A   1      44.225  32.513  28.057  1.00  0.00     0.029 A 
ATOM     45  C   UNL A   1      43.676  32.778  29.385  1.00  0.00     0.049 A 
ATOM     46  H   UNL A   1      43.362  31.405  30.919  1.00  0.00     0.167 HD
ATOM     47  C   UNL A   1      42.757  28.448  34.067  1.00  0.00     0.031 A 
ATOM     48  C   UNL A   1      43.282  33.981  29.846  1.00  0.00     0.031 A 
ATOM     49  C   UNL A   1      42.362  29.697  34.660  1.00  0.00     0.049 A 
ATOM     50  C   UNL A   1      42.748  34.101  31.248  1.00  0.00     0.074 A 
ATOM     51  C   UNL A   1      41.916  29.938  35.948  1.00  0.00     0.029 A 
ATOM     52  N   UNL A   1      42.363  30.916  34.001  1.00  0.00    -0.354 N 
ATOM     53  N   UNL A   1      42.614  33.173  32.164  1.00  0.00    -0.248 NA
ATOM     54  C   UNL A   1      42.321  35.440  31.682  1.00  0.00     0.031 C 
ATOM     55  C   UNL A   1      41.605  31.297  36.056  1.00  0.00     0.029 A 
ATOM     56  C   UNL A   1      41.907  31.910  34.851  1.00  0.00     0.049 A 
ATOM     57  H   UNL A   1      42.644  31.055  33.069  1.00  0.00     0.167 HD
ATOM     58  C   UNL A   1      42.110  33.819  33.287  1.00  0.00     0.074 A 
ATOM     59  C   UNL A   1      41.980  35.220  32.944  1.00  0.00     0.031 C 
ATOM     60  C   UNL A   1      41.785  33.299  34.495  1.00  0.00     0.031 A 
BRANCH  47  61
ATOM     61  C   UNL A   1      42.693  27.210  34.914  1.00  0.00    -0.014 A 
ATOM     62  C   UNL A   1      43.783  26.821  35.708  1.00  0.00     0.009 A 
ATOM     63  C   UNL A   1      41.516  26.447  34.951  1.00  0.00     0.009 A 
ATOM     64  C   UNL A   1      43.703  25.677  36.505  1.00  0.00     0.001 A 
ATOM     65  C   UNL A   1      41.430  25.317  35.766  1.00  0.00     0.001 A 
ATOM     66  C   UNL A   1      42.525  24.930  36.537  1.00  0.00     0.000 A 
ENDBRANCH  47  61
BRANCH  48  67
ATOM     67  C   UNL A   1      43.343  35.174  28.963  1.00  0.00    -0.014 A 
ATOM     68  C   UNL A   1      44.489  35.981  28.918  1.00  0.00     0.009 A 
ATOM     69  C   UNL A   1      42.230  35.532  28.185  1.00  0.00     0.009 A 
ATOM     70  C   UNL A   1      44.508  37.139  28.136  1.00  0.00     0.001 A 
ATOM     71  C   UNL A   1      42.263  36.674  27.382  1.00  0.00     0.001 A 
ATOM     72  C   UNL A   1      43.398  37.482  27.367  1.00  0.00     0.000 A 
ENDBRANCH  48  67
BRANCH  60  73
ATOM     73  C   UNL A   1      41.290  34.253  35.546  1.00  0.00    -0.014 A 
ATOM     74  C   UNL A   1      42.180  34.916  36.405  1.00  0.00     0.009 A 
ATOM     75  C   UNL A   1      39.917  34.521  35.650  1.00  0.00     0.009 A 
ATOM     76  C   UNL A   1      41.700  35.805  37.368  1.00  0.00     0.001 A 
ATOM     77  C   UNL A   1      39.442  35.429  36.597  1.00  0.00     0.001 A 
ATOM     78  C   UNL A   1      40.333  36.064  37.461  1.00  0.00     0.000 A 
ENDBRANCH  60  73
ENDBRANCH  34  35
ENDBRANCH  27  29
ENDBRANCH  26  27
ENDBRANCH  25  26
ENDBRANCH  24  25
ENDBRANCH  23  24
ENDBRANCH   1  23
TORSDOF 18
ENDMDL
