MODEL 1
REMARK VINA RESULT:     -10.1      0.000      0.000
REMARK SMILES CSc1nc2nnc(C(=O)OCCOCCOC(=O)c3ccc(-c4c5nc(c(-c6ccccc6)c6ccc([nH]6)c(-c6ccccc6)c6nc(c(-c7ccccc7)c7ccc4[nH]7)C=C6)C=C5)cc3)c(O)n2n1
REMARK SMILES IDX 15 1 14 2 13 3 12 4 11 5 9 6 10 7 8 8 3 9 4 10 71 11 5 12
REMARK SMILES IDX 70 13 6 14 68 15 7 16 2 17 1 18 69 19 16 21 17 22 18 23
REMARK SMILES IDX 19 24 20 25 21 26 67 27 22 28 66 29 23 30 24 31 25 32 60 33
REMARK SMILES IDX 26 34 65 35 59 36 61 37 27 38 64 39 58 40 57 41 28 43 50 44
REMARK SMILES IDX 35 45 49 46 36 47 39 48 48 49 62 50 37 51 38 52 47 54 63 55
REMARK SMILES IDX 40 56 29 57 30 58 34 59 31 60 33 61 32 62 51 63 52 64 56 65
REMARK SMILES IDX 53 66 55 67 54 68 41 69 42 70 46 71 43 72 45 73 44 74
REMARK H PARENT 69 20 61 42 39 53
REMARK Flexibility Score: inf
ROOT
ATOM      1  C   UNL A   1      34.803  34.825  34.321  1.00  0.00     0.202 C 
ENDROOT
BRANCH   1   2
ATOM      2  O   UNL A   1      34.493  36.165  33.962  1.00  0.00    -0.374 OA
BRANCH   2   3
ATOM      3  C   UNL A   1      34.398  36.550  32.591  1.00  0.00     0.202 C 
BRANCH   3   4
ATOM      4  C   UNL A   1      33.013  36.790  31.981  1.00  0.00     0.261 C 
BRANCH   4   5
ATOM      5  O   UNL A   1      32.529  35.692  31.190  1.00  0.00    -0.458 OA
BRANCH   5   6
ATOM      6  C   UNL A   1      32.985  35.692  29.913  1.00  0.00     0.364 C 
ATOM      7  O   UNL A   1      32.970  36.646  29.143  1.00  0.00    -0.244 OA
BRANCH   6   8
ATOM      8  C   UNL A   1      33.746  34.459  29.601  1.00  0.00     0.232 A 
ATOM      9  C   UNL A   1      34.657  30.664  27.714  1.00  0.00     0.210 A 
ATOM     10  N   UNL A   1      35.413  30.942  28.816  1.00  0.00    -0.182 NA
ATOM     11  N   UNL A   1      33.863  31.649  27.302  1.00  0.00    -0.134 NA
ATOM     12  C   UNL A   1      35.031  32.158  29.149  1.00  0.00     0.275 A 
ATOM     13  N   UNL A   1      34.043  32.580  28.268  1.00  0.00    -0.159 N 
ATOM     14  N   UNL A   1      35.405  32.968  30.186  1.00  0.00    -0.108 NA
ATOM     15  C   UNL A   1      33.364  33.774  28.501  1.00  0.00     0.251 A 
ATOM     16  N   UNL A   1      34.800  34.060  30.402  1.00  0.00    -0.134 NA
BRANCH   9  17
ATOM     17  S   UNL A   1      34.634  29.083  26.982  1.00  0.00    -0.088 SA
ATOM     18  C   UNL A   1      33.288  29.259  25.796  1.00  0.00     0.094 C 
ENDBRANCH   9  17
BRANCH  15  19
ATOM     19  O   UNL A   1      32.358  34.156  27.622  1.00  0.00    -0.491 OA
ATOM     20  H   UNL A   1      32.249  33.703  26.809  1.00  0.00     0.295 HD
ENDBRANCH  15  19
ENDBRANCH   6   8
ENDBRANCH   5   6
ENDBRANCH   4   5
ENDBRANCH   3   4
ENDBRANCH   2   3
ENDBRANCH   1   2
BRANCH   1  21
ATOM     21  C   UNL A   1      36.125  34.213  33.895  1.00  0.00     0.261 C 
BRANCH  21  22
ATOM     22  O   UNL A   1      35.985  32.858  33.511  1.00  0.00    -0.460 OA
BRANCH  22  23
ATOM     23  C   UNL A   1      36.978  32.068  33.983  1.00  0.00     0.338 C 
ATOM     24  O   UNL A   1      37.382  31.992  35.128  1.00  0.00    -0.246 OA
BRANCH  23  25
ATOM     25  C   UNL A   1      37.629  31.424  32.841  1.00  0.00     0.060 A 
ATOM     26  C   UNL A   1      37.156  30.154  32.511  1.00  0.00     0.016 A 
ATOM     27  C   UNL A   1      38.868  31.908  32.398  1.00  0.00     0.016 A 
ATOM     28  C   UNL A   1      38.042  29.268  31.953  1.00  0.00     0.010 A 
ATOM     29  C   UNL A   1      39.759  31.015  31.866  1.00  0.00     0.010 A 
ATOM     30  C   UNL A   1      39.360  29.688  31.743  1.00  0.00    -0.014 A 
BRANCH  30  31
ATOM     31  C   UNL A   1      40.307  28.721  31.249  1.00  0.00     0.031 A 
ATOM     32  C   UNL A   1      41.206  28.257  32.322  1.00  0.00     0.074 A 
ATOM     33  C   UNL A   1      40.281  28.250  29.991  1.00  0.00     0.049 A 
ATOM     34  N   UNL A   1      42.441  28.587  32.495  1.00  0.00    -0.248 NA
ATOM     35  C   UNL A   1      40.599  27.541  33.458  1.00  0.00     0.031 C 
ATOM     36  C   UNL A   1      39.259  28.451  28.960  1.00  0.00     0.029 A 
ATOM     37  N   UNL A   1      41.140  27.382  29.400  1.00  0.00    -0.354 N 
ATOM     38  C   UNL A   1      42.829  27.917  33.646  1.00  0.00     0.074 A 
ATOM     39  C   UNL A   1      41.619  27.518  34.315  1.00  0.00     0.031 C 
ATOM     40  C   UNL A   1      39.437  27.536  27.976  1.00  0.00     0.029 A 
ATOM     41  C   UNL A   1      40.653  26.787  28.244  1.00  0.00     0.049 A 
ATOM     42  H   UNL A   1      42.035  27.190  29.762  1.00  0.00     0.167 HD
ATOM     43  C   UNL A   1      44.093  27.433  33.770  1.00  0.00     0.031 A 
ATOM     44  C   UNL A   1      41.192  25.709  27.618  1.00  0.00     0.031 A 
ATOM     45  C   UNL A   1      44.994  28.053  32.831  1.00  0.00     0.049 A 
ATOM     46  C   UNL A   1      42.592  25.580  28.094  1.00  0.00     0.074 A 
ATOM     47  C   UNL A   1      45.391  29.350  32.576  1.00  0.00     0.029 A 
ATOM     48  N   UNL A   1      45.304  27.329  31.704  1.00  0.00    -0.354 N 
ATOM     49  N   UNL A   1      43.529  26.437  27.808  1.00  0.00    -0.248 NA
ATOM     50  C   UNL A   1      42.841  24.748  29.263  1.00  0.00     0.031 C 
ATOM     51  C   UNL A   1      45.507  29.432  31.157  1.00  0.00     0.029 A 
ATOM     52  C   UNL A   1      45.246  28.169  30.623  1.00  0.00     0.049 A 
ATOM     53  H   UNL A   1      45.529  26.370  31.679  1.00  0.00     0.167 HD
ATOM     54  C   UNL A   1      44.251  26.572  28.984  1.00  0.00     0.074 A 
ATOM     55  C   UNL A   1      43.848  25.434  29.811  1.00  0.00     0.031 C 
ATOM     56  C   UNL A   1      44.874  27.748  29.290  1.00  0.00     0.031 A 
BRANCH  43  57
ATOM     57  C   UNL A   1      44.370  26.083  34.383  1.00  0.00    -0.014 A 
ATOM     58  C   UNL A   1      44.165  24.937  33.599  1.00  0.00     0.009 A 
ATOM     59  C   UNL A   1      44.547  25.876  35.767  1.00  0.00     0.009 A 
ATOM     60  C   UNL A   1      44.082  23.667  34.181  1.00  0.00     0.001 A 
ATOM     61  C   UNL A   1      44.510  24.609  36.345  1.00  0.00     0.001 A 
ATOM     62  C   UNL A   1      44.250  23.504  35.553  1.00  0.00     0.000 A 
ENDBRANCH  43  57
BRANCH  44  63
ATOM     63  C   UNL A   1      40.516  24.596  26.912  1.00  0.00    -0.014 A 
ATOM     64  C   UNL A   1      41.151  23.347  26.785  1.00  0.00     0.009 A 
ATOM     65  C   UNL A   1      39.139  24.657  26.633  1.00  0.00     0.009 A 
ATOM     66  C   UNL A   1      40.424  22.196  26.451  1.00  0.00     0.001 A 
ATOM     67  C   UNL A   1      38.414  23.509  26.293  1.00  0.00     0.001 A 
ATOM     68  C   UNL A   1      39.053  22.275  26.222  1.00  0.00     0.000 A 
ENDBRANCH  44  63
BRANCH  56  69
ATOM     69  C   UNL A   1      44.976  28.796  28.208  1.00  0.00    -0.014 A 
ATOM     70  C   UNL A   1      43.979  29.759  27.965  1.00  0.00     0.009 A 
ATOM     71  C   UNL A   1      46.195  28.915  27.524  1.00  0.00     0.009 A 
ATOM     72  C   UNL A   1      44.196  30.798  27.053  1.00  0.00     0.001 A 
ATOM     73  C   UNL A   1      46.418  29.963  26.630  1.00  0.00     0.001 A 
ATOM     74  C   UNL A   1      45.418  30.903  26.392  1.00  0.00     0.000 A 
ENDBRANCH  56  69
ENDBRANCH  30  31
ENDBRANCH  23  25
ENDBRANCH  22  23
ENDBRANCH  21  22
ENDBRANCH   1  21
TORSDOF 16
ENDMDL
MODEL 2
REMARK VINA RESULT:     -10.1      5.350     10.054
REMARK SMILES CSc1nc2nnc(C(=O)OCCOCCOC(=O)c3ccc(-c4c5nc(c(-c6ccccc6)c6ccc([nH]6)c(-c6ccccc6)c6nc(c(-c7ccccc7)c7ccc4[nH]7)C=C6)C=C5)cc3)c(O)n2n1
REMARK SMILES IDX 15 1 14 2 13 3 12 4 11 5 9 6 10 7 8 8 3 9 4 10 71 11 5 12
REMARK SMILES IDX 70 13 6 14 68 15 7 16 2 17 1 18 69 19 16 21 17 22 18 23
REMARK SMILES IDX 19 24 20 25 21 26 67 27 22 28 66 29 23 30 24 31 25 32 60 33
REMARK SMILES IDX 26 34 65 35 59 36 61 37 27 38 64 39 58 40 57 41 28 43 50 44
REMARK SMILES IDX 35 45 49 46 36 47 39 48 48 49 62 50 37 51 38 52 47 54 63 55
REMARK SMILES IDX 40 56 29 57 30 58 34 59 31 60 33 61 32 62 51 63 52 64 56 65
REMARK SMILES IDX 53 66 55 67 54 68 41 69 42 70 46 71 43 72 45 73 44 74
REMARK H PARENT 69 20 61 42 39 53
REMARK Flexibility Score: inf
ROOT
ATOM      1  C   UNL A   1      41.894  20.476  27.007  1.00  0.00     0.202 C 
ENDROOT
BRANCH   1   2
ATOM      2  O   UNL A   1      40.674  21.203  26.958  1.00  0.00    -0.374 OA
BRANCH   2   3
ATOM      3  C   UNL A   1      39.745  20.999  25.895  1.00  0.00     0.202 C 
BRANCH   3   4
ATOM      4  C   UNL A   1      38.496  21.885  25.819  1.00  0.00     0.261 C 
BRANCH   4   5
ATOM      5  O   UNL A   1      37.785  21.779  24.574  1.00  0.00    -0.458 OA
BRANCH   5   6
ATOM      6  C   UNL A   1      36.460  21.525  24.718  1.00  0.00     0.364 C 
ATOM      7  O   UNL A   1      35.971  20.514  25.210  1.00  0.00    -0.244 OA
BRANCH   6   8
ATOM      8  C   UNL A   1      35.637  22.724  24.436  1.00  0.00     0.232 A 
ATOM      9  C   UNL A   1      32.829  25.942  25.182  1.00  0.00     0.210 A 
ATOM     10  N   UNL A   1      33.102  25.725  23.863  1.00  0.00    -0.182 NA
ATOM     11  N   UNL A   1      33.565  25.239  26.041  1.00  0.00    -0.134 NA
ATOM     12  C   UNL A   1      34.028  24.790  23.892  1.00  0.00     0.275 A 
ATOM     13  N   UNL A   1      34.280  24.442  25.213  1.00  0.00    -0.159 N 
ATOM     14  N   UNL A   1      34.681  24.135  22.883  1.00  0.00    -0.108 NA
ATOM     15  C   UNL A   1      35.111  23.362  25.504  1.00  0.00     0.251 A 
ATOM     16  N   UNL A   1      35.445  23.158  23.137  1.00  0.00    -0.134 NA
BRANCH   9  17
ATOM     17  S   UNL A   1      31.517  26.963  25.702  1.00  0.00    -0.088 SA
ATOM     18  C   UNL A   1      30.142  26.291  24.748  1.00  0.00     0.094 C 
ENDBRANCH   9  17
BRANCH  15  19
ATOM     19  O   UNL A   1      35.318  23.015  26.833  1.00  0.00    -0.491 OA
ATOM     20  H   UNL A   1      34.590  22.788  27.378  1.00  0.00     0.295 HD
ENDBRANCH  15  19
ENDBRANCH   6   8
ENDBRANCH   5   6
ENDBRANCH   4   5
ENDBRANCH   3   4
ENDBRANCH   2   3
ENDBRANCH   1   2
BRANCH   1  21
ATOM     21  C   UNL A   1      42.386  19.738  25.775  1.00  0.00     0.261 C 
BRANCH  21  22
ATOM     22  O   UNL A   1      43.799  19.681  25.718  1.00  0.00    -0.460 OA
BRANCH  22  23
ATOM     23  C   UNL A   1      44.305  20.219  24.584  1.00  0.00     0.338 C 
ATOM     24  O   UNL A   1      44.604  19.638  23.558  1.00  0.00    -0.246 OA
BRANCH  23  25
ATOM     25  C   UNL A   1      44.610  21.627  24.844  1.00  0.00     0.060 A 
ATOM     26  C   UNL A   1      45.471  21.873  25.913  1.00  0.00     0.016 A 
ATOM     27  C   UNL A   1      43.786  22.619  24.293  1.00  0.00     0.016 A 
ATOM     28  C   UNL A   1      45.313  23.048  26.604  1.00  0.00     0.010 A 
ATOM     29  C   UNL A   1      43.610  23.780  24.999  1.00  0.00     0.010 A 
ATOM     30  C   UNL A   1      44.306  23.930  26.193  1.00  0.00    -0.014 A 
BRANCH  30  31
ATOM     31  C   UNL A   1      44.082  25.114  26.984  1.00  0.00     0.031 A 
ATOM     32  C   UNL A   1      45.150  26.107  26.772  1.00  0.00     0.074 A 
ATOM     33  C   UNL A   1      42.979  25.295  27.729  1.00  0.00     0.049 A 
ATOM     34  N   UNL A   1      46.112  26.396  27.582  1.00  0.00    -0.248 NA
ATOM     35  C   UNL A   1      45.302  26.667  25.418  1.00  0.00     0.031 C 
ATOM     36  C   UNL A   1      41.759  24.485  27.771  1.00  0.00     0.029 A 
ATOM     37  N   UNL A   1      42.679  26.336  28.546  1.00  0.00    -0.354 N 
ATOM     38  C   UNL A   1      46.859  27.358  26.918  1.00  0.00     0.074 A 
ATOM     39  C   UNL A   1      46.475  27.290  25.532  1.00  0.00     0.031 C 
ATOM     40  C   UNL A   1      40.776  25.196  28.375  1.00  0.00     0.029 A 
ATOM     41  C   UNL A   1      41.334  26.441  28.876  1.00  0.00     0.049 A 
ATOM     42  H   UNL A   1      43.360  26.965  28.879  1.00  0.00     0.167 HD
ATOM     43  C   UNL A   1      47.456  28.366  27.607  1.00  0.00     0.031 A 
ATOM     44  C   UNL A   1      40.739  27.518  29.450  1.00  0.00     0.031 A 
ATOM     45  C   UNL A   1      47.568  28.056  29.010  1.00  0.00     0.049 A 
ATOM     46  C   UNL A   1      41.812  28.336  30.067  1.00  0.00     0.074 A 
ATOM     47  C   UNL A   1      48.166  27.048  29.738  1.00  0.00     0.029 A 
ATOM     48  N   UNL A   1      46.640  28.633  29.844  1.00  0.00    -0.354 N 
ATOM     49  N   UNL A   1      42.506  27.948  31.098  1.00  0.00    -0.248 NA
ATOM     50  C   UNL A   1      42.423  29.381  29.260  1.00  0.00     0.031 C 
ATOM     51  C   UNL A   1      47.266  26.779  30.811  1.00  0.00     0.029 A 
ATOM     52  C   UNL A   1      46.203  27.680  30.726  1.00  0.00     0.049 A 
ATOM     53  H   UNL A   1      46.342  29.571  29.814  1.00  0.00     0.167 HD
ATOM     54  C   UNL A   1      43.802  28.354  30.820  1.00  0.00     0.074 A 
ATOM     55  C   UNL A   1      43.672  29.321  29.729  1.00  0.00     0.031 C 
ATOM     56  C   UNL A   1      44.872  27.652  31.294  1.00  0.00     0.031 A 
BRANCH  43  57
ATOM     57  C   UNL A   1      47.469  29.783  27.089  1.00  0.00    -0.014 A 
ATOM     58  C   UNL A   1      48.644  30.538  27.234  1.00  0.00     0.009 A 
ATOM     59  C   UNL A   1      46.305  30.492  26.728  1.00  0.00     0.009 A 
ATOM     60  C   UNL A   1      48.633  31.929  27.085  1.00  0.00     0.001 A 
ATOM     61  C   UNL A   1      46.299  31.872  26.534  1.00  0.00     0.001 A 
ATOM     62  C   UNL A   1      47.462  32.596  26.740  1.00  0.00     0.000 A 
ENDBRANCH  43  57
BRANCH  44  63
ATOM     63  C   UNL A   1      39.383  28.073  29.227  1.00  0.00    -0.014 A 
ATOM     64  C   UNL A   1      38.496  28.230  30.307  1.00  0.00     0.009 A 
ATOM     65  C   UNL A   1      39.067  28.729  28.025  1.00  0.00     0.009 A 
ATOM     66  C   UNL A   1      37.370  29.059  30.204  1.00  0.00     0.001 A 
ATOM     67  C   UNL A   1      37.940  29.552  27.920  1.00  0.00     0.001 A 
ATOM     68  C   UNL A   1      37.102  29.733  29.017  1.00  0.00     0.000 A 
ENDBRANCH  44  63
BRANCH  56  69
ATOM     69  C   UNL A   1      44.614  26.586  32.332  1.00  0.00    -0.014 A 
ATOM     70  C   UNL A   1      44.274  26.870  33.668  1.00  0.00     0.009 A 
ATOM     71  C   UNL A   1      44.550  25.253  31.899  1.00  0.00     0.009 A 
ATOM     72  C   UNL A   1      43.897  25.845  34.543  1.00  0.00     0.001 A 
ATOM     73  C   UNL A   1      44.153  24.234  32.767  1.00  0.00     0.001 A 
ATOM     74  C   UNL A   1      43.829  24.529  34.089  1.00  0.00     0.000 A 
ENDBRANCH  56  69
ENDBRANCH  30  31
ENDBRANCH  23  25
ENDBRANCH  22  23
ENDBRANCH  21  22
ENDBRANCH   1  21
TORSDOF 16
ENDMDL
MODEL 3
REMARK VINA RESULT:     -10.0      2.362      4.213
REMARK SMILES CSc1nc2nnc(C(=O)OCCOCCOC(=O)c3ccc(-c4c5nc(c(-c6ccccc6)c6ccc([nH]6)c(-c6ccccc6)c6nc(c(-c7ccccc7)c7ccc4[nH]7)C=C6)C=C5)cc3)c(O)n2n1
REMARK SMILES IDX 15 1 14 2 13 3 12 4 11 5 9 6 10 7 8 8 3 9 4 10 71 11 5 12
REMARK SMILES IDX 70 13 6 14 68 15 7 16 2 17 1 18 69 19 16 21 17 22 18 23
REMARK SMILES IDX 19 24 20 25 21 26 67 27 22 28 66 29 23 30 24 31 25 32 60 33
REMARK SMILES IDX 26 34 65 35 59 36 61 37 27 38 64 39 58 40 57 41 28 43 50 44
REMARK SMILES IDX 35 45 49 46 36 47 39 48 48 49 62 50 37 51 38 52 47 54 63 55
REMARK SMILES IDX 40 56 29 57 30 58 34 59 31 60 33 61 32 62 51 63 52 64 56 65
REMARK SMILES IDX 53 66 55 67 54 68 41 69 42 70 46 71 43 72 45 73 44 74
REMARK H PARENT 69 20 61 42 39 53
REMARK Flexibility Score: inf
ROOT
ATOM      1  C   UNL A   1      33.034  34.344  28.382  1.00  0.00     0.202 C 
ENDROOT
BRANCH   1   2
ATOM      2  O   UNL A   1      32.606  35.615  28.853  1.00  0.00    -0.374 OA
BRANCH   2   3
ATOM      3  C   UNL A   1      33.255  36.240  29.958  1.00  0.00     0.202 C 
BRANCH   3   4
ATOM      4  C   UNL A   1      32.636  36.109  31.355  1.00  0.00     0.261 C 
BRANCH   4   5
ATOM      5  O   UNL A   1      33.299  35.149  32.195  1.00  0.00    -0.458 OA
BRANCH   5   6
ATOM      6  C   UNL A   1      34.363  35.651  32.869  1.00  0.00     0.364 C 
ATOM      7  O   UNL A   1      34.374  36.684  33.530  1.00  0.00    -0.244 OA
BRANCH   6   8
ATOM      8  C   UNL A   1      35.481  34.681  32.933  1.00  0.00     0.232 A 
ATOM      9  C   UNL A   1      38.387  32.004  34.716  1.00  0.00     0.210 A 
ATOM     10  N   UNL A   1      38.642  32.328  33.415  1.00  0.00    -0.182 NA
ATOM     11  N   UNL A   1      37.223  32.435  35.195  1.00  0.00    -0.134 NA
ATOM     12  C   UNL A   1      37.599  33.053  33.071  1.00  0.00     0.275 A 
ATOM     13  N   UNL A   1      36.751  33.177  34.165  1.00  0.00    -0.159 N 
ATOM     14  N   UNL A   1      37.290  33.691  31.900  1.00  0.00    -0.108 NA
ATOM     15  C   UNL A   1      35.650  34.028  34.103  1.00  0.00     0.251 A 
ATOM     16  N   UNL A   1      36.286  34.460  31.830  1.00  0.00    -0.134 NA
BRANCH   9  17
ATOM     17  S   UNL A   1      39.564  31.200  35.718  1.00  0.00    -0.088 SA
ATOM     18  C   UNL A   1      41.097  31.954  35.143  1.00  0.00     0.094 C 
ENDBRANCH   9  17
BRANCH  15  19
ATOM     19  O   UNL A   1      34.839  34.158  35.223  1.00  0.00    -0.491 OA
ATOM     20  H   UNL A   1      35.223  34.286  36.069  1.00  0.00     0.295 HD
ENDBRANCH  15  19
ENDBRANCH   6   8
ENDBRANCH   5   6
ENDBRANCH   4   5
ENDBRANCH   3   4
ENDBRANCH   2   3
ENDBRANCH   1   2
BRANCH   1  21
ATOM     21  C   UNL A   1      34.489  34.127  28.005  1.00  0.00     0.261 C 
BRANCH  21  22
ATOM     22  O   UNL A   1      35.122  33.182  28.848  1.00  0.00    -0.460 OA
BRANCH  22  23
ATOM     23  C   UNL A   1      35.441  32.032  28.209  1.00  0.00     0.338 C 
ATOM     24  O   UNL A   1      34.912  31.564  27.219  1.00  0.00    -0.246 OA
BRANCH  23  25
ATOM     25  C   UNL A   1      36.441  31.326  29.013  1.00  0.00     0.060 A 
ATOM     26  C   UNL A   1      37.583  32.058  29.339  1.00  0.00     0.016 A 
ATOM     27  C   UNL A   1      36.390  29.928  29.095  1.00  0.00     0.016 A 
ATOM     28  C   UNL A   1      38.759  31.369  29.493  1.00  0.00     0.010 A 
ATOM     29  C   UNL A   1      37.569  29.243  29.221  1.00  0.00     0.010 A 
ATOM     30  C   UNL A   1      38.744  29.980  29.322  1.00  0.00    -0.014 A 
BRANCH  30  31
ATOM     31  C   UNL A   1      40.001  29.278  29.388  1.00  0.00     0.031 A 
ATOM     32  C   UNL A   1      40.420  29.063  30.784  1.00  0.00     0.074 A 
ATOM     33  C   UNL A   1      40.631  28.806  28.299  1.00  0.00     0.049 A 
ATOM     34  N   UNL A   1      41.349  29.693  31.420  1.00  0.00    -0.248 NA
ATOM     35  C   UNL A   1      39.556  28.226  31.635  1.00  0.00     0.031 C 
ATOM     36  C   UNL A   1      40.144  28.736  26.918  1.00  0.00     0.029 A 
ATOM     37  N   UNL A   1      41.831  28.177  28.229  1.00  0.00    -0.354 N 
ATOM     38  C   UNL A   1      41.335  29.152  32.697  1.00  0.00     0.074 A 
ATOM     39  C   UNL A   1      40.077  28.467  32.838  1.00  0.00     0.031 C 
ATOM     40  C   UNL A   1      40.932  27.887  26.214  1.00  0.00     0.029 A 
ATOM     41  C   UNL A   1      42.043  27.469  27.053  1.00  0.00     0.049 A 
ATOM     42  H   UNL A   1      42.497  28.219  28.952  1.00  0.00     0.167 HD
ATOM     43  C   UNL A   1      42.491  29.002  33.396  1.00  0.00     0.031 A 
ATOM     44  C   UNL A   1      43.026  26.557  26.841  1.00  0.00     0.031 A 
ATOM     45  C   UNL A   1      43.548  29.821  32.857  1.00  0.00     0.049 A 
ATOM     46  C   UNL A   1      44.068  26.787  27.872  1.00  0.00     0.074 A 
ATOM     47  C   UNL A   1      43.716  31.174  32.644  1.00  0.00     0.029 A 
ATOM     48  N   UNL A   1      44.470  29.188  32.057  1.00  0.00    -0.354 N 
ATOM     49  N   UNL A   1      44.818  27.849  27.908  1.00  0.00    -0.248 NA
ATOM     50  C   UNL A   1      43.961  26.054  29.125  1.00  0.00     0.031 C 
ATOM     51  C   UNL A   1      44.417  31.271  31.406  1.00  0.00     0.029 A 
ATOM     52  C   UNL A   1      44.704  29.978  30.963  1.00  0.00     0.049 A 
ATOM     53  H   UNL A   1      44.891  28.317  32.241  1.00  0.00     0.167 HD
ATOM     54  C   UNL A   1      44.906  28.171  29.254  1.00  0.00     0.074 A 
ATOM     55  C   UNL A   1      44.448  26.975  29.962  1.00  0.00     0.031 C 
ATOM     56  C   UNL A   1      45.054  29.467  29.655  1.00  0.00     0.031 A 
BRANCH  43  57
ATOM     57  C   UNL A   1      42.766  27.769  34.221  1.00  0.00    -0.014 A 
ATOM     58  C   UNL A   1      42.814  27.895  35.618  1.00  0.00     0.009 A 
ATOM     59  C   UNL A   1      43.255  26.562  33.680  1.00  0.00     0.009 A 
ATOM     60  C   UNL A   1      43.377  26.893  36.416  1.00  0.00     0.001 A 
ATOM     61  C   UNL A   1      43.775  25.542  34.475  1.00  0.00     0.001 A 
ATOM     62  C   UNL A   1      43.861  25.720  35.845  1.00  0.00     0.000 A 
ENDBRANCH  43  57
BRANCH  44  63
ATOM     63  C   UNL A   1      42.991  25.304  26.050  1.00  0.00    -0.014 A 
ATOM     64  C   UNL A   1      43.997  25.035  25.104  1.00  0.00     0.009 A 
ATOM     65  C   UNL A   1      42.157  24.239  26.433  1.00  0.00     0.009 A 
ATOM     66  C   UNL A   1      44.196  23.740  24.607  1.00  0.00     0.001 A 
ATOM     67  C   UNL A   1      42.352  22.947  25.932  1.00  0.00     0.001 A 
ATOM     68  C   UNL A   1      43.384  22.693  25.035  1.00  0.00     0.000 A 
ENDBRANCH  44  63
BRANCH  56  69
ATOM     69  C   UNL A   1      45.381  30.499  28.602  1.00  0.00    -0.014 A 
ATOM     70  C   UNL A   1      46.682  30.729  28.119  1.00  0.00     0.009 A 
ATOM     71  C   UNL A   1      44.311  31.141  27.962  1.00  0.00     0.009 A 
ATOM     72  C   UNL A   1      46.901  31.589  27.036  1.00  0.00     0.001 A 
ATOM     73  C   UNL A   1      44.528  31.982  26.869  1.00  0.00     0.001 A 
ATOM     74  C   UNL A   1      45.823  32.208  26.408  1.00  0.00     0.000 A 
ENDBRANCH  56  69
ENDBRANCH  30  31
ENDBRANCH  23  25
ENDBRANCH  22  23
ENDBRANCH  21  22
ENDBRANCH   1  21
TORSDOF 16
ENDMDL
