MODEL 1
REMARK VINA RESULT:     -11.3      0.000      0.000
REMARK SMILES C[C@H](NC(=O)c1cccc(NC(=O)c2ccccc2C(=O)OCCOCCOC(=O)c2ccc(-c3c4nc(c(-c5ccccc5)c5ccc([nH]5)c(-c5ccccc5)c5nc(c(-c6ccccc6)c6ccc3[nH]6)C=C5)C=C4)cc2)c1)c1ccccc1
REMARK SMILES IDX 23 1 22 2 20 3 21 4 19 5 14 6 15 7 16 8 18 9 17 10 12 11
REMARK SMILES IDX 11 12 13 14 10 15 6 16 7 17 79 18 8 19 9 20 4 21 3 22 5 24
REMARK SMILES IDX 2 25 1 26 80 27 81 28 85 29 82 30 84 31 83 32 24 33 25 34
REMARK SMILES IDX 26 35 27 36 28 37 29 38 30 39 31 40 32 41 78 42 33 43 77 44
REMARK SMILES IDX 34 45 35 46 36 47 71 48 37 49 76 50 70 51 72 52 38 53 75 54
REMARK SMILES IDX 69 55 68 56 39 58 61 59 46 60 60 61 47 62 50 63 59 64 73 65
REMARK SMILES IDX 48 66 49 67 58 69 74 70 51 71 40 72 41 73 45 74 42 75 44 76
REMARK SMILES IDX 43 77 62 78 63 79 67 80 64 81 66 82 65 83 52 84 53 85 57 86
REMARK SMILES IDX 54 87 56 88 55 89
REMARK H PARENT 11 13 3 23 72 57 50 68
REMARK Flexibility Score: inf
ROOT
ATOM      1  C   UNL A   1      36.454  23.198  26.477  1.00  0.00     0.261 C 
ENDROOT
BRANCH   1   2
ATOM      2  O   UNL A   1      35.258  23.653  25.868  1.00  0.00    -0.460 OA
BRANCH   2   3
ATOM      3  C   UNL A   1      34.174  22.969  26.274  1.00  0.00     0.339 C 
ATOM      4  O   UNL A   1      33.983  22.455  27.369  1.00  0.00    -0.246 OA
BRANCH   3   5
ATOM      5  C   UNL A   1      33.175  22.973  25.208  1.00  0.00     0.072 A 
ATOM      6  C   UNL A   1      31.896  23.537  25.329  1.00  0.00     0.054 A 
ATOM      7  C   UNL A   1      31.011  23.386  24.244  1.00  0.00     0.015 A 
ATOM      8  C   UNL A   1      31.411  22.749  23.062  1.00  0.00     0.001 A 
ATOM      9  C   UNL A   1      33.584  22.361  24.009  1.00  0.00     0.016 A 
ATOM     10  C   UNL A   1      32.703  22.249  22.939  1.00  0.00     0.001 A 
BRANCH   6  11
ATOM     11  C   UNL A   1      31.321  24.180  26.542  1.00  0.00     0.256 C 
ATOM     12  N   UNL A   1      31.514  25.482  26.960  1.00  0.00    -0.322 N 
ATOM     13  H   UNL A   1      31.077  25.672  27.822  1.00  0.00     0.170 HD
ATOM     14  O   UNL A   1      30.597  23.468  27.247  1.00  0.00    -0.269 OA
BRANCH  12  15
ATOM     15  C   UNL A   1      32.191  26.601  26.441  1.00  0.00     0.042 A 
ATOM     16  C   UNL A   1      31.995  28.936  25.733  1.00  0.00     0.041 A 
ATOM     17  C   UNL A   1      33.388  29.051  25.823  1.00  0.00     0.014 A 
ATOM     18  C   UNL A   1      31.410  27.682  25.969  1.00  0.00     0.040 A 
ATOM     19  C   UNL A   1      34.173  27.940  26.134  1.00  0.00     0.003 A 
ATOM     20  C   UNL A   1      33.576  26.714  26.422  1.00  0.00     0.026 A 
BRANCH  16  21
ATOM     21  C   UNL A   1      31.269  30.140  25.247  1.00  0.00     0.251 C 
ATOM     22  N   UNL A   1      30.449  30.216  24.146  1.00  0.00    -0.346 N 
ATOM     23  H   UNL A   1      29.916  31.045  24.157  1.00  0.00     0.164 HD
ATOM     24  O   UNL A   1      31.345  31.146  25.958  1.00  0.00    -0.269 OA
BRANCH  22  25
ATOM     25  C   UNL A   1      30.141  29.404  22.952  1.00  0.00     0.109 C 
ATOM     26  C   UNL A   1      29.721  30.247  21.783  1.00  0.00     0.036 C 
BRANCH  25  27
ATOM     27  C   UNL A   1      31.272  28.432  22.557  1.00  0.00    -0.026 A 
ATOM     28  C   UNL A   1      32.599  28.875  22.433  1.00  0.00     0.006 A 
ATOM     29  C   UNL A   1      31.053  27.042  22.397  1.00  0.00     0.006 A 
ATOM     30  C   UNL A   1      33.637  27.981  22.131  1.00  0.00     0.000 A 
ATOM     31  C   UNL A   1      32.091  26.149  22.115  1.00  0.00     0.000 A 
ATOM     32  C   UNL A   1      33.385  26.621  21.973  1.00  0.00     0.000 A 
ENDBRANCH  25  27
ENDBRANCH  22  25
ENDBRANCH  16  21
ENDBRANCH  12  15
ENDBRANCH   6  11
ENDBRANCH   3   5
ENDBRANCH   2   3
ENDBRANCH   1   2
BRANCH   1  33
ATOM     33  C   UNL A   1      37.617  22.731  25.598  1.00  0.00     0.202 C 
BRANCH  33  34
ATOM     34  O   UNL A   1      37.394  21.860  24.510  1.00  0.00    -0.374 OA
BRANCH  34  35
ATOM     35  C   UNL A   1      37.258  20.471  24.762  1.00  0.00     0.202 C 
BRANCH  35  36
ATOM     36  C   UNL A   1      38.504  19.622  25.063  1.00  0.00     0.261 C 
BRANCH  36  37
ATOM     37  O   UNL A   1      39.253  19.978  26.241  1.00  0.00    -0.460 OA
BRANCH  37  38
ATOM     38  C   UNL A   1      40.594  19.808  26.136  1.00  0.00     0.338 C 
ATOM     39  O   UNL A   1      41.179  18.872  25.617  1.00  0.00    -0.246 OA
BRANCH  38  40
ATOM     40  C   UNL A   1      41.329  20.976  26.658  1.00  0.00     0.060 A 
ATOM     41  C   UNL A   1      41.232  21.272  28.024  1.00  0.00     0.016 A 
ATOM     42  C   UNL A   1      41.934  21.878  25.783  1.00  0.00     0.016 A 
ATOM     43  C   UNL A   1      41.702  22.494  28.513  1.00  0.00     0.010 A 
ATOM     44  C   UNL A   1      42.393  23.107  26.273  1.00  0.00     0.010 A 
ATOM     45  C   UNL A   1      42.244  23.440  27.632  1.00  0.00    -0.014 A 
BRANCH  45  46
ATOM     46  C   UNL A   1      42.527  24.825  28.092  1.00  0.00     0.031 A 
ATOM     47  C   UNL A   1      43.926  25.196  28.512  1.00  0.00     0.074 A 
ATOM     48  C   UNL A   1      41.551  25.750  28.151  1.00  0.00     0.049 A 
ATOM     49  N   UNL A   1      44.371  26.315  29.027  1.00  0.00    -0.248 NA
ATOM     50  C   UNL A   1      44.961  24.166  28.330  1.00  0.00     0.031 C 
ATOM     51  C   UNL A   1      40.165  25.545  27.737  1.00  0.00     0.029 A 
ATOM     52  N   UNL A   1      41.581  27.048  28.601  1.00  0.00    -0.354 N 
ATOM     53  C   UNL A   1      45.729  26.118  29.249  1.00  0.00     0.074 A 
ATOM     54  C   UNL A   1      46.031  24.766  28.832  1.00  0.00     0.031 C 
ATOM     55  C   UNL A   1      39.471  26.673  27.969  1.00  0.00     0.029 A 
ATOM     56  C   UNL A   1      40.354  27.663  28.584  1.00  0.00     0.049 A 
ATOM     57  H   UNL A   1      42.405  27.494  28.906  1.00  0.00     0.167 HD
ATOM     58  C   UNL A   1      46.643  26.982  29.753  1.00  0.00     0.031 A 
ATOM     59  C   UNL A   1      39.974  28.873  29.042  1.00  0.00     0.031 A 
ATOM     60  C   UNL A   1      46.347  28.325  30.179  1.00  0.00     0.049 A 
ATOM     61  C   UNL A   1      40.992  29.787  29.670  1.00  0.00     0.074 A 
ATOM     62  C   UNL A   1      47.216  29.282  30.677  1.00  0.00     0.029 A 
ATOM     63  N   UNL A   1      45.085  28.898  30.170  1.00  0.00    -0.354 N 
ATOM     64  N   UNL A   1      42.277  29.600  29.847  1.00  0.00    -0.248 NA
ATOM     65  C   UNL A   1      40.505  31.087  30.158  1.00  0.00     0.031 C 
ATOM     66  C   UNL A   1      46.469  30.410  31.032  1.00  0.00     0.029 A 
ATOM     67  C   UNL A   1      45.147  30.182  30.686  1.00  0.00     0.049 A 
ATOM     68  H   UNL A   1      44.267  28.458  29.847  1.00  0.00     0.167 HD
ATOM     69  C   UNL A   1      42.756  30.766  30.435  1.00  0.00     0.074 A 
ATOM     70  C   UNL A   1      41.626  31.660  30.571  1.00  0.00     0.031 C 
ATOM     71  C   UNL A   1      44.020  31.069  30.821  1.00  0.00     0.031 A 
BRANCH  58  72
ATOM     72  C   UNL A   1      48.056  26.489  29.914  1.00  0.00    -0.014 A 
ATOM     73  C   UNL A   1      48.487  25.871  31.098  1.00  0.00     0.009 A 
ATOM     74  C   UNL A   1      48.954  26.596  28.841  1.00  0.00     0.009 A 
ATOM     75  C   UNL A   1      49.797  25.400  31.214  1.00  0.00     0.001 A 
ATOM     76  C   UNL A   1      50.254  26.097  28.948  1.00  0.00     0.001 A 
ATOM     77  C   UNL A   1      50.677  25.508  30.138  1.00  0.00     0.000 A 
ENDBRANCH  58  72
BRANCH  59  78
ATOM     78  C   UNL A   1      38.549  29.285  28.949  1.00  0.00    -0.014 A 
ATOM     79  C   UNL A   1      38.039  29.848  27.770  1.00  0.00     0.009 A 
ATOM     80  C   UNL A   1      37.693  29.135  30.053  1.00  0.00     0.009 A 
ATOM     81  C   UNL A   1      36.710  30.273  27.705  1.00  0.00     0.001 A 
ATOM     82  C   UNL A   1      36.356  29.531  29.975  1.00  0.00     0.001 A 
ATOM     83  C   UNL A   1      35.869  30.108  28.805  1.00  0.00     0.000 A 
ENDBRANCH  59  78
BRANCH  71  84
ATOM     84  C   UNL A   1      44.265  32.440  31.391  1.00  0.00    -0.014 A 
ATOM     85  C   UNL A   1      44.181  32.690  32.770  1.00  0.00     0.009 A 
ATOM     86  C   UNL A   1      44.637  33.490  30.535  1.00  0.00     0.009 A 
ATOM     87  C   UNL A   1      44.430  33.970  33.273  1.00  0.00     0.001 A 
ATOM     88  C   UNL A   1      44.916  34.759  31.043  1.00  0.00     0.001 A 
ATOM     89  C   UNL A   1      44.803  35.000  32.411  1.00  0.00     0.000 A 
ENDBRANCH  71  84
ENDBRANCH  45  46
ENDBRANCH  38  40
ENDBRANCH  37  38
ENDBRANCH  36  37
ENDBRANCH  35  36
ENDBRANCH  34  35
ENDBRANCH  33  34
ENDBRANCH   1  33
TORSDOF 19
ENDMDL
MODEL 2
REMARK VINA RESULT:     -10.7      2.797      7.090
REMARK SMILES C[C@H](NC(=O)c1cccc(NC(=O)c2ccccc2C(=O)OCCOCCOC(=O)c2ccc(-c3c4nc(c(-c5ccccc5)c5ccc([nH]5)c(-c5ccccc5)c5nc(c(-c6ccccc6)c6ccc3[nH]6)C=C5)C=C4)cc2)c1)c1ccccc1
REMARK SMILES IDX 23 1 22 2 20 3 21 4 19 5 14 6 15 7 16 8 18 9 17 10 12 11
REMARK SMILES IDX 11 12 13 14 10 15 6 16 7 17 79 18 8 19 9 20 4 21 3 22 5 24
REMARK SMILES IDX 2 25 1 26 80 27 81 28 85 29 82 30 84 31 83 32 24 33 25 34
REMARK SMILES IDX 26 35 27 36 28 37 29 38 30 39 31 40 32 41 78 42 33 43 77 44
REMARK SMILES IDX 34 45 35 46 36 47 71 48 37 49 76 50 70 51 72 52 38 53 75 54
REMARK SMILES IDX 69 55 68 56 39 58 61 59 46 60 60 61 47 62 50 63 59 64 73 65
REMARK SMILES IDX 48 66 49 67 58 69 74 70 51 71 40 72 41 73 45 74 42 75 44 76
REMARK SMILES IDX 43 77 62 78 63 79 67 80 64 81 66 82 65 83 52 84 53 85 57 86
REMARK SMILES IDX 54 87 56 88 55 89
REMARK H PARENT 11 13 3 23 72 57 50 68
REMARK Flexibility Score: inf
ROOT
ATOM      1  C   UNL A   1      32.977  24.220  22.874  1.00  0.00     0.261 C 
ENDROOT
BRANCH   1   2
ATOM      2  O   UNL A   1      32.589  25.218  21.947  1.00  0.00    -0.460 OA
BRANCH   2   3
ATOM      3  C   UNL A   1      33.150  26.413  22.201  1.00  0.00     0.339 C 
ATOM      4  O   UNL A   1      34.289  26.774  21.932  1.00  0.00    -0.246 OA
BRANCH   3   5
ATOM      5  C   UNL A   1      32.156  27.292  22.813  1.00  0.00     0.072 A 
ATOM      6  C   UNL A   1      32.276  27.842  24.099  1.00  0.00     0.054 A 
ATOM      7  C   UNL A   1      31.195  28.601  24.587  1.00  0.00     0.015 A 
ATOM      8  C   UNL A   1      30.066  28.851  23.796  1.00  0.00     0.001 A 
ATOM      9  C   UNL A   1      31.036  27.570  22.009  1.00  0.00     0.016 A 
ATOM     10  C   UNL A   1      29.993  28.348  22.501  1.00  0.00     0.001 A 
BRANCH   6  11
ATOM     11  C   UNL A   1      33.383  27.605  25.065  1.00  0.00     0.256 C 
ATOM     12  N   UNL A   1      33.544  26.507  25.888  1.00  0.00    -0.322 N 
ATOM     13  H   UNL A   1      34.324  26.591  26.483  1.00  0.00     0.170 HD
ATOM     14  O   UNL A   1      34.245  28.488  25.135  1.00  0.00    -0.269 OA
BRANCH  12  15
ATOM     15  C   UNL A   1      32.852  25.296  26.074  1.00  0.00     0.042 A 
ATOM     16  C   UNL A   1      33.008  22.970  26.818  1.00  0.00     0.041 A 
ATOM     17  C   UNL A   1      31.611  22.938  26.916  1.00  0.00     0.014 A 
ATOM     18  C   UNL A   1      33.617  24.132  26.321  1.00  0.00     0.040 A 
ATOM     19  C   UNL A   1      30.845  24.035  26.520  1.00  0.00     0.003 A 
ATOM     20  C   UNL A   1      31.466  25.203  26.081  1.00  0.00     0.026 A 
BRANCH  16  21
ATOM     21  C   UNL A   1      33.715  21.697  27.122  1.00  0.00     0.251 C 
ATOM     22  N   UNL A   1      33.588  20.506  26.447  1.00  0.00    -0.346 N 
ATOM     23  H   UNL A   1      34.311  19.882  26.690  1.00  0.00     0.164 HD
ATOM     24  O   UNL A   1      34.565  21.745  28.016  1.00  0.00    -0.269 OA
BRANCH  22  25
ATOM     25  C   UNL A   1      32.674  19.900  25.459  1.00  0.00     0.109 C 
ATOM     26  C   UNL A   1      32.530  20.743  24.224  1.00  0.00     0.036 C 
BRANCH  25  27
ATOM     27  C   UNL A   1      33.031  18.443  25.096  1.00  0.00    -0.026 A 
ATOM     28  C   UNL A   1      32.463  17.363  25.790  1.00  0.00     0.006 A 
ATOM     29  C   UNL A   1      33.862  18.120  23.996  1.00  0.00     0.006 A 
ATOM     30  C   UNL A   1      32.742  16.037  25.423  1.00  0.00     0.000 A 
ATOM     31  C   UNL A   1      34.124  16.800  23.619  1.00  0.00     0.000 A 
ATOM     32  C   UNL A   1      33.569  15.756  24.340  1.00  0.00     0.000 A 
ENDBRANCH  25  27
ENDBRANCH  22  25
ENDBRANCH  16  21
ENDBRANCH  12  15
ENDBRANCH   6  11
ENDBRANCH   3   5
ENDBRANCH   2   3
ENDBRANCH   1   2
BRANCH   1  33
ATOM     33  C   UNL A   1      34.264  23.426  22.634  1.00  0.00     0.202 C 
BRANCH  33  34
ATOM     34  O   UNL A   1      35.479  23.822  23.235  1.00  0.00    -0.374 OA
BRANCH  34  35
ATOM     35  C   UNL A   1      36.533  22.879  23.335  1.00  0.00     0.202 C 
BRANCH  35  36
ATOM     36  C   UNL A   1      36.410  21.694  24.306  1.00  0.00     0.261 C 
BRANCH  36  37
ATOM     37  O   UNL A   1      36.901  21.907  25.644  1.00  0.00    -0.460 OA
BRANCH  37  38
ATOM     38  C   UNL A   1      38.231  21.695  25.802  1.00  0.00     0.338 C 
ATOM     39  O   UNL A   1      38.895  20.790  25.321  1.00  0.00    -0.246 OA
BRANCH  38  40
ATOM     40  C   UNL A   1      38.862  22.776  26.581  1.00  0.00     0.060 A 
ATOM     41  C   UNL A   1      38.311  24.062  26.508  1.00  0.00     0.016 A 
ATOM     42  C   UNL A   1      40.092  22.572  27.206  1.00  0.00     0.016 A 
ATOM     43  C   UNL A   1      39.010  25.157  27.024  1.00  0.00     0.010 A 
ATOM     44  C   UNL A   1      40.797  23.671  27.711  1.00  0.00     0.010 A 
ATOM     45  C   UNL A   1      40.281  24.975  27.588  1.00  0.00    -0.014 A 
BRANCH  45  46
ATOM     46  C   UNL A   1      41.134  26.146  27.922  1.00  0.00     0.031 A 
ATOM     47  C   UNL A   1      40.608  27.203  28.859  1.00  0.00     0.074 A 
ATOM     48  C   UNL A   1      42.363  26.282  27.393  1.00  0.00     0.049 A 
ATOM     49  N   UNL A   1      41.147  28.343  29.212  1.00  0.00    -0.248 NA
ATOM     50  C   UNL A   1      39.298  26.941  29.476  1.00  0.00     0.031 C 
ATOM     51  C   UNL A   1      43.016  25.319  26.509  1.00  0.00     0.029 A 
ATOM     52  N   UNL A   1      43.276  27.302  27.514  1.00  0.00    -0.354 N 
ATOM     53  C   UNL A   1      40.237  28.943  30.075  1.00  0.00     0.074 A 
ATOM     54  C   UNL A   1      39.102  28.050  30.174  1.00  0.00     0.031 C 
ATOM     55  C   UNL A   1      44.219  25.802  26.153  1.00  0.00     0.029 A 
ATOM     56  C   UNL A   1      44.403  27.124  26.750  1.00  0.00     0.049 A 
ATOM     57  H   UNL A   1      43.136  28.086  28.095  1.00  0.00     0.167 HD
ATOM     58  C   UNL A   1      40.334  30.128  30.725  1.00  0.00     0.031 A 
ATOM     59  C   UNL A   1      45.449  27.944  26.528  1.00  0.00     0.031 A 
ATOM     60  C   UNL A   1      41.455  31.025  30.622  1.00  0.00     0.049 A 
ATOM     61  C   UNL A   1      45.499  29.291  27.200  1.00  0.00     0.074 A 
ATOM     62  C   UNL A   1      41.653  32.234  31.267  1.00  0.00     0.029 A 
ATOM     63  N   UNL A   1      42.562  30.818  29.815  1.00  0.00    -0.354 N 
ATOM     64  N   UNL A   1      44.646  29.832  28.035  1.00  0.00    -0.248 NA
ATOM     65  C   UNL A   1      46.665  30.138  26.902  1.00  0.00     0.031 C 
ATOM     66  C   UNL A   1      42.847  32.791  30.799  1.00  0.00     0.029 A 
ATOM     67  C   UNL A   1      43.429  31.893  29.919  1.00  0.00     0.049 A 
ATOM     68  H   UNL A   1      42.710  30.025  29.251  1.00  0.00     0.167 HD
ATOM     69  C   UNL A   1      45.185  31.065  28.386  1.00  0.00     0.074 A 
ATOM     70  C   UNL A   1      46.446  31.185  27.685  1.00  0.00     0.031 C 
ATOM     71  C   UNL A   1      44.682  32.009  29.219  1.00  0.00     0.031 A 
BRANCH  58  72
ATOM     72  C   UNL A   1      39.171  30.551  31.583  1.00  0.00    -0.014 A 
ATOM     73  C   UNL A   1      39.107  30.223  32.946  1.00  0.00     0.009 A 
ATOM     74  C   UNL A   1      38.151  31.339  31.028  1.00  0.00     0.009 A 
ATOM     75  C   UNL A   1      38.030  30.648  33.727  1.00  0.00     0.001 A 
ATOM     76  C   UNL A   1      37.090  31.788  31.817  1.00  0.00     0.001 A 
ATOM     77  C   UNL A   1      37.025  31.435  33.162  1.00  0.00     0.000 A 
ENDBRANCH  58  72
BRANCH  59  78
ATOM     78  C   UNL A   1      46.532  27.528  25.598  1.00  0.00    -0.014 A 
ATOM     79  C   UNL A   1      46.531  27.949  24.260  1.00  0.00     0.009 A 
ATOM     80  C   UNL A   1      47.565  26.687  26.042  1.00  0.00     0.009 A 
ATOM     81  C   UNL A   1      47.527  27.518  23.381  1.00  0.00     0.001 A 
ATOM     82  C   UNL A   1      48.578  26.284  25.170  1.00  0.00     0.001 A 
ATOM     83  C   UNL A   1      48.553  26.692  23.838  1.00  0.00     0.000 A 
ENDBRANCH  59  78
BRANCH  71  84
ATOM     84  C   UNL A   1      45.512  33.242  29.457  1.00  0.00    -0.014 A 
ATOM     85  C   UNL A   1      46.592  33.241  30.355  1.00  0.00     0.009 A 
ATOM     86  C   UNL A   1      45.237  34.413  28.732  1.00  0.00     0.009 A 
ATOM     87  C   UNL A   1      47.355  34.396  30.544  1.00  0.00     0.001 A 
ATOM     88  C   UNL A   1      46.021  35.556  28.900  1.00  0.00     0.001 A 
ATOM     89  C   UNL A   1      47.073  35.549  29.812  1.00  0.00     0.000 A 
ENDBRANCH  71  84
ENDBRANCH  45  46
ENDBRANCH  38  40
ENDBRANCH  37  38
ENDBRANCH  36  37
ENDBRANCH  35  36
ENDBRANCH  34  35
ENDBRANCH  33  34
ENDBRANCH   1  33
TORSDOF 19
ENDMDL
MODEL 3
REMARK VINA RESULT:     -10.7      2.573      5.391
REMARK SMILES C[C@H](NC(=O)c1cccc(NC(=O)c2ccccc2C(=O)OCCOCCOC(=O)c2ccc(-c3c4nc(c(-c5ccccc5)c5ccc([nH]5)c(-c5ccccc5)c5nc(c(-c6ccccc6)c6ccc3[nH]6)C=C5)C=C4)cc2)c1)c1ccccc1
REMARK SMILES IDX 23 1 22 2 20 3 21 4 19 5 14 6 15 7 16 8 18 9 17 10 12 11
REMARK SMILES IDX 11 12 13 14 10 15 6 16 7 17 79 18 8 19 9 20 4 21 3 22 5 24
REMARK SMILES IDX 2 25 1 26 80 27 81 28 85 29 82 30 84 31 83 32 24 33 25 34
REMARK SMILES IDX 26 35 27 36 28 37 29 38 30 39 31 40 32 41 78 42 33 43 77 44
REMARK SMILES IDX 34 45 35 46 36 47 71 48 37 49 76 50 70 51 72 52 38 53 75 54
REMARK SMILES IDX 69 55 68 56 39 58 61 59 46 60 60 61 47 62 50 63 59 64 73 65
REMARK SMILES IDX 48 66 49 67 58 69 74 70 51 71 40 72 41 73 45 74 42 75 44 76
REMARK SMILES IDX 43 77 62 78 63 79 67 80 64 81 66 82 65 83 52 84 53 85 57 86
REMARK SMILES IDX 54 87 56 88 55 89
REMARK H PARENT 11 13 3 23 72 57 50 68
REMARK Flexibility Score: inf
ROOT
ATOM      1  C   UNL A   1      32.638  24.789  22.752  1.00  0.00     0.261 C 
ENDROOT
BRANCH   1   2
ATOM      2  O   UNL A   1      32.261  25.860  21.905  1.00  0.00    -0.460 OA
BRANCH   2   3
ATOM      3  C   UNL A   1      32.894  27.008  22.202  1.00  0.00     0.339 C 
ATOM      4  O   UNL A   1      34.061  27.297  21.968  1.00  0.00    -0.246 OA
BRANCH   3   5
ATOM      5  C   UNL A   1      31.947  27.938  22.813  1.00  0.00     0.072 A 
ATOM      6  C   UNL A   1      32.068  28.443  24.117  1.00  0.00     0.054 A 
ATOM      7  C   UNL A   1      31.029  29.262  24.598  1.00  0.00     0.015 A 
ATOM      8  C   UNL A   1      29.943  29.612  23.786  1.00  0.00     0.001 A 
ATOM      9  C   UNL A   1      30.871  28.315  21.989  1.00  0.00     0.016 A 
ATOM     10  C   UNL A   1      29.871  29.150  22.476  1.00  0.00     0.001 A 
BRANCH   6  11
ATOM     11  C   UNL A   1      33.129  28.103  25.104  1.00  0.00     0.256 C 
ATOM     12  N   UNL A   1      33.198  26.967  25.887  1.00  0.00    -0.322 N 
ATOM     13  H   UNL A   1      33.964  26.981  26.507  1.00  0.00     0.170 HD
ATOM     14  O   UNL A   1      34.040  28.929  25.234  1.00  0.00    -0.269 OA
BRANCH  12  15
ATOM     15  C   UNL A   1      32.431  25.794  26.006  1.00  0.00     0.042 A 
ATOM     16  C   UNL A   1      32.397  23.464  26.751  1.00  0.00     0.041 A 
ATOM     17  C   UNL A   1      30.997  23.505  26.725  1.00  0.00     0.014 A 
ATOM     18  C   UNL A   1      33.109  24.592  26.315  1.00  0.00     0.040 A 
ATOM     19  C   UNL A   1      30.329  24.641  26.267  1.00  0.00     0.003 A 
ATOM     20  C   UNL A   1      31.046  25.775  25.890  1.00  0.00     0.026 A 
BRANCH  16  21
ATOM     21  C   UNL A   1      33.007  22.155  27.111  1.00  0.00     0.251 C 
ATOM     22  N   UNL A   1      32.971  21.000  26.366  1.00  0.00    -0.346 N 
ATOM     23  H   UNL A   1      33.623  20.342  26.701  1.00  0.00     0.164 HD
ATOM     24  O   UNL A   1      33.687  22.135  28.141  1.00  0.00    -0.269 OA
BRANCH  22  25
ATOM     25  C   UNL A   1      32.230  20.469  25.205  1.00  0.00     0.109 C 
ATOM     26  C   UNL A   1      32.269  21.403  24.029  1.00  0.00     0.036 C 
BRANCH  25  27
ATOM     27  C   UNL A   1      32.658  19.044  24.796  1.00  0.00    -0.026 A 
ATOM     28  C   UNL A   1      32.913  18.058  25.762  1.00  0.00     0.006 A 
ATOM     29  C   UNL A   1      32.718  18.632  23.442  1.00  0.00     0.006 A 
ATOM     30  C   UNL A   1      33.246  16.746  25.390  1.00  0.00     0.000 A 
ATOM     31  C   UNL A   1      33.031  17.321  23.072  1.00  0.00     0.000 A 
ATOM     32  C   UNL A   1      33.303  16.378  24.049  1.00  0.00     0.000 A 
ENDBRANCH  25  27
ENDBRANCH  22  25
ENDBRANCH  16  21
ENDBRANCH  12  15
ENDBRANCH   6  11
ENDBRANCH   3   5
ENDBRANCH   2   3
ENDBRANCH   1   2
BRANCH   1  33
ATOM     33  C   UNL A   1      33.868  23.947  22.402  1.00  0.00     0.202 C 
BRANCH  33  34
ATOM     34  O   UNL A   1      35.064  24.075  23.142  1.00  0.00    -0.374 OA
BRANCH  34  35
ATOM     35  C   UNL A   1      35.561  22.944  23.839  1.00  0.00     0.202 C 
BRANCH  35  36
ATOM     36  C   UNL A   1      36.232  23.125  25.210  1.00  0.00     0.261 C 
BRANCH  36  37
ATOM     37  O   UNL A   1      37.448  23.898  25.232  1.00  0.00    -0.460 OA
BRANCH  37  38
ATOM     38  C   UNL A   1      38.462  23.344  25.943  1.00  0.00     0.338 C 
ATOM     39  O   UNL A   1      38.819  22.176  25.929  1.00  0.00    -0.246 OA
BRANCH  38  40
ATOM     40  C   UNL A   1      39.200  24.361  26.714  1.00  0.00     0.060 A 
ATOM     41  C   UNL A   1      38.891  24.526  28.071  1.00  0.00     0.016 A 
ATOM     42  C   UNL A   1      40.032  25.273  26.065  1.00  0.00     0.016 A 
ATOM     43  C   UNL A   1      39.381  25.630  28.774  1.00  0.00     0.010 A 
ATOM     44  C   UNL A   1      40.511  26.385  26.768  1.00  0.00     0.010 A 
ATOM     45  C   UNL A   1      40.157  26.594  28.114  1.00  0.00    -0.014 A 
BRANCH  45  46
ATOM     46  C   UNL A   1      40.484  27.884  28.777  1.00  0.00     0.031 A 
ATOM     47  C   UNL A   1      41.825  28.056  29.442  1.00  0.00     0.074 A 
ATOM     48  C   UNL A   1      39.596  28.895  28.802  1.00  0.00     0.049 A 
ATOM     49  N   UNL A   1      42.278  29.061  30.150  1.00  0.00    -0.248 NA
ATOM     50  C   UNL A   1      42.781  26.948  29.292  1.00  0.00     0.031 C 
ATOM     51  C   UNL A   1      38.282  28.884  28.164  1.00  0.00     0.029 A 
ATOM     52  N   UNL A   1      39.669  30.127  29.406  1.00  0.00    -0.354 N 
ATOM     53  C   UNL A   1      43.560  28.698  30.546  1.00  0.00     0.074 A 
ATOM     54  C   UNL A   1      43.804  27.374  30.017  1.00  0.00     0.031 C 
ATOM     55  C   UNL A   1      37.662  30.048  28.426  1.00  0.00     0.029 A 
ATOM     56  C   UNL A   1      38.519  30.867  29.282  1.00  0.00     0.049 A 
ATOM     57  H   UNL A   1      40.469  30.448  29.883  1.00  0.00     0.167 HD
ATOM     58  C   UNL A   1      44.454  29.401  31.283  1.00  0.00     0.031 A 
ATOM     59  C   UNL A   1      38.179  32.055  29.822  1.00  0.00     0.031 A 
ATOM     60  C   UNL A   1      44.213  30.715  31.821  1.00  0.00     0.049 A 
ATOM     61  C   UNL A   1      39.160  32.783  30.703  1.00  0.00     0.074 A 
ATOM     62  C   UNL A   1      45.073  31.515  32.555  1.00  0.00     0.029 A 
ATOM     63  N   UNL A   1      43.025  31.416  31.694  1.00  0.00    -0.354 N 
ATOM     64  N   UNL A   1      40.379  32.443  31.044  1.00  0.00    -0.248 NA
ATOM     65  C   UNL A   1      38.717  34.068  31.267  1.00  0.00     0.031 C 
ATOM     66  C   UNL A   1      44.381  32.672  32.930  1.00  0.00     0.029 A 
ATOM     67  C   UNL A   1      43.117  32.624  32.366  1.00  0.00     0.049 A 
ATOM     68  H   UNL A   1      42.234  31.102  31.201  1.00  0.00     0.167 HD
ATOM     69  C   UNL A   1      40.858  33.482  31.835  1.00  0.00     0.074 A 
ATOM     70  C   UNL A   1      39.804  34.471  31.910  1.00  0.00     0.031 C 
ATOM     71  C   UNL A   1      42.065  33.606  32.439  1.00  0.00     0.031 A 
BRANCH  58  72
ATOM     72  C   UNL A   1      45.774  28.746  31.591  1.00  0.00    -0.014 A 
ATOM     73  C   UNL A   1      45.972  28.013  32.772  1.00  0.00     0.009 A 
ATOM     74  C   UNL A   1      46.819  28.819  30.657  1.00  0.00     0.009 A 
ATOM     75  C   UNL A   1      47.199  27.395  33.024  1.00  0.00     0.001 A 
ATOM     76  C   UNL A   1      48.035  28.174  30.896  1.00  0.00     0.001 A 
ATOM     77  C   UNL A   1      48.226  27.471  32.083  1.00  0.00     0.000 A 
ENDBRANCH  58  72
BRANCH  59  78
ATOM     78  C   UNL A   1      36.829  32.623  29.570  1.00  0.00    -0.014 A 
ATOM     79  C   UNL A   1      35.812  32.511  30.530  1.00  0.00     0.009 A 
ATOM     80  C   UNL A   1      36.545  33.266  28.354  1.00  0.00     0.009 A 
ATOM     81  C   UNL A   1      34.533  33.009  30.268  1.00  0.00     0.001 A 
ATOM     82  C   UNL A   1      35.275  33.792  28.108  1.00  0.00     0.001 A 
ATOM     83  C   UNL A   1      34.268  33.655  29.061  1.00  0.00     0.000 A 
ENDBRANCH  59  78
BRANCH  71  84
ATOM     84  C   UNL A   1      42.336  34.874  33.202  1.00  0.00    -0.014 A 
ATOM     85  C   UNL A   1      43.064  35.934  32.635  1.00  0.00     0.009 A 
ATOM     86  C   UNL A   1      41.811  35.031  34.495  1.00  0.00     0.009 A 
ATOM     87  C   UNL A   1      43.286  37.107  33.361  1.00  0.00     0.001 A 
ATOM     88  C   UNL A   1      42.008  36.216  35.206  1.00  0.00     0.001 A 
ATOM     89  C   UNL A   1      42.753  37.249  34.641  1.00  0.00     0.000 A 
ENDBRANCH  71  84
ENDBRANCH  45  46
ENDBRANCH  38  40
ENDBRANCH  37  38
ENDBRANCH  36  37
ENDBRANCH  35  36
ENDBRANCH  34  35
ENDBRANCH  33  34
ENDBRANCH   1  33
TORSDOF 19
ENDMDL
