MODEL 1
REMARK VINA RESULT:      -9.9      0.000      0.000
REMARK SMILES O=C(OCCOCCOC(=O)[C@@H]1CCC[N@@H+](Cc2nccn2C(F)F)C1)c1ccc(-c2c3nc(c(-c4ccccc4)c4ccc([nH]4)c(-c4ccccc4)c4nc(c(-c5ccccc5)c5ccc2[nH]5)C=C4)C=C3)cc1
REMARK SMILES IDX 7 1 6 2 5 3 4 4 3 5 2 6 1 7 27 8 28 9 74 10 29 11 73 12
REMARK SMILES IDX 30 13 31 14 32 15 67 16 33 17 72 18 66 19 68 20 34 21 71 22
REMARK SMILES IDX 65 23 64 24 35 26 57 27 42 28 56 29 43 30 46 31 55 32 69 33
REMARK SMILES IDX 44 34 45 35 54 37 70 38 47 39 36 40 37 41 41 42 38 43 40 44
REMARK SMILES IDX 39 45 58 46 59 47 63 48 60 49 62 50 61 51 48 52 49 53 53 54
REMARK SMILES IDX 50 55 52 56 51 57 8 58 9 59 10 60 11 61 12 62 13 63 26 64
REMARK SMILES IDX 14 65 16 66 15 67 17 69 18 70 19 71 22 72 20 73 21 74 23 75
REMARK SMILES IDX 24 76 25 77
REMARK H PARENT 68 25 46 36 16 68
REMARK Flexibility Score: inf
ROOT
ATOM      1  C   UNL A   1      33.987  33.475  28.983  1.00  0.00     0.202 C 
ENDROOT
BRANCH   1   2
ATOM      2  O   UNL A   1      34.254  34.863  28.755  1.00  0.00    -0.374 OA
BRANCH   2   3
ATOM      3  C   UNL A   1      33.133  35.743  28.767  1.00  0.00     0.202 C 
BRANCH   3   4
ATOM      4  C   UNL A   1      32.934  36.534  30.053  1.00  0.00     0.261 C 
BRANCH   4   5
ATOM      5  O   UNL A   1      32.264  35.831  31.119  1.00  0.00    -0.460 OA
BRANCH   5   6
ATOM      6  C   UNL A   1      32.702  36.015  32.388  1.00  0.00     0.338 C 
ATOM      7  O   UNL A   1      32.092  36.642  33.231  1.00  0.00    -0.246 OA
BRANCH   6   8
ATOM      8  C   UNL A   1      33.891  35.179  32.691  1.00  0.00     0.060 A 
ATOM      9  C   UNL A   1      35.153  35.751  32.858  1.00  0.00     0.016 A 
ATOM     10  C   UNL A   1      33.742  33.786  32.741  1.00  0.00     0.016 A 
ATOM     11  C   UNL A   1      36.269  34.953  32.944  1.00  0.00     0.010 A 
ATOM     12  C   UNL A   1      34.869  32.975  32.832  1.00  0.00     0.010 A 
ATOM     13  C   UNL A   1      36.132  33.568  32.861  1.00  0.00    -0.014 A 
BRANCH  13  14
ATOM     14  C   UNL A   1      37.385  32.844  32.699  1.00  0.00     0.031 A 
ATOM     15  C   UNL A   1      38.343  32.882  33.836  1.00  0.00     0.074 A 
ATOM     16  C   UNL A   1      37.720  32.247  31.543  1.00  0.00     0.049 A 
ATOM     17  N   UNL A   1      39.534  33.390  33.862  1.00  0.00    -0.248 NA
ATOM     18  C   UNL A   1      37.887  32.335  35.119  1.00  0.00     0.031 C 
ATOM     19  C   UNL A   1      36.857  31.913  30.408  1.00  0.00     0.029 A 
ATOM     20  N   UNL A   1      38.926  31.724  31.189  1.00  0.00    -0.354 N 
ATOM     21  C   UNL A   1      40.043  33.106  35.127  1.00  0.00     0.074 A 
ATOM     22  C   UNL A   1      38.962  32.524  35.884  1.00  0.00     0.031 C 
ATOM     23  C   UNL A   1      37.504  31.035  29.611  1.00  0.00     0.029 A 
ATOM     24  C   UNL A   1      38.862  30.875  30.103  1.00  0.00     0.049 A 
ATOM     25  H   UNL A   1      39.764  31.934  31.662  1.00  0.00     0.167 HD
ATOM     26  C   UNL A   1      41.364  33.221  35.435  1.00  0.00     0.031 A 
ATOM     27  C   UNL A   1      39.831  30.029  29.688  1.00  0.00     0.031 A 
ATOM     28  C   UNL A   1      42.089  34.045  34.512  1.00  0.00     0.049 A 
ATOM     29  C   UNL A   1      41.126  30.500  30.225  1.00  0.00     0.074 A 
ATOM     30  C   UNL A   1      42.054  35.375  34.148  1.00  0.00     0.029 A 
ATOM     31  N   UNL A   1      42.880  33.423  33.580  1.00  0.00    -0.354 N 
ATOM     32  N   UNL A   1      41.726  31.584  29.825  1.00  0.00    -0.248 NA
ATOM     33  C   UNL A   1      41.603  29.956  31.487  1.00  0.00     0.031 C 
ATOM     34  C   UNL A   1      42.440  35.398  32.776  1.00  0.00     0.029 A 
ATOM     35  C   UNL A   1      42.687  34.078  32.393  1.00  0.00     0.049 A 
ATOM     36  H   UNL A   1      43.472  32.652  33.734  1.00  0.00     0.167 HD
ATOM     37  C   UNL A   1      42.361  32.080  30.953  1.00  0.00     0.074 A 
ATOM     38  C   UNL A   1      42.359  30.975  31.904  1.00  0.00     0.031 C 
ATOM     39  C   UNL A   1      42.582  33.420  31.109  1.00  0.00     0.031 A 
BRANCH  26  40
ATOM     40  C   UNL A   1      42.067  32.315  36.410  1.00  0.00    -0.014 A 
ATOM     41  C   UNL A   1      42.649  32.864  37.567  1.00  0.00     0.009 A 
ATOM     42  C   UNL A   1      42.414  30.988  36.089  1.00  0.00     0.009 A 
ATOM     43  C   UNL A   1      43.566  32.136  38.335  1.00  0.00     0.001 A 
ATOM     44  C   UNL A   1      43.297  30.245  36.878  1.00  0.00     0.001 A 
ATOM     45  C   UNL A   1      43.892  30.828  37.987  1.00  0.00     0.000 A 
ENDBRANCH  26  40
BRANCH  27  46
ATOM     46  C   UNL A   1      39.631  28.690  29.105  1.00  0.00    -0.014 A 
ATOM     47  C   UNL A   1      40.156  28.362  27.849  1.00  0.00     0.009 A 
ATOM     48  C   UNL A   1      39.114  27.646  29.898  1.00  0.00     0.009 A 
ATOM     49  C   UNL A   1      40.178  27.033  27.411  1.00  0.00     0.001 A 
ATOM     50  C   UNL A   1      39.128  26.321  29.458  1.00  0.00     0.001 A 
ATOM     51  C   UNL A   1      39.673  26.013  28.218  1.00  0.00     0.000 A 
ENDBRANCH  27  46
BRANCH  39  52
ATOM     52  C   UNL A   1      42.365  34.316  29.918  1.00  0.00    -0.014 A 
ATOM     53  C   UNL A   1      41.086  34.757  29.537  1.00  0.00     0.009 A 
ATOM     54  C   UNL A   1      43.482  34.871  29.274  1.00  0.00     0.009 A 
ATOM     55  C   UNL A   1      40.927  35.703  28.520  1.00  0.00     0.001 A 
ATOM     56  C   UNL A   1      43.324  35.831  28.271  1.00  0.00     0.001 A 
ATOM     57  C   UNL A   1      42.047  36.243  27.892  1.00  0.00     0.000 A 
ENDBRANCH  39  52
ENDBRANCH  13  14
ENDBRANCH   6   8
ENDBRANCH   5   6
ENDBRANCH   4   5
ENDBRANCH   3   4
ENDBRANCH   2   3
ENDBRANCH   1   2
BRANCH   1  58
ATOM     58  C   UNL A   1      34.312  32.418  27.907  1.00  0.00     0.261 C 
BRANCH  58  59
ATOM     59  O   UNL A   1      33.923  31.080  28.245  1.00  0.00    -0.463 OA
BRANCH  59  60
ATOM     60  C   UNL A   1      34.324  30.142  27.345  1.00  0.00     0.314 C 
ATOM     61  O   UNL A   1      35.331  29.454  27.485  1.00  0.00    -0.252 OA
BRANCH  60  62
ATOM     62  C   UNL A   1      33.282  29.886  26.260  1.00  0.00     0.154 C 
ATOM     63  C   UNL A   1      31.935  29.585  26.914  1.00  0.00     0.027 C 
ATOM     64  C   UNL A   1      33.626  28.818  25.220  1.00  0.00     0.278 C 
ATOM     65  C   UNL A   1      31.996  28.203  27.547  1.00  0.00     0.062 C 
ATOM     66  N   UNL A   1      33.496  27.424  25.679  1.00  0.00    -0.328 N 
ATOM     67  C   UNL A   1      32.287  27.162  26.474  1.00  0.00     0.262 C 
ATOM     68  H   UNL A   1      34.263  27.252  26.330  1.00  0.00     0.348 HD
BRANCH  66  69
ATOM     69  C   UNL A   1      33.630  26.497  24.524  1.00  0.00     0.339 C 
BRANCH  69  70
ATOM     70  C   UNL A   1      32.362  25.755  24.166  1.00  0.00     0.168 A 
ATOM     71  N   UNL A   1      31.339  26.269  23.502  1.00  0.00    -0.236 NA
ATOM     72  N   UNL A   1      32.048  24.485  24.606  1.00  0.00    -0.273 N 
ATOM     73  C   UNL A   1      30.326  25.352  23.583  1.00  0.00     0.131 A 
ATOM     74  C   UNL A   1      30.738  24.240  24.273  1.00  0.00     0.113 A 
BRANCH  72  75
ATOM     75  C   UNL A   1      32.870  23.588  25.392  1.00  0.00     0.450 C 
ATOM     76  F   UNL A   1      32.715  23.834  26.720  1.00  0.00    -0.185 F 
ATOM     77  F   UNL A   1      32.505  22.296  25.189  1.00  0.00    -0.185 F 
ENDBRANCH  72  75
ENDBRANCH  69  70
ENDBRANCH  66  69
ENDBRANCH  60  62
ENDBRANCH  59  60
ENDBRANCH  58  59
ENDBRANCH   1  58
TORSDOF 17
ENDMDL
MODEL 2
REMARK VINA RESULT:      -9.6      3.936      5.994
REMARK SMILES O=C(OCCOCCOC(=O)[C@@H]1CCC[N@@H+](Cc2nccn2C(F)F)C1)c1ccc(-c2c3nc(c(-c4ccccc4)c4ccc([nH]4)c(-c4ccccc4)c4nc(c(-c5ccccc5)c5ccc2[nH]5)C=C4)C=C3)cc1
REMARK SMILES IDX 7 1 6 2 5 3 4 4 3 5 2 6 1 7 27 8 28 9 74 10 29 11 73 12
REMARK SMILES IDX 30 13 31 14 32 15 67 16 33 17 72 18 66 19 68 20 34 21 71 22
REMARK SMILES IDX 65 23 64 24 35 26 57 27 42 28 56 29 43 30 46 31 55 32 69 33
REMARK SMILES IDX 44 34 45 35 54 37 70 38 47 39 36 40 37 41 41 42 38 43 40 44
REMARK SMILES IDX 39 45 58 46 59 47 63 48 60 49 62 50 61 51 48 52 49 53 53 54
REMARK SMILES IDX 50 55 52 56 51 57 8 58 9 59 10 60 11 61 12 62 13 63 26 64
REMARK SMILES IDX 14 65 16 66 15 67 17 69 18 70 19 71 22 72 20 73 21 74 23 75
REMARK SMILES IDX 24 76 25 77
REMARK H PARENT 68 25 46 36 16 68
REMARK Flexibility Score: inf
ROOT
ATOM      1  C   UNL A   1      34.007  28.287  26.582  1.00  0.00     0.202 C 
ENDROOT
BRANCH   1   2
ATOM      2  O   UNL A   1      33.793  29.676  26.302  1.00  0.00    -0.374 OA
BRANCH   2   3
ATOM      3  C   UNL A   1      33.070  30.423  27.276  1.00  0.00     0.202 C 
BRANCH   3   4
ATOM      4  C   UNL A   1      33.574  31.838  27.526  1.00  0.00     0.261 C 
BRANCH   4   5
ATOM      5  O   UNL A   1      35.003  31.973  27.664  1.00  0.00    -0.460 OA
BRANCH   5   6
ATOM      6  C   UNL A   1      35.552  31.799  28.891  1.00  0.00     0.338 C 
ATOM      7  O   UNL A   1      35.019  32.143  29.927  1.00  0.00    -0.246 OA
BRANCH   6   8
ATOM      8  C   UNL A   1      36.766  30.945  28.839  1.00  0.00     0.060 A 
ATOM      9  C   UNL A   1      36.693  29.609  28.441  1.00  0.00     0.016 A 
ATOM     10  C   UNL A   1      37.988  31.483  29.265  1.00  0.00     0.016 A 
ATOM     11  C   UNL A   1      37.784  28.784  28.583  1.00  0.00     0.010 A 
ATOM     12  C   UNL A   1      39.095  30.652  29.407  1.00  0.00     0.010 A 
ATOM     13  C   UNL A   1      38.962  29.291  29.131  1.00  0.00    -0.014 A 
BRANCH  13  14
ATOM     14  C   UNL A   1      39.951  28.280  29.477  1.00  0.00     0.031 A 
ATOM     15  C   UNL A   1      40.355  28.186  30.906  1.00  0.00     0.074 A 
ATOM     16  C   UNL A   1      40.557  27.525  28.545  1.00  0.00     0.049 A 
ATOM     17  N   UNL A   1      41.524  28.399  31.422  1.00  0.00    -0.248 NA
ATOM     18  C   UNL A   1      39.306  27.873  31.882  1.00  0.00     0.031 C 
ATOM     19  C   UNL A   1      40.163  27.310  27.151  1.00  0.00     0.029 A 
ATOM     20  N   UNL A   1      41.633  26.705  28.701  1.00  0.00    -0.354 N 
ATOM     21  C   UNL A   1      41.400  28.111  32.779  1.00  0.00     0.074 A 
ATOM     22  C   UNL A   1      39.999  27.867  33.021  1.00  0.00     0.031 C 
ATOM     23  C   UNL A   1      40.831  26.240  26.669  1.00  0.00     0.029 A 
ATOM     24  C   UNL A   1      41.795  25.806  27.666  1.00  0.00     0.049 A 
ATOM     25  H   UNL A   1      42.237  26.750  29.477  1.00  0.00     0.167 HD
ATOM     26  C   UNL A   1      42.472  27.936  33.599  1.00  0.00     0.031 A 
ATOM     27  C   UNL A   1      42.604  24.723  27.664  1.00  0.00     0.031 A 
ATOM     28  C   UNL A   1      43.685  28.486  33.065  1.00  0.00     0.049 A 
ATOM     29  C   UNL A   1      43.652  24.919  28.689  1.00  0.00     0.074 A 
ATOM     30  C   UNL A   1      44.132  29.750  32.744  1.00  0.00     0.029 A 
ATOM     31  N   UNL A   1      44.598  27.617  32.523  1.00  0.00    -0.354 N 
ATOM     32  N   UNL A   1      44.612  25.793  28.587  1.00  0.00    -0.248 NA
ATOM     33  C   UNL A   1      43.436  24.386  30.025  1.00  0.00     0.031 C 
ATOM     34  C   UNL A   1      45.022  29.565  31.648  1.00  0.00     0.029 A 
ATOM     35  C   UNL A   1      45.064  28.197  31.373  1.00  0.00     0.049 A 
ATOM     36  H   UNL A   1      44.867  26.744  32.889  1.00  0.00     0.167 HD
ATOM     37  C   UNL A   1      44.848  26.218  29.886  1.00  0.00     0.074 A 
ATOM     38  C   UNL A   1      44.192  25.229  30.733  1.00  0.00     0.031 C 
ATOM     39  C   UNL A   1      45.316  27.476  30.144  1.00  0.00     0.031 A 
BRANCH  26  40
ATOM     40  C   UNL A   1      42.479  26.976  34.758  1.00  0.00    -0.014 A 
ATOM     41  C   UNL A   1      42.722  25.611  34.522  1.00  0.00     0.009 A 
ATOM     42  C   UNL A   1      41.981  27.324  36.028  1.00  0.00     0.009 A 
ATOM     43  C   UNL A   1      42.437  24.643  35.493  1.00  0.00     0.001 A 
ATOM     44  C   UNL A   1      41.735  26.364  37.013  1.00  0.00     0.001 A 
ATOM     45  C   UNL A   1      41.940  25.021  36.736  1.00  0.00     0.000 A 
ENDBRANCH  26  40
BRANCH  27  46
ATOM     46  C   UNL A   1      42.324  23.425  27.024  1.00  0.00    -0.014 A 
ATOM     47  C   UNL A   1      43.292  22.781  26.243  1.00  0.00     0.009 A 
ATOM     48  C   UNL A   1      41.170  22.699  27.378  1.00  0.00     0.009 A 
ATOM     49  C   UNL A   1      43.115  21.450  25.846  1.00  0.00     0.001 A 
ATOM     50  C   UNL A   1      40.989  21.375  26.975  1.00  0.00     0.001 A 
ATOM     51  C   UNL A   1      41.970  20.746  26.218  1.00  0.00     0.000 A 
ENDBRANCH  27  46
BRANCH  39  52
ATOM     52  C   UNL A   1      45.823  28.295  28.985  1.00  0.00    -0.014 A 
ATOM     53  C   UNL A   1      47.194  28.434  28.711  1.00  0.00     0.009 A 
ATOM     54  C   UNL A   1      44.901  28.788  28.049  1.00  0.00     0.009 A 
ATOM     55  C   UNL A   1      47.630  29.076  27.548  1.00  0.00     0.001 A 
ATOM     56  C   UNL A   1      45.337  29.412  26.877  1.00  0.00     0.001 A 
ATOM     57  C   UNL A   1      46.701  29.559  26.630  1.00  0.00     0.000 A 
ENDBRANCH  39  52
ENDBRANCH  13  14
ENDBRANCH   6   8
ENDBRANCH   5   6
ENDBRANCH   4   5
ENDBRANCH   3   4
ENDBRANCH   2   3
ENDBRANCH   1   2
BRANCH   1  58
ATOM     58  C   UNL A   1      33.105  27.205  25.952  1.00  0.00     0.261 C 
BRANCH  58  59
ATOM     59  O   UNL A   1      32.823  27.396  24.559  1.00  0.00    -0.463 OA
BRANCH  59  60
ATOM     60  C   UNL A   1      31.522  27.688  24.291  1.00  0.00     0.314 C 
ATOM     61  O   UNL A   1      30.964  28.712  24.672  1.00  0.00    -0.252 OA
BRANCH  60  62
ATOM     62  C   UNL A   1      30.898  26.718  23.292  1.00  0.00     0.154 C 
ATOM     63  C   UNL A   1      29.680  26.052  23.928  1.00  0.00     0.027 C 
ATOM     64  C   UNL A   1      31.831  25.666  22.687  1.00  0.00     0.278 C 
ATOM     65  C   UNL A   1      30.155  25.067  24.985  1.00  0.00     0.062 C 
ATOM     66  N   UNL A   1      32.174  24.541  23.573  1.00  0.00    -0.328 N 
ATOM     67  C   UNL A   1      31.036  24.007  24.336  1.00  0.00     0.262 C 
ATOM     68  H   UNL A   1      32.803  24.905  24.288  1.00  0.00     0.348 HD
BRANCH  66  69
ATOM     69  C   UNL A   1      32.885  23.488  22.800  1.00  0.00     0.339 C 
BRANCH  69  70
ATOM     70  C   UNL A   1      33.391  22.333  23.635  1.00  0.00     0.168 A 
ATOM     71  N   UNL A   1      32.707  21.234  23.911  1.00  0.00    -0.236 NA
ATOM     72  N   UNL A   1      34.582  22.334  24.333  1.00  0.00    -0.273 N 
ATOM     73  C   UNL A   1      33.428  20.558  24.858  1.00  0.00     0.131 A 
ATOM     74  C   UNL A   1      34.591  21.226  25.144  1.00  0.00     0.113 A 
BRANCH  72  75
ATOM     75  C   UNL A   1      35.606  23.358  24.340  1.00  0.00     0.450 C 
ATOM     76  F   UNL A   1      36.152  23.500  23.103  1.00  0.00    -0.185 F 
ATOM     77  F   UNL A   1      35.081  24.565  24.677  1.00  0.00    -0.185 F 
ENDBRANCH  72  75
ENDBRANCH  69  70
ENDBRANCH  66  69
ENDBRANCH  60  62
ENDBRANCH  59  60
ENDBRANCH  58  59
ENDBRANCH   1  58
TORSDOF 17
ENDMDL
MODEL 3
REMARK VINA RESULT:      -9.5      3.757      8.533
REMARK SMILES O=C(OCCOCCOC(=O)[C@@H]1CCC[N@@H+](Cc2nccn2C(F)F)C1)c1ccc(-c2c3nc(c(-c4ccccc4)c4ccc([nH]4)c(-c4ccccc4)c4nc(c(-c5ccccc5)c5ccc2[nH]5)C=C4)C=C3)cc1
REMARK SMILES IDX 7 1 6 2 5 3 4 4 3 5 2 6 1 7 27 8 28 9 74 10 29 11 73 12
REMARK SMILES IDX 30 13 31 14 32 15 67 16 33 17 72 18 66 19 68 20 34 21 71 22
REMARK SMILES IDX 65 23 64 24 35 26 57 27 42 28 56 29 43 30 46 31 55 32 69 33
REMARK SMILES IDX 44 34 45 35 54 37 70 38 47 39 36 40 37 41 41 42 38 43 40 44
REMARK SMILES IDX 39 45 58 46 59 47 63 48 60 49 62 50 61 51 48 52 49 53 53 54
REMARK SMILES IDX 50 55 52 56 51 57 8 58 9 59 10 60 11 61 12 62 13 63 26 64
REMARK SMILES IDX 14 65 16 66 15 67 17 69 18 70 19 71 22 72 20 73 21 74 23 75
REMARK SMILES IDX 24 76 25 77
REMARK H PARENT 68 25 46 36 16 68
REMARK Flexibility Score: inf
ROOT
ATOM      1  C   UNL A   1      36.305  23.440  25.212  1.00  0.00     0.202 C 
ENDROOT
BRANCH   1   2
ATOM      2  O   UNL A   1      37.196  22.548  24.531  1.00  0.00    -0.374 OA
BRANCH   2   3
ATOM      3  C   UNL A   1      37.714  21.457  25.287  1.00  0.00     0.202 C 
BRANCH   3   4
ATOM      4  C   UNL A   1      39.138  21.630  25.798  1.00  0.00     0.261 C 
BRANCH   4   5
ATOM      5  O   UNL A   1      39.306  22.590  26.860  1.00  0.00    -0.460 OA
BRANCH   5   6
ATOM      6  C   UNL A   1      40.560  22.847  27.305  1.00  0.00     0.338 C 
ATOM      7  O   UNL A   1      41.422  21.999  27.427  1.00  0.00    -0.246 OA
BRANCH   6   8
ATOM      8  C   UNL A   1      40.824  24.304  27.410  1.00  0.00     0.060 A 
ATOM      9  C   UNL A   1      41.463  24.844  28.527  1.00  0.00     0.016 A 
ATOM     10  C   UNL A   1      40.357  25.149  26.394  1.00  0.00     0.016 A 
ATOM     11  C   UNL A   1      41.526  26.207  28.698  1.00  0.00     0.010 A 
ATOM     12  C   UNL A   1      40.422  26.529  26.562  1.00  0.00     0.010 A 
ATOM     13  C   UNL A   1      40.944  27.045  27.748  1.00  0.00    -0.014 A 
BRANCH  13  14
ATOM     14  C   UNL A   1      40.837  28.439  28.156  1.00  0.00     0.031 A 
ATOM     15  C   UNL A   1      42.007  29.317  27.887  1.00  0.00     0.074 A 
ATOM     16  C   UNL A   1      39.775  28.904  28.836  1.00  0.00     0.049 A 
ATOM     17  N   UNL A   1      42.762  29.928  28.744  1.00  0.00    -0.248 NA
ATOM     18  C   UNL A   1      42.417  29.483  26.488  1.00  0.00     0.031 C 
ATOM     19  C   UNL A   1      38.460  28.283  29.007  1.00  0.00     0.029 A 
ATOM     20  N   UNL A   1      39.640  30.111  29.453  1.00  0.00    -0.354 N 
ATOM     21  C   UNL A   1      43.666  30.675  27.993  1.00  0.00     0.074 A 
ATOM     22  C   UNL A   1      43.458  30.305  26.614  1.00  0.00     0.031 C 
ATOM     23  C   UNL A   1      37.594  29.215  29.461  1.00  0.00     0.029 A 
ATOM     24  C   UNL A   1      38.331  30.434  29.751  1.00  0.00     0.049 A 
ATOM     25  H   UNL A   1      40.402  30.696  29.667  1.00  0.00     0.167 HD
ATOM     26  C   UNL A   1      44.427  31.669  28.526  1.00  0.00     0.031 A 
ATOM     27  C   UNL A   1      37.870  31.647  30.125  1.00  0.00     0.031 A 
ATOM     28  C   UNL A   1      44.537  31.590  29.954  1.00  0.00     0.049 A 
ATOM     29  C   UNL A   1      39.000  32.433  30.663  1.00  0.00     0.074 A 
ATOM     30  C   UNL A   1      45.079  30.691  30.848  1.00  0.00     0.029 A 
ATOM     31  N   UNL A   1      43.783  32.456  30.704  1.00  0.00    -0.354 N 
ATOM     32  N   UNL A   1      39.593  32.171  31.792  1.00  0.00    -0.248 NA
ATOM     33  C   UNL A   1      39.732  33.316  29.768  1.00  0.00     0.031 C 
ATOM     34  C   UNL A   1      44.261  30.782  32.012  1.00  0.00     0.029 A 
ATOM     35  C   UNL A   1      43.275  31.735  31.752  1.00  0.00     0.049 A 
ATOM     36  H   UNL A   1      43.634  33.412  30.524  1.00  0.00     0.167 HD
ATOM     37  C   UNL A   1      40.921  32.515  31.588  1.00  0.00     0.074 A 
ATOM     38  C   UNL A   1      40.919  33.330  30.379  1.00  0.00     0.031 C 
ATOM     39  C   UNL A   1      41.928  31.880  32.260  1.00  0.00     0.031 A 
BRANCH  26  40
ATOM     40  C   UNL A   1      44.816  32.910  27.768  1.00  0.00    -0.014 A 
ATOM     41  C   UNL A   1      43.831  33.862  27.450  1.00  0.00     0.009 A 
ATOM     42  C   UNL A   1      46.059  33.037  27.118  1.00  0.00     0.009 A 
ATOM     43  C   UNL A   1      44.066  34.860  26.496  1.00  0.00     0.001 A 
ATOM     44  C   UNL A   1      46.309  34.058  26.197  1.00  0.00     0.001 A 
ATOM     45  C   UNL A   1      45.304  34.955  25.868  1.00  0.00     0.000 A 
ENDBRANCH  26  40
BRANCH  27  46
ATOM     46  C   UNL A   1      36.569  32.238  29.760  1.00  0.00    -0.014 A 
ATOM     47  C   UNL A   1      35.689  32.712  30.741  1.00  0.00     0.009 A 
ATOM     48  C   UNL A   1      36.289  32.552  28.415  1.00  0.00     0.009 A 
ATOM     49  C   UNL A   1      34.579  33.488  30.387  1.00  0.00     0.001 A 
ATOM     50  C   UNL A   1      35.178  33.318  28.061  1.00  0.00     0.001 A 
ATOM     51  C   UNL A   1      34.328  33.797  29.050  1.00  0.00     0.000 A 
ENDBRANCH  27  46
BRANCH  39  52
ATOM     52  C   UNL A   1      41.555  30.990  33.418  1.00  0.00    -0.014 A 
ATOM     53  C   UNL A   1      41.250  29.629  33.246  1.00  0.00     0.009 A 
ATOM     54  C   UNL A   1      41.685  31.486  34.724  1.00  0.00     0.009 A 
ATOM     55  C   UNL A   1      41.051  28.795  34.350  1.00  0.00     0.001 A 
ATOM     56  C   UNL A   1      41.505  30.648  35.827  1.00  0.00     0.001 A 
ATOM     57  C   UNL A   1      41.185  29.304  35.640  1.00  0.00     0.000 A 
ENDBRANCH  39  52
ENDBRANCH  13  14
ENDBRANCH   6   8
ENDBRANCH   5   6
ENDBRANCH   4   5
ENDBRANCH   3   4
ENDBRANCH   2   3
ENDBRANCH   1   2
BRANCH   1  58
ATOM     58  C   UNL A   1      35.432  22.945  26.383  1.00  0.00     0.261 C 
BRANCH  58  59
ATOM     59  O   UNL A   1      34.156  23.592  26.494  1.00  0.00    -0.463 OA
BRANCH  59  60
ATOM     60  C   UNL A   1      33.153  22.773  26.910  1.00  0.00     0.314 C 
ATOM     61  O   UNL A   1      33.148  22.204  27.997  1.00  0.00    -0.252 OA
BRANCH  60  62
ATOM     62  C   UNL A   1      31.944  22.809  25.980  1.00  0.00     0.154 C 
ATOM     63  C   UNL A   1      31.815  21.465  25.266  1.00  0.00     0.027 C 
ATOM     64  C   UNL A   1      31.891  23.960  24.973  1.00  0.00     0.278 C 
ATOM     65  C   UNL A   1      32.931  21.347  24.238  1.00  0.00     0.062 C 
ATOM     66  N   UNL A   1      32.786  23.826  23.811  1.00  0.00    -0.328 N 
ATOM     67  C   UNL A   1      32.813  22.478  23.224  1.00  0.00     0.262 C 
ATOM     68  H   UNL A   1      33.738  23.968  24.150  1.00  0.00     0.348 HD
BRANCH  66  69
ATOM     69  C   UNL A   1      32.473  24.878  22.807  1.00  0.00     0.339 C 
BRANCH  69  70
ATOM     70  C   UNL A   1      32.702  26.293  23.291  1.00  0.00     0.168 A 
ATOM     71  N   UNL A   1      33.851  26.766  23.747  1.00  0.00    -0.236 NA
ATOM     72  N   UNL A   1      31.707  27.236  23.450  1.00  0.00    -0.273 N 
ATOM     73  C   UNL A   1      33.576  27.998  24.278  1.00  0.00     0.131 A 
ATOM     74  C   UNL A   1      32.251  28.308  24.115  1.00  0.00     0.113 A 
BRANCH  72  75
ATOM     75  C   UNL A   1      30.305  27.114  23.111  1.00  0.00     0.450 C 
ATOM     76  F   UNL A   1      29.540  27.078  24.235  1.00  0.00    -0.185 F 
ATOM     77  F   UNL A   1      29.886  28.185  22.389  1.00  0.00    -0.185 F 
ENDBRANCH  72  75
ENDBRANCH  69  70
ENDBRANCH  66  69
ENDBRANCH  60  62
ENDBRANCH  59  60
ENDBRANCH  58  59
ENDBRANCH   1  58
TORSDOF 17
ENDMDL
