MODEL 1
REMARK VINA RESULT:     -10.2      0.000      0.000
REMARK SMILES O=C(CSCC(=O)N1CCN(c2ccc(F)cc2)CC1)OCCOCCOC(=O)c1ccc(-c2c3nc(c(-c4ccccc4)c4ccc([nH]4)c(-c4ccccc4)c4nc(c(-c5ccccc5)c5ccc2[nH]5)C=C4)C=C3)cc1
REMARK SMILES IDX 23 1 22 2 21 3 2 4 1 5 3 6 4 7 5 8 6 9 7 10 8 11 9 12 20 13
REMARK SMILES IDX 10 14 19 15 11 16 12 17 13 18 18 19 14 20 17 21 15 22 16 23
REMARK SMILES IDX 24 24 25 25 26 26 27 27 28 28 29 29 30 30 31 31 77 32 32 33
REMARK SMILES IDX 76 34 33 35 34 36 35 37 70 38 36 39 75 40 69 41 71 42 37 43
REMARK SMILES IDX 74 44 68 45 67 46 38 48 60 49 45 50 59 51 46 52 49 53 58 54
REMARK SMILES IDX 72 55 47 56 48 57 57 59 73 60 50 61 39 62 40 63 44 64 41 65
REMARK SMILES IDX 43 66 42 67 61 68 62 69 66 70 63 71 65 72 64 73 51 74 52 75
REMARK SMILES IDX 56 76 53 77 55 78 54 79
REMARK H PARENT 71 47 49 58
REMARK Flexibility Score: inf
ROOT
ATOM      1  C   UNL A   1      36.133  21.437  25.731  1.00  0.00     0.202 C 
ENDROOT
BRANCH   1   2
ATOM      2  C   UNL A   1      35.128  20.609  24.934  1.00  0.00     0.261 C 
BRANCH   2   3
ATOM      3  O   UNL A   1      33.754  20.918  25.199  1.00  0.00    -0.463 OA
BRANCH   3   4
ATOM      4  C   UNL A   1      32.718  20.264  24.623  1.00  0.00     0.315 C 
ATOM      5  O   UNL A   1      32.157  19.352  25.226  1.00  0.00    -0.251 OA
BRANCH   4   6
ATOM      6  C   UNL A   1      32.322  20.615  23.215  1.00  0.00     0.192 C 
BRANCH   6   7
ATOM      7  S   UNL A   1      32.542  22.370  22.813  1.00  0.00    -0.140 SA
BRANCH   7   8
ATOM      8  C   UNL A   1      31.826  23.090  24.281  1.00  0.00     0.170 C 
BRANCH   8   9
ATOM      9  C   UNL A   1      32.437  24.367  24.833  1.00  0.00     0.232 C 
ATOM     10  O   UNL A   1      33.669  24.404  24.953  1.00  0.00    -0.274 OA
ATOM     11  N   UNL A   1      31.701  25.529  24.965  1.00  0.00    -0.338 N 
ATOM     12  C   UNL A   1      32.312  26.758  24.452  1.00  0.00     0.141 C 
ATOM     13  C   UNL A   1      30.297  25.733  25.364  1.00  0.00     0.141 C 
ATOM     14  C   UNL A   1      31.521  27.237  23.211  1.00  0.00     0.138 C 
ATOM     15  C   UNL A   1      29.443  26.192  24.178  1.00  0.00     0.138 C 
ATOM     16  N   UNL A   1      30.086  27.339  23.530  1.00  0.00    -0.368 N 
BRANCH  16  17
ATOM     17  C   UNL A   1      29.422  28.532  23.373  1.00  0.00     0.037 A 
ATOM     18  C   UNL A   1      28.130  28.585  22.832  1.00  0.00     0.029 A 
ATOM     19  C   UNL A   1      30.032  29.733  23.758  1.00  0.00     0.029 A 
ATOM     20  C   UNL A   1      27.462  29.802  22.686  1.00  0.00     0.041 A 
ATOM     21  C   UNL A   1      29.379  30.956  23.595  1.00  0.00     0.041 A 
ATOM     22  C   UNL A   1      28.098  30.978  23.065  1.00  0.00     0.123 A 
ATOM     23  F   UNL A   1      27.464  32.147  22.915  1.00  0.00    -0.207 F 
ENDBRANCH  16  17
ENDBRANCH   8   9
ENDBRANCH   7   8
ENDBRANCH   6   7
ENDBRANCH   4   6
ENDBRANCH   3   4
ENDBRANCH   2   3
ENDBRANCH   1   2
BRANCH   1  24
ATOM     24  O   UNL A   1      37.313  21.903  25.087  1.00  0.00    -0.374 OA
BRANCH  24  25
ATOM     25  C   UNL A   1      38.563  21.657  25.742  1.00  0.00     0.202 C 
BRANCH  25  26
ATOM     26  C   UNL A   1      39.236  20.309  25.464  1.00  0.00     0.261 C 
BRANCH  26  27
ATOM     27  O   UNL A   1      40.152  19.952  26.511  1.00  0.00    -0.460 OA
BRANCH  27  28
ATOM     28  C   UNL A   1      41.456  19.945  26.150  1.00  0.00     0.338 C 
ATOM     29  O   UNL A   1      42.014  19.157  25.400  1.00  0.00    -0.246 OA
BRANCH  28  30
ATOM     30  C   UNL A   1      42.080  21.206  26.594  1.00  0.00     0.060 A 
ATOM     31  C   UNL A   1      42.258  21.393  27.974  1.00  0.00     0.016 A 
ATOM     32  C   UNL A   1      42.482  22.184  25.684  1.00  0.00     0.016 A 
ATOM     33  C   UNL A   1      42.766  22.592  28.453  1.00  0.00     0.010 A 
ATOM     34  C   UNL A   1      42.977  23.395  26.165  1.00  0.00     0.010 A 
ATOM     35  C   UNL A   1      43.066  23.619  27.551  1.00  0.00    -0.014 A 
BRANCH  35  36
ATOM     36  C   UNL A   1      43.240  24.994  28.064  1.00  0.00     0.031 A 
ATOM     37  C   UNL A   1      44.636  25.456  28.382  1.00  0.00     0.074 A 
ATOM     38  C   UNL A   1      42.191  25.820  28.200  1.00  0.00     0.049 A 
ATOM     39  N   UNL A   1      45.042  26.603  28.859  1.00  0.00    -0.248 NA
ATOM     40  C   UNL A   1      45.719  24.488  28.134  1.00  0.00     0.031 C 
ATOM     41  C   UNL A   1      40.806  25.493  27.865  1.00  0.00     0.029 A 
ATOM     42  N   UNL A   1      42.136  27.110  28.654  1.00  0.00    -0.354 N 
ATOM     43  C   UNL A   1      46.422  26.489  28.981  1.00  0.00     0.074 A 
ATOM     44  C   UNL A   1      46.779  25.153  28.565  1.00  0.00     0.031 C 
ATOM     45  C   UNL A   1      40.034  26.562  28.128  1.00  0.00     0.029 A 
ATOM     46  C   UNL A   1      40.866  27.628  28.680  1.00  0.00     0.049 A 
ATOM     47  H   UNL A   1      42.932  27.618  28.935  1.00  0.00     0.167 HD
ATOM     48  C   UNL A   1      47.311  27.419  29.398  1.00  0.00     0.031 A 
ATOM     49  C   UNL A   1      40.431  28.824  29.118  1.00  0.00     0.031 A 
ATOM     50  C   UNL A   1      46.943  28.741  29.826  1.00  0.00     0.049 A 
ATOM     51  C   UNL A   1      41.431  29.811  29.658  1.00  0.00     0.074 A 
ATOM     52  C   UNL A   1      47.762  29.768  30.257  1.00  0.00     0.029 A 
ATOM     53  N   UNL A   1      45.639  29.212  29.885  1.00  0.00    -0.354 N 
ATOM     54  N   UNL A   1      42.736  29.705  29.748  1.00  0.00    -0.248 NA
ATOM     55  C   UNL A   1      40.897  31.088  30.149  1.00  0.00     0.031 C 
ATOM     56  C   UNL A   1      46.948  30.840  30.640  1.00  0.00     0.029 A 
ATOM     57  C   UNL A   1      45.629  30.506  30.376  1.00  0.00     0.049 A 
ATOM     58  H   UNL A   1      44.841  28.702  29.617  1.00  0.00     0.167 HD
ATOM     59  C   UNL A   1      43.181  30.915  30.269  1.00  0.00     0.074 A 
ATOM     60  C   UNL A   1      42.007  31.741  30.460  1.00  0.00     0.031 C 
ATOM     61  C   UNL A   1      44.446  31.309  30.560  1.00  0.00     0.031 A 
BRANCH  48  62
ATOM     62  C   UNL A   1      48.759  27.013  29.455  1.00  0.00    -0.014 A 
ATOM     63  C   UNL A   1      49.314  26.425  30.605  1.00  0.00     0.009 A 
ATOM     64  C   UNL A   1      49.580  27.214  28.335  1.00  0.00     0.009 A 
ATOM     65  C   UNL A   1      50.669  26.088  30.642  1.00  0.00     0.001 A 
ATOM     66  C   UNL A   1      50.925  26.845  28.364  1.00  0.00     0.001 A 
ATOM     67  C   UNL A   1      51.472  26.292  29.521  1.00  0.00     0.000 A 
ENDBRANCH  48  62
BRANCH  49  68
ATOM     68  C   UNL A   1      38.983  29.155  29.073  1.00  0.00    -0.014 A 
ATOM     69  C   UNL A   1      38.399  29.652  27.899  1.00  0.00     0.009 A 
ATOM     70  C   UNL A   1      38.177  28.988  30.212  1.00  0.00     0.009 A 
ATOM     71  C   UNL A   1      37.047  30.004  27.873  1.00  0.00     0.001 A 
ATOM     72  C   UNL A   1      36.819  29.311  30.175  1.00  0.00     0.001 A 
ATOM     73  C   UNL A   1      36.257  29.828  29.009  1.00  0.00     0.000 A 
ENDBRANCH  49  68
BRANCH  61  74
ATOM     74  C   UNL A   1      44.626  32.714  31.068  1.00  0.00    -0.014 A 
ATOM     75  C   UNL A   1      44.544  33.018  32.435  1.00  0.00     0.009 A 
ATOM     76  C   UNL A   1      44.916  33.744  30.158  1.00  0.00     0.009 A 
ATOM     77  C   UNL A   1      44.703  34.334  32.875  1.00  0.00     0.001 A 
ATOM     78  C   UNL A   1      45.111  35.052  30.605  1.00  0.00     0.001 A 
ATOM     79  C   UNL A   1      44.991  35.348  31.962  1.00  0.00     0.000 A 
ENDBRANCH  61  74
ENDBRANCH  35  36
ENDBRANCH  28  30
ENDBRANCH  27  28
ENDBRANCH  26  27
ENDBRANCH  25  26
ENDBRANCH  24  25
ENDBRANCH   1  24
TORSDOF 18
ENDMDL
MODEL 2
REMARK VINA RESULT:     -10.2      4.091      9.309
REMARK SMILES O=C(CSCC(=O)N1CCN(c2ccc(F)cc2)CC1)OCCOCCOC(=O)c1ccc(-c2c3nc(c(-c4ccccc4)c4ccc([nH]4)c(-c4ccccc4)c4nc(c(-c5ccccc5)c5ccc2[nH]5)C=C4)C=C3)cc1
REMARK SMILES IDX 23 1 22 2 21 3 2 4 1 5 3 6 4 7 5 8 6 9 7 10 8 11 9 12 20 13
REMARK SMILES IDX 10 14 19 15 11 16 12 17 13 18 18 19 14 20 17 21 15 22 16 23
REMARK SMILES IDX 24 24 25 25 26 26 27 27 28 28 29 29 30 30 31 31 77 32 32 33
REMARK SMILES IDX 76 34 33 35 34 36 35 37 70 38 36 39 75 40 69 41 71 42 37 43
REMARK SMILES IDX 74 44 68 45 67 46 38 48 60 49 45 50 59 51 46 52 49 53 58 54
REMARK SMILES IDX 72 55 47 56 48 57 57 59 73 60 50 61 39 62 40 63 44 64 41 65
REMARK SMILES IDX 43 66 42 67 61 68 62 69 66 70 63 71 65 72 64 73 51 74 52 75
REMARK SMILES IDX 56 76 53 77 55 78 54 79
REMARK H PARENT 71 47 49 58
REMARK Flexibility Score: inf
ROOT
ATOM      1  C   UNL A   1      32.677  29.450  26.738  1.00  0.00     0.202 C 
ENDROOT
BRANCH   1   2
ATOM      2  C   UNL A   1      31.662  28.456  27.294  1.00  0.00     0.261 C 
BRANCH   2   3
ATOM      3  O   UNL A   1      31.689  27.164  26.676  1.00  0.00    -0.463 OA
BRANCH   3   4
ATOM      4  C   UNL A   1      30.676  26.675  25.922  1.00  0.00     0.315 C 
ATOM      5  O   UNL A   1      30.105  25.640  26.259  1.00  0.00    -0.251 OA
BRANCH   4   6
ATOM      6  C   UNL A   1      30.321  27.367  24.634  1.00  0.00     0.192 C 
BRANCH   6   7
ATOM      7  S   UNL A   1      31.726  27.564  23.504  1.00  0.00    -0.140 SA
BRANCH   7   8
ATOM      8  C   UNL A   1      32.061  25.845  23.162  1.00  0.00     0.170 C 
BRANCH   8   9
ATOM      9  C   UNL A   1      33.324  25.225  23.737  1.00  0.00     0.232 C 
ATOM     10  O   UNL A   1      33.993  25.915  24.518  1.00  0.00    -0.274 OA
ATOM     11  N   UNL A   1      33.598  23.877  23.607  1.00  0.00    -0.338 N 
ATOM     12  C   UNL A   1      34.012  23.168  24.820  1.00  0.00     0.141 C 
ATOM     13  C   UNL A   1      33.359  22.956  22.482  1.00  0.00     0.141 C 
ATOM     14  C   UNL A   1      32.897  22.178  25.234  1.00  0.00     0.138 C 
ATOM     15  C   UNL A   1      32.250  21.952  22.811  1.00  0.00     0.138 C 
ATOM     16  N   UNL A   1      32.537  21.313  24.098  1.00  0.00    -0.368 N 
BRANCH  16  17
ATOM     17  C   UNL A   1      32.633  19.946  24.208  1.00  0.00     0.037 A 
ATOM     18  C   UNL A   1      32.863  19.326  25.444  1.00  0.00     0.029 A 
ATOM     19  C   UNL A   1      32.498  19.137  23.073  1.00  0.00     0.029 A 
ATOM     20  C   UNL A   1      32.949  17.937  25.546  1.00  0.00     0.041 A 
ATOM     21  C   UNL A   1      32.604  17.748  23.163  1.00  0.00     0.041 A 
ATOM     22  C   UNL A   1      32.825  17.161  24.400  1.00  0.00     0.123 A 
ATOM     23  F   UNL A   1      32.918  15.829  24.493  1.00  0.00    -0.207 F 
ENDBRANCH  16  17
ENDBRANCH   8   9
ENDBRANCH   7   8
ENDBRANCH   6   7
ENDBRANCH   4   6
ENDBRANCH   3   4
ENDBRANCH   2   3
ENDBRANCH   1   2
BRANCH   1  24
ATOM     24  O   UNL A   1      32.244  30.441  25.814  1.00  0.00    -0.374 OA
BRANCH  24  25
ATOM     25  C   UNL A   1      31.159  31.287  26.215  1.00  0.00     0.202 C 
BRANCH  25  26
ATOM     26  C   UNL A   1      31.529  32.639  26.835  1.00  0.00     0.261 C 
BRANCH  26  27
ATOM     27  O   UNL A   1      32.904  32.672  27.246  1.00  0.00    -0.460 OA
BRANCH  27  28
ATOM     28  C   UNL A   1      33.226  33.687  28.080  1.00  0.00     0.338 C 
ATOM     29  O   UNL A   1      32.528  34.642  28.390  1.00  0.00    -0.246 OA
BRANCH  28  30
ATOM     30  C   UNL A   1      34.474  33.344  28.789  1.00  0.00     0.060 A 
ATOM     31  C   UNL A   1      35.687  33.698  28.176  1.00  0.00     0.016 A 
ATOM     32  C   UNL A   1      34.460  32.694  30.023  1.00  0.00     0.016 A 
ATOM     33  C   UNL A   1      36.892  33.330  28.758  1.00  0.00     0.010 A 
ATOM     34  C   UNL A   1      35.669  32.310  30.600  1.00  0.00     0.010 A 
ATOM     35  C   UNL A   1      36.882  32.579  29.939  1.00  0.00    -0.014 A 
BRANCH  35  36
ATOM     36  C   UNL A   1      38.115  31.875  30.349  1.00  0.00     0.031 A 
ATOM     37  C   UNL A   1      38.949  32.490  31.438  1.00  0.00     0.074 A 
ATOM     38  C   UNL A   1      38.456  30.699  29.798  1.00  0.00     0.049 A 
ATOM     39  N   UNL A   1      40.076  32.076  31.956  1.00  0.00    -0.248 NA
ATOM     40  C   UNL A   1      38.446  33.748  32.018  1.00  0.00     0.031 C 
ATOM     41  C   UNL A   1      37.690  29.986  28.778  1.00  0.00     0.029 A 
ATOM     42  N   UNL A   1      39.542  29.898  30.030  1.00  0.00    -0.354 N 
ATOM     43  C   UNL A   1      40.421  33.028  32.908  1.00  0.00     0.074 A 
ATOM     44  C   UNL A   1      39.408  34.057  32.872  1.00  0.00     0.031 C 
ATOM     45  C   UNL A   1      38.333  28.847  28.470  1.00  0.00     0.029 A 
ATOM     46  C   UNL A   1      39.570  28.773  29.244  1.00  0.00     0.049 A 
ATOM     47  H   UNL A   1      40.236  30.108  30.696  1.00  0.00     0.167 HD
ATOM     48  C   UNL A   1      41.486  33.039  33.742  1.00  0.00     0.031 A 
ATOM     49  C   UNL A   1      40.502  27.806  29.155  1.00  0.00     0.031 A 
ATOM     50  C   UNL A   1      42.497  32.017  33.759  1.00  0.00     0.049 A 
ATOM     51  C   UNL A   1      41.722  27.886  30.034  1.00  0.00     0.074 A 
ATOM     52  C   UNL A   1      43.614  31.921  34.570  1.00  0.00     0.029 A 
ATOM     53  N   UNL A   1      42.517  30.917  32.913  1.00  0.00    -0.354 N 
ATOM     54  N   UNL A   1      42.030  28.775  30.948  1.00  0.00    -0.248 NA
ATOM     55  C   UNL A   1      42.719  26.819  29.874  1.00  0.00     0.031 C 
ATOM     56  C   UNL A   1      44.344  30.797  34.170  1.00  0.00     0.029 A 
ATOM     57  C   UNL A   1      43.643  30.153  33.161  1.00  0.00     0.049 A 
ATOM     58  H   UNL A   1      41.832  30.712  32.237  1.00  0.00     0.167 HD
ATOM     59  C   UNL A   1      43.235  28.355  31.497  1.00  0.00     0.074 A 
ATOM     60  C   UNL A   1      43.592  27.124  30.823  1.00  0.00     0.031 C 
ATOM     61  C   UNL A   1      43.979  28.931  32.474  1.00  0.00     0.031 A 
BRANCH  48  62
ATOM     62  C   UNL A   1      41.629  34.219  34.665  1.00  0.00    -0.014 A 
ATOM     63  C   UNL A   1      41.109  34.200  35.971  1.00  0.00     0.009 A 
ATOM     64  C   UNL A   1      42.303  35.367  34.223  1.00  0.00     0.009 A 
ATOM     65  C   UNL A   1      41.227  35.321  36.795  1.00  0.00     0.001 A 
ATOM     66  C   UNL A   1      42.449  36.473  35.061  1.00  0.00     0.001 A 
ATOM     67  C   UNL A   1      41.900  36.454  36.343  1.00  0.00     0.000 A 
ENDBRANCH  48  62
BRANCH  49  68
ATOM     68  C   UNL A   1      40.326  26.684  28.196  1.00  0.00    -0.014 A 
ATOM     69  C   UNL A   1      39.548  25.568  28.537  1.00  0.00     0.009 A 
ATOM     70  C   UNL A   1      40.948  26.717  26.937  1.00  0.00     0.009 A 
ATOM     71  C   UNL A   1      39.420  24.496  27.650  1.00  0.00     0.001 A 
ATOM     72  C   UNL A   1      40.794  25.658  26.040  1.00  0.00     0.001 A 
ATOM     73  C   UNL A   1      40.039  24.544  26.401  1.00  0.00     0.000 A 
ENDBRANCH  49  68
BRANCH  61  74
ATOM     74  C   UNL A   1      45.226  28.207  32.903  1.00  0.00    -0.014 A 
ATOM     75  C   UNL A   1      46.480  28.512  32.352  1.00  0.00     0.009 A 
ATOM     76  C   UNL A   1      45.144  27.224  33.903  1.00  0.00     0.009 A 
ATOM     77  C   UNL A   1      47.619  27.813  32.761  1.00  0.00     0.001 A 
ATOM     78  C   UNL A   1      46.289  26.555  34.336  1.00  0.00     0.001 A 
ATOM     79  C   UNL A   1      47.523  26.840  33.755  1.00  0.00     0.000 A 
ENDBRANCH  61  74
ENDBRANCH  35  36
ENDBRANCH  28  30
ENDBRANCH  27  28
ENDBRANCH  26  27
ENDBRANCH  25  26
ENDBRANCH  24  25
ENDBRANCH   1  24
TORSDOF 18
ENDMDL
MODEL 3
REMARK VINA RESULT:     -10.1      4.300      9.019
REMARK SMILES O=C(CSCC(=O)N1CCN(c2ccc(F)cc2)CC1)OCCOCCOC(=O)c1ccc(-c2c3nc(c(-c4ccccc4)c4ccc([nH]4)c(-c4ccccc4)c4nc(c(-c5ccccc5)c5ccc2[nH]5)C=C4)C=C3)cc1
REMARK SMILES IDX 23 1 22 2 21 3 2 4 1 5 3 6 4 7 5 8 6 9 7 10 8 11 9 12 20 13
REMARK SMILES IDX 10 14 19 15 11 16 12 17 13 18 18 19 14 20 17 21 15 22 16 23
REMARK SMILES IDX 24 24 25 25 26 26 27 27 28 28 29 29 30 30 31 31 77 32 32 33
REMARK SMILES IDX 76 34 33 35 34 36 35 37 70 38 36 39 75 40 69 41 71 42 37 43
REMARK SMILES IDX 74 44 68 45 67 46 38 48 60 49 45 50 59 51 46 52 49 53 58 54
REMARK SMILES IDX 72 55 47 56 48 57 57 59 73 60 50 61 39 62 40 63 44 64 41 65
REMARK SMILES IDX 43 66 42 67 61 68 62 69 66 70 63 71 65 72 64 73 51 74 52 75
REMARK SMILES IDX 56 76 53 77 55 78 54 79
REMARK H PARENT 71 47 49 58
REMARK Flexibility Score: inf
ROOT
ATOM      1  C   UNL A   1      32.443  28.806  27.556  1.00  0.00     0.202 C 
ENDROOT
BRANCH   1   2
ATOM      2  C   UNL A   1      31.321  27.783  27.408  1.00  0.00     0.261 C 
BRANCH   2   3
ATOM      3  O   UNL A   1      31.259  27.142  26.128  1.00  0.00    -0.463 OA
BRANCH   3   4
ATOM      4  C   UNL A   1      30.376  26.160  25.826  1.00  0.00     0.315 C 
ATOM      5  O   UNL A   1      29.951  25.424  26.714  1.00  0.00    -0.251 OA
BRANCH   4   6
ATOM      6  C   UNL A   1      29.993  25.934  24.389  1.00  0.00     0.192 C 
BRANCH   6   7
ATOM      7  S   UNL A   1      29.441  27.438  23.539  1.00  0.00    -0.140 SA
BRANCH   7   8
ATOM      8  C   UNL A   1      30.717  27.548  22.296  1.00  0.00     0.170 C 
BRANCH   8   9
ATOM      9  C   UNL A   1      32.135  27.863  22.740  1.00  0.00     0.232 C 
ATOM     10  O   UNL A   1      32.332  28.957  23.286  1.00  0.00    -0.274 OA
ATOM     11  N   UNL A   1      33.121  26.895  22.770  1.00  0.00    -0.338 N 
ATOM     12  C   UNL A   1      33.927  26.813  23.989  1.00  0.00     0.141 C 
ATOM     13  C   UNL A   1      33.391  25.775  21.851  1.00  0.00     0.141 C 
ATOM     14  C   UNL A   1      33.597  25.492  24.727  1.00  0.00     0.138 C 
ATOM     15  C   UNL A   1      33.069  24.428  22.506  1.00  0.00     0.138 C 
ATOM     16  N   UNL A   1      33.736  24.349  23.809  1.00  0.00    -0.368 N 
BRANCH  16  17
ATOM     17  C   UNL A   1      34.598  23.321  24.105  1.00  0.00     0.037 A 
ATOM     18  C   UNL A   1      34.128  22.073  24.536  1.00  0.00     0.029 A 
ATOM     19  C   UNL A   1      35.981  23.503  23.977  1.00  0.00     0.029 A 
ATOM     20  C   UNL A   1      35.013  21.033  24.826  1.00  0.00     0.041 A 
ATOM     21  C   UNL A   1      36.874  22.474  24.285  1.00  0.00     0.041 A 
ATOM     22  C   UNL A   1      36.380  21.247  24.703  1.00  0.00     0.123 A 
ATOM     23  F   UNL A   1      37.232  20.255  24.991  1.00  0.00    -0.207 F 
ENDBRANCH  16  17
ENDBRANCH   8   9
ENDBRANCH   7   8
ENDBRANCH   6   7
ENDBRANCH   4   6
ENDBRANCH   3   4
ENDBRANCH   2   3
ENDBRANCH   1   2
BRANCH   1  24
ATOM     24  O   UNL A   1      32.610  29.802  26.555  1.00  0.00    -0.374 OA
BRANCH  24  25
ATOM     25  C   UNL A   1      31.548  30.748  26.383  1.00  0.00     0.202 C 
BRANCH  25  26
ATOM     26  C   UNL A   1      31.783  32.160  26.931  1.00  0.00     0.261 C 
BRANCH  26  27
ATOM     27  O   UNL A   1      33.155  32.358  27.304  1.00  0.00    -0.460 OA
BRANCH  27  28
ATOM     28  C   UNL A   1      33.392  33.473  28.034  1.00  0.00     0.338 C 
ATOM     29  O   UNL A   1      32.630  34.410  28.225  1.00  0.00    -0.246 OA
BRANCH  28  30
ATOM     30  C   UNL A   1      34.637  33.283  28.802  1.00  0.00     0.060 A 
ATOM     31  C   UNL A   1      35.838  33.698  28.206  1.00  0.00     0.016 A 
ATOM     32  C   UNL A   1      34.631  32.714  30.076  1.00  0.00     0.016 A 
ATOM     33  C   UNL A   1      37.048  33.472  28.849  1.00  0.00     0.010 A 
ATOM     34  C   UNL A   1      35.846  32.472  30.715  1.00  0.00     0.010 A 
ATOM     35  C   UNL A   1      37.056  32.800  30.077  1.00  0.00    -0.014 A 
BRANCH  35  36
ATOM     36  C   UNL A   1      38.326  32.231  30.572  1.00  0.00     0.031 A 
ATOM     37  C   UNL A   1      38.804  30.940  29.966  1.00  0.00     0.074 A 
ATOM     38  C   UNL A   1      39.054  32.868  31.503  1.00  0.00     0.049 A 
ATOM     39  N   UNL A   1      39.870  30.237  30.243  1.00  0.00    -0.248 NA
ATOM     40  C   UNL A   1      37.959  30.362  28.906  1.00  0.00     0.031 C 
ATOM     41  C   UNL A   1      38.714  34.151  32.114  1.00  0.00     0.029 A 
ATOM     42  N   UNL A   1      40.239  32.515  32.091  1.00  0.00    -0.354 N 
ATOM     43  C   UNL A   1      39.815  29.130  29.404  1.00  0.00     0.074 A 
ATOM     44  C   UNL A   1      38.596  29.234  28.636  1.00  0.00     0.031 C 
ATOM     45  C   UNL A   1      39.673  34.479  32.996  1.00  0.00     0.029 A 
ATOM     46  C   UNL A   1      40.671  33.413  33.035  1.00  0.00     0.049 A 
ATOM     47  H   UNL A   1      40.734  31.695  31.860  1.00  0.00     0.167 HD
ATOM     48  C   UNL A   1      40.707  28.119  29.283  1.00  0.00     0.031 A 
ATOM     49  C   UNL A   1      41.744  33.363  33.846  1.00  0.00     0.031 A 
ATOM     50  C   UNL A   1      41.909  28.016  30.064  1.00  0.00     0.049 A 
ATOM     51  C   UNL A   1      42.675  32.183  33.751  1.00  0.00     0.074 A 
ATOM     52  C   UNL A   1      42.889  27.042  30.015  1.00  0.00     0.029 A 
ATOM     53  N   UNL A   1      42.287  28.921  31.045  1.00  0.00    -0.354 N 
ATOM     54  N   UNL A   1      42.630  31.153  32.940  1.00  0.00    -0.248 NA
ATOM     55  C   UNL A   1      43.813  32.168  34.680  1.00  0.00     0.031 C 
ATOM     56  C   UNL A   1      43.828  27.322  31.014  1.00  0.00     0.029 A 
ATOM     57  C   UNL A   1      43.471  28.510  31.632  1.00  0.00     0.049 A 
ATOM     58  H   UNL A   1      41.788  29.733  31.288  1.00  0.00     0.167 HD
ATOM     59  C   UNL A   1      43.752  30.387  33.234  1.00  0.00     0.074 A 
ATOM     60  C   UNL A   1      44.463  31.081  34.288  1.00  0.00     0.031 C 
ATOM     61  C   UNL A   1      44.161  29.217  32.682  1.00  0.00     0.031 A 
BRANCH  48  62
ATOM     62  C   UNL A   1      40.380  27.024  28.302  1.00  0.00    -0.014 A 
ATOM     63  C   UNL A   1      40.862  27.050  26.983  1.00  0.00     0.009 A 
ATOM     64  C   UNL A   1      39.582  25.944  28.710  1.00  0.00     0.009 A 
ATOM     65  C   UNL A   1      40.517  26.038  26.084  1.00  0.00     0.001 A 
ATOM     66  C   UNL A   1      39.267  24.917  27.820  1.00  0.00     0.001 A 
ATOM     67  C   UNL A   1      39.725  24.970  26.504  1.00  0.00     0.000 A 
ENDBRANCH  48  62
BRANCH  49  68
ATOM     68  C   UNL A   1      41.994  34.454  34.823  1.00  0.00    -0.014 A 
ATOM     69  C   UNL A   1      41.447  34.398  36.113  1.00  0.00     0.009 A 
ATOM     70  C   UNL A   1      42.770  35.569  34.464  1.00  0.00     0.009 A 
ATOM     71  C   UNL A   1      41.648  35.447  37.014  1.00  0.00     0.001 A 
ATOM     72  C   UNL A   1      42.995  36.601  35.377  1.00  0.00     0.001 A 
ATOM     73  C   UNL A   1      42.425  36.545  36.647  1.00  0.00     0.000 A 
ENDBRANCH  49  68
BRANCH  61  74
ATOM     74  C   UNL A   1      45.462  28.644  33.175  1.00  0.00    -0.014 A 
ATOM     75  C   UNL A   1      45.506  27.725  34.234  1.00  0.00     0.009 A 
ATOM     76  C   UNL A   1      46.660  29.010  32.541  1.00  0.00     0.009 A 
ATOM     77  C   UNL A   1      46.730  27.220  34.678  1.00  0.00     0.001 A 
ATOM     78  C   UNL A   1      47.878  28.475  32.963  1.00  0.00     0.001 A 
ATOM     79  C   UNL A   1      47.913  27.591  34.039  1.00  0.00     0.000 A 
ENDBRANCH  61  74
ENDBRANCH  35  36
ENDBRANCH  28  30
ENDBRANCH  27  28
ENDBRANCH  26  27
ENDBRANCH  25  26
ENDBRANCH  24  25
ENDBRANCH   1  24
TORSDOF 18
ENDMDL
