MODEL 1
REMARK VINA RESULT:     -12.5      0.000      0.000
REMARK SMILES O=C(OCCOCCOC(=O)[C@H]1Cc2c([nH]c3ccccc23)[C@H](c2c[nH]c3ccccc23)[NH2+]1)c1ccc(-c2c3nc(c(-c4ccccc4)c4ccc([nH]4)c(-c4ccccc4)c4nc(c(-c5ccccc5)c5ccc2[nH]5)C=C4)C=C3)cc1
REMARK SMILES IDX 5 1 4 2 3 3 2 4 1 5 34 6 35 7 81 8 36 9 80 10 37 11 38 12
REMARK SMILES IDX 39 13 74 14 40 15 79 16 73 17 75 18 41 19 78 20 72 21 71 22
REMARK SMILES IDX 42 24 64 25 49 26 63 27 50 28 53 29 62 30 76 31 51 32 52 33
REMARK SMILES IDX 61 35 77 36 54 37 43 38 44 39 48 40 45 41 47 42 46 43 65 44
REMARK SMILES IDX 66 45 70 46 67 47 69 48 68 49 55 50 56 51 60 52 57 53 59 54
REMARK SMILES IDX 58 55 6 56 7 57 8 58 9 59 10 60 11 61 12 62 13 63 33 64
REMARK SMILES IDX 14 65 23 66 15 69 22 70 16 71 17 72 21 73 18 75 20 76 19 77
REMARK SMILES IDX 24 78 25 79 32 80 26 81 27 82 31 83 28 85 30 86 29 87
REMARK H PARENT 75 23 53 34 33 67 33 68 16 74 26 84
REMARK Flexibility Score: inf
ROOT
ATOM      1  C   UNL A   1      33.787  36.089  28.782  1.00  0.00     0.202 C 
ENDROOT
BRANCH   1   2
ATOM      2  C   UNL A   1      33.086  37.032  29.757  1.00  0.00     0.261 C 
BRANCH   2   3
ATOM      3  O   UNL A   1      32.373  36.260  30.744  1.00  0.00    -0.460 OA
BRANCH   3   4
ATOM      4  C   UNL A   1      32.680  36.166  32.060  1.00  0.00     0.338 C 
ATOM      5  O   UNL A   1      32.025  36.772  32.901  1.00  0.00    -0.246 OA
BRANCH   4   6
ATOM      6  C   UNL A   1      33.778  35.280  32.505  1.00  0.00     0.060 A 
ATOM      7  C   UNL A   1      35.097  35.713  32.557  1.00  0.00     0.016 A 
ATOM      8  C   UNL A   1      33.485  33.984  32.928  1.00  0.00     0.016 A 
ATOM      9  C   UNL A   1      36.138  34.885  32.854  1.00  0.00     0.010 A 
ATOM     10  C   UNL A   1      34.522  33.157  33.360  1.00  0.00     0.010 A 
ATOM     11  C   UNL A   1      35.846  33.621  33.313  1.00  0.00    -0.014 A 
BRANCH  11  12
ATOM     12  C   UNL A   1      37.000  32.810  33.671  1.00  0.00     0.031 A 
ATOM     13  C   UNL A   1      37.557  32.980  35.034  1.00  0.00     0.074 A 
ATOM     14  C   UNL A   1      37.405  31.857  32.815  1.00  0.00     0.049 A 
ATOM     15  N   UNL A   1      38.684  32.549  35.513  1.00  0.00    -0.248 NA
ATOM     16  C   UNL A   1      36.734  33.749  35.986  1.00  0.00     0.031 C 
ATOM     17  C   UNL A   1      36.742  31.510  31.548  1.00  0.00     0.029 A 
ATOM     18  N   UNL A   1      38.455  30.991  32.886  1.00  0.00    -0.354 N 
ATOM     19  C   UNL A   1      38.753  33.071  36.794  1.00  0.00     0.074 A 
ATOM     20  C   UNL A   1      37.541  33.819  37.032  1.00  0.00     0.031 C 
ATOM     21  C   UNL A   1      37.408  30.505  30.964  1.00  0.00     0.029 A 
ATOM     22  C   UNL A   1      38.599  30.235  31.751  1.00  0.00     0.049 A 
ATOM     23  H   UNL A   1      39.046  30.916  33.670  1.00  0.00     0.167 HD
ATOM     24  C   UNL A   1      39.787  32.957  37.656  1.00  0.00     0.031 A 
ATOM     25  C   UNL A   1      39.642  29.486  31.358  1.00  0.00     0.031 A 
ATOM     26  C   UNL A   1      40.966  32.206  37.325  1.00  0.00     0.049 A 
ATOM     27  C   UNL A   1      40.824  29.451  32.280  1.00  0.00     0.074 A 
ATOM     28  C   UNL A   1      42.128  32.043  38.048  1.00  0.00     0.029 A 
ATOM     29  N   UNL A   1      41.116  31.484  36.142  1.00  0.00    -0.354 N 
ATOM     30  N   UNL A   1      40.967  30.035  33.449  1.00  0.00    -0.248 NA
ATOM     31  C   UNL A   1      41.989  28.686  31.835  1.00  0.00     0.031 C 
ATOM     32  C   UNL A   1      43.002  31.268  37.275  1.00  0.00     0.029 A 
ATOM     33  C   UNL A   1      42.359  30.889  36.102  1.00  0.00     0.049 A 
ATOM     34  H   UNL A   1      40.432  31.410  35.436  1.00  0.00     0.167 HD
ATOM     35  C   UNL A   1      42.231  29.694  33.895  1.00  0.00     0.074 A 
ATOM     36  C   UNL A   1      42.809  28.844  32.867  1.00  0.00     0.031 C 
ATOM     37  C   UNL A   1      42.862  30.044  35.044  1.00  0.00     0.031 A 
BRANCH  24  38
ATOM     38  C   UNL A   1      39.706  33.775  38.911  1.00  0.00    -0.014 A 
ATOM     39  C   UNL A   1      39.133  33.278  40.094  1.00  0.00     0.009 A 
ATOM     40  C   UNL A   1      40.115  35.117  38.870  1.00  0.00     0.009 A 
ATOM     41  C   UNL A   1      38.913  34.127  41.184  1.00  0.00     0.001 A 
ATOM     42  C   UNL A   1      39.925  35.953  39.972  1.00  0.00     0.001 A 
ATOM     43  C   UNL A   1      39.308  35.463  41.121  1.00  0.00     0.000 A 
ENDBRANCH  24  38
BRANCH  25  44
ATOM     44  C   UNL A   1      39.626  28.841  30.020  1.00  0.00    -0.014 A 
ATOM     45  C   UNL A   1      40.017  29.545  28.875  1.00  0.00     0.009 A 
ATOM     46  C   UNL A   1      39.286  27.481  29.891  1.00  0.00     0.009 A 
ATOM     47  C   UNL A   1      40.063  28.906  27.631  1.00  0.00     0.001 A 
ATOM     48  C   UNL A   1      39.363  26.837  28.654  1.00  0.00     0.001 A 
ATOM     49  C   UNL A   1      39.745  27.553  27.523  1.00  0.00     0.000 A 
ENDBRANCH  25  44
BRANCH  37  50
ATOM     50  C   UNL A   1      44.221  29.454  35.263  1.00  0.00    -0.014 A 
ATOM     51  C   UNL A   1      45.381  30.137  34.877  1.00  0.00     0.009 A 
ATOM     52  C   UNL A   1      44.328  28.242  35.963  1.00  0.00     0.009 A 
ATOM     53  C   UNL A   1      46.634  29.606  35.183  1.00  0.00     0.001 A 
ATOM     54  C   UNL A   1      45.581  27.732  36.292  1.00  0.00     0.001 A 
ATOM     55  C   UNL A   1      46.732  28.413  35.900  1.00  0.00     0.000 A 
ENDBRANCH  37  50
ENDBRANCH  11  12
ENDBRANCH   4   6
ENDBRANCH   3   4
ENDBRANCH   2   3
ENDBRANCH   1   2
BRANCH   1  56
ATOM     56  O   UNL A   1      33.641  34.704  29.059  1.00  0.00    -0.374 OA
BRANCH  56  57
ATOM     57  C   UNL A   1      33.232  33.866  27.976  1.00  0.00     0.202 C 
BRANCH  57  58
ATOM     58  C   UNL A   1      34.037  32.578  28.074  1.00  0.00     0.261 C 
BRANCH  58  59
ATOM     59  O   UNL A   1      33.314  31.582  27.344  1.00  0.00    -0.459 OA
BRANCH  59  60
ATOM     60  C   UNL A   1      33.882  30.327  27.300  1.00  0.00     0.365 C 
ATOM     61  O   UNL A   1      35.001  30.035  27.675  1.00  0.00    -0.245 OA
BRANCH  60  62
ATOM     62  C   UNL A   1      32.832  29.387  26.705  1.00  0.00     0.298 C 
ATOM     63  C   UNL A   1      32.003  30.365  25.869  1.00  0.00     0.115 C 
ATOM     64  N   UNL A   1      33.426  28.222  25.992  1.00  0.00    -0.323 N 
ATOM     65  C   UNL A   1      31.190  29.639  24.900  1.00  0.00    -0.006 A 
ATOM     66  C   UNL A   1      32.519  27.444  25.127  1.00  0.00     0.264 C 
ATOM     67  H   UNL A   1      33.803  27.587  26.696  1.00  0.00     0.347 HD
ATOM     68  H   UNL A   1      34.125  28.618  25.363  1.00  0.00     0.347 HD
ATOM     69  C   UNL A   1      31.444  28.331  24.558  1.00  0.00     0.083 A 
ATOM     70  C   UNL A   1      30.108  30.122  24.150  1.00  0.00     0.003 A 
ATOM     71  N   UNL A   1      30.574  28.021  23.544  1.00  0.00    -0.353 N 
ATOM     72  C   UNL A   1      29.744  29.095  23.283  1.00  0.00     0.046 A 
ATOM     73  C   UNL A   1      29.430  31.351  24.118  1.00  0.00     0.010 A 
ATOM     74  H   UNL A   1      30.544  27.159  23.071  1.00  0.00     0.166 HD
ATOM     75  C   UNL A   1      28.716  29.257  22.351  1.00  0.00     0.026 A 
ATOM     76  C   UNL A   1      28.392  31.522  23.207  1.00  0.00     0.001 A 
ATOM     77  C   UNL A   1      28.047  30.490  22.334  1.00  0.00     0.002 A 
BRANCH  66  78
ATOM     78  C   UNL A   1      31.972  26.135  25.709  1.00  0.00     0.041 A 
ATOM     79  C   UNL A   1      30.615  25.963  25.981  1.00  0.00     0.093 A 
ATOM     80  C   UNL A   1      32.569  24.863  26.065  1.00  0.00     0.009 A 
ATOM     81  N   UNL A   1      30.399  24.732  26.526  1.00  0.00    -0.361 N 
ATOM     82  C   UNL A   1      31.567  24.020  26.557  1.00  0.00     0.046 A 
ATOM     83  C   UNL A   1      33.862  24.311  26.031  1.00  0.00     0.011 A 
ATOM     84  H   UNL A   1      29.529  24.403  26.850  1.00  0.00     0.166 HD
ATOM     85  C   UNL A   1      31.794  22.702  26.991  1.00  0.00     0.026 A 
ATOM     86  C   UNL A   1      34.119  22.995  26.440  1.00  0.00     0.001 A 
ATOM     87  C   UNL A   1      33.090  22.197  26.913  1.00  0.00     0.002 A 
ENDBRANCH  66  78
ENDBRANCH  60  62
ENDBRANCH  59  60
ENDBRANCH  58  59
ENDBRANCH  57  58
ENDBRANCH  56  57
ENDBRANCH   1  56
TORSDOF 15
ENDMDL
MODEL 2
REMARK VINA RESULT:     -12.4      0.872      3.636
REMARK SMILES O=C(OCCOCCOC(=O)[C@H]1Cc2c([nH]c3ccccc23)[C@H](c2c[nH]c3ccccc23)[NH2+]1)c1ccc(-c2c3nc(c(-c4ccccc4)c4ccc([nH]4)c(-c4ccccc4)c4nc(c(-c5ccccc5)c5ccc2[nH]5)C=C4)C=C3)cc1
REMARK SMILES IDX 5 1 4 2 3 3 2 4 1 5 34 6 35 7 81 8 36 9 80 10 37 11 38 12
REMARK SMILES IDX 39 13 74 14 40 15 79 16 73 17 75 18 41 19 78 20 72 21 71 22
REMARK SMILES IDX 42 24 64 25 49 26 63 27 50 28 53 29 62 30 76 31 51 32 52 33
REMARK SMILES IDX 61 35 77 36 54 37 43 38 44 39 48 40 45 41 47 42 46 43 65 44
REMARK SMILES IDX 66 45 70 46 67 47 69 48 68 49 55 50 56 51 60 52 57 53 59 54
REMARK SMILES IDX 58 55 6 56 7 57 8 58 9 59 10 60 11 61 12 62 13 63 33 64
REMARK SMILES IDX 14 65 23 66 15 69 22 70 16 71 17 72 21 73 18 75 20 76 19 77
REMARK SMILES IDX 24 78 25 79 32 80 26 81 27 82 31 83 28 85 30 86 29 87
REMARK H PARENT 75 23 53 34 33 67 33 68 16 74 26 84
REMARK Flexibility Score: inf
ROOT
ATOM      1  C   UNL A   1      33.679  36.235  28.483  1.00  0.00     0.202 C 
ENDROOT
BRANCH   1   2
ATOM      2  C   UNL A   1      33.003  37.070  29.568  1.00  0.00     0.261 C 
BRANCH   2   3
ATOM      3  O   UNL A   1      32.371  36.194  30.523  1.00  0.00    -0.460 OA
BRANCH   3   4
ATOM      4  C   UNL A   1      32.648  36.123  31.848  1.00  0.00     0.338 C 
ATOM      5  O   UNL A   1      31.988  36.761  32.661  1.00  0.00    -0.246 OA
BRANCH   4   6
ATOM      6  C   UNL A   1      33.716  35.223  32.335  1.00  0.00     0.060 A 
ATOM      7  C   UNL A   1      35.047  35.621  32.383  1.00  0.00     0.016 A 
ATOM      8  C   UNL A   1      33.384  33.953  32.802  1.00  0.00     0.016 A 
ATOM      9  C   UNL A   1      36.061  34.776  32.720  1.00  0.00     0.010 A 
ATOM     10  C   UNL A   1      34.394  33.114  33.274  1.00  0.00     0.010 A 
ATOM     11  C   UNL A   1      35.731  33.539  33.222  1.00  0.00    -0.014 A 
BRANCH  11  12
ATOM     12  C   UNL A   1      36.859  32.710  33.620  1.00  0.00     0.031 A 
ATOM     13  C   UNL A   1      37.409  32.916  34.980  1.00  0.00     0.074 A 
ATOM     14  C   UNL A   1      37.243  31.714  32.804  1.00  0.00     0.049 A 
ATOM     15  N   UNL A   1      38.521  32.472  35.485  1.00  0.00    -0.248 NA
ATOM     16  C   UNL A   1      36.602  33.743  35.896  1.00  0.00     0.031 C 
ATOM     17  C   UNL A   1      36.579  31.338  31.546  1.00  0.00     0.029 A 
ATOM     18  N   UNL A   1      38.266  30.822  32.917  1.00  0.00    -0.354 N 
ATOM     19  C   UNL A   1      38.595  33.040  36.746  1.00  0.00     0.074 A 
ATOM     20  C   UNL A   1      37.402  33.830  36.945  1.00  0.00     0.031 C 
ATOM     21  C   UNL A   1      37.221  30.294  31.006  1.00  0.00     0.029 A 
ATOM     22  C   UNL A   1      38.398  30.019  31.812  1.00  0.00     0.049 A 
ATOM     23  H   UNL A   1      38.849  30.760  33.709  1.00  0.00     0.167 HD
ATOM     24  C   UNL A   1      39.619  32.929  37.621  1.00  0.00     0.031 A 
ATOM     25  C   UNL A   1      39.422  29.228  31.457  1.00  0.00     0.031 A 
ATOM     26  C   UNL A   1      40.778  32.134  37.328  1.00  0.00     0.049 A 
ATOM     27  C   UNL A   1      40.595  29.194  32.389  1.00  0.00     0.074 A 
ATOM     28  C   UNL A   1      41.929  31.965  38.067  1.00  0.00     0.029 A 
ATOM     29  N   UNL A   1      40.916  31.363  36.175  1.00  0.00    -0.354 N 
ATOM     30  N   UNL A   1      40.746  29.818  33.537  1.00  0.00    -0.248 NA
ATOM     31  C   UNL A   1      41.741  28.380  31.984  1.00  0.00     0.031 C 
ATOM     32  C   UNL A   1      42.787  31.137  37.331  1.00  0.00     0.029 A 
ATOM     33  C   UNL A   1      42.142  30.732  36.168  1.00  0.00     0.049 A 
ATOM     34  H   UNL A   1      40.236  31.282  35.466  1.00  0.00     0.167 HD
ATOM     35  C   UNL A   1      41.997  29.459  34.007  1.00  0.00     0.074 A 
ATOM     36  C   UNL A   1      42.558  28.554  33.016  1.00  0.00     0.031 C 
ATOM     37  C   UNL A   1      42.629  29.834  35.146  1.00  0.00     0.031 A 
BRANCH  24  38
ATOM     38  C   UNL A   1      39.551  33.796  38.843  1.00  0.00    -0.014 A 
ATOM     39  C   UNL A   1      39.160  33.296  40.096  1.00  0.00     0.009 A 
ATOM     40  C   UNL A   1      39.779  35.175  38.707  1.00  0.00     0.009 A 
ATOM     41  C   UNL A   1      38.936  34.168  41.167  1.00  0.00     0.001 A 
ATOM     42  C   UNL A   1      39.589  36.038  39.788  1.00  0.00     0.001 A 
ATOM     43  C   UNL A   1      39.149  35.538  41.011  1.00  0.00     0.000 A 
ENDBRANCH  24  38
BRANCH  25  44
ATOM     44  C   UNL A   1      39.397  28.533  30.144  1.00  0.00    -0.014 A 
ATOM     45  C   UNL A   1      39.634  29.231  28.954  1.00  0.00     0.009 A 
ATOM     46  C   UNL A   1      39.209  27.139  30.082  1.00  0.00     0.009 A 
ATOM     47  C   UNL A   1      39.675  28.553  27.731  1.00  0.00     0.001 A 
ATOM     48  C   UNL A   1      39.282  26.460  28.863  1.00  0.00     0.001 A 
ATOM     49  C   UNL A   1      39.509  27.170  27.687  1.00  0.00     0.000 A 
ENDBRANCH  25  44
BRANCH  37  50
ATOM     50  C   UNL A   1      43.968  29.215  35.399  1.00  0.00    -0.014 A 
ATOM     51  C   UNL A   1      44.085  27.932  35.952  1.00  0.00     0.009 A 
ATOM     52  C   UNL A   1      45.120  29.896  34.976  1.00  0.00     0.009 A 
ATOM     53  C   UNL A   1      45.342  27.344  36.084  1.00  0.00     0.001 A 
ATOM     54  C   UNL A   1      46.370  29.292  35.082  1.00  0.00     0.001 A 
ATOM     55  C   UNL A   1      46.479  28.018  35.639  1.00  0.00     0.000 A 
ENDBRANCH  37  50
ENDBRANCH  11  12
ENDBRANCH   4   6
ENDBRANCH   3   4
ENDBRANCH   2   3
ENDBRANCH   1   2
BRANCH   1  56
ATOM     56  O   UNL A   1      33.936  34.881  28.823  1.00  0.00    -0.374 OA
BRANCH  56  57
ATOM     57  C   UNL A   1      33.266  33.880  28.053  1.00  0.00     0.202 C 
BRANCH  57  58
ATOM     58  C   UNL A   1      33.997  32.567  28.288  1.00  0.00     0.261 C 
BRANCH  58  59
ATOM     59  O   UNL A   1      33.405  31.601  27.413  1.00  0.00    -0.459 OA
BRANCH  59  60
ATOM     60  C   UNL A   1      34.079  30.407  27.278  1.00  0.00     0.365 C 
ATOM     61  O   UNL A   1      35.028  30.042  27.945  1.00  0.00    -0.245 OA
BRANCH  60  62
ATOM     62  C   UNL A   1      33.395  29.639  26.146  1.00  0.00     0.298 C 
ATOM     63  C   UNL A   1      33.878  28.214  26.424  1.00  0.00     0.115 C 
ATOM     64  N   UNL A   1      31.922  29.858  26.097  1.00  0.00    -0.323 N 
ATOM     65  C   UNL A   1      33.043  27.251  25.715  1.00  0.00    -0.006 A 
ATOM     66  C   UNL A   1      31.145  28.930  25.256  1.00  0.00     0.264 C 
ATOM     67  H   UNL A   1      31.760  30.803  25.748  1.00  0.00     0.347 HD
ATOM     68  H   UNL A   1      31.594  29.698  27.050  1.00  0.00     0.347 HD
ATOM     69  C   UNL A   1      31.805  27.579  25.212  1.00  0.00     0.083 A 
ATOM     70  C   UNL A   1      33.305  25.894  25.479  1.00  0.00     0.003 A 
ATOM     71  N   UNL A   1      31.263  26.414  24.732  1.00  0.00    -0.353 N 
ATOM     72  C   UNL A   1      32.162  25.374  24.877  1.00  0.00     0.046 A 
ATOM     73  C   UNL A   1      34.403  25.062  25.753  1.00  0.00     0.010 A 
ATOM     74  H   UNL A   1      30.364  26.329  24.340  1.00  0.00     0.166 HD
ATOM     75  C   UNL A   1      32.064  24.020  24.544  1.00  0.00     0.026 A 
ATOM     76  C   UNL A   1      34.327  23.716  25.412  1.00  0.00     0.001 A 
ATOM     77  C   UNL A   1      33.171  23.205  24.822  1.00  0.00     0.002 A 
BRANCH  66  78
ATOM     78  C   UNL A   1      30.732  29.442  23.870  1.00  0.00     0.041 A 
ATOM     79  C   UNL A   1      31.432  29.086  22.718  1.00  0.00     0.093 A 
ATOM     80  C   UNL A   1      29.652  30.278  23.385  1.00  0.00     0.009 A 
ATOM     81  N   UNL A   1      30.889  29.704  21.630  1.00  0.00    -0.361 N 
ATOM     82  C   UNL A   1      29.777  30.410  21.998  1.00  0.00     0.046 A 
ATOM     83  C   UNL A   1      28.563  30.955  23.962  1.00  0.00     0.011 A 
ATOM     84  H   UNL A   1      31.245  29.648  20.714  1.00  0.00     0.166 HD
ATOM     85  C   UNL A   1      28.891  31.154  21.198  1.00  0.00     0.026 A 
ATOM     86  C   UNL A   1      27.651  31.690  23.191  1.00  0.00     0.001 A 
ATOM     87  C   UNL A   1      27.815  31.785  21.818  1.00  0.00     0.002 A 
ENDBRANCH  66  78
ENDBRANCH  60  62
ENDBRANCH  59  60
ENDBRANCH  58  59
ENDBRANCH  57  58
ENDBRANCH  56  57
ENDBRANCH   1  56
TORSDOF 15
ENDMDL
MODEL 3
REMARK VINA RESULT:     -12.1      6.950     12.623
REMARK SMILES O=C(OCCOCCOC(=O)[C@H]1Cc2c([nH]c3ccccc23)[C@H](c2c[nH]c3ccccc23)[NH2+]1)c1ccc(-c2c3nc(c(-c4ccccc4)c4ccc([nH]4)c(-c4ccccc4)c4nc(c(-c5ccccc5)c5ccc2[nH]5)C=C4)C=C3)cc1
REMARK SMILES IDX 5 1 4 2 3 3 2 4 1 5 34 6 35 7 81 8 36 9 80 10 37 11 38 12
REMARK SMILES IDX 39 13 74 14 40 15 79 16 73 17 75 18 41 19 78 20 72 21 71 22
REMARK SMILES IDX 42 24 64 25 49 26 63 27 50 28 53 29 62 30 76 31 51 32 52 33
REMARK SMILES IDX 61 35 77 36 54 37 43 38 44 39 48 40 45 41 47 42 46 43 65 44
REMARK SMILES IDX 66 45 70 46 67 47 69 48 68 49 55 50 56 51 60 52 57 53 59 54
REMARK SMILES IDX 58 55 6 56 7 57 8 58 9 59 10 60 11 61 12 62 13 63 33 64
REMARK SMILES IDX 14 65 23 66 15 69 22 70 16 71 17 72 21 73 18 75 20 76 19 77
REMARK SMILES IDX 24 78 25 79 32 80 26 81 27 82 31 83 28 85 30 86 29 87
REMARK H PARENT 75 23 53 34 33 67 33 68 16 74 26 84
REMARK Flexibility Score: inf
ROOT
ATOM      1  C   UNL A   1      42.522  19.077  27.049  1.00  0.00     0.202 C 
ENDROOT
BRANCH   1   2
ATOM      2  C   UNL A   1      43.286  18.182  26.077  1.00  0.00     0.261 C 
BRANCH   2   3
ATOM      3  O   UNL A   1      43.500  18.889  24.839  1.00  0.00    -0.460 OA
BRANCH   3   4
ATOM      4  C   UNL A   1      44.638  19.525  24.468  1.00  0.00     0.338 C 
ATOM      5  O   UNL A   1      45.515  18.930  23.852  1.00  0.00    -0.246 OA
BRANCH   4   6
ATOM      6  C   UNL A   1      44.809  20.966  24.752  1.00  0.00     0.060 A 
ATOM      7  C   UNL A   1      45.244  21.425  25.989  1.00  0.00     0.016 A 
ATOM      8  C   UNL A   1      44.570  21.898  23.743  1.00  0.00     0.016 A 
ATOM      9  C   UNL A   1      45.301  22.748  26.311  1.00  0.00     0.010 A 
ATOM     10  C   UNL A   1      44.746  23.255  24.012  1.00  0.00     0.010 A 
ATOM     11  C   UNL A   1      45.109  23.666  25.305  1.00  0.00    -0.014 A 
BRANCH  11  12
ATOM     12  C   UNL A   1      45.244  25.059  25.702  1.00  0.00     0.031 A 
ATOM     13  C   UNL A   1      46.561  25.704  25.488  1.00  0.00     0.074 A 
ATOM     14  C   UNL A   1      44.145  25.723  26.099  1.00  0.00     0.049 A 
ATOM     15  N   UNL A   1      46.996  26.840  25.945  1.00  0.00    -0.248 NA
ATOM     16  C   UNL A   1      47.524  24.965  24.652  1.00  0.00     0.031 C 
ATOM     17  C   UNL A   1      42.779  25.179  26.114  1.00  0.00     0.029 A 
ATOM     18  N   UNL A   1      43.997  27.002  26.544  1.00  0.00    -0.354 N 
ATOM     19  C   UNL A   1      48.315  26.912  25.531  1.00  0.00     0.074 A 
ATOM     20  C   UNL A   1      48.600  25.727  24.756  1.00  0.00     0.031 C 
ATOM     21  C   UNL A   1      41.935  26.122  26.552  1.00  0.00     0.029 A 
ATOM     22  C   UNL A   1      42.718  27.276  26.958  1.00  0.00     0.049 A 
ATOM     23  H   UNL A   1      44.729  27.660  26.564  1.00  0.00     0.167 HD
ATOM     24  C   UNL A   1      49.204  27.883  25.836  1.00  0.00     0.031 A 
ATOM     25  C   UNL A   1      42.266  28.312  27.682  1.00  0.00     0.031 A 
ATOM     26  C   UNL A   1      48.835  29.020  26.632  1.00  0.00     0.049 A 
ATOM     27  C   UNL A   1      43.284  29.330  28.101  1.00  0.00     0.074 A 
ATOM     28  C   UNL A   1      49.620  30.056  27.089  1.00  0.00     0.029 A 
ATOM     29  N   UNL A   1      47.539  29.256  27.088  1.00  0.00    -0.354 N 
ATOM     30  N   UNL A   1      44.569  29.363  27.824  1.00  0.00    -0.248 NA
ATOM     31  C   UNL A   1      42.813  30.433  28.939  1.00  0.00     0.031 C 
ATOM     32  C   UNL A   1      48.808  30.889  27.871  1.00  0.00     0.029 A 
ATOM     33  C   UNL A   1      47.502  30.411  27.842  1.00  0.00     0.049 A 
ATOM     34  H   UNL A   1      46.761  28.680  26.901  1.00  0.00     0.167 HD
ATOM     35  C   UNL A   1      45.063  30.500  28.437  1.00  0.00     0.074 A 
ATOM     36  C   UNL A   1      43.931  31.132  29.094  1.00  0.00     0.031 C 
ATOM     37  C   UNL A   1      46.330  30.985  28.459  1.00  0.00     0.031 A 
BRANCH  24  38
ATOM     38  C   UNL A   1      50.628  27.639  25.431  1.00  0.00    -0.014 A 
ATOM     39  C   UNL A   1      51.139  28.068  24.196  1.00  0.00     0.009 A 
ATOM     40  C   UNL A   1      51.444  26.859  26.266  1.00  0.00     0.009 A 
ATOM     41  C   UNL A   1      52.413  27.667  23.780  1.00  0.00     0.001 A 
ATOM     42  C   UNL A   1      52.728  26.489  25.863  1.00  0.00     0.001 A 
ATOM     43  C   UNL A   1      53.205  26.876  24.613  1.00  0.00     0.000 A 
ENDBRANCH  24  38
BRANCH  25  44
ATOM     44  C   UNL A   1      40.846  28.344  28.121  1.00  0.00    -0.014 A 
ATOM     45  C   UNL A   1      40.445  27.723  29.310  1.00  0.00     0.009 A 
ATOM     46  C   UNL A   1      39.890  29.066  27.381  1.00  0.00     0.009 A 
ATOM     47  C   UNL A   1      39.119  27.818  29.746  1.00  0.00     0.001 A 
ATOM     48  C   UNL A   1      38.575  29.185  27.834  1.00  0.00     0.001 A 
ATOM     49  C   UNL A   1      38.188  28.555  29.014  1.00  0.00     0.000 A 
ENDBRANCH  25  44
BRANCH  37  50
ATOM     50  C   UNL A   1      46.531  32.288  29.168  1.00  0.00    -0.014 A 
ATOM     51  C   UNL A   1      46.343  33.511  28.511  1.00  0.00     0.009 A 
ATOM     52  C   UNL A   1      46.812  32.275  30.544  1.00  0.00     0.009 A 
ATOM     53  C   UNL A   1      46.442  34.706  29.224  1.00  0.00     0.001 A 
ATOM     54  C   UNL A   1      46.881  33.468  31.256  1.00  0.00     0.001 A 
ATOM     55  C   UNL A   1      46.698  34.682  30.595  1.00  0.00     0.000 A 
ENDBRANCH  37  50
ENDBRANCH  11  12
ENDBRANCH   4   6
ENDBRANCH   3   4
ENDBRANCH   2   3
ENDBRANCH   1   2
BRANCH   1  56
ATOM     56  O   UNL A   1      41.313  19.630  26.550  1.00  0.00    -0.374 OA
BRANCH  56  57
ATOM     57  C   UNL A   1      40.811  20.794  27.210  1.00  0.00     0.202 C 
BRANCH  57  58
ATOM     58  C   UNL A   1      40.537  21.837  26.137  1.00  0.00     0.261 C 
BRANCH  58  59
ATOM     59  O   UNL A   1      39.118  21.878  25.952  1.00  0.00    -0.459 OA
BRANCH  59  60
ATOM     60  C   UNL A   1      38.514  23.101  26.146  1.00  0.00     0.365 C 
ATOM     61  O   UNL A   1      39.007  24.062  26.704  1.00  0.00    -0.245 OA
BRANCH  60  62
ATOM     62  C   UNL A   1      37.123  23.011  25.516  1.00  0.00     0.298 C 
ATOM     63  C   UNL A   1      36.917  21.495  25.476  1.00  0.00     0.115 C 
ATOM     64  N   UNL A   1      36.099  23.813  26.242  1.00  0.00    -0.323 N 
ATOM     65  C   UNL A   1      35.506  21.182  25.283  1.00  0.00    -0.006 A 
ATOM     66  C   UNL A   1      34.688  23.543  25.906  1.00  0.00     0.264 C 
ATOM     67  H   UNL A   1      36.281  24.798  26.045  1.00  0.00     0.347 HD
ATOM     68  H   UNL A   1      36.197  23.553  27.224  1.00  0.00     0.347 HD
ATOM     69  C   UNL A   1      34.510  22.105  25.500  1.00  0.00     0.083 A 
ATOM     70  C   UNL A   1      34.939  19.952  24.919  1.00  0.00     0.003 A 
ATOM     71  N   UNL A   1      33.323  21.436  25.348  1.00  0.00    -0.353 N 
ATOM     72  C   UNL A   1      33.559  20.122  24.985  1.00  0.00     0.046 A 
ATOM     73  C   UNL A   1      35.483  18.706  24.568  1.00  0.00     0.010 A 
ATOM     74  H   UNL A   1      32.430  21.832  25.476  1.00  0.00     0.166 HD
ATOM     75  C   UNL A   1      32.679  19.068  24.724  1.00  0.00     0.026 A 
ATOM     76  C   UNL A   1      34.620  17.651  24.289  1.00  0.00     0.001 A 
ATOM     77  C   UNL A   1      33.240  17.831  24.373  1.00  0.00     0.002 A 
BRANCH  66  78
ATOM     78  C   UNL A   1      34.011  24.527  24.945  1.00  0.00     0.041 A 
ATOM     79  C   UNL A   1      34.256  24.498  23.573  1.00  0.00     0.093 A 
ATOM     80  C   UNL A   1      33.040  25.591  25.110  1.00  0.00     0.009 A 
ATOM     81  N   UNL A   1      33.565  25.498  22.952  1.00  0.00    -0.361 N 
ATOM     82  C   UNL A   1      32.783  26.160  23.858  1.00  0.00     0.046 A 
ATOM     83  C   UNL A   1      32.333  26.154  26.188  1.00  0.00     0.011 A 
ATOM     84  H   UNL A   1      33.621  25.710  21.992  1.00  0.00     0.166 HD
ATOM     85  C   UNL A   1      31.882  27.219  23.648  1.00  0.00     0.026 A 
ATOM     86  C   UNL A   1      31.415  27.198  26.010  1.00  0.00     0.001 A 
ATOM     87  C   UNL A   1      31.190  27.723  24.748  1.00  0.00     0.002 A 
ENDBRANCH  66  78
ENDBRANCH  60  62
ENDBRANCH  59  60
ENDBRANCH  58  59
ENDBRANCH  57  58
ENDBRANCH  56  57
ENDBRANCH   1  56
TORSDOF 15
ENDMDL
