MODEL 1
REMARK VINA RESULT:     -11.3      0.000      0.000
REMARK SMILES O=C(OCCOCCOC(=O)c1nccnc1C(=O)Nc1n[nH]c2ncccc12)c1ccc(-c2c3nc(c(-c4ccccc4)c4ccc([nH]4)c(-c4ccccc4)c4nc(c(-c5ccccc5)c5ccc2[nH]5)C=C4)C=C3)cc1
REMARK SMILES IDX 6 1 5 2 4 3 3 4 2 5 1 6 30 7 31 8 77 9 32 10 76 11 33 12
REMARK SMILES IDX 34 13 35 14 70 15 36 16 75 17 69 18 71 19 37 20 74 21 68 22
REMARK SMILES IDX 67 23 38 25 60 26 45 27 59 28 46 29 49 30 58 31 72 32 47 33
REMARK SMILES IDX 48 34 57 36 73 37 50 38 39 39 40 40 44 41 41 42 43 43 42 44
REMARK SMILES IDX 61 45 62 46 66 47 63 48 65 49 64 50 51 51 52 52 56 53 53 54
REMARK SMILES IDX 55 55 54 56 7 57 8 58 9 59 10 60 11 61 12 62 13 63 17 64
REMARK SMILES IDX 14 65 16 66 15 67 18 68 19 69 20 70 21 72 22 73 29 74 23 75
REMARK SMILES IDX 24 76 28 77 25 79 27 80 26 81
REMARK H PARENT 71 24 49 35 20 71 23 78
REMARK Flexibility Score: inf
ROOT
ATOM      1  O   UNL A   1      37.741  21.206  24.754  1.00  0.00    -0.374 OA
ENDROOT
BRANCH   1   2
ATOM      2  C   UNL A   1      38.221  19.877  24.757  1.00  0.00     0.202 C 
BRANCH   2   3
ATOM      3  C   UNL A   1      39.055  19.473  25.968  1.00  0.00     0.261 C 
BRANCH   3   4
ATOM      4  O   UNL A   1      40.349  18.951  25.624  1.00  0.00    -0.460 OA
BRANCH   4   5
ATOM      5  C   UNL A   1      41.539  19.358  26.139  1.00  0.00     0.338 C 
ATOM      6  O   UNL A   1      42.448  18.553  26.306  1.00  0.00    -0.246 OA
BRANCH   5   7
ATOM      7  C   UNL A   1      41.784  20.776  26.491  1.00  0.00     0.060 A 
ATOM      8  C   UNL A   1      41.946  21.775  25.535  1.00  0.00     0.016 A 
ATOM      9  C   UNL A   1      41.686  21.153  27.829  1.00  0.00     0.016 A 
ATOM     10  C   UNL A   1      42.237  23.079  25.880  1.00  0.00     0.010 A 
ATOM     11  C   UNL A   1      41.820  22.499  28.182  1.00  0.00     0.010 A 
ATOM     12  C   UNL A   1      42.144  23.461  27.208  1.00  0.00    -0.014 A 
BRANCH  12  13
ATOM     13  C   UNL A   1      42.492  24.844  27.575  1.00  0.00     0.031 A 
ATOM     14  C   UNL A   1      43.942  25.212  27.571  1.00  0.00     0.074 A 
ATOM     15  C   UNL A   1      41.533  25.758  27.820  1.00  0.00     0.049 A 
ATOM     16  N   UNL A   1      44.533  26.255  28.081  1.00  0.00    -0.248 NA
ATOM     17  C   UNL A   1      44.855  24.257  26.916  1.00  0.00     0.031 C 
ATOM     18  C   UNL A   1      40.087  25.537  27.693  1.00  0.00     0.029 A 
ATOM     19  N   UNL A   1      41.630  27.067  28.205  1.00  0.00    -0.354 N 
ATOM     20  C   UNL A   1      45.890  26.040  27.883  1.00  0.00     0.074 A 
ATOM     21  C   UNL A   1      46.037  24.775  27.203  1.00  0.00     0.031 C 
ATOM     22  C   UNL A   1      39.441  26.683  27.954  1.00  0.00     0.029 A 
ATOM     23  C   UNL A   1      40.412  27.678  28.384  1.00  0.00     0.049 A 
ATOM     24  H   UNL A   1      42.490  27.526  28.341  1.00  0.00     0.167 HD
ATOM     25  C   UNL A   1      46.916  26.834  28.260  1.00  0.00     0.031 A 
ATOM     26  C   UNL A   1      40.123  28.885  28.901  1.00  0.00     0.031 A 
ATOM     27  C   UNL A   1      46.714  28.096  28.915  1.00  0.00     0.049 A 
ATOM     28  C   UNL A   1      41.275  29.713  29.399  1.00  0.00     0.074 A 
ATOM     29  C   UNL A   1      47.651  28.978  29.416  1.00  0.00     0.029 A 
ATOM     30  N   UNL A   1      45.463  28.658  29.141  1.00  0.00    -0.354 N 
ATOM     31  N   UNL A   1      42.562  29.459  29.335  1.00  0.00    -0.248 NA
ATOM     32  C   UNL A   1      40.940  30.974  30.067  1.00  0.00     0.031 C 
ATOM     33  C   UNL A   1      46.961  30.057  29.984  1.00  0.00     0.029 A 
ATOM     34  C   UNL A   1      45.600  29.873  29.783  1.00  0.00     0.049 A 
ATOM     35  H   UNL A   1      44.606  28.250  28.883  1.00  0.00     0.167 HD
ATOM     36  C   UNL A   1      43.194  30.535  29.938  1.00  0.00     0.074 A 
ATOM     37  C   UNL A   1      42.145  31.455  30.342  1.00  0.00     0.031 C 
ATOM     38  C   UNL A   1      44.516  30.750  30.152  1.00  0.00     0.031 A 
BRANCH  25  39
ATOM     39  C   UNL A   1      48.304  26.300  28.052  1.00  0.00    -0.014 A 
ATOM     40  C   UNL A   1      48.980  25.577  29.047  1.00  0.00     0.009 A 
ATOM     41  C   UNL A   1      48.974  26.584  26.851  1.00  0.00     0.009 A 
ATOM     42  C   UNL A   1      50.312  25.194  28.863  1.00  0.00     0.001 A 
ATOM     43  C   UNL A   1      50.294  26.173  26.656  1.00  0.00     0.001 A 
ATOM     44  C   UNL A   1      50.966  25.491  27.669  1.00  0.00     0.000 A 
ENDBRANCH  25  39
BRANCH  26  45
ATOM     45  C   UNL A   1      38.712  29.334  29.054  1.00  0.00    -0.014 A 
ATOM     46  C   UNL A   1      37.967  28.992  30.193  1.00  0.00     0.009 A 
ATOM     47  C   UNL A   1      38.092  30.108  28.058  1.00  0.00     0.009 A 
ATOM     48  C   UNL A   1      36.633  29.395  30.320  1.00  0.00     0.001 A 
ATOM     49  C   UNL A   1      36.771  30.540  28.201  1.00  0.00     0.001 A 
ATOM     50  C   UNL A   1      36.039  30.173  29.327  1.00  0.00     0.000 A 
ENDBRANCH  26  45
BRANCH  38  51
ATOM     51  C   UNL A   1      44.886  32.050  30.802  1.00  0.00    -0.014 A 
ATOM     52  C   UNL A   1      44.989  32.164  32.195  1.00  0.00     0.009 A 
ATOM     53  C   UNL A   1      45.188  33.156  29.994  1.00  0.00     0.009 A 
ATOM     54  C   UNL A   1      45.357  33.380  32.771  1.00  0.00     0.001 A 
ATOM     55  C   UNL A   1      45.588  34.360  30.571  1.00  0.00     0.001 A 
ATOM     56  C   UNL A   1      45.664  34.471  31.959  1.00  0.00     0.000 A 
ENDBRANCH  38  51
ENDBRANCH  12  13
ENDBRANCH   5   7
ENDBRANCH   4   5
ENDBRANCH   3   4
ENDBRANCH   2   3
ENDBRANCH   1   2
BRANCH   1  57
ATOM     57  C   UNL A   1      38.190  22.142  25.730  1.00  0.00     0.202 C 
BRANCH  57  58
ATOM     58  C   UNL A   1      37.329  23.590  25.698  1.00  0.00     0.261 C 
BRANCH  58  59
ATOM     59  O   UNL A   1      35.655  24.060  24.628  1.00  0.00    -0.458 OA
BRANCH  59  60
ATOM     60  C   UNL A   1      34.493  23.946  23.785  1.00  0.00     0.359 C 
ATOM     61  O   UNL A   1      34.166  22.858  23.312  1.00  0.00    -0.244 OA
BRANCH  60  62
ATOM     62  C   UNL A   1      33.674  25.155  23.391  1.00  0.00     0.179 A 
ATOM     63  N   UNL A   1      33.579  25.182  22.010  1.00  0.00    -0.245 NA
ATOM     64  C   UNL A   1      33.164  26.207  24.181  1.00  0.00     0.161 A 
ATOM     65  C   UNL A   1      32.987  26.246  21.442  1.00  0.00     0.132 A 
ATOM     66  N   UNL A   1      32.604  27.293  23.535  1.00  0.00    -0.247 NA
ATOM     67  C   UNL A   1      32.516  27.292  22.192  1.00  0.00     0.132 A 
BRANCH  64  68
ATOM     68  C   UNL A   1      33.076  26.475  25.689  1.00  0.00     0.278 C 
ATOM     69  O   UNL A   1      33.757  27.402  26.153  1.00  0.00    -0.267 OA
ATOM     70  N   UNL A   1      32.304  25.835  26.620  1.00  0.00    -0.303 N 
ATOM     71  H   UNL A   1      32.152  26.331  27.457  1.00  0.00     0.172 HD
BRANCH  70  72
ATOM     72  C   UNL A   1      31.719  24.618  26.552  1.00  0.00     0.164 A 
ATOM     73  N   UNL A   1      30.471  24.502  26.072  1.00  0.00    -0.155 NA
ATOM     74  C   UNL A   1      32.366  23.412  26.811  1.00  0.00     0.063 A 
ATOM     75  N   UNL A   1      30.346  23.256  25.521  1.00  0.00    -0.259 N 
ATOM     76  C   UNL A   1      31.392  22.423  25.767  1.00  0.00     0.157 A 
ATOM     77  C   UNL A   1      34.015  22.791  27.319  1.00  0.00     0.017 A 
ATOM     78  H   UNL A   1      29.563  22.985  24.990  1.00  0.00     0.192 HD
ATOM     79  N   UNL A   1      31.869  20.900  25.160  1.00  0.00    -0.237 NA
ATOM     80  C   UNL A   1      34.576  21.220  26.672  1.00  0.00     0.021 A 
ATOM     81  C   UNL A   1      33.482  20.360  25.586  1.00  0.00     0.113 A 
ENDBRANCH  70  72
ENDBRANCH  64  68
ENDBRANCH  60  62
ENDBRANCH  59  60
ENDBRANCH  58  59
ENDBRANCH  57  58
ENDBRANCH   1  57
TORSDOF 16
ENDMDL
MODEL 2
REMARK VINA RESULT:     -11.2      1.303      2.118
REMARK SMILES O=C(OCCOCCOC(=O)c1nccnc1C(=O)Nc1n[nH]c2ncccc12)c1ccc(-c2c3nc(c(-c4ccccc4)c4ccc([nH]4)c(-c4ccccc4)c4nc(c(-c5ccccc5)c5ccc2[nH]5)C=C4)C=C3)cc1
REMARK SMILES IDX 6 1 5 2 4 3 3 4 2 5 1 6 30 7 31 8 77 9 32 10 76 11 33 12
REMARK SMILES IDX 34 13 35 14 70 15 36 16 75 17 69 18 71 19 37 20 74 21 68 22
REMARK SMILES IDX 67 23 38 25 60 26 45 27 59 28 46 29 49 30 58 31 72 32 47 33
REMARK SMILES IDX 48 34 57 36 73 37 50 38 39 39 40 40 44 41 41 42 43 43 42 44
REMARK SMILES IDX 61 45 62 46 66 47 63 48 65 49 64 50 51 51 52 52 56 53 53 54
REMARK SMILES IDX 55 55 54 56 7 57 8 58 9 59 10 60 11 61 12 62 13 63 17 64
REMARK SMILES IDX 14 65 16 66 15 67 18 68 19 69 20 70 21 72 22 73 29 74 23 75
REMARK SMILES IDX 24 76 28 77 25 79 27 80 26 81
REMARK H PARENT 71 24 49 35 20 71 23 78
REMARK Flexibility Score: inf
ROOT
ATOM      1  O   UNL A   1      37.554  21.150  24.813  1.00  0.00    -0.374 OA
ENDROOT
BRANCH   1   2
ATOM      2  C   UNL A   1      38.168  19.887  24.653  1.00  0.00     0.202 C 
BRANCH   2   3
ATOM      3  C   UNL A   1      38.985  19.390  25.842  1.00  0.00     0.261 C 
BRANCH   3   4
ATOM      4  O   UNL A   1      40.358  19.116  25.520  1.00  0.00    -0.460 OA
BRANCH   4   5
ATOM      5  C   UNL A   1      41.441  19.492  26.249  1.00  0.00     0.338 C 
ATOM      6  O   UNL A   1      42.254  18.655  26.626  1.00  0.00    -0.246 OA
BRANCH   5   7
ATOM      7  C   UNL A   1      41.687  20.912  26.594  1.00  0.00     0.060 A 
ATOM      8  C   UNL A   1      41.637  21.937  25.652  1.00  0.00     0.016 A 
ATOM      9  C   UNL A   1      41.812  21.256  27.938  1.00  0.00     0.016 A 
ATOM     10  C   UNL A   1      41.931  23.246  25.978  1.00  0.00     0.010 A 
ATOM     11  C   UNL A   1      41.951  22.599  28.300  1.00  0.00     0.010 A 
ATOM     12  C   UNL A   1      42.059  23.594  27.312  1.00  0.00    -0.014 A 
BRANCH  12  13
ATOM     13  C   UNL A   1      42.410  24.984  27.652  1.00  0.00     0.031 A 
ATOM     14  C   UNL A   1      43.858  25.358  27.605  1.00  0.00     0.074 A 
ATOM     15  C   UNL A   1      41.453  25.896  27.910  1.00  0.00     0.049 A 
ATOM     16  N   UNL A   1      44.457  26.410  28.086  1.00  0.00    -0.248 NA
ATOM     17  C   UNL A   1      44.758  24.398  26.938  1.00  0.00     0.031 C 
ATOM     18  C   UNL A   1      40.006  25.668  27.824  1.00  0.00     0.029 A 
ATOM     19  N   UNL A   1      41.555  27.211  28.276  1.00  0.00    -0.354 N 
ATOM     20  C   UNL A   1      45.810  26.199  27.854  1.00  0.00     0.074 A 
ATOM     21  C   UNL A   1      45.944  24.926  27.187  1.00  0.00     0.031 C 
ATOM     22  C   UNL A   1      39.361  26.815  28.088  1.00  0.00     0.029 A 
ATOM     23  C   UNL A   1      40.339  27.819  28.479  1.00  0.00     0.049 A 
ATOM     24  H   UNL A   1      42.415  27.676  28.383  1.00  0.00     0.167 HD
ATOM     25  C   UNL A   1      46.842  27.002  28.194  1.00  0.00     0.031 A 
ATOM     26  C   UNL A   1      40.058  29.031  28.988  1.00  0.00     0.031 A 
ATOM     27  C   UNL A   1      46.651  28.272  28.837  1.00  0.00     0.049 A 
ATOM     28  C   UNL A   1      41.219  29.871  29.444  1.00  0.00     0.074 A 
ATOM     29  C   UNL A   1      47.596  29.165  29.301  1.00  0.00     0.029 A 
ATOM     30  N   UNL A   1      45.404  28.832  29.089  1.00  0.00    -0.354 N 
ATOM     31  N   UNL A   1      42.505  29.622  29.350  1.00  0.00    -0.248 NA
ATOM     32  C   UNL A   1      40.896  31.139  30.105  1.00  0.00     0.031 C 
ATOM     33  C   UNL A   1      46.917  30.247  29.873  1.00  0.00     0.029 A 
ATOM     34  C   UNL A   1      45.552  30.055  29.711  1.00  0.00     0.049 A 
ATOM     35  H   UNL A   1      44.542  28.416  28.859  1.00  0.00     0.167 HD
ATOM     36  C   UNL A   1      43.147  30.708  29.922  1.00  0.00     0.074 A 
ATOM     37  C   UNL A   1      42.105  31.629  30.341  1.00  0.00     0.031 C 
ATOM     38  C   UNL A   1      44.473  30.932  30.098  1.00  0.00     0.031 A 
BRANCH  25  39
ATOM     39  C   UNL A   1      48.226  26.472  27.955  1.00  0.00    -0.014 A 
ATOM     40  C   UNL A   1      48.922  26.720  26.762  1.00  0.00     0.009 A 
ATOM     41  C   UNL A   1      48.821  25.651  28.926  1.00  0.00     0.009 A 
ATOM     42  C   UNL A   1      50.161  26.116  26.526  1.00  0.00     0.001 A 
ATOM     43  C   UNL A   1      50.072  25.074  28.702  1.00  0.00     0.001 A 
ATOM     44  C   UNL A   1      50.735  25.296  27.496  1.00  0.00     0.000 A 
ENDBRANCH  25  39
BRANCH  26  45
ATOM     45  C   UNL A   1      38.649  29.476  29.172  1.00  0.00    -0.014 A 
ATOM     46  C   UNL A   1      37.965  30.144  28.145  1.00  0.00     0.009 A 
ATOM     47  C   UNL A   1      37.973  29.239  30.382  1.00  0.00     0.009 A 
ATOM     48  C   UNL A   1      36.649  30.581  28.332  1.00  0.00     0.001 A 
ATOM     49  C   UNL A   1      36.647  29.646  30.556  1.00  0.00     0.001 A 
ATOM     50  C   UNL A   1      35.991  30.327  29.534  1.00  0.00     0.000 A 
ENDBRANCH  26  45
BRANCH  38  51
ATOM     51  C   UNL A   1      44.855  32.242  30.720  1.00  0.00    -0.014 A 
ATOM     52  C   UNL A   1      45.030  32.366  32.105  1.00  0.00     0.009 A 
ATOM     53  C   UNL A   1      45.093  33.349  29.892  1.00  0.00     0.009 A 
ATOM     54  C   UNL A   1      45.407  33.591  32.655  1.00  0.00     0.001 A 
ATOM     55  C   UNL A   1      45.502  34.562  30.441  1.00  0.00     0.001 A 
ATOM     56  C   UNL A   1      45.650  34.683  31.822  1.00  0.00     0.000 A 
ENDBRANCH  38  51
ENDBRANCH  12  13
ENDBRANCH   5   7
ENDBRANCH   4   5
ENDBRANCH   3   4
ENDBRANCH   2   3
ENDBRANCH   1   2
BRANCH   1  57
ATOM     57  C   UNL A   1      37.999  22.051  25.822  1.00  0.00     0.202 C 
BRANCH  57  58
ATOM     58  C   UNL A   1      37.604  23.656  25.492  1.00  0.00     0.261 C 
BRANCH  58  59
ATOM     59  O   UNL A   1      35.780  24.460  25.051  1.00  0.00    -0.458 OA
BRANCH  59  60
ATOM     60  C   UNL A   1      34.499  25.104  25.188  1.00  0.00     0.359 C 
ATOM     61  O   UNL A   1      34.199  25.687  26.229  1.00  0.00    -0.244 OA
BRANCH  60  62
ATOM     62  C   UNL A   1      33.452  25.034  24.098  1.00  0.00     0.179 A 
ATOM     63  N   UNL A   1      33.839  25.878  23.071  1.00  0.00    -0.245 NA
ATOM     64  C   UNL A   1      32.205  24.374  24.074  1.00  0.00     0.161 A 
ATOM     65  C   UNL A   1      32.986  26.055  22.048  1.00  0.00     0.132 A 
ATOM     66  N   UNL A   1      31.355  24.630  23.014  1.00  0.00    -0.247 NA
ATOM     67  C   UNL A   1      31.758  25.449  22.025  1.00  0.00     0.132 A 
BRANCH  64  68
ATOM     68  C   UNL A   1      31.496  23.378  25.000  1.00  0.00     0.278 C 
ATOM     69  O   UNL A   1      30.507  23.779  25.633  1.00  0.00    -0.267 OA
ATOM     70  N   UNL A   1      31.792  22.059  25.211  1.00  0.00    -0.303 N 
ATOM     71  H   UNL A   1      31.062  21.517  25.591  1.00  0.00     0.172 HD
BRANCH  70  72
ATOM     72  C   UNL A   1      32.944  21.393  24.970  1.00  0.00     0.164 A 
ATOM     73  N   UNL A   1      33.983  21.533  25.808  1.00  0.00    -0.155 NA
ATOM     74  C   UNL A   1      33.112  20.432  23.978  1.00  0.00     0.063 A 
ATOM     75  N   UNL A   1      34.720  20.382  25.761  1.00  0.00    -0.259 N 
ATOM     76  C   UNL A   1      34.350  19.516  24.780  1.00  0.00     0.157 A 
ATOM     77  C   UNL A   1      32.157  19.627  22.635  1.00  0.00     0.017 A 
ATOM     78  H   UNL A   1      35.458  20.195  26.385  1.00  0.00     0.192 HD
ATOM     79  N   UNL A   1      34.740  17.894  24.414  1.00  0.00    -0.237 NA
ATOM     80  C   UNL A   1      32.500  17.914  22.247  1.00  0.00     0.021 A 
ATOM     81  C   UNL A   1      33.760  17.113  23.187  1.00  0.00     0.113 A 
ENDBRANCH  70  72
ENDBRANCH  64  68
ENDBRANCH  60  62
ENDBRANCH  59  60
ENDBRANCH  58  59
ENDBRANCH  57  58
ENDBRANCH   1  57
TORSDOF 16
ENDMDL
MODEL 3
REMARK VINA RESULT:     -10.9      3.791      5.764
REMARK SMILES O=C(OCCOCCOC(=O)c1nccnc1C(=O)Nc1n[nH]c2ncccc12)c1ccc(-c2c3nc(c(-c4ccccc4)c4ccc([nH]4)c(-c4ccccc4)c4nc(c(-c5ccccc5)c5ccc2[nH]5)C=C4)C=C3)cc1
REMARK SMILES IDX 6 1 5 2 4 3 3 4 2 5 1 6 30 7 31 8 77 9 32 10 76 11 33 12
REMARK SMILES IDX 34 13 35 14 70 15 36 16 75 17 69 18 71 19 37 20 74 21 68 22
REMARK SMILES IDX 67 23 38 25 60 26 45 27 59 28 46 29 49 30 58 31 72 32 47 33
REMARK SMILES IDX 48 34 57 36 73 37 50 38 39 39 40 40 44 41 41 42 43 43 42 44
REMARK SMILES IDX 61 45 62 46 66 47 63 48 65 49 64 50 51 51 52 52 56 53 53 54
REMARK SMILES IDX 55 55 54 56 7 57 8 58 9 59 10 60 11 61 12 62 13 63 17 64
REMARK SMILES IDX 14 65 16 66 15 67 18 68 19 69 20 70 21 72 22 73 29 74 23 75
REMARK SMILES IDX 24 76 28 77 25 79 27 80 26 81
REMARK H PARENT 71 24 49 35 20 71 23 78
REMARK Flexibility Score: inf
ROOT
ATOM      1  O   UNL A   1      39.222  22.111  26.363  1.00  0.00    -0.374 OA
ENDROOT
BRANCH   1   2
ATOM      2  C   UNL A   1      40.048  20.967  26.268  1.00  0.00     0.202 C 
BRANCH   2   3
ATOM      3  C   UNL A   1      41.550  21.229  26.281  1.00  0.00     0.261 C 
BRANCH   3   4
ATOM      4  O   UNL A   1      41.962  22.255  25.363  1.00  0.00    -0.460 OA
BRANCH   4   5
ATOM      5  C   UNL A   1      42.812  23.279  25.636  1.00  0.00     0.338 C 
ATOM      6  O   UNL A   1      43.910  23.333  25.095  1.00  0.00    -0.246 OA
BRANCH   5   7
ATOM      7  C   UNL A   1      42.437  24.367  26.570  1.00  0.00     0.060 A 
ATOM      8  C   UNL A   1      42.836  25.689  26.390  1.00  0.00     0.016 A 
ATOM      9  C   UNL A   1      41.514  24.087  27.576  1.00  0.00     0.016 A 
ATOM     10  C   UNL A   1      42.531  26.677  27.303  1.00  0.00     0.010 A 
ATOM     11  C   UNL A   1      41.071  25.114  28.414  1.00  0.00     0.010 A 
ATOM     12  C   UNL A   1      41.618  26.406  28.308  1.00  0.00    -0.014 A 
BRANCH  12  13
ATOM     13  C   UNL A   1      41.324  27.453  29.302  1.00  0.00     0.031 A 
ATOM     14  C   UNL A   1      42.236  27.553  30.483  1.00  0.00     0.074 A 
ATOM     15  C   UNL A   1      40.325  28.334  29.105  1.00  0.00     0.049 A 
ATOM     16  N   UNL A   1      42.072  28.196  31.605  1.00  0.00    -0.248 NA
ATOM     17  C   UNL A   1      43.504  26.804  30.393  1.00  0.00     0.031 C 
ATOM     18  C   UNL A   1      39.481  28.419  27.907  1.00  0.00     0.029 A 
ATOM     19  N   UNL A   1      39.864  29.347  29.901  1.00  0.00    -0.354 N 
ATOM     20  C   UNL A   1      43.172  27.862  32.383  1.00  0.00     0.074 A 
ATOM     21  C   UNL A   1      43.999  26.968  31.609  1.00  0.00     0.031 C 
ATOM     22  C   UNL A   1      38.637  29.454  28.034  1.00  0.00     0.029 A 
ATOM     23  C   UNL A   1      38.795  30.024  29.363  1.00  0.00     0.049 A 
ATOM     24  H   UNL A   1      40.259  29.569  30.774  1.00  0.00     0.167 HD
ATOM     25  C   UNL A   1      43.444  28.264  33.644  1.00  0.00     0.031 A 
ATOM     26  C   UNL A   1      37.999  30.954  29.918  1.00  0.00     0.031 A 
ATOM     27  C   UNL A   1      42.597  29.175  34.363  1.00  0.00     0.049 A 
ATOM     28  C   UNL A   1      38.264  31.318  31.353  1.00  0.00     0.074 A 
ATOM     29  C   UNL A   1      42.704  29.621  35.665  1.00  0.00     0.029 A 
ATOM     30  N   UNL A   1      41.482  29.794  33.810  1.00  0.00    -0.354 N 
ATOM     31  N   UNL A   1      39.228  30.907  32.144  1.00  0.00    -0.248 NA
ATOM     32  C   UNL A   1      37.318  32.244  31.983  1.00  0.00     0.031 C 
ATOM     33  C   UNL A   1      41.626  30.479  35.912  1.00  0.00     0.029 A 
ATOM     34  C   UNL A   1      40.884  30.613  34.747  1.00  0.00     0.049 A 
ATOM     35  H   UNL A   1      41.165  29.666  32.887  1.00  0.00     0.167 HD
ATOM     36  C   UNL A   1      39.019  31.536  33.361  1.00  0.00     0.074 A 
ATOM     37  C   UNL A   1      37.845  32.375  33.193  1.00  0.00     0.031 C 
ATOM     38  C   UNL A   1      39.719  31.432  34.518  1.00  0.00     0.031 A 
BRANCH  25  39
ATOM     39  C   UNL A   1      44.633  27.641  34.316  1.00  0.00    -0.014 A 
ATOM     40  C   UNL A   1      44.536  26.441  35.038  1.00  0.00     0.009 A 
ATOM     41  C   UNL A   1      45.868  28.308  34.278  1.00  0.00     0.009 A 
ATOM     42  C   UNL A   1      45.636  25.949  35.746  1.00  0.00     0.001 A 
ATOM     43  C   UNL A   1      46.974  27.799  34.961  1.00  0.00     0.001 A 
ATOM     44  C   UNL A   1      46.854  26.627  35.706  1.00  0.00     0.000 A 
ENDBRANCH  25  39
BRANCH  26  45
ATOM     45  C   UNL A   1      36.850  31.526  29.164  1.00  0.00    -0.014 A 
ATOM     46  C   UNL A   1      35.734  30.737  28.845  1.00  0.00     0.009 A 
ATOM     47  C   UNL A   1      36.857  32.870  28.753  1.00  0.00     0.009 A 
ATOM     48  C   UNL A   1      34.668  31.273  28.114  1.00  0.00     0.001 A 
ATOM     49  C   UNL A   1      35.777  33.414  28.053  1.00  0.00     0.001 A 
ATOM     50  C   UNL A   1      34.688  32.611  27.725  1.00  0.00     0.000 A 
ENDBRANCH  26  45
BRANCH  38  51
ATOM     51  C   UNL A   1      39.256  32.287  35.659  1.00  0.00    -0.014 A 
ATOM     52  C   UNL A   1      39.695  33.611  35.801  1.00  0.00     0.009 A 
ATOM     53  C   UNL A   1      38.324  31.767  36.570  1.00  0.00     0.009 A 
ATOM     54  C   UNL A   1      39.231  34.391  36.860  1.00  0.00     0.001 A 
ATOM     55  C   UNL A   1      37.837  32.560  37.607  1.00  0.00     0.001 A 
ATOM     56  C   UNL A   1      38.298  33.868  37.755  1.00  0.00     0.000 A 
ENDBRANCH  38  51
ENDBRANCH  12  13
ENDBRANCH   5   7
ENDBRANCH   4   5
ENDBRANCH   3   4
ENDBRANCH   2   3
ENDBRANCH   1   2
BRANCH   1  57
ATOM     57  C   UNL A   1      37.973  22.163  25.681  1.00  0.00     0.202 C 
BRANCH  57  58
ATOM     58  C   UNL A   1      37.448  23.737  25.391  1.00  0.00     0.261 C 
BRANCH  58  59
ATOM     59  O   UNL A   1      35.543  24.421  25.119  1.00  0.00    -0.458 OA
BRANCH  59  60
ATOM     60  C   UNL A   1      34.323  25.170  25.275  1.00  0.00     0.359 C 
ATOM     61  O   UNL A   1      34.268  26.124  26.050  1.00  0.00    -0.244 OA
BRANCH  60  62
ATOM     62  C   UNL A   1      33.052  24.778  24.555  1.00  0.00     0.179 A 
ATOM     63  N   UNL A   1      32.484  23.710  25.229  1.00  0.00    -0.245 NA
ATOM     64  C   UNL A   1      32.512  25.248  23.339  1.00  0.00     0.161 A 
ATOM     65  C   UNL A   1      31.401  23.129  24.686  1.00  0.00     0.132 A 
ATOM     66  N   UNL A   1      31.422  24.581  22.811  1.00  0.00    -0.247 NA
ATOM     67  C   UNL A   1      30.884  23.550  23.489  1.00  0.00     0.132 A 
BRANCH  64  68
ATOM     68  C   UNL A   1      32.860  26.391  22.377  1.00  0.00     0.278 C 
ATOM     69  O   UNL A   1      33.622  26.139  21.430  1.00  0.00    -0.267 OA
ATOM     70  N   UNL A   1      32.410  27.683  22.398  1.00  0.00    -0.303 N 
ATOM     71  H   UNL A   1      32.497  28.175  21.549  1.00  0.00     0.172 HD
BRANCH  70  72
ATOM     72  C   UNL A   1      31.864  28.380  23.420  1.00  0.00     0.164 A 
ATOM     73  N   UNL A   1      32.655  28.898  24.373  1.00  0.00    -0.155 NA
ATOM     74  C   UNL A   1      30.523  28.745  23.504  1.00  0.00     0.063 A 
ATOM     75  N   UNL A   1      32.036  30.009  24.876  1.00  0.00    -0.259 N 
ATOM     76  C   UNL A   1      30.755  30.181  24.452  1.00  0.00     0.157 A 
ATOM     77  C   UNL A   1      28.963  28.560  22.559  1.00  0.00     0.017 A 
ATOM     78  H   UNL A   1      32.480  30.632  25.494  1.00  0.00     0.192 HD
ATOM     79  N   UNL A   1      29.627  31.458  24.560  1.00  0.00    -0.237 NA
ATOM     80  C   UNL A   1      27.770  29.894  22.605  1.00  0.00     0.021 A 
ATOM     81  C   UNL A   1      28.179  31.305  23.583  1.00  0.00     0.113 A 
ENDBRANCH  70  72
ENDBRANCH  64  68
ENDBRANCH  60  62
ENDBRANCH  59  60
ENDBRANCH  58  59
ENDBRANCH  57  58
ENDBRANCH   1  57
TORSDOF 16
ENDMDL
