MODEL 1
REMARK VINA RESULT:     -10.1      0.000      0.000
REMARK SMILES CC[C@](C)(NC(=O)CNC(=O)c1cccc(Cl)c1)C(=O)OCCOCCOC(=O)c1ccc(-c2c3nc(c(-c4ccccc4)c4ccc([nH]4)c(-c4ccccc4)c4nc(c(-c5ccccc5)c5ccc2[nH]5)C=C4)C=C3)cc1
REMARK SMILES IDX 23 1 22 2 21 3 19 4 20 5 3 6 4 7 2 8 1 9 5 10 6 11 7 13 8 14
REMARK SMILES IDX 9 15 10 16 11 18 12 19 13 20 18 21 14 22 16 23 15 24 17 25
REMARK SMILES IDX 24 26 25 27 26 28 27 29 28 30 29 31 30 32 31 33 77 34 32 35
REMARK SMILES IDX 76 36 33 37 34 38 35 39 70 40 36 41 75 42 69 43 71 44 37 45
REMARK SMILES IDX 74 46 68 47 67 48 38 50 60 51 45 52 59 53 46 54 49 55 58 56
REMARK SMILES IDX 72 57 47 58 48 59 57 61 73 62 50 63 39 64 40 65 44 66 41 67
REMARK SMILES IDX 43 68 42 69 61 70 62 71 66 72 63 73 65 74 64 75 51 76 52 77
REMARK SMILES IDX 56 78 53 79 55 80 54 81
REMARK H PARENT 5 12 9 17 71 49 49 60
REMARK Flexibility Score: inf
ROOT
ATOM      1  C   UNL A   1      33.285  29.201  26.530  1.00  0.00     0.202 C 
ENDROOT
BRANCH   1   2
ATOM      2  C   UNL A   1      33.455  27.915  25.511  1.00  0.00     0.261 C 
BRANCH   2   3
ATOM      3  O   UNL A   1      32.483  26.629  25.433  1.00  0.00    -0.462 OA
BRANCH   3   4
ATOM      4  C   UNL A   1      31.524  25.664  25.423  1.00  0.00     0.331 C 
ATOM      5  O   UNL A   1      30.541  25.880  26.144  1.00  0.00    -0.249 OA
BRANCH   4   6
ATOM      6  C   UNL A   1      31.508  24.259  24.599  1.00  0.00     0.135 C 
ATOM      7  C   UNL A   1      30.491  23.965  23.437  1.00  0.00     0.047 C 
BRANCH   6   8
ATOM      8  C   UNL A   1      31.262  23.110  25.646  1.00  0.00     0.037 C 
ATOM      9  C   UNL A   1      31.862  21.741  25.284  1.00  0.00     0.007 C 
ENDBRANCH   6   8
BRANCH   6  10
ATOM     10  N   UNL A   1      32.821  24.057  24.026  1.00  0.00    -0.339 N 
ATOM     11  C   UNL A   1      33.089  24.453  22.763  1.00  0.00     0.240 C 
ATOM     12  H   UNL A   1      33.525  23.629  24.562  1.00  0.00     0.164 HD
ATOM     13  O   UNL A   1      34.157  24.122  22.247  1.00  0.00    -0.273 OA
BRANCH  11  14
ATOM     14  C   UNL A   1      32.160  25.504  22.125  1.00  0.00     0.216 C 
BRANCH  14  15
ATOM     15  N   UNL A   1      32.014  27.065  22.080  1.00  0.00    -0.343 N 
ATOM     16  C   UNL A   1      31.385  28.226  22.591  1.00  0.00     0.251 C 
ATOM     17  H   UNL A   1      32.639  27.377  21.387  1.00  0.00     0.164 HD
ATOM     18  O   UNL A   1      32.121  29.224  22.606  1.00  0.00    -0.269 OA
BRANCH  16  19
ATOM     19  C   UNL A   1      29.933  28.562  22.899  1.00  0.00     0.041 A 
ATOM     20  C   UNL A   1      28.898  27.680  23.277  1.00  0.00     0.014 A 
ATOM     21  C   UNL A   1      29.610  29.923  22.984  1.00  0.00     0.034 A 
ATOM     22  C   UNL A   1      27.551  28.078  23.345  1.00  0.00     0.002 A 
ATOM     23  C   UNL A   1      28.273  30.339  23.127  1.00  0.00     0.041 A 
ATOM     24  C   UNL A   1      27.233  29.418  23.223  1.00  0.00     0.020 A 
ATOM     25  Cl  UNL A   1      27.897  32.019  23.122  1.00  0.00    -0.084 Cl
ENDBRANCH  16  19
ENDBRANCH  14  15
ENDBRANCH  11  14
ENDBRANCH   6  10
ENDBRANCH   4   6
ENDBRANCH   3   4
ENDBRANCH   2   3
ENDBRANCH   1   2
BRANCH   1  26
ATOM     26  O   UNL A   1      32.830  30.438  26.009  1.00  0.00    -0.374 OA
BRANCH  26  27
ATOM     27  C   UNL A   1      31.538  30.984  26.209  1.00  0.00     0.202 C 
BRANCH  27  28
ATOM     28  C   UNL A   1      31.565  32.386  26.841  1.00  0.00     0.261 C 
BRANCH  28  29
ATOM     29  O   UNL A   1      32.843  33.013  26.693  1.00  0.00    -0.460 OA
BRANCH  29  30
ATOM     30  C   UNL A   1      33.291  33.597  27.822  1.00  0.00     0.338 C 
ATOM     31  O   UNL A   1      32.678  34.382  28.535  1.00  0.00    -0.246 OA
BRANCH  30  32
ATOM     32  C   UNL A   1      34.534  32.922  28.234  1.00  0.00     0.060 A 
ATOM     33  C   UNL A   1      34.426  31.608  28.713  1.00  0.00     0.016 A 
ATOM     34  C   UNL A   1      35.782  33.536  28.111  1.00  0.00     0.016 A 
ATOM     35  C   UNL A   1      35.559  30.921  29.123  1.00  0.00     0.010 A 
ATOM     36  C   UNL A   1      36.916  32.862  28.567  1.00  0.00     0.010 A 
ATOM     37  C   UNL A   1      36.795  31.574  29.118  1.00  0.00    -0.014 A 
BRANCH  37  38
ATOM     38  C   UNL A   1      37.877  31.019  29.957  1.00  0.00     0.031 A 
ATOM     39  C   UNL A   1      38.833  30.054  29.310  1.00  0.00     0.074 A 
ATOM     40  C   UNL A   1      38.066  31.410  31.229  1.00  0.00     0.049 A 
ATOM     41  N   UNL A   1      39.866  29.439  29.823  1.00  0.00    -0.248 NA
ATOM     42  C   UNL A   1      38.597  29.750  27.887  1.00  0.00     0.031 C 
ATOM     43  C   UNL A   1      37.263  32.394  31.949  1.00  0.00     0.029 A 
ATOM     44  N   UNL A   1      39.017  31.014  32.136  1.00  0.00    -0.354 N 
ATOM     45  C   UNL A   1      40.396  28.675  28.792  1.00  0.00     0.074 A 
ATOM     46  C   UNL A   1      39.561  28.882  27.631  1.00  0.00     0.031 C 
ATOM     47  C   UNL A   1      37.750  32.517  33.197  1.00  0.00     0.029 A 
ATOM     48  C   UNL A   1      38.875  31.597  33.370  1.00  0.00     0.049 A 
ATOM     49  H   UNL A   1      39.732  30.371  31.922  1.00  0.00     0.167 HD
ATOM     50  C   UNL A   1      41.485  27.874  28.806  1.00  0.00     0.031 A 
ATOM     51  C   UNL A   1      39.561  31.391  34.510  1.00  0.00     0.031 A 
ATOM     52  C   UNL A   1      42.312  27.649  29.958  1.00  0.00     0.049 A 
ATOM     53  C   UNL A   1      40.702  30.402  34.527  1.00  0.00     0.074 A 
ATOM     54  C   UNL A   1      43.440  26.857  30.062  1.00  0.00     0.029 A 
ATOM     55  N   UNL A   1      42.093  28.205  31.208  1.00  0.00    -0.354 N 
ATOM     56  N   UNL A   1      41.213  29.704  33.540  1.00  0.00    -0.248 NA
ATOM     57  C   UNL A   1      41.364  30.179  35.822  1.00  0.00     0.031 C 
ATOM     58  C   UNL A   1      43.865  26.877  31.393  1.00  0.00     0.029 A 
ATOM     59  C   UNL A   1      43.045  27.741  32.100  1.00  0.00     0.049 A 
ATOM     60  H   UNL A   1      41.369  28.835  31.428  1.00  0.00     0.167 HD
ATOM     61  C   UNL A   1      42.274  28.990  34.090  1.00  0.00     0.074 A 
ATOM     62  C   UNL A   1      42.345  29.352  35.488  1.00  0.00     0.031 C 
ATOM     63  C   UNL A   1      43.113  28.112  33.488  1.00  0.00     0.031 A 
BRANCH  50  64
ATOM     64  C   UNL A   1      41.821  27.140  27.541  1.00  0.00    -0.014 A 
ATOM     65  C   UNL A   1      42.680  27.693  26.580  1.00  0.00     0.009 A 
ATOM     66  C   UNL A   1      41.307  25.850  27.337  1.00  0.00     0.009 A 
ATOM     67  C   UNL A   1      43.005  26.973  25.429  1.00  0.00     0.001 A 
ATOM     68  C   UNL A   1      41.656  25.121  26.200  1.00  0.00     0.001 A 
ATOM     69  C   UNL A   1      42.500  25.686  25.245  1.00  0.00     0.000 A 
ENDBRANCH  50  64
BRANCH  51  70
ATOM     70  C   UNL A   1      39.172  32.092  35.762  1.00  0.00    -0.014 A 
ATOM     71  C   UNL A   1      38.184  31.564  36.607  1.00  0.00     0.009 A 
ATOM     72  C   UNL A   1      39.738  33.338  36.078  1.00  0.00     0.009 A 
ATOM     73  C   UNL A   1      37.741  32.289  37.717  1.00  0.00     0.001 A 
ATOM     74  C   UNL A   1      39.318  34.043  37.207  1.00  0.00     0.001 A 
ATOM     75  C   UNL A   1      38.309  33.525  38.017  1.00  0.00     0.000 A 
ENDBRANCH  51  70
BRANCH  63  76
ATOM     76  C   UNL A   1      44.215  27.512  34.322  1.00  0.00    -0.014 A 
ATOM     77  C   UNL A   1      44.055  26.278  34.971  1.00  0.00     0.009 A 
ATOM     78  C   UNL A   1      45.451  28.172  34.417  1.00  0.00     0.009 A 
ATOM     79  C   UNL A   1      45.098  25.737  35.726  1.00  0.00     0.001 A 
ATOM     80  C   UNL A   1      46.502  27.613  35.145  1.00  0.00     0.001 A 
ATOM     81  C   UNL A   1      46.322  26.401  35.808  1.00  0.00     0.000 A 
ENDBRANCH  63  76
ENDBRANCH  37  38
ENDBRANCH  30  32
ENDBRANCH  29  30
ENDBRANCH  28  29
ENDBRANCH  27  28
ENDBRANCH  26  27
ENDBRANCH   1  26
TORSDOF 19
ENDMDL
MODEL 2
REMARK VINA RESULT:     -10.0      0.941      5.967
REMARK SMILES CC[C@](C)(NC(=O)CNC(=O)c1cccc(Cl)c1)C(=O)OCCOCCOC(=O)c1ccc(-c2c3nc(c(-c4ccccc4)c4ccc([nH]4)c(-c4ccccc4)c4nc(c(-c5ccccc5)c5ccc2[nH]5)C=C4)C=C3)cc1
REMARK SMILES IDX 23 1 22 2 21 3 19 4 20 5 3 6 4 7 2 8 1 9 5 10 6 11 7 13 8 14
REMARK SMILES IDX 9 15 10 16 11 18 12 19 13 20 18 21 14 22 16 23 15 24 17 25
REMARK SMILES IDX 24 26 25 27 26 28 27 29 28 30 29 31 30 32 31 33 77 34 32 35
REMARK SMILES IDX 76 36 33 37 34 38 35 39 70 40 36 41 75 42 69 43 71 44 37 45
REMARK SMILES IDX 74 46 68 47 67 48 38 50 60 51 45 52 59 53 46 54 49 55 58 56
REMARK SMILES IDX 72 57 47 58 48 59 57 61 73 62 50 63 39 64 40 65 44 66 41 67
REMARK SMILES IDX 43 68 42 69 61 70 62 71 66 72 63 73 65 74 64 75 51 76 52 77
REMARK SMILES IDX 56 78 53 79 55 80 54 81
REMARK H PARENT 5 12 9 17 71 49 49 60
REMARK Flexibility Score: inf
ROOT
ATOM      1  C   UNL A   1      32.003  28.704  26.958  1.00  0.00     0.202 C 
ENDROOT
BRANCH   1   2
ATOM      2  C   UNL A   1      33.143  28.171  25.890  1.00  0.00     0.261 C 
BRANCH   2   3
ATOM      3  O   UNL A   1      33.413  26.634  25.477  1.00  0.00    -0.462 OA
BRANCH   3   4
ATOM      4  C   UNL A   1      33.715  25.319  25.305  1.00  0.00     0.331 C 
ATOM      5  O   UNL A   1      34.752  25.087  24.671  1.00  0.00    -0.249 OA
BRANCH   4   6
ATOM      6  C   UNL A   1      32.883  24.013  25.811  1.00  0.00     0.135 C 
ATOM      7  C   UNL A   1      31.482  24.117  26.516  1.00  0.00     0.047 C 
BRANCH   6   8
ATOM      8  C   UNL A   1      33.794  23.254  26.844  1.00  0.00     0.037 C 
ATOM      9  C   UNL A   1      33.049  22.447  27.920  1.00  0.00     0.007 C 
ENDBRANCH   6   8
BRANCH   6  10
ATOM     10  N   UNL A   1      32.682  23.140  24.676  1.00  0.00    -0.339 N 
ATOM     11  C   UNL A   1      31.668  23.356  23.810  1.00  0.00     0.240 C 
ATOM     12  H   UNL A   1      33.291  22.380  24.532  1.00  0.00     0.164 HD
ATOM     13  O   UNL A   1      31.422  22.507  22.953  1.00  0.00    -0.273 OA
BRANCH  11  14
ATOM     14  C   UNL A   1      31.035  24.761  23.779  1.00  0.00     0.216 C 
BRANCH  14  15
ATOM     15  N   UNL A   1      31.271  26.136  23.062  1.00  0.00    -0.343 N 
ATOM     16  C   UNL A   1      31.003  27.526  23.015  1.00  0.00     0.251 C 
ATOM     17  H   UNL A   1      31.874  25.949  22.307  1.00  0.00     0.164 HD
ATOM     18  O   UNL A   1      31.958  28.202  22.603  1.00  0.00    -0.269 OA
BRANCH  16  19
ATOM     19  C   UNL A   1      29.720  28.334  23.136  1.00  0.00     0.041 A 
ATOM     20  C   UNL A   1      28.394  27.855  23.210  1.00  0.00     0.014 A 
ATOM     21  C   UNL A   1      29.865  29.708  23.370  1.00  0.00     0.034 A 
ATOM     22  C   UNL A   1      27.276  28.703  23.122  1.00  0.00     0.002 A 
ATOM     23  C   UNL A   1      28.747  30.563  23.360  1.00  0.00     0.041 A 
ATOM     24  C   UNL A   1      27.460  30.073  23.151  1.00  0.00     0.020 A 
ATOM     25  Cl  UNL A   1      28.969  32.260  23.545  1.00  0.00    -0.084 Cl
ENDBRANCH  16  19
ENDBRANCH  14  15
ENDBRANCH  11  14
ENDBRANCH   6  10
ENDBRANCH   4   6
ENDBRANCH   3   4
ENDBRANCH   2   3
ENDBRANCH   1   2
BRANCH   1  26
ATOM     26  O   UNL A   1      31.939  30.086  27.265  1.00  0.00    -0.374 OA
BRANCH  26  27
ATOM     27  C   UNL A   1      31.611  31.114  26.347  1.00  0.00     0.202 C 
BRANCH  27  28
ATOM     28  C   UNL A   1      31.626  32.517  26.978  1.00  0.00     0.261 C 
BRANCH  28  29
ATOM     29  O   UNL A   1      32.917  33.128  26.887  1.00  0.00    -0.460 OA
BRANCH  29  30
ATOM     30  C   UNL A   1      33.390  33.569  28.069  1.00  0.00     0.338 C 
ATOM     31  O   UNL A   1      32.777  34.217  28.909  1.00  0.00    -0.246 OA
BRANCH  30  32
ATOM     32  C   UNL A   1      34.677  32.903  28.333  1.00  0.00     0.060 A 
ATOM     33  C   UNL A   1      34.668  31.505  28.451  1.00  0.00     0.016 A 
ATOM     34  C   UNL A   1      35.873  33.618  28.416  1.00  0.00     0.016 A 
ATOM     35  C   UNL A   1      35.847  30.820  28.707  1.00  0.00     0.010 A 
ATOM     36  C   UNL A   1      37.052  32.934  28.719  1.00  0.00     0.010 A 
ATOM     37  C   UNL A   1      37.027  31.541  28.913  1.00  0.00    -0.014 A 
BRANCH  37  38
ATOM     38  C   UNL A   1      38.139  30.867  29.616  1.00  0.00     0.031 A 
ATOM     39  C   UNL A   1      38.322  31.171  31.077  1.00  0.00     0.074 A 
ATOM     40  C   UNL A   1      38.915  29.953  29.010  1.00  0.00     0.049 A 
ATOM     41  N   UNL A   1      39.210  30.705  31.916  1.00  0.00    -0.248 NA
ATOM     42  C   UNL A   1      37.369  32.123  31.676  1.00  0.00     0.031 C 
ATOM     43  C   UNL A   1      38.793  29.510  27.624  1.00  0.00     0.029 A 
ATOM     44  N   UNL A   1      39.969  29.228  29.509  1.00  0.00    -0.354 N 
ATOM     45  C   UNL A   1      38.926  31.308  33.134  1.00  0.00     0.074 A 
ATOM     46  C   UNL A   1      37.801  32.191  32.924  1.00  0.00     0.031 C 
ATOM     47  C   UNL A   1      39.747  28.593  27.379  1.00  0.00     0.029 A 
ATOM     48  C   UNL A   1      40.563  28.413  28.580  1.00  0.00     0.049 A 
ATOM     49  H   UNL A   1      40.270  29.289  30.445  1.00  0.00     0.167 HD
ATOM     50  C   UNL A   1      39.542  31.141  34.326  1.00  0.00     0.031 A 
ATOM     51  C   UNL A   1      41.655  27.632  28.685  1.00  0.00     0.031 A 
ATOM     52  C   UNL A   1      40.669  30.278  34.541  1.00  0.00     0.049 A 
ATOM     53  C   UNL A   1      42.394  27.552  29.999  1.00  0.00     0.074 A 
ATOM     54  C   UNL A   1      41.355  30.042  35.719  1.00  0.00     0.029 A 
ATOM     55  N   UNL A   1      41.285  29.522  33.557  1.00  0.00    -0.354 N 
ATOM     56  N   UNL A   1      42.102  28.106  31.152  1.00  0.00    -0.248 NA
ATOM     57  C   UNL A   1      43.615  26.732  30.023  1.00  0.00     0.031 C 
ATOM     58  C   UNL A   1      42.430  29.196  35.435  1.00  0.00     0.029 A 
ATOM     59  C   UNL A   1      42.368  28.847  34.096  1.00  0.00     0.049 A 
ATOM     60  H   UNL A   1      40.996  29.472  32.618  1.00  0.00     0.167 HD
ATOM     61  C   UNL A   1      43.081  27.672  32.041  1.00  0.00     0.074 A 
ATOM     62  C   UNL A   1      43.963  26.797  31.300  1.00  0.00     0.031 C 
ATOM     63  C   UNL A   1      43.236  27.973  33.353  1.00  0.00     0.031 A 
BRANCH  50  64
ATOM     64  C   UNL A   1      39.035  31.946  35.487  1.00  0.00    -0.014 A 
ATOM     65  C   UNL A   1      38.140  31.402  36.419  1.00  0.00     0.009 A 
ATOM     66  C   UNL A   1      39.508  33.254  35.674  1.00  0.00     0.009 A 
ATOM     67  C   UNL A   1      37.712  32.162  37.509  1.00  0.00     0.001 A 
ATOM     68  C   UNL A   1      39.102  34.000  36.781  1.00  0.00     0.001 A 
ATOM     69  C   UNL A   1      38.201  33.455  37.694  1.00  0.00     0.000 A 
ENDBRANCH  50  64
BRANCH  51  70
ATOM     70  C   UNL A   1      42.166  26.887  27.503  1.00  0.00    -0.014 A 
ATOM     71  C   UNL A   1      43.029  27.500  26.582  1.00  0.00     0.009 A 
ATOM     72  C   UNL A   1      41.728  25.577  27.252  1.00  0.00     0.009 A 
ATOM     73  C   UNL A   1      43.407  26.832  25.414  1.00  0.00     0.001 A 
ATOM     74  C   UNL A   1      42.136  24.899  26.102  1.00  0.00     0.001 A 
ATOM     75  C   UNL A   1      42.963  25.532  25.176  1.00  0.00     0.000 A 
ENDBRANCH  51  70
BRANCH  63  76
ATOM     76  C   UNL A   1      44.372  27.318  34.093  1.00  0.00    -0.014 A 
ATOM     77  C   UNL A   1      45.630  27.932  34.199  1.00  0.00     0.009 A 
ATOM     78  C   UNL A   1      44.163  26.087  34.736  1.00  0.00     0.009 A 
ATOM     79  C   UNL A   1      46.663  27.309  34.904  1.00  0.00     0.001 A 
ATOM     80  C   UNL A   1      45.187  25.483  35.468  1.00  0.00     0.001 A 
ATOM     81  C   UNL A   1      46.440  26.089  35.543  1.00  0.00     0.000 A 
ENDBRANCH  63  76
ENDBRANCH  37  38
ENDBRANCH  30  32
ENDBRANCH  29  30
ENDBRANCH  28  29
ENDBRANCH  27  28
ENDBRANCH  26  27
ENDBRANCH   1  26
TORSDOF 19
ENDMDL
MODEL 3
REMARK VINA RESULT:      -9.9      4.059      9.053
REMARK SMILES CC[C@](C)(NC(=O)CNC(=O)c1cccc(Cl)c1)C(=O)OCCOCCOC(=O)c1ccc(-c2c3nc(c(-c4ccccc4)c4ccc([nH]4)c(-c4ccccc4)c4nc(c(-c5ccccc5)c5ccc2[nH]5)C=C4)C=C3)cc1
REMARK SMILES IDX 23 1 22 2 21 3 19 4 20 5 3 6 4 7 2 8 1 9 5 10 6 11 7 13 8 14
REMARK SMILES IDX 9 15 10 16 11 18 12 19 13 20 18 21 14 22 16 23 15 24 17 25
REMARK SMILES IDX 24 26 25 27 26 28 27 29 28 30 29 31 30 32 31 33 77 34 32 35
REMARK SMILES IDX 76 36 33 37 34 38 35 39 70 40 36 41 75 42 69 43 71 44 37 45
REMARK SMILES IDX 74 46 68 47 67 48 38 50 60 51 45 52 59 53 46 54 49 55 58 56
REMARK SMILES IDX 72 57 47 58 48 59 57 61 73 62 50 63 39 64 40 65 44 66 41 67
REMARK SMILES IDX 43 68 42 69 61 70 62 71 66 72 63 73 65 74 64 75 51 76 52 77
REMARK SMILES IDX 56 78 53 79 55 80 54 81
REMARK H PARENT 5 12 9 17 71 49 49 60
REMARK Flexibility Score: inf
ROOT
ATOM      1  C   UNL A   1      35.640  24.007  25.246  1.00  0.00     0.202 C 
ENDROOT
BRANCH   1   2
ATOM      2  C   UNL A   1      34.284  24.252  26.152  1.00  0.00     0.261 C 
BRANCH   2   3
ATOM      3  O   UNL A   1      33.323  25.548  26.096  1.00  0.00    -0.462 OA
BRANCH   3   4
ATOM      4  C   UNL A   1      32.373  26.517  26.009  1.00  0.00     0.331 C 
ATOM      5  O   UNL A   1      31.292  26.257  26.554  1.00  0.00    -0.249 OA
BRANCH   4   6
ATOM      6  C   UNL A   1      32.467  27.965  25.269  1.00  0.00     0.135 C 
ATOM      7  C   UNL A   1      33.772  28.474  24.555  1.00  0.00     0.047 C 
BRANCH   6   8
ATOM      8  C   UNL A   1      32.152  29.061  26.352  1.00  0.00     0.037 C 
ATOM      9  C   UNL A   1      31.590  30.387  25.812  1.00  0.00     0.007 C 
ENDBRANCH   6   8
BRANCH   6  10
ATOM     10  N   UNL A   1      31.427  28.026  24.265  1.00  0.00    -0.339 N 
ATOM     11  C   UNL A   1      31.695  27.728  22.975  1.00  0.00     0.240 C 
ATOM     12  H   UNL A   1      30.515  28.287  24.525  1.00  0.00     0.164 HD
ATOM     13  O   UNL A   1      30.837  27.948  22.120  1.00  0.00    -0.273 OA
BRANCH  11  14
ATOM     14  C   UNL A   1      32.960  26.900  22.676  1.00  0.00     0.216 C 
BRANCH  14  15
ATOM     15  N   UNL A   1      33.326  25.436  22.250  1.00  0.00    -0.343 N 
ATOM     16  C   UNL A   1      32.961  24.067  22.222  1.00  0.00     0.251 C 
ATOM     17  H   UNL A   1      34.201  25.494  21.803  1.00  0.00     0.164 HD
ATOM     18  O   UNL A   1      33.353  23.470  21.208  1.00  0.00    -0.269 OA
BRANCH  16  19
ATOM     19  C   UNL A   1      32.402  23.127  23.279  1.00  0.00     0.041 A 
ATOM     20  C   UNL A   1      31.419  23.400  24.254  1.00  0.00     0.014 A 
ATOM     21  C   UNL A   1      32.776  21.780  23.180  1.00  0.00     0.034 A 
ATOM     22  C   UNL A   1      31.124  22.511  25.303  1.00  0.00     0.002 A 
ATOM     23  C   UNL A   1      32.426  20.858  24.184  1.00  0.00     0.041 A 
ATOM     24  C   UNL A   1      31.671  21.242  25.289  1.00  0.00     0.020 A 
ATOM     25  Cl  UNL A   1      32.990  19.234  24.086  1.00  0.00    -0.084 Cl
ENDBRANCH  16  19
ENDBRANCH  14  15
ENDBRANCH  11  14
ENDBRANCH   6  10
ENDBRANCH   4   6
ENDBRANCH   3   4
ENDBRANCH   2   3
ENDBRANCH   1   2
BRANCH   1  26
ATOM     26  O   UNL A   1      35.851  22.741  24.647  1.00  0.00    -0.374 OA
BRANCH  26  27
ATOM     27  C   UNL A   1      35.780  21.496  25.320  1.00  0.00     0.202 C 
BRANCH  27  28
ATOM     28  C   UNL A   1      37.074  20.672  25.207  1.00  0.00     0.261 C 
BRANCH  28  29
ATOM     29  O   UNL A   1      38.231  21.509  25.106  1.00  0.00    -0.460 OA
BRANCH  29  30
ATOM     30  C   UNL A   1      39.198  21.203  25.994  1.00  0.00     0.338 C 
ATOM     31  O   UNL A   1      39.752  20.118  26.130  1.00  0.00    -0.246 OA
BRANCH  30  32
ATOM     32  C   UNL A   1      39.701  22.455  26.584  1.00  0.00     0.060 A 
ATOM     33  C   UNL A   1      39.087  23.650  26.184  1.00  0.00     0.016 A 
ATOM     34  C   UNL A   1      40.716  22.461  27.544  1.00  0.00     0.016 A 
ATOM     35  C   UNL A   1      39.520  24.863  26.698  1.00  0.00     0.010 A 
ATOM     36  C   UNL A   1      41.183  23.684  28.027  1.00  0.00     0.010 A 
ATOM     37  C   UNL A   1      40.617  24.886  27.565  1.00  0.00    -0.014 A 
BRANCH  37  38
ATOM     38  C   UNL A   1      41.338  26.164  27.738  1.00  0.00     0.031 A 
ATOM     39  C   UNL A   1      40.685  27.220  28.588  1.00  0.00     0.074 A 
ATOM     40  C   UNL A   1      42.566  26.365  27.231  1.00  0.00     0.049 A 
ATOM     41  N   UNL A   1      41.114  28.415  28.901  1.00  0.00    -0.248 NA
ATOM     42  C   UNL A   1      39.376  26.878  29.172  1.00  0.00     0.031 C 
ATOM     43  C   UNL A   1      43.340  25.398  26.459  1.00  0.00     0.029 A 
ATOM     44  N   UNL A   1      43.376  27.470  27.307  1.00  0.00    -0.354 N 
ATOM     45  C   UNL A   1      40.129  28.965  29.711  1.00  0.00     0.074 A 
ATOM     46  C   UNL A   1      39.070  27.989  29.823  1.00  0.00     0.031 C 
ATOM     47  C   UNL A   1      44.515  25.959  26.120  1.00  0.00     0.029 A 
ATOM     48  C   UNL A   1      44.558  27.332  26.624  1.00  0.00     0.049 A 
ATOM     49  H   UNL A   1      43.132  28.285  27.803  1.00  0.00     0.167 HD
ATOM     50  C   UNL A   1      40.107  30.175  30.312  1.00  0.00     0.031 A 
ATOM     51  C   UNL A   1      45.545  28.223  26.411  1.00  0.00     0.031 A 
ATOM     52  C   UNL A   1      41.147  31.159  30.195  1.00  0.00     0.049 A 
ATOM     53  C   UNL A   1      45.440  29.609  27.001  1.00  0.00     0.074 A 
ATOM     54  C   UNL A   1      41.211  32.412  30.776  1.00  0.00     0.029 A 
ATOM     55  N   UNL A   1      42.296  31.007  29.436  1.00  0.00    -0.354 N 
ATOM     56  N   UNL A   1      44.518  30.111  27.787  1.00  0.00    -0.248 NA
ATOM     57  C   UNL A   1      46.523  30.550  26.674  1.00  0.00     0.031 C 
ATOM     58  C   UNL A   1      42.366  33.048  30.313  1.00  0.00     0.029 A 
ATOM     59  C   UNL A   1      43.057  32.161  29.504  1.00  0.00     0.049 A 
ATOM     60  H   UNL A   1      42.534  30.200  28.925  1.00  0.00     0.167 HD
ATOM     61  C   UNL A   1      44.928  31.410  28.072  1.00  0.00     0.074 A 
ATOM     62  C   UNL A   1      46.189  31.612  27.394  1.00  0.00     0.031 C 
ATOM     63  C   UNL A   1      44.314  32.352  28.831  1.00  0.00     0.031 A 
BRANCH  50  64
ATOM     64  C   UNL A   1      38.892  30.524  31.122  1.00  0.00    -0.014 A 
ATOM     65  C   UNL A   1      37.760  31.103  30.530  1.00  0.00     0.009 A 
ATOM     66  C   UNL A   1      38.866  30.216  32.491  1.00  0.00     0.009 A 
ATOM     67  C   UNL A   1      36.630  31.384  31.299  1.00  0.00     0.001 A 
ATOM     68  C   UNL A   1      37.725  30.470  33.251  1.00  0.00     0.001 A 
ATOM     69  C   UNL A   1      36.610  31.059  32.655  1.00  0.00     0.000 A 
ENDBRANCH  50  64
BRANCH  51  70
ATOM     70  C   UNL A   1      46.712  27.867  25.561  1.00  0.00    -0.014 A 
ATOM     71  C   UNL A   1      46.658  28.008  24.166  1.00  0.00     0.009 A 
ATOM     72  C   UNL A   1      47.864  27.311  26.140  1.00  0.00     0.009 A 
ATOM     73  C   UNL A   1      47.713  27.560  23.368  1.00  0.00     0.001 A 
ATOM     74  C   UNL A   1      48.931  26.897  25.342  1.00  0.00     0.001 A 
ATOM     75  C   UNL A   1      48.849  27.007  23.956  1.00  0.00     0.000 A 
ENDBRANCH  51  70
BRANCH  63  76
ATOM     76  C   UNL A   1      45.014  33.673  29.009  1.00  0.00    -0.014 A 
ATOM     77  C   UNL A   1      45.949  33.875  30.036  1.00  0.00     0.009 A 
ATOM     78  C   UNL A   1      44.769  34.716  28.102  1.00  0.00     0.009 A 
ATOM     79  C   UNL A   1      46.596  35.106  30.171  1.00  0.00     0.001 A 
ATOM     80  C   UNL A   1      45.441  35.934  28.219  1.00  0.00     0.001 A 
ATOM     81  C   UNL A   1      46.346  36.132  29.260  1.00  0.00     0.000 A 
ENDBRANCH  63  76
ENDBRANCH  37  38
ENDBRANCH  30  32
ENDBRANCH  29  30
ENDBRANCH  28  29
ENDBRANCH  27  28
ENDBRANCH  26  27
ENDBRANCH   1  26
TORSDOF 19
ENDMDL
