MODEL 1
REMARK VINA RESULT:      -9.4      0.000      0.000
REMARK SMILES CCC[C@H](C)C[N@H+]1[C@@H]2CC[C@H]1C[C@H](CC(=O)OCCOCCOC(=O)c1ccc(-c3c4nc(c(-c5ccccc5)c5ccc([nH]5)c(-c5ccccc5)c5nc(c(-c6ccccc6)c6ccc3[nH]6)C=C5)C=C4)cc1)C2
REMARK SMILES IDX 18 1 17 2 15 3 16 4 14 5 13 6 7 7 8 8 11 9 9 11 74 12 10 13
REMARK SMILES IDX 12 14 6 15 4 16 5 17 3 18 2 19 1 20 19 21 20 22 21 23 22 24
REMARK SMILES IDX 23 25 24 26 25 27 26 28 27 29 73 30 28 31 72 32 29 33 30 34
REMARK SMILES IDX 31 35 66 36 32 37 71 38 65 39 67 40 33 41 70 42 64 43 63 44
REMARK SMILES IDX 34 46 56 47 41 48 55 49 42 50 45 51 54 52 68 53 43 54 44 55
REMARK SMILES IDX 53 57 69 58 46 59 35 60 36 61 40 62 37 63 39 64 38 65 57 66
REMARK SMILES IDX 58 67 62 68 59 69 61 70 60 71 47 72 48 73 52 74 49 75 51 76
REMARK SMILES IDX 50 77
REMARK H PARENT 7 10 67 45 45 56
REMARK Flexibility Score: inf
ROOT
ATOM      1  C   UNL A   1      35.826  32.437  28.046  1.00  0.00     0.261 C 
ENDROOT
BRANCH   1   2
ATOM      2  O   UNL A   1      35.147  31.338  28.684  1.00  0.00    -0.463 OA
BRANCH   2   3
ATOM      3  C   UNL A   1      35.163  30.150  28.031  1.00  0.00     0.306 C 
ATOM      4  O   UNL A   1      36.111  29.377  28.001  1.00  0.00    -0.252 OA
BRANCH   3   5
ATOM      5  C   UNL A   1      33.881  29.899  27.268  1.00  0.00     0.126 C 
BRANCH   5   6
ATOM      6  C   UNL A   1      33.486  28.436  26.962  1.00  0.00     0.012 C 
ATOM      7  N   UNL A   1      31.596  27.340  24.936  1.00  0.00    -0.330 N 
ATOM      8  C   UNL A   1      33.032  27.064  24.797  1.00  0.00     0.184 C 
ATOM      9  C   UNL A   1      31.355  27.071  26.363  1.00  0.00     0.184 C 
ATOM     10  H   UNL A   1      31.058  26.761  24.292  1.00  0.00     0.348 HD
ATOM     11  C   UNL A   1      33.147  25.705  25.497  1.00  0.00     0.071 C 
ATOM     12  C   UNL A   1      33.896  28.124  25.497  1.00  0.00     0.069 C 
ATOM     13  C   UNL A   1      32.026  25.709  26.533  1.00  0.00     0.071 C 
ATOM     14  C   UNL A   1      31.993  28.148  27.261  1.00  0.00     0.069 C 
BRANCH   7  15
ATOM     15  C   UNL A   1      31.136  28.672  24.527  1.00  0.00     0.265 C 
BRANCH  15  16
ATOM     16  C   UNL A   1      30.607  28.793  23.089  1.00  0.00     0.041 C 
ATOM     17  C   UNL A   1      30.634  27.446  22.367  1.00  0.00     0.013 C 
BRANCH  16  18
ATOM     18  C   UNL A   1      29.201  29.443  23.054  1.00  0.00     0.009 C 
BRANCH  18  19
ATOM     19  C   UNL A   1      29.056  30.921  23.441  1.00  0.00    -0.003 C 
ATOM     20  C   UNL A   1      27.633  31.412  23.672  1.00  0.00     0.004 C 
ENDBRANCH  18  19
ENDBRANCH  16  18
ENDBRANCH  15  16
ENDBRANCH   7  15
ENDBRANCH   5   6
ENDBRANCH   3   5
ENDBRANCH   2   3
ENDBRANCH   1   2
BRANCH   1  21
ATOM     21  C   UNL A   1      35.427  33.762  28.697  1.00  0.00     0.202 C 
BRANCH  21  22
ATOM     22  O   UNL A   1      34.238  34.365  28.182  1.00  0.00    -0.374 OA
BRANCH  22  23
ATOM     23  C   UNL A   1      34.062  35.756  28.437  1.00  0.00     0.202 C 
BRANCH  23  24
ATOM     24  C   UNL A   1      32.974  36.109  29.456  1.00  0.00     0.261 C 
BRANCH  24  25
ATOM     25  O   UNL A   1      32.819  35.079  30.449  1.00  0.00    -0.460 OA
BRANCH  25  26
ATOM     26  C   UNL A   1      32.827  35.527  31.725  1.00  0.00     0.338 C 
ATOM     27  O   UNL A   1      31.987  36.236  32.266  1.00  0.00    -0.246 OA
BRANCH  26  28
ATOM     28  C   UNL A   1      33.933  34.914  32.485  1.00  0.00     0.060 A 
ATOM     29  C   UNL A   1      35.169  35.571  32.449  1.00  0.00     0.016 A 
ATOM     30  C   UNL A   1      33.804  33.688  33.147  1.00  0.00     0.016 A 
ATOM     31  C   UNL A   1      36.297  34.973  33.005  1.00  0.00     0.010 A 
ATOM     32  C   UNL A   1      34.940  33.087  33.702  1.00  0.00     0.010 A 
ATOM     33  C   UNL A   1      36.199  33.705  33.591  1.00  0.00    -0.014 A 
BRANCH  33  34
ATOM     34  C   UNL A   1      37.447  32.969  33.917  1.00  0.00     0.031 A 
ATOM     35  C   UNL A   1      37.991  31.980  32.921  1.00  0.00     0.074 A 
ATOM     36  C   UNL A   1      38.131  33.229  35.045  1.00  0.00     0.049 A 
ATOM     37  N   UNL A   1      39.084  31.262  32.977  1.00  0.00    -0.248 NA
ATOM     38  C   UNL A   1      37.199  31.776  31.696  1.00  0.00     0.031 C 
ATOM     39  C   UNL A   1      37.744  34.199  36.067  1.00  0.00     0.029 A 
ATOM     40  N   UNL A   1      39.310  32.701  35.510  1.00  0.00    -0.354 N 
ATOM     41  C   UNL A   1      39.110  30.521  31.802  1.00  0.00     0.074 A 
ATOM     42  C   UNL A   1      37.909  30.851  31.065  1.00  0.00     0.031 C 
ATOM     43  C   UNL A   1      38.671  34.199  37.041  1.00  0.00     0.029 A 
ATOM     44  C   UNL A   1      39.701  33.213  36.722  1.00  0.00     0.049 A 
ATOM     45  H   UNL A   1      39.825  32.019  35.021  1.00  0.00     0.167 HD
ATOM     46  C   UNL A   1      40.052  29.651  31.365  1.00  0.00     0.031 A 
ATOM     47  C   UNL A   1      40.766  32.913  37.492  1.00  0.00     0.031 A 
ATOM     48  C   UNL A   1      41.245  29.312  32.093  1.00  0.00     0.049 A 
ATOM     49  C   UNL A   1      41.761  31.887  37.019  1.00  0.00     0.074 A 
ATOM     50  C   UNL A   1      42.263  28.449  31.724  1.00  0.00     0.029 A 
ATOM     51  N   UNL A   1      41.577  29.814  33.340  1.00  0.00    -0.354 N 
ATOM     52  N   UNL A   1      41.785  31.214  35.895  1.00  0.00    -0.248 NA
ATOM     53  C   UNL A   1      42.882  31.587  37.922  1.00  0.00     0.031 C 
ATOM     54  C   UNL A   1      43.187  28.392  32.773  1.00  0.00     0.029 A 
ATOM     55  C   UNL A   1      42.771  29.260  33.769  1.00  0.00     0.049 A 
ATOM     56  H   UNL A   1      41.042  30.468  33.847  1.00  0.00     0.167 HD
ATOM     57  C   UNL A   1      42.936  30.436  35.942  1.00  0.00     0.074 A 
ATOM     58  C   UNL A   1      43.588  30.727  37.201  1.00  0.00     0.031 C 
ATOM     59  C   UNL A   1      43.410  29.560  35.023  1.00  0.00     0.031 A 
BRANCH  46  60
ATOM     60  C   UNL A   1      39.810  28.979  30.043  1.00  0.00    -0.014 A 
ATOM     61  C   UNL A   1      40.100  29.626  28.832  1.00  0.00     0.009 A 
ATOM     62  C   UNL A   1      39.311  27.668  30.011  1.00  0.00     0.009 A 
ATOM     63  C   UNL A   1      39.866  28.983  27.614  1.00  0.00     0.001 A 
ATOM     64  C   UNL A   1      39.102  27.018  28.795  1.00  0.00     0.001 A 
ATOM     65  C   UNL A   1      39.371  27.679  27.597  1.00  0.00     0.000 A 
ENDBRANCH  46  60
BRANCH  47  66
ATOM     66  C   UNL A   1      40.946  33.585  38.805  1.00  0.00    -0.014 A 
ATOM     67  C   UNL A   1      41.563  34.842  38.891  1.00  0.00     0.009 A 
ATOM     68  C   UNL A   1      40.519  32.956  39.986  1.00  0.00     0.009 A 
ATOM     69  C   UNL A   1      41.768  35.444  40.134  1.00  0.00     0.001 A 
ATOM     70  C   UNL A   1      40.703  33.572  41.225  1.00  0.00     0.001 A 
ATOM     71  C   UNL A   1      41.335  34.812  41.299  1.00  0.00     0.000 A 
ENDBRANCH  47  66
BRANCH  59  72
ATOM     72  C   UNL A   1      44.717  28.882  35.324  1.00  0.00    -0.014 A 
ATOM     73  C   UNL A   1      45.943  29.465  34.968  1.00  0.00     0.009 A 
ATOM     74  C   UNL A   1      44.721  27.660  36.016  1.00  0.00     0.009 A 
ATOM     75  C   UNL A   1      47.145  28.822  35.271  1.00  0.00     0.001 A 
ATOM     76  C   UNL A   1      45.924  27.033  36.343  1.00  0.00     0.001 A 
ATOM     77  C   UNL A   1      47.134  27.610  35.962  1.00  0.00     0.000 A 
ENDBRANCH  59  72
ENDBRANCH  33  34
ENDBRANCH  26  28
ENDBRANCH  25  26
ENDBRANCH  24  25
ENDBRANCH  23  24
ENDBRANCH  22  23
ENDBRANCH  21  22
ENDBRANCH   1  21
TORSDOF 19
ENDMDL
MODEL 2
REMARK VINA RESULT:      -9.4      4.143      9.593
REMARK SMILES CCC[C@H](C)C[N@H+]1[C@@H]2CC[C@H]1C[C@H](CC(=O)OCCOCCOC(=O)c1ccc(-c3c4nc(c(-c5ccccc5)c5ccc([nH]5)c(-c5ccccc5)c5nc(c(-c6ccccc6)c6ccc3[nH]6)C=C5)C=C4)cc1)C2
REMARK SMILES IDX 18 1 17 2 15 3 16 4 14 5 13 6 7 7 8 8 11 9 9 11 74 12 10 13
REMARK SMILES IDX 12 14 6 15 4 16 5 17 3 18 2 19 1 20 19 21 20 22 21 23 22 24
REMARK SMILES IDX 23 25 24 26 25 27 26 28 27 29 73 30 28 31 72 32 29 33 30 34
REMARK SMILES IDX 31 35 66 36 32 37 71 38 65 39 67 40 33 41 70 42 64 43 63 44
REMARK SMILES IDX 34 46 56 47 41 48 55 49 42 50 45 51 54 52 68 53 43 54 44 55
REMARK SMILES IDX 53 57 69 58 46 59 35 60 36 61 40 62 37 63 39 64 38 65 57 66
REMARK SMILES IDX 58 67 62 68 59 69 61 70 60 71 47 72 48 73 52 74 49 75 51 76
REMARK SMILES IDX 50 77
REMARK H PARENT 7 10 67 45 45 56
REMARK Flexibility Score: inf
ROOT
ATOM      1  C   UNL A   1      39.992  21.138  26.132  1.00  0.00     0.261 C 
ENDROOT
BRANCH   1   2
ATOM      2  O   UNL A   1      38.929  22.104  26.010  1.00  0.00    -0.463 OA
BRANCH   2   3
ATOM      3  C   UNL A   1      37.814  21.702  25.351  1.00  0.00     0.306 C 
ATOM      4  O   UNL A   1      37.710  20.663  24.714  1.00  0.00    -0.252 OA
BRANCH   3   5
ATOM      5  C   UNL A   1      36.703  22.725  25.431  1.00  0.00     0.126 C 
BRANCH   5   6
ATOM      6  C   UNL A   1      35.376  22.424  24.695  1.00  0.00     0.012 C 
ATOM      7  N   UNL A   1      32.724  23.766  24.890  1.00  0.00    -0.330 N 
ATOM      8  C   UNL A   1      33.486  23.867  23.639  1.00  0.00     0.184 C 
ATOM      9  C   UNL A   1      32.830  22.334  25.215  1.00  0.00     0.184 C 
ATOM     10  H   UNL A   1      31.772  24.107  24.757  1.00  0.00     0.348 HD
ATOM     11  C   UNL A   1      32.895  22.707  22.831  1.00  0.00     0.071 C 
ATOM     12  C   UNL A   1      34.994  23.676  23.862  1.00  0.00     0.069 C 
ATOM     13  C   UNL A   1      32.453  21.691  23.881  1.00  0.00     0.071 C 
ATOM     14  C   UNL A   1      34.256  21.954  25.657  1.00  0.00     0.069 C 
BRANCH   7  15
ATOM     15  C   UNL A   1      33.151  24.628  25.997  1.00  0.00     0.265 C 
BRANCH  15  16
ATOM     16  C   UNL A   1      32.114  25.645  26.502  1.00  0.00     0.041 C 
ATOM     17  C   UNL A   1      32.675  27.065  26.501  1.00  0.00     0.013 C 
BRANCH  16  18
ATOM     18  C   UNL A   1      30.787  25.543  25.708  1.00  0.00     0.009 C 
BRANCH  18  19
ATOM     19  C   UNL A   1      30.603  26.407  24.453  1.00  0.00    -0.003 C 
ATOM     20  C   UNL A   1      29.197  26.445  23.872  1.00  0.00     0.004 C 
ENDBRANCH  18  19
ENDBRANCH  16  18
ENDBRANCH  15  16
ENDBRANCH   7  15
ENDBRANCH   5   6
ENDBRANCH   3   5
ENDBRANCH   2   3
ENDBRANCH   1   2
BRANCH   1  21
ATOM     21  C   UNL A   1      40.889  21.479  27.323  1.00  0.00     0.202 C 
BRANCH  21  22
ATOM     22  O   UNL A   1      42.260  21.098  27.188  1.00  0.00    -0.374 OA
BRANCH  22  23
ATOM     23  C   UNL A   1      42.767  20.989  25.860  1.00  0.00     0.202 C 
BRANCH  23  24
ATOM     24  C   UNL A   1      43.830  22.022  25.472  1.00  0.00     0.261 C 
BRANCH  24  25
ATOM     25  O   UNL A   1      43.246  23.188  24.866  1.00  0.00    -0.460 OA
BRANCH  25  26
ATOM     26  C   UNL A   1      43.913  24.339  25.108  1.00  0.00     0.338 C 
ATOM     27  O   UNL A   1      44.979  24.693  24.619  1.00  0.00    -0.246 OA
BRANCH  26  28
ATOM     28  C   UNL A   1      43.106  25.241  25.951  1.00  0.00     0.060 A 
ATOM     29  C   UNL A   1      43.653  26.498  26.241  1.00  0.00     0.016 A 
ATOM     30  C   UNL A   1      41.889  24.853  26.520  1.00  0.00     0.016 A 
ATOM     31  C   UNL A   1      43.028  27.339  27.158  1.00  0.00     0.010 A 
ATOM     32  C   UNL A   1      41.263  25.699  27.444  1.00  0.00     0.010 A 
ATOM     33  C   UNL A   1      41.856  26.924  27.802  1.00  0.00    -0.014 A 
BRANCH  33  34
ATOM     34  C   UNL A   1      41.368  27.700  28.970  1.00  0.00     0.031 A 
ATOM     35  C   UNL A   1      42.112  27.597  30.276  1.00  0.00     0.074 A 
ATOM     36  C   UNL A   1      40.327  28.544  28.857  1.00  0.00     0.049 A 
ATOM     37  N   UNL A   1      41.891  28.218  31.407  1.00  0.00    -0.248 NA
ATOM     38  C   UNL A   1      43.260  26.676  30.308  1.00  0.00     0.031 C 
ATOM     39  C   UNL A   1      39.553  28.777  27.639  1.00  0.00     0.029 A 
ATOM     40  N   UNL A   1      39.751  29.373  29.787  1.00  0.00    -0.354 N 
ATOM     41  C   UNL A   1      42.867  27.761  32.284  1.00  0.00     0.074 A 
ATOM     42  C   UNL A   1      43.662  26.789  31.566  1.00  0.00     0.031 C 
ATOM     43  C   UNL A   1      38.603  29.693  27.897  1.00  0.00     0.029 A 
ATOM     44  C   UNL A   1      38.686  30.090  29.301  1.00  0.00     0.049 A 
ATOM     45  H   UNL A   1      40.072  29.446  30.716  1.00  0.00     0.167 HD
ATOM     46  C   UNL A   1      43.093  28.123  33.570  1.00  0.00     0.031 A 
ATOM     47  C   UNL A   1      37.867  30.961  29.920  1.00  0.00     0.031 A 
ATOM     48  C   UNL A   1      42.304  29.083  34.294  1.00  0.00     0.049 A 
ATOM     49  C   UNL A   1      38.091  31.292  31.372  1.00  0.00     0.074 A 
ATOM     50  C   UNL A   1      42.465  29.523  35.597  1.00  0.00     0.029 A 
ATOM     51  N   UNL A   1      41.203  29.747  33.779  1.00  0.00    -0.354 N 
ATOM     52  N   UNL A   1      39.033  30.871  32.180  1.00  0.00    -0.248 NA
ATOM     53  C   UNL A   1      37.140  32.227  31.992  1.00  0.00     0.031 C 
ATOM     54  C   UNL A   1      41.428  30.417  35.886  1.00  0.00     0.029 A 
ATOM     55  C   UNL A   1      40.657  30.573  34.746  1.00  0.00     0.049 A 
ATOM     56  H   UNL A   1      40.859  29.645  32.862  1.00  0.00     0.167 HD
ATOM     57  C   UNL A   1      38.807  31.512  33.393  1.00  0.00     0.074 A 
ATOM     58  C   UNL A   1      37.646  32.357  33.212  1.00  0.00     0.031 C 
ATOM     59  C   UNL A   1      39.502  31.411  34.552  1.00  0.00     0.031 A 
BRANCH  46  60
ATOM     60  C   UNL A   1      44.227  27.449  34.287  1.00  0.00    -0.014 A 
ATOM     61  C   UNL A   1      45.504  28.029  34.340  1.00  0.00     0.009 A 
ATOM     62  C   UNL A   1      44.007  26.229  34.945  1.00  0.00     0.009 A 
ATOM     63  C   UNL A   1      46.546  27.384  35.011  1.00  0.00     0.001 A 
ATOM     64  C   UNL A   1      45.042  25.599  35.637  1.00  0.00     0.001 A 
ATOM     65  C   UNL A   1      46.313  26.173  35.663  1.00  0.00     0.000 A 
ENDBRANCH  46  60
BRANCH  47  66
ATOM     66  C   UNL A   1      36.740  31.580  29.175  1.00  0.00    -0.014 A 
ATOM     67  C   UNL A   1      36.834  32.892  28.689  1.00  0.00     0.009 A 
ATOM     68  C   UNL A   1      35.551  30.863  28.965  1.00  0.00     0.009 A 
ATOM     69  C   UNL A   1      35.753  33.481  28.029  1.00  0.00     0.001 A 
ATOM     70  C   UNL A   1      34.481  31.445  28.283  1.00  0.00     0.001 A 
ATOM     71  C   UNL A   1      34.580  32.756  27.823  1.00  0.00     0.000 A 
ENDBRANCH  47  66
BRANCH  59  72
ATOM     72  C   UNL A   1      39.051  32.263  35.705  1.00  0.00    -0.014 A 
ATOM     73  C   UNL A   1      38.144  31.780  36.660  1.00  0.00     0.009 A 
ATOM     74  C   UNL A   1      39.580  33.554  35.861  1.00  0.00     0.009 A 
ATOM     75  C   UNL A   1      37.751  32.585  37.731  1.00  0.00     0.001 A 
ATOM     76  C   UNL A   1      39.207  34.347  36.948  1.00  0.00     0.001 A 
ATOM     77  C   UNL A   1      38.286  33.865  37.876  1.00  0.00     0.000 A 
ENDBRANCH  59  72
ENDBRANCH  33  34
ENDBRANCH  26  28
ENDBRANCH  25  26
ENDBRANCH  24  25
ENDBRANCH  23  24
ENDBRANCH  22  23
ENDBRANCH  21  22
ENDBRANCH   1  21
TORSDOF 19
ENDMDL
MODEL 3
REMARK VINA RESULT:      -9.1      5.157      9.312
REMARK SMILES CCC[C@H](C)C[N@H+]1[C@@H]2CC[C@H]1C[C@H](CC(=O)OCCOCCOC(=O)c1ccc(-c3c4nc(c(-c5ccccc5)c5ccc([nH]5)c(-c5ccccc5)c5nc(c(-c6ccccc6)c6ccc3[nH]6)C=C5)C=C4)cc1)C2
REMARK SMILES IDX 18 1 17 2 15 3 16 4 14 5 13 6 7 7 8 8 11 9 9 11 74 12 10 13
REMARK SMILES IDX 12 14 6 15 4 16 5 17 3 18 2 19 1 20 19 21 20 22 21 23 22 24
REMARK SMILES IDX 23 25 24 26 25 27 26 28 27 29 73 30 28 31 72 32 29 33 30 34
REMARK SMILES IDX 31 35 66 36 32 37 71 38 65 39 67 40 33 41 70 42 64 43 63 44
REMARK SMILES IDX 34 46 56 47 41 48 55 49 42 50 45 51 54 52 68 53 43 54 44 55
REMARK SMILES IDX 53 57 69 58 46 59 35 60 36 61 40 62 37 63 39 64 38 65 57 66
REMARK SMILES IDX 58 67 62 68 59 69 61 70 60 71 47 72 48 73 52 74 49 75 51 76
REMARK SMILES IDX 50 77
REMARK H PARENT 7 10 67 45 45 56
REMARK Flexibility Score: inf
ROOT
ATOM      1  C   UNL A   1      33.019  22.962  24.001  1.00  0.00     0.261 C 
ENDROOT
BRANCH   1   2
ATOM      2  O   UNL A   1      32.425  24.210  24.409  1.00  0.00    -0.463 OA
BRANCH   2   3
ATOM      3  C   UNL A   1      32.133  24.342  25.727  1.00  0.00     0.306 C 
ATOM      4  O   UNL A   1      31.383  23.608  26.358  1.00  0.00    -0.252 OA
BRANCH   3   5
ATOM      5  C   UNL A   1      32.792  25.556  26.340  1.00  0.00     0.126 C 
BRANCH   5   6
ATOM      6  C   UNL A   1      32.310  26.956  25.893  1.00  0.00     0.012 C 
ATOM      7  N   UNL A   1      33.645  29.610  26.111  1.00  0.00    -0.330 N 
ATOM      8  C   UNL A   1      33.431  29.025  24.782  1.00  0.00     0.184 C 
ATOM      9  C   UNL A   1      32.342  29.406  26.765  1.00  0.00     0.184 C 
ATOM     10  H   UNL A   1      33.938  30.583  26.030  1.00  0.00     0.348 HD
ATOM     11  C   UNL A   1      32.102  29.672  24.378  1.00  0.00     0.071 C 
ATOM     12  C   UNL A   1      33.309  27.494  24.835  1.00  0.00     0.069 C 
ATOM     13  C   UNL A   1      31.382  29.931  25.699  1.00  0.00     0.071 C 
ATOM     14  C   UNL A   1      32.093  27.920  27.087  1.00  0.00     0.069 C 
BRANCH   7  15
ATOM     15  C   UNL A   1      34.761  29.074  26.899  1.00  0.00     0.265 C 
BRANCH  15  16
ATOM     16  C   UNL A   1      35.356  30.017  27.957  1.00  0.00     0.041 C 
ATOM     17  C   UNL A   1      36.849  29.762  28.159  1.00  0.00     0.013 C 
BRANCH  16  18
ATOM     18  C   UNL A   1      35.059  31.501  27.627  1.00  0.00     0.009 C 
BRANCH  18  19
ATOM     19  C   UNL A   1      34.417  32.388  28.703  1.00  0.00    -0.003 C 
ATOM     20  C   UNL A   1      33.814  33.698  28.212  1.00  0.00     0.004 C 
ENDBRANCH  18  19
ENDBRANCH  16  18
ENDBRANCH  15  16
ENDBRANCH   7  15
ENDBRANCH   5   6
ENDBRANCH   3   5
ENDBRANCH   2   3
ENDBRANCH   1   2
BRANCH   1  21
ATOM     21  C   UNL A   1      34.459  22.866  24.509  1.00  0.00     0.202 C 
BRANCH  21  22
ATOM     22  O   UNL A   1      35.401  22.319  23.583  1.00  0.00    -0.374 OA
BRANCH  22  23
ATOM     23  C   UNL A   1      36.779  22.428  23.930  1.00  0.00     0.202 C 
BRANCH  23  24
ATOM     24  C   UNL A   1      37.392  21.194  24.600  1.00  0.00     0.261 C 
BRANCH  24  25
ATOM     25  O   UNL A   1      37.788  21.464  25.957  1.00  0.00    -0.460 OA
BRANCH  25  26
ATOM     26  C   UNL A   1      39.122  21.408  26.172  1.00  0.00     0.338 C 
ATOM     27  O   UNL A   1      39.903  20.558  25.760  1.00  0.00    -0.246 OA
BRANCH  26  28
ATOM     28  C   UNL A   1      39.589  22.625  26.863  1.00  0.00     0.060 A 
ATOM     29  C   UNL A   1      38.922  23.820  26.565  1.00  0.00     0.016 A 
ATOM     30  C   UNL A   1      40.700  22.629  27.712  1.00  0.00     0.016 A 
ATOM     31  C   UNL A   1      39.405  25.031  27.051  1.00  0.00     0.010 A 
ATOM     32  C   UNL A   1      41.187  23.849  28.197  1.00  0.00     0.010 A 
ATOM     33  C   UNL A   1      40.569  25.059  27.830  1.00  0.00    -0.014 A 
BRANCH  33  34
ATOM     34  C   UNL A   1      41.222  26.366  28.095  1.00  0.00     0.031 A 
ATOM     35  C   UNL A   1      42.557  26.656  27.461  1.00  0.00     0.074 A 
ATOM     36  C   UNL A   1      40.607  27.313  28.825  1.00  0.00     0.049 A 
ATOM     37  N   UNL A   1      43.283  27.743  27.519  1.00  0.00    -0.248 NA
ATOM     38  C   UNL A   1      43.149  25.579  26.651  1.00  0.00     0.031 C 
ATOM     39  C   UNL A   1      39.293  27.181  29.451  1.00  0.00     0.029 A 
ATOM     40  N   UNL A   1      41.010  28.584  29.150  1.00  0.00    -0.354 N 
ATOM     41  C   UNL A   1      44.416  27.481  26.758  1.00  0.00     0.074 A 
ATOM     42  C   UNL A   1      44.297  26.123  26.275  1.00  0.00     0.031 C 
ATOM     43  C   UNL A   1      38.996  28.329  30.085  1.00  0.00     0.029 A 
ATOM     44  C   UNL A   1      40.107  29.264  29.929  1.00  0.00     0.049 A 
ATOM     45  H   UNL A   1      41.866  28.971  28.854  1.00  0.00     0.167 HD
ATOM     46  C   UNL A   1      45.459  28.298  26.475  1.00  0.00     0.031 A 
ATOM     47  C   UNL A   1      40.174  30.499  30.464  1.00  0.00     0.031 A 
ATOM     48  C   UNL A   1      45.589  29.646  26.957  1.00  0.00     0.049 A 
ATOM     49  C   UNL A   1      41.379  31.362  30.198  1.00  0.00     0.074 A 
ATOM     50  C   UNL A   1      46.605  30.555  26.712  1.00  0.00     0.029 A 
ATOM     51  N   UNL A   1      44.676  30.279  27.786  1.00  0.00    -0.354 N 
ATOM     52  N   UNL A   1      42.430  31.109  29.456  1.00  0.00    -0.248 NA
ATOM     53  C   UNL A   1      41.400  32.686  30.837  1.00  0.00     0.031 C 
ATOM     54  C   UNL A   1      46.331  31.720  27.436  1.00  0.00     0.029 A 
ATOM     55  C   UNL A   1      45.118  31.556  28.085  1.00  0.00     0.049 A 
ATOM     56  H   UNL A   1      43.839  29.878  28.114  1.00  0.00     0.167 HD
ATOM     57  C   UNL A   1      43.220  32.251  29.515  1.00  0.00     0.074 A 
ATOM     58  C   UNL A   1      42.524  33.201  30.357  1.00  0.00     0.031 C 
ATOM     59  C   UNL A   1      44.414  32.492  28.922  1.00  0.00     0.031 A 
BRANCH  46  60
ATOM     60  C   UNL A   1      46.563  27.737  25.624  1.00  0.00    -0.014 A 
ATOM     61  C   UNL A   1      47.577  26.941  26.178  1.00  0.00     0.009 A 
ATOM     62  C   UNL A   1      46.571  27.985  24.243  1.00  0.00     0.009 A 
ATOM     63  C   UNL A   1      48.596  26.431  25.369  1.00  0.00     0.001 A 
ATOM     64  C   UNL A   1      47.574  27.453  23.433  1.00  0.00     0.001 A 
ATOM     65  C   UNL A   1      48.590  26.683  23.997  1.00  0.00     0.000 A 
ENDBRANCH  46  60
BRANCH  47  66
ATOM     66  C   UNL A   1      39.069  30.998  31.323  1.00  0.00    -0.014 A 
ATOM     67  C   UNL A   1      38.998  30.646  32.680  1.00  0.00     0.009 A 
ATOM     68  C   UNL A   1      38.063  31.813  30.780  1.00  0.00     0.009 A 
ATOM     69  C   UNL A   1      37.931  31.083  33.468  1.00  0.00     0.001 A 
ATOM     70  C   UNL A   1      37.012  32.270  31.577  1.00  0.00     0.001 A 
ATOM     71  C   UNL A   1      36.941  31.896  32.917  1.00  0.00     0.000 A 
ENDBRANCH  47  66
BRANCH  59  72
ATOM     72  C   UNL A   1      45.029  33.848  29.129  1.00  0.00    -0.014 A 
ATOM     73  C   UNL A   1      45.926  34.091  30.180  1.00  0.00     0.009 A 
ATOM     74  C   UNL A   1      44.738  34.886  28.229  1.00  0.00     0.009 A 
ATOM     75  C   UNL A   1      46.496  35.356  30.343  1.00  0.00     0.001 A 
ATOM     76  C   UNL A   1      45.329  36.141  28.378  1.00  0.00     0.001 A 
ATOM     77  C   UNL A   1      46.200  36.377  29.440  1.00  0.00     0.000 A 
ENDBRANCH  59  72
ENDBRANCH  33  34
ENDBRANCH  26  28
ENDBRANCH  25  26
ENDBRANCH  24  25
ENDBRANCH  23  24
ENDBRANCH  22  23
ENDBRANCH  21  22
ENDBRANCH   1  21
TORSDOF 19
ENDMDL
