MODEL 1
REMARK VINA RESULT:     -10.1      0.000      0.000
REMARK SMILES Cc1c(N)cccc1SCc1cc(C(=O)OCCOCCOC(=O)c2ccc(-c3c4nc(c(-c5ccccc5)c5ccc([nH]5)c(-c5ccccc5)c5nc(c(-c6ccccc6)c6ccc3[nH]6)C=C5)C=C4)cc2)no1
REMARK SMILES IDX 18 1 17 2 16 3 14 4 15 5 13 6 11 7 12 8 74 9 73 10 10 11
REMARK SMILES IDX 9 12 8 13 1 14 2 15 3 16 5 17 7 18 6 19 4 20 19 23 20 24
REMARK SMILES IDX 21 25 22 26 23 27 24 28 25 29 26 30 72 31 27 32 71 33 28 34
REMARK SMILES IDX 29 35 30 36 65 37 31 38 70 39 64 40 66 41 32 42 69 43 63 44
REMARK SMILES IDX 62 45 33 47 55 48 40 49 54 50 41 51 44 52 53 53 67 54 42 55
REMARK SMILES IDX 43 56 52 58 68 59 45 60 34 61 35 62 39 63 36 64 38 65 37 66
REMARK SMILES IDX 56 67 57 68 61 69 58 70 60 71 59 72 46 73 47 74 51 75 48 76
REMARK SMILES IDX 50 77 49 78
REMARK H PARENT 4 21 4 22 66 46 44 57
REMARK Flexibility Score: inf
ROOT
ATOM      1  C   UNL A   1      41.101  21.815  26.615  1.00  0.00     0.202 C 
ENDROOT
BRANCH   1   2
ATOM      2  C   UNL A   1      39.814  21.082  26.224  1.00  0.00     0.261 C 
BRANCH   2   3
ATOM      3  O   UNL A   1      38.903  22.011  25.612  1.00  0.00    -0.458 OA
BRANCH   3   4
ATOM      4  C   UNL A   1      37.813  21.468  24.991  1.00  0.00     0.360 C 
ATOM      5  O   UNL A   1      37.578  20.267  24.929  1.00  0.00    -0.244 OA
BRANCH   4   6
ATOM      6  C   UNL A   1      36.910  22.510  24.508  1.00  0.00     0.191 A 
ATOM      7  C   UNL A   1      35.279  24.011  24.349  1.00  0.00     0.147 A 
ATOM      8  C   UNL A   1      36.075  23.374  25.271  1.00  0.00     0.085 A 
ATOM      9  O   UNL A   1      35.674  23.618  23.104  1.00  0.00    -0.360 OA
ATOM     10  N   UNL A   1      36.691  22.696  23.197  1.00  0.00    -0.072 NA
BRANCH   7  11
ATOM     11  C   UNL A   1      34.093  24.899  24.352  1.00  0.00     0.153 C 
BRANCH  11  12
ATOM     12  S   UNL A   1      32.514  24.248  24.971  1.00  0.00    -0.118 SA
BRANCH  12  13
ATOM     13  C   UNL A   1      32.570  22.469  24.748  1.00  0.00     0.013 A 
ATOM     14  C   UNL A   1      33.354  21.829  27.097  1.00  0.00     0.048 C 
ATOM     15  C   UNL A   1      32.882  21.481  25.709  1.00  0.00    -0.015 A 
ATOM     16  C   UNL A   1      32.736  20.116  25.357  1.00  0.00     0.035 A 
ATOM     17  C   UNL A   1      32.465  19.761  24.031  1.00  0.00     0.026 A 
ATOM     18  C   UNL A   1      32.282  22.074  23.428  1.00  0.00     0.015 A 
ATOM     19  C   UNL A   1      32.246  20.732  23.065  1.00  0.00     0.003 A 
BRANCH  16  20
ATOM     20  N   UNL A   1      32.961  19.092  26.270  1.00  0.00    -0.398 N 
ATOM     21  H   UNL A   1      32.222  18.761  26.832  1.00  0.00     0.156 HD
ATOM     22  H   UNL A   1      33.858  18.698  26.357  1.00  0.00     0.156 HD
ENDBRANCH  16  20
ENDBRANCH  12  13
ENDBRANCH  11  12
ENDBRANCH   7  11
ENDBRANCH   4   6
ENDBRANCH   3   4
ENDBRANCH   2   3
ENDBRANCH   1   2
BRANCH   1  23
ATOM     23  O   UNL A   1      42.235  20.950  26.554  1.00  0.00    -0.374 OA
BRANCH  23  24
ATOM     24  C   UNL A   1      41.943  19.569  26.328  1.00  0.00     0.202 C 
BRANCH  24  25
ATOM     25  C   UNL A   1      43.144  18.808  25.761  1.00  0.00     0.261 C 
BRANCH  25  26
ATOM     26  O   UNL A   1      43.469  19.303  24.448  1.00  0.00    -0.460 OA
BRANCH  26  27
ATOM     27  C   UNL A   1      44.782  19.562  24.232  1.00  0.00     0.338 C 
ATOM     28  O   UNL A   1      45.613  18.824  23.735  1.00  0.00    -0.246 OA
BRANCH  27  29
ATOM     29  C   UNL A   1      45.051  20.977  24.560  1.00  0.00     0.060 A 
ATOM     30  C   UNL A   1      45.666  21.263  25.785  1.00  0.00     0.016 A 
ATOM     31  C   UNL A   1      44.690  22.013  23.693  1.00  0.00     0.016 A 
ATOM     32  C   UNL A   1      45.899  22.586  26.159  1.00  0.00     0.010 A 
ATOM     33  C   UNL A   1      44.927  23.337  24.065  1.00  0.00     0.010 A 
ATOM     34  C   UNL A   1      45.509  23.630  25.311  1.00  0.00    -0.014 A 
BRANCH  34  35
ATOM     35  C   UNL A   1      45.539  25.033  25.784  1.00  0.00     0.031 A 
ATOM     36  C   UNL A   1      46.850  25.768  25.754  1.00  0.00     0.074 A 
ATOM     37  C   UNL A   1      44.433  25.641  26.244  1.00  0.00     0.049 A 
ATOM     38  N   UNL A   1      47.148  26.952  26.219  1.00  0.00    -0.248 NA
ATOM     39  C   UNL A   1      47.978  25.065  25.118  1.00  0.00     0.031 C 
ATOM     40  C   UNL A   1      43.092  25.059  26.281  1.00  0.00     0.029 A 
ATOM     41  N   UNL A   1      44.273  26.894  26.783  1.00  0.00    -0.354 N 
ATOM     42  C   UNL A   1      48.499  27.128  25.954  1.00  0.00     0.074 A 
ATOM     43  C   UNL A   1      48.968  25.927  25.300  1.00  0.00     0.031 C 
ATOM     44  C   UNL A   1      42.246  25.953  26.827  1.00  0.00     0.029 A 
ATOM     45  C   UNL A   1      42.992  27.151  27.204  1.00  0.00     0.049 A 
ATOM     46  H   UNL A   1      45.007  27.545  26.860  1.00  0.00     0.167 HD
ATOM     47  C   UNL A   1      49.284  28.195  26.229  1.00  0.00     0.031 A 
ATOM     48  C   UNL A   1      42.487  28.225  27.843  1.00  0.00     0.031 A 
ATOM     49  C   UNL A   1      48.826  29.393  26.874  1.00  0.00     0.049 A 
ATOM     50  C   UNL A   1      43.391  29.379  28.188  1.00  0.00     0.074 A 
ATOM     51  C   UNL A   1      49.546  30.530  27.194  1.00  0.00     0.029 A 
ATOM     52  N   UNL A   1      47.525  29.607  27.295  1.00  0.00    -0.354 N 
ATOM     53  N   UNL A   1      44.668  29.531  27.935  1.00  0.00    -0.248 NA
ATOM     54  C   UNL A   1      42.782  30.507  28.909  1.00  0.00     0.031 C 
ATOM     55  C   UNL A   1      48.683  31.423  27.837  1.00  0.00     0.029 A 
ATOM     56  C   UNL A   1      47.421  30.854  27.884  1.00  0.00     0.049 A 
ATOM     57  H   UNL A   1      46.783  28.966  27.191  1.00  0.00     0.167 HD
ATOM     58  C   UNL A   1      45.008  30.780  28.441  1.00  0.00     0.074 A 
ATOM     59  C   UNL A   1      43.804  31.345  29.013  1.00  0.00     0.031 C 
ATOM     60  C   UNL A   1      46.210  31.404  28.430  1.00  0.00     0.031 A 
BRANCH  47  61
ATOM     61  C   UNL A   1      50.732  28.091  25.854  1.00  0.00    -0.014 A 
ATOM     62  C   UNL A   1      51.184  28.492  24.588  1.00  0.00     0.009 A 
ATOM     63  C   UNL A   1      51.655  27.591  26.785  1.00  0.00     0.009 A 
ATOM     64  C   UNL A   1      52.532  28.367  24.251  1.00  0.00     0.001 A 
ATOM     65  C   UNL A   1      53.006  27.486  26.452  1.00  0.00     0.001 A 
ATOM     66  C   UNL A   1      53.442  27.867  25.183  1.00  0.00     0.000 A 
ENDBRANCH  47  61
BRANCH  48  67
ATOM     67  C   UNL A   1      41.052  28.258  28.222  1.00  0.00    -0.014 A 
ATOM     68  C   UNL A   1      40.119  28.927  27.418  1.00  0.00     0.009 A 
ATOM     69  C   UNL A   1      40.615  27.638  29.404  1.00  0.00     0.009 A 
ATOM     70  C   UNL A   1      38.776  28.992  27.799  1.00  0.00     0.001 A 
ATOM     71  C   UNL A   1      39.270  27.688  29.771  1.00  0.00     0.001 A 
ATOM     72  C   UNL A   1      38.353  28.371  28.973  1.00  0.00     0.000 A 
ENDBRANCH  48  67
BRANCH  60  73
ATOM     73  C   UNL A   1      46.279  32.785  29.010  1.00  0.00    -0.014 A 
ATOM     74  C   UNL A   1      46.662  32.995  30.341  1.00  0.00     0.009 A 
ATOM     75  C   UNL A   1      46.030  33.894  28.185  1.00  0.00     0.009 A 
ATOM     76  C   UNL A   1      46.781  34.292  30.843  1.00  0.00     0.001 A 
ATOM     77  C   UNL A   1      46.165  35.189  28.684  1.00  0.00     0.001 A 
ATOM     78  C   UNL A   1      46.537  35.388  30.013  1.00  0.00     0.000 A 
ENDBRANCH  60  73
ENDBRANCH  34  35
ENDBRANCH  27  29
ENDBRANCH  26  27
ENDBRANCH  25  26
ENDBRANCH  24  25
ENDBRANCH  23  24
ENDBRANCH   1  23
TORSDOF 18
ENDMDL
MODEL 2
REMARK VINA RESULT:      -9.8      3.035      7.711
REMARK SMILES Cc1c(N)cccc1SCc1cc(C(=O)OCCOCCOC(=O)c2ccc(-c3c4nc(c(-c5ccccc5)c5ccc([nH]5)c(-c5ccccc5)c5nc(c(-c6ccccc6)c6ccc3[nH]6)C=C5)C=C4)cc2)no1
REMARK SMILES IDX 18 1 17 2 16 3 14 4 15 5 13 6 11 7 12 8 74 9 73 10 10 11
REMARK SMILES IDX 9 12 8 13 1 14 2 15 3 16 5 17 7 18 6 19 4 20 19 23 20 24
REMARK SMILES IDX 21 25 22 26 23 27 24 28 25 29 26 30 72 31 27 32 71 33 28 34
REMARK SMILES IDX 29 35 30 36 65 37 31 38 70 39 64 40 66 41 32 42 69 43 63 44
REMARK SMILES IDX 62 45 33 47 55 48 40 49 54 50 41 51 44 52 53 53 67 54 42 55
REMARK SMILES IDX 43 56 52 58 68 59 45 60 34 61 35 62 39 63 36 64 38 65 37 66
REMARK SMILES IDX 56 67 57 68 61 69 58 70 60 71 59 72 46 73 47 74 51 75 48 76
REMARK SMILES IDX 50 77 49 78
REMARK H PARENT 4 21 4 22 66 46 44 57
REMARK Flexibility Score: inf
ROOT
ATOM      1  C   UNL A   1      35.013  22.731  26.170  1.00  0.00     0.202 C 
ENDROOT
BRANCH   1   2
ATOM      2  C   UNL A   1      34.226  21.632  26.889  1.00  0.00     0.261 C 
BRANCH   2   3
ATOM      3  O   UNL A   1      32.876  22.076  27.105  1.00  0.00    -0.458 OA
BRANCH   3   4
ATOM      4  C   UNL A   1      32.065  22.100  26.005  1.00  0.00     0.360 C 
ATOM      5  O   UNL A   1      31.909  21.158  25.238  1.00  0.00    -0.244 OA
BRANCH   4   6
ATOM      6  C   UNL A   1      31.323  23.357  25.927  1.00  0.00     0.191 A 
ATOM      7  C   UNL A   1      30.459  25.281  25.229  1.00  0.00     0.147 A 
ATOM      8  C   UNL A   1      30.936  24.080  24.763  1.00  0.00     0.085 A 
ATOM      9  O   UNL A   1      30.477  25.245  26.593  1.00  0.00    -0.360 OA
ATOM     10  N   UNL A   1      31.002  24.052  27.029  1.00  0.00    -0.072 NA
BRANCH   7  11
ATOM     11  C   UNL A   1      30.039  26.586  24.667  1.00  0.00     0.153 C 
BRANCH  11  12
ATOM     12  S   UNL A   1      31.291  27.650  23.892  1.00  0.00    -0.118 SA
BRANCH  12  13
ATOM     13  C   UNL A   1      31.958  28.689  25.193  1.00  0.00     0.013 A 
ATOM     14  C   UNL A   1      33.639  27.027  26.168  1.00  0.00     0.048 C 
ATOM     15  C   UNL A   1      32.999  28.389  26.100  1.00  0.00    -0.015 A 
ATOM     16  C   UNL A   1      33.466  29.409  26.967  1.00  0.00     0.035 A 
ATOM     17  C   UNL A   1      32.781  30.627  27.044  1.00  0.00     0.026 A 
ATOM     18  C   UNL A   1      31.305  29.934  25.287  1.00  0.00     0.015 A 
ATOM     19  C   UNL A   1      31.700  30.890  26.216  1.00  0.00     0.003 A 
BRANCH  16  20
ATOM     20  N   UNL A   1      34.530  29.205  27.837  1.00  0.00    -0.398 N 
ATOM     21  H   UNL A   1      35.000  29.977  28.230  1.00  0.00     0.156 HD
ATOM     22  H   UNL A   1      34.815  28.290  28.062  1.00  0.00     0.156 HD
ENDBRANCH  16  20
ENDBRANCH  12  13
ENDBRANCH  11  12
ENDBRANCH   7  11
ENDBRANCH   4   6
ENDBRANCH   3   4
ENDBRANCH   2   3
ENDBRANCH   1   2
BRANCH   1  23
ATOM     23  O   UNL A   1      35.745  22.210  25.059  1.00  0.00    -0.374 OA
BRANCH  23  24
ATOM     24  C   UNL A   1      35.782  20.785  24.963  1.00  0.00     0.202 C 
BRANCH  24  25
ATOM     25  C   UNL A   1      37.213  20.244  24.928  1.00  0.00     0.261 C 
BRANCH  25  26
ATOM     26  O   UNL A   1      38.152  21.314  25.145  1.00  0.00    -0.460 OA
BRANCH  26  27
ATOM     27  C   UNL A   1      39.179  21.027  25.982  1.00  0.00     0.338 C 
ATOM     28  O   UNL A   1      39.681  19.939  26.198  1.00  0.00    -0.246 OA
BRANCH  27  29
ATOM     29  C   UNL A   1      39.733  22.290  26.511  1.00  0.00     0.060 A 
ATOM     30  C   UNL A   1      39.171  23.493  26.063  1.00  0.00     0.016 A 
ATOM     31  C   UNL A   1      40.801  22.303  27.413  1.00  0.00     0.016 A 
ATOM     32  C   UNL A   1      39.689  24.712  26.499  1.00  0.00     0.010 A 
ATOM     33  C   UNL A   1      41.317  23.523  27.852  1.00  0.00     0.010 A 
ATOM     34  C   UNL A   1      40.781  24.733  27.376  1.00  0.00    -0.014 A 
BRANCH  34  35
ATOM     35  C   UNL A   1      41.485  26.001  27.669  1.00  0.00     0.031 A 
ATOM     36  C   UNL A   1      40.794  27.019  28.534  1.00  0.00     0.074 A 
ATOM     37  C   UNL A   1      42.706  26.257  27.168  1.00  0.00     0.049 A 
ATOM     38  N   UNL A   1      41.157  28.238  28.831  1.00  0.00    -0.248 NA
ATOM     39  C   UNL A   1      39.517  26.602  29.138  1.00  0.00     0.031 C 
ATOM     40  C   UNL A   1      43.505  25.338  26.358  1.00  0.00     0.029 A 
ATOM     41  N   UNL A   1      43.482  27.385  27.265  1.00  0.00    -0.354 N 
ATOM     42  C   UNL A   1      40.145  28.743  29.636  1.00  0.00     0.074 A 
ATOM     43  C   UNL A   1      39.147  27.705  29.772  1.00  0.00     0.031 C 
ATOM     44  C   UNL A   1      44.658  25.947  26.022  1.00  0.00     0.029 A 
ATOM     45  C   UNL A   1      44.661  27.303  26.565  1.00  0.00     0.049 A 
ATOM     46  H   UNL A   1      43.219  28.177  27.787  1.00  0.00     0.167 HD
ATOM     47  C   UNL A   1      40.052  29.962  30.215  1.00  0.00     0.031 A 
ATOM     48  C   UNL A   1      45.619  28.229  26.368  1.00  0.00     0.031 A 
ATOM     49  C   UNL A   1      41.039  30.996  30.088  1.00  0.00     0.049 A 
ATOM     50  C   UNL A   1      45.469  29.598  26.976  1.00  0.00     0.074 A 
ATOM     51  C   UNL A   1      41.033  32.265  30.639  1.00  0.00     0.029 A 
ATOM     52  N   UNL A   1      42.210  30.876  29.361  1.00  0.00    -0.354 N 
ATOM     53  N   UNL A   1      44.505  30.063  27.732  1.00  0.00    -0.248 NA
ATOM     54  C   UNL A   1      46.538  30.569  26.700  1.00  0.00     0.031 C 
ATOM     55  C   UNL A   1      42.193  32.925  30.218  1.00  0.00     0.029 A 
ATOM     56  C   UNL A   1      42.932  32.052  29.436  1.00  0.00     0.049 A 
ATOM     57  H   UNL A   1      42.487  30.072  28.863  1.00  0.00     0.167 HD
ATOM     58  C   UNL A   1      44.865  31.369  28.044  1.00  0.00     0.074 A 
ATOM     59  C   UNL A   1      46.135  31.622  27.397  1.00  0.00     0.031 C 
ATOM     60  C   UNL A   1      44.202  32.277  28.800  1.00  0.00     0.031 A 
BRANCH  47  61
ATOM     61  C   UNL A   1      38.814  30.245  31.013  1.00  0.00    -0.014 A 
ATOM     62  C   UNL A   1      38.769  29.997  32.392  1.00  0.00     0.009 A 
ATOM     63  C   UNL A   1      37.682  30.773  30.374  1.00  0.00     0.009 A 
ATOM     64  C   UNL A   1      37.601  30.246  33.114  1.00  0.00     0.001 A 
ATOM     65  C   UNL A   1      36.522  31.041  31.102  1.00  0.00     0.001 A 
ATOM     66  C   UNL A   1      36.480  30.770  32.469  1.00  0.00     0.000 A 
ENDBRANCH  47  61
BRANCH  48  67
ATOM     67  C   UNL A   1      46.807  27.905  25.538  1.00  0.00    -0.014 A 
ATOM     68  C   UNL A   1      46.722  27.923  24.138  1.00  0.00     0.009 A 
ATOM     69  C   UNL A   1      48.024  27.556  26.144  1.00  0.00     0.009 A 
ATOM     70  C   UNL A   1      47.830  27.578  23.360  1.00  0.00     0.001 A 
ATOM     71  C   UNL A   1      49.135  27.231  25.363  1.00  0.00     0.001 A 
ATOM     72  C   UNL A   1      49.035  27.235  23.972  1.00  0.00     0.000 A 
ENDBRANCH  48  67
BRANCH  60  73
ATOM     73  C   UNL A   1      44.855  33.611  29.012  1.00  0.00    -0.014 A 
ATOM     74  C   UNL A   1      45.765  33.813  30.059  1.00  0.00     0.009 A 
ATOM     75  C   UNL A   1      44.612  34.652  28.103  1.00  0.00     0.009 A 
ATOM     76  C   UNL A   1      46.410  35.044  30.201  1.00  0.00     0.001 A 
ATOM     77  C   UNL A   1      45.271  35.874  28.237  1.00  0.00     0.001 A 
ATOM     78  C   UNL A   1      46.166  36.070  29.287  1.00  0.00     0.000 A 
ENDBRANCH  60  73
ENDBRANCH  34  35
ENDBRANCH  27  29
ENDBRANCH  26  27
ENDBRANCH  25  26
ENDBRANCH  24  25
ENDBRANCH  23  24
ENDBRANCH   1  23
TORSDOF 18
ENDMDL
MODEL 3
REMARK VINA RESULT:      -9.5      5.429     10.033
REMARK SMILES Cc1c(N)cccc1SCc1cc(C(=O)OCCOCCOC(=O)c2ccc(-c3c4nc(c(-c5ccccc5)c5ccc([nH]5)c(-c5ccccc5)c5nc(c(-c6ccccc6)c6ccc3[nH]6)C=C5)C=C4)cc2)no1
REMARK SMILES IDX 18 1 17 2 16 3 14 4 15 5 13 6 11 7 12 8 74 9 73 10 10 11
REMARK SMILES IDX 9 12 8 13 1 14 2 15 3 16 5 17 7 18 6 19 4 20 19 23 20 24
REMARK SMILES IDX 21 25 22 26 23 27 24 28 25 29 26 30 72 31 27 32 71 33 28 34
REMARK SMILES IDX 29 35 30 36 65 37 31 38 70 39 64 40 66 41 32 42 69 43 63 44
REMARK SMILES IDX 62 45 33 47 55 48 40 49 54 50 41 51 44 52 53 53 67 54 42 55
REMARK SMILES IDX 43 56 52 58 68 59 45 60 34 61 35 62 39 63 36 64 38 65 37 66
REMARK SMILES IDX 56 67 57 68 61 69 58 70 60 71 59 72 46 73 47 74 51 75 48 76
REMARK SMILES IDX 50 77 49 78
REMARK H PARENT 4 21 4 22 66 46 44 57
REMARK Flexibility Score: inf
ROOT
ATOM      1  C   UNL A   1      31.965  28.686  26.227  1.00  0.00     0.202 C 
ENDROOT
BRANCH   1   2
ATOM      2  C   UNL A   1      31.304  27.923  25.076  1.00  0.00     0.261 C 
BRANCH   2   3
ATOM      3  O   UNL A   1      31.765  28.456  23.823  1.00  0.00    -0.458 OA
BRANCH   3   4
ATOM      4  C   UNL A   1      31.297  27.841  22.696  1.00  0.00     0.360 C 
ATOM      5  O   UNL A   1      30.432  28.303  21.962  1.00  0.00    -0.244 OA
BRANCH   4   6
ATOM      6  C   UNL A   1      32.041  26.613  22.420  1.00  0.00     0.191 A 
ATOM      7  C   UNL A   1      32.770  24.514  22.436  1.00  0.00     0.147 A 
ATOM      8  C   UNL A   1      31.646  25.270  22.674  1.00  0.00     0.085 A 
ATOM      9  O   UNL A   1      33.752  25.345  21.982  1.00  0.00    -0.360 OA
ATOM     10  N   UNL A   1      33.302  26.645  21.961  1.00  0.00    -0.072 NA
BRANCH   7  11
ATOM     11  C   UNL A   1      33.208  23.112  22.625  1.00  0.00     0.153 C 
BRANCH  11  12
ATOM     12  S   UNL A   1      33.434  22.486  24.315  1.00  0.00    -0.118 SA
BRANCH  12  13
ATOM     13  C   UNL A   1      33.549  20.700  24.189  1.00  0.00     0.013 A 
ATOM     14  C   UNL A   1      35.903  20.414  25.148  1.00  0.00     0.048 C 
ATOM     15  C   UNL A   1      34.607  19.863  24.613  1.00  0.00    -0.015 A 
ATOM     16  C   UNL A   1      34.438  18.458  24.542  1.00  0.00     0.035 A 
ATOM     17  C   UNL A   1      33.318  17.921  23.895  1.00  0.00     0.026 A 
ATOM     18  C   UNL A   1      32.429  20.122  23.561  1.00  0.00     0.015 A 
ATOM     19  C   UNL A   1      32.321  18.746  23.398  1.00  0.00     0.003 A 
BRANCH  16  20
ATOM     20  N   UNL A   1      35.408  17.576  25.002  1.00  0.00    -0.398 N 
ATOM     21  H   UNL A   1      35.276  16.604  24.906  1.00  0.00     0.156 HD
ATOM     22  H   UNL A   1      36.227  17.921  25.425  1.00  0.00     0.156 HD
ENDBRANCH  16  20
ENDBRANCH  12  13
ENDBRANCH  11  12
ENDBRANCH   7  11
ENDBRANCH   4   6
ENDBRANCH   3   4
ENDBRANCH   2   3
ENDBRANCH   1   2
BRANCH   1  23
ATOM     23  O   UNL A   1      32.224  30.046  25.874  1.00  0.00    -0.374 OA
BRANCH  23  24
ATOM     24  C   UNL A   1      31.102  30.926  25.957  1.00  0.00     0.202 C 
BRANCH  24  25
ATOM     25  C   UNL A   1      31.467  32.274  26.585  1.00  0.00     0.261 C 
BRANCH  25  26
ATOM     26  O   UNL A   1      32.703  32.160  27.314  1.00  0.00    -0.460 OA
BRANCH  26  27
ATOM     27  C   UNL A   1      33.113  33.289  27.945  1.00  0.00     0.338 C 
ATOM     28  O   UNL A   1      32.480  34.314  28.122  1.00  0.00    -0.246 OA
BRANCH  27  29
ATOM     29  C   UNL A   1      34.440  33.045  28.547  1.00  0.00     0.060 A 
ATOM     30  C   UNL A   1      35.570  33.498  27.854  1.00  0.00     0.016 A 
ATOM     31  C   UNL A   1      34.582  32.365  29.760  1.00  0.00     0.016 A 
ATOM     32  C   UNL A   1      36.845  33.253  28.360  1.00  0.00     0.010 A 
ATOM     33  C   UNL A   1      35.859  32.123  30.268  1.00  0.00     0.010 A 
ATOM     34  C   UNL A   1      36.997  32.542  29.557  1.00  0.00    -0.014 A 
BRANCH  34  35
ATOM     35  C   UNL A   1      38.333  32.076  29.990  1.00  0.00     0.031 A 
ATOM     36  C   UNL A   1      38.826  30.750  29.482  1.00  0.00     0.074 A 
ATOM     37  C   UNL A   1      39.092  32.803  30.829  1.00  0.00     0.049 A 
ATOM     38  N   UNL A   1      39.902  30.085  29.809  1.00  0.00    -0.248 NA
ATOM     39  C   UNL A   1      37.985  30.084  28.473  1.00  0.00     0.031 C 
ATOM     40  C   UNL A   1      38.754  34.125  31.355  1.00  0.00     0.029 A 
ATOM     41  N   UNL A   1      40.310  32.516  31.393  1.00  0.00    -0.354 N 
ATOM     42  C   UNL A   1      39.857  28.913  29.065  1.00  0.00     0.074 A 
ATOM     43  C   UNL A   1      38.643  28.950  28.280  1.00  0.00     0.031 C 
ATOM     44  C   UNL A   1      39.740  34.530  32.177  1.00  0.00     0.029 A 
ATOM     45  C   UNL A   1      40.757  33.484  32.258  1.00  0.00     0.049 A 
ATOM     46  H   UNL A   1      40.814  31.694  31.196  1.00  0.00     0.167 HD
ATOM     47  C   UNL A   1      40.746  27.894  29.035  1.00  0.00     0.031 A 
ATOM     48  C   UNL A   1      41.853  33.509  33.040  1.00  0.00     0.031 A 
ATOM     49  C   UNL A   1      41.955  27.851  29.808  1.00  0.00     0.049 A 
ATOM     50  C   UNL A   1      42.801  32.340  33.032  1.00  0.00     0.074 A 
ATOM     51  C   UNL A   1      42.920  26.861  29.844  1.00  0.00     0.029 A 
ATOM     52  N   UNL A   1      42.363  28.845  30.679  1.00  0.00    -0.354 N 
ATOM     53  N   UNL A   1      42.744  31.237  32.328  1.00  0.00    -0.248 NA
ATOM     54  C   UNL A   1      43.963  32.420  33.931  1.00  0.00     0.031 C 
ATOM     55  C   UNL A   1      43.902  27.246  30.763  1.00  0.00     0.029 A 
ATOM     56  C   UNL A   1      43.562  28.490  31.269  1.00  0.00     0.049 A 
ATOM     57  H   UNL A   1      41.873  29.682  30.854  1.00  0.00     0.167 HD
ATOM     58  C   UNL A   1      43.874  30.505  32.677  1.00  0.00     0.074 A 
ATOM     59  C   UNL A   1      44.598  31.290  33.654  1.00  0.00     0.031 C 
ATOM     60  C   UNL A   1      44.275  29.292  32.225  1.00  0.00     0.031 A 
BRANCH  47  61
ATOM     61  C   UNL A   1      40.416  26.728  28.153  1.00  0.00    -0.014 A 
ATOM     62  C   UNL A   1      39.600  25.682  28.609  1.00  0.00     0.009 A 
ATOM     63  C   UNL A   1      40.923  26.681  26.846  1.00  0.00     0.009 A 
ATOM     64  C   UNL A   1      39.322  24.594  27.781  1.00  0.00     0.001 A 
ATOM     65  C   UNL A   1      40.626  25.601  26.012  1.00  0.00     0.001 A 
ATOM     66  C   UNL A   1      39.833  24.556  26.483  1.00  0.00     0.000 A 
ENDBRANCH  47  61
BRANCH  48  67
ATOM     67  C   UNL A   1      42.110  34.676  33.922  1.00  0.00    -0.014 A 
ATOM     68  C   UNL A   1      41.603  34.705  35.229  1.00  0.00     0.009 A 
ATOM     69  C   UNL A   1      42.848  35.774  33.452  1.00  0.00     0.009 A 
ATOM     70  C   UNL A   1      41.812  35.822  36.042  1.00  0.00     0.001 A 
ATOM     71  C   UNL A   1      43.072  36.879  34.274  1.00  0.00     0.001 A 
ATOM     72  C   UNL A   1      42.548  36.905  35.566  1.00  0.00     0.000 A 
ENDBRANCH  48  67
BRANCH  60  73
ATOM     73  C   UNL A   1      45.577  28.757  32.744  1.00  0.00    -0.014 A 
ATOM     74  C   UNL A   1      46.795  29.121  32.155  1.00  0.00     0.009 A 
ATOM     75  C   UNL A   1      45.583  27.940  33.884  1.00  0.00     0.009 A 
ATOM     76  C   UNL A   1      48.000  28.662  32.691  1.00  0.00     0.001 A 
ATOM     77  C   UNL A   1      46.789  27.496  34.428  1.00  0.00     0.001 A 
ATOM     78  C   UNL A   1      47.995  27.855  33.830  1.00  0.00     0.000 A 
ENDBRANCH  60  73
ENDBRANCH  34  35
ENDBRANCH  27  29
ENDBRANCH  26  27
ENDBRANCH  25  26
ENDBRANCH  24  25
ENDBRANCH  23  24
ENDBRANCH   1  23
TORSDOF 18
ENDMDL
