MODEL 1
REMARK VINA RESULT:     -10.5      0.000      0.000
REMARK SMILES CCc1cccc(C)c1Nc1ccccc1CC(=O)OCCOCCOC(=O)c1ccc(-c2c3nc(c(-c4ccccc4)c4ccc([nH]4)c(-c4ccccc4)c4nc(c(-c5ccccc5)c5ccc2[nH]5)C=C4)C=C3)cc1
REMARK SMILES IDX 22 1 21 2 20 3 18 4 19 5 17 6 16 7 11 8 12 9 13 10 15 11
REMARK SMILES IDX 14 12 10 13 9 15 3 16 4 17 5 18 7 19 6 20 8 21 2 22 1 23
REMARK SMILES IDX 23 24 24 25 25 26 26 27 27 28 28 29 29 30 30 31 76 32 31 33
REMARK SMILES IDX 75 34 32 35 33 36 34 37 69 38 35 39 74 40 68 41 70 42 36 43
REMARK SMILES IDX 73 44 67 45 66 46 37 48 59 49 44 50 58 51 45 52 48 53 57 54
REMARK SMILES IDX 71 55 46 56 47 57 56 59 72 60 49 61 38 62 39 63 43 64 40 65
REMARK SMILES IDX 42 66 41 67 60 68 61 69 65 70 62 71 64 72 63 73 50 74 51 75
REMARK SMILES IDX 55 76 52 77 54 78 53 79
REMARK H PARENT 10 14 70 47 48 58
REMARK Flexibility Score: inf
ROOT
ATOM      1  C   UNL A   1      34.189  31.285  27.759  1.00  0.00     0.202 C 
ENDROOT
BRANCH   1   2
ATOM      2  C   UNL A   1      33.237  30.439  26.879  1.00  0.00     0.261 C 
BRANCH   2   3
ATOM      3  O   UNL A   1      32.027  29.783  27.333  1.00  0.00    -0.463 OA
BRANCH   3   4
ATOM      4  C   UNL A   1      31.829  28.439  27.377  1.00  0.00     0.310 C 
ATOM      5  O   UNL A   1      31.386  27.849  28.355  1.00  0.00    -0.252 OA
BRANCH   4   6
ATOM      6  C   UNL A   1      32.170  27.701  26.073  1.00  0.00     0.160 C 
BRANCH   6   7
ATOM      7  C   UNL A   1      31.081  27.606  25.010  1.00  0.00    -0.013 A 
ATOM      8  C   UNL A   1      30.226  26.480  24.799  1.00  0.00     0.042 A 
ATOM      9  C   UNL A   1      29.176  26.629  23.866  1.00  0.00     0.026 A 
ATOM     10  C   UNL A   1      28.968  27.821  23.162  1.00  0.00     0.002 A 
ATOM     11  C   UNL A   1      30.892  28.777  24.231  1.00  0.00     0.006 A 
ATOM     12  C   UNL A   1      29.838  28.889  23.329  1.00  0.00     0.000 A 
BRANCH   8  13
ATOM     13  N   UNL A   1      30.180  25.286  25.589  1.00  0.00    -0.355 N 
ATOM     14  H   UNL A   1      29.368  25.179  26.135  1.00  0.00     0.167 HD
BRANCH  13  15
ATOM     15  C   UNL A   1      31.125  24.238  25.704  1.00  0.00     0.045 A 
ATOM     16  C   UNL A   1      32.300  24.132  24.933  1.00  0.00    -0.024 A 
ATOM     17  C   UNL A   1      33.509  23.729  25.542  1.00  0.00     0.006 A 
ATOM     18  C   UNL A   1      33.501  23.334  26.850  1.00  0.00     0.001 A 
ATOM     19  C   UNL A   1      31.046  23.379  26.772  1.00  0.00    -0.027 A 
ATOM     20  C   UNL A   1      32.260  23.076  27.401  1.00  0.00     0.005 A 
ATOM     21  C   UNL A   1      29.677  22.852  27.118  1.00  0.00     0.046 C 
BRANCH  16  22
ATOM     22  C   UNL A   1      32.265  23.839  23.447  1.00  0.00     0.034 C 
ATOM     23  C   UNL A   1      30.961  23.344  22.877  1.00  0.00     0.009 C 
ENDBRANCH  16  22
ENDBRANCH  13  15
ENDBRANCH   8  13
ENDBRANCH   6   7
ENDBRANCH   4   6
ENDBRANCH   3   4
ENDBRANCH   2   3
ENDBRANCH   1   2
BRANCH   1  24
ATOM     24  O   UNL A   1      35.221  32.145  27.283  1.00  0.00    -0.374 OA
BRANCH  24  25
ATOM     25  C   UNL A   1      35.891  33.103  28.108  1.00  0.00     0.202 C 
BRANCH  25  26
ATOM     26  C   UNL A   1      35.773  32.938  29.617  1.00  0.00     0.261 C 
BRANCH  26  27
ATOM     27  O   UNL A   1      36.834  32.059  30.044  1.00  0.00    -0.460 OA
BRANCH  27  28
ATOM     28  C   UNL A   1      36.416  30.969  30.734  1.00  0.00     0.338 C 
ATOM     29  O   UNL A   1      35.994  30.987  31.884  1.00  0.00    -0.246 OA
BRANCH  28  30
ATOM     30  C   UNL A   1      36.953  29.742  30.057  1.00  0.00     0.060 A 
ATOM     31  C   UNL A   1      37.437  28.734  30.893  1.00  0.00     0.016 A 
ATOM     32  C   UNL A   1      37.360  29.754  28.717  1.00  0.00     0.016 A 
ATOM     33  C   UNL A   1      38.495  27.923  30.463  1.00  0.00     0.010 A 
ATOM     34  C   UNL A   1      38.445  28.954  28.314  1.00  0.00     0.010 A 
ATOM     35  C   UNL A   1      39.142  28.164  29.244  1.00  0.00    -0.014 A 
BRANCH  35  36
ATOM     36  C   UNL A   1      40.584  27.804  29.046  1.00  0.00     0.031 A 
ATOM     37  C   UNL A   1      41.041  26.628  28.266  1.00  0.00     0.074 A 
ATOM     38  C   UNL A   1      41.632  28.577  29.445  1.00  0.00     0.049 A 
ATOM     39  N   UNL A   1      41.781  25.678  28.757  1.00  0.00    -0.248 NA
ATOM     40  C   UNL A   1      40.827  26.533  26.823  1.00  0.00     0.031 C 
ATOM     41  C   UNL A   1      43.057  28.347  29.157  1.00  0.00     0.029 A 
ATOM     42  N   UNL A   1      41.670  29.732  30.208  1.00  0.00    -0.354 N 
ATOM     43  C   UNL A   1      42.308  25.004  27.672  1.00  0.00     0.074 A 
ATOM     44  C   UNL A   1      41.571  25.468  26.510  1.00  0.00     0.031 C 
ATOM     45  C   UNL A   1      43.810  29.206  29.862  1.00  0.00     0.029 A 
ATOM     46  C   UNL A   1      42.933  29.938  30.749  1.00  0.00     0.049 A 
ATOM     47  H   UNL A   1      40.900  30.330  30.348  1.00  0.00     0.167 HD
ATOM     48  C   UNL A   1      43.512  24.361  27.702  1.00  0.00     0.031 A 
ATOM     49  C   UNL A   1      43.118  30.174  32.077  1.00  0.00     0.031 A 
ATOM     50  C   UNL A   1      44.383  24.850  28.774  1.00  0.00     0.049 A 
ATOM     51  C   UNL A   1      43.736  28.948  32.719  1.00  0.00     0.074 A 
ATOM     52  C   UNL A   1      45.539  25.616  28.722  1.00  0.00     0.029 A 
ATOM     53  N   UNL A   1      43.996  24.825  30.108  1.00  0.00    -0.354 N 
ATOM     54  N   UNL A   1      44.112  27.909  32.028  1.00  0.00    -0.248 NA
ATOM     55  C   UNL A   1      43.941  28.740  34.149  1.00  0.00     0.031 C 
ATOM     56  C   UNL A   1      45.836  26.067  30.030  1.00  0.00     0.029 A 
ATOM     57  C   UNL A   1      44.876  25.562  30.888  1.00  0.00     0.049 A 
ATOM     58  H   UNL A   1      43.207  24.349  30.454  1.00  0.00     0.167 HD
ATOM     59  C   UNL A   1      44.462  26.883  32.848  1.00  0.00     0.074 A 
ATOM     60  C   UNL A   1      44.398  27.471  34.174  1.00  0.00     0.031 C 
ATOM     61  C   UNL A   1      44.717  25.642  32.338  1.00  0.00     0.031 A 
BRANCH  48  62
ATOM     62  C   UNL A   1      44.037  23.535  26.535  1.00  0.00    -0.014 A 
ATOM     63  C   UNL A   1      43.754  22.160  26.434  1.00  0.00     0.009 A 
ATOM     64  C   UNL A   1      44.741  24.094  25.450  1.00  0.00     0.009 A 
ATOM     65  C   UNL A   1      44.229  21.374  25.372  1.00  0.00     0.001 A 
ATOM     66  C   UNL A   1      45.249  23.310  24.402  1.00  0.00     0.001 A 
ATOM     67  C   UNL A   1      44.999  21.945  24.368  1.00  0.00     0.000 A 
ENDBRANCH  48  62
BRANCH  49  68
ATOM     68  C   UNL A   1      42.087  31.107  32.621  1.00  0.00    -0.014 A 
ATOM     69  C   UNL A   1      42.187  32.446  32.178  1.00  0.00     0.009 A 
ATOM     70  C   UNL A   1      40.840  30.656  33.080  1.00  0.00     0.009 A 
ATOM     71  C   UNL A   1      41.053  33.252  32.040  1.00  0.00     0.001 A 
ATOM     72  C   UNL A   1      39.704  31.474  32.945  1.00  0.00     0.001 A 
ATOM     73  C   UNL A   1      39.803  32.750  32.386  1.00  0.00     0.000 A 
ENDBRANCH  49  68
BRANCH  61  74
ATOM     74  C   UNL A   1      44.906  24.384  33.141  1.00  0.00    -0.014 A 
ATOM     75  C   UNL A   1      46.141  23.942  33.627  1.00  0.00     0.009 A 
ATOM     76  C   UNL A   1      43.763  23.657  33.548  1.00  0.00     0.009 A 
ATOM     77  C   UNL A   1      46.235  22.809  34.445  1.00  0.00     0.001 A 
ATOM     78  C   UNL A   1      43.847  22.557  34.401  1.00  0.00     0.001 A 
ATOM     79  C   UNL A   1      45.089  22.124  34.841  1.00  0.00     0.000 A 
ENDBRANCH  61  74
ENDBRANCH  35  36
ENDBRANCH  28  30
ENDBRANCH  27  28
ENDBRANCH  26  27
ENDBRANCH  25  26
ENDBRANCH  24  25
ENDBRANCH   1  24
TORSDOF 18
ENDMDL
MODEL 2
REMARK VINA RESULT:     -10.5      4.156      8.452
REMARK SMILES CCc1cccc(C)c1Nc1ccccc1CC(=O)OCCOCCOC(=O)c1ccc(-c2c3nc(c(-c4ccccc4)c4ccc([nH]4)c(-c4ccccc4)c4nc(c(-c5ccccc5)c5ccc2[nH]5)C=C4)C=C3)cc1
REMARK SMILES IDX 22 1 21 2 20 3 18 4 19 5 17 6 16 7 11 8 12 9 13 10 15 11
REMARK SMILES IDX 14 12 10 13 9 15 3 16 4 17 5 18 7 19 6 20 8 21 2 22 1 23
REMARK SMILES IDX 23 24 24 25 25 26 26 27 27 28 28 29 29 30 30 31 76 32 31 33
REMARK SMILES IDX 75 34 32 35 33 36 34 37 69 38 35 39 74 40 68 41 70 42 36 43
REMARK SMILES IDX 73 44 67 45 66 46 37 48 59 49 44 50 58 51 45 52 48 53 57 54
REMARK SMILES IDX 71 55 46 56 47 57 56 59 72 60 49 61 38 62 39 63 43 64 40 65
REMARK SMILES IDX 42 66 41 67 60 68 61 69 65 70 62 71 64 72 63 73 50 74 51 75
REMARK SMILES IDX 55 76 52 77 54 78 53 79
REMARK H PARENT 10 14 70 47 48 58
REMARK Flexibility Score: inf
ROOT
ATOM      1  C   UNL A   1      38.712  21.800  25.787  1.00  0.00     0.202 C 
ENDROOT
BRANCH   1   2
ATOM      2  C   UNL A   1      37.718  22.985  25.705  1.00  0.00     0.261 C 
BRANCH   2   3
ATOM      3  O   UNL A   1      36.920  23.340  24.548  1.00  0.00    -0.463 OA
BRANCH   3   4
ATOM      4  C   UNL A   1      35.616  23.724  24.580  1.00  0.00     0.310 C 
ATOM      5  O   UNL A   1      35.144  24.457  25.441  1.00  0.00    -0.252 OA
BRANCH   4   6
ATOM      6  C   UNL A   1      34.768  23.197  23.412  1.00  0.00     0.160 C 
BRANCH   6   7
ATOM      7  C   UNL A   1      33.479  23.941  23.082  1.00  0.00    -0.013 A 
ATOM      8  C   UNL A   1      32.159  23.480  23.373  1.00  0.00     0.042 A 
ATOM      9  C   UNL A   1      31.091  24.372  23.129  1.00  0.00     0.026 A 
ATOM     10  C   UNL A   1      31.297  25.658  22.616  1.00  0.00     0.002 A 
ATOM     11  C   UNL A   1      33.654  25.222  22.496  1.00  0.00     0.006 A 
ATOM     12  C   UNL A   1      32.577  26.076  22.280  1.00  0.00     0.000 A 
BRANCH   8  13
ATOM     13  N   UNL A   1      31.811  22.291  24.094  1.00  0.00    -0.355 N 
ATOM     14  H   UNL A   1      31.230  21.664  23.607  1.00  0.00     0.167 HD
BRANCH  13  15
ATOM     15  C   UNL A   1      32.178  21.883  25.400  1.00  0.00     0.045 A 
ATOM     16  C   UNL A   1      33.138  20.893  25.689  1.00  0.00    -0.024 A 
ATOM     17  C   UNL A   1      34.056  21.087  26.744  1.00  0.00     0.006 A 
ATOM     18  C   UNL A   1      33.929  22.184  27.549  1.00  0.00     0.001 A 
ATOM     19  C   UNL A   1      31.765  22.629  26.475  1.00  0.00    -0.027 A 
ATOM     20  C   UNL A   1      32.733  22.872  27.456  1.00  0.00     0.005 A 
ATOM     21  C   UNL A   1      30.323  23.070  26.479  1.00  0.00     0.046 C 
BRANCH  16  22
ATOM     22  C   UNL A   1      32.905  19.429  25.375  1.00  0.00     0.034 C 
ATOM     23  C   UNL A   1      33.007  19.012  23.931  1.00  0.00     0.009 C 
ENDBRANCH  16  22
ENDBRANCH  13  15
ENDBRANCH   8  13
ENDBRANCH   6   7
ENDBRANCH   4   6
ENDBRANCH   3   4
ENDBRANCH   2   3
ENDBRANCH   1   2
BRANCH   1  24
ATOM     24  O   UNL A   1      40.103  21.896  26.081  1.00  0.00    -0.374 OA
BRANCH  24  25
ATOM     25  C   UNL A   1      40.718  21.245  27.197  1.00  0.00     0.202 C 
BRANCH  25  26
ATOM     26  C   UNL A   1      41.923  20.357  26.917  1.00  0.00     0.261 C 
BRANCH  26  27
ATOM     27  O   UNL A   1      42.252  20.497  25.520  1.00  0.00    -0.460 OA
BRANCH  27  28
ATOM     28  C   UNL A   1      43.582  20.485  25.254  1.00  0.00     0.338 C 
ATOM     29  O   UNL A   1      44.312  19.508  25.374  1.00  0.00    -0.246 OA
BRANCH  28  30
ATOM     30  C   UNL A   1      44.075  21.902  25.225  1.00  0.00     0.060 A 
ATOM     31  C   UNL A   1      45.098  22.220  26.120  1.00  0.00     0.016 A 
ATOM     32  C   UNL A   1      43.306  22.942  24.688  1.00  0.00     0.016 A 
ATOM     33  C   UNL A   1      45.177  23.513  26.655  1.00  0.00     0.010 A 
ATOM     34  C   UNL A   1      43.377  24.225  25.262  1.00  0.00     0.010 A 
ATOM     35  C   UNL A   1      44.190  24.469  26.382  1.00  0.00    -0.014 A 
BRANCH  35  36
ATOM     36  C   UNL A   1      43.867  25.553  27.366  1.00  0.00     0.031 A 
ATOM     37  C   UNL A   1      42.503  26.101  27.572  1.00  0.00     0.074 A 
ATOM     38  C   UNL A   1      44.751  26.065  28.267  1.00  0.00     0.049 A 
ATOM     39  N   UNL A   1      42.198  27.357  27.421  1.00  0.00    -0.248 NA
ATOM     40  C   UNL A   1      41.423  25.287  28.126  1.00  0.00     0.031 C 
ATOM     41  C   UNL A   1      44.458  27.024  29.344  1.00  0.00     0.029 A 
ATOM     42  N   UNL A   1      46.112  25.860  28.419  1.00  0.00    -0.354 N 
ATOM     43  C   UNL A   1      40.988  27.536  28.063  1.00  0.00     0.074 A 
ATOM     44  C   UNL A   1      40.478  26.206  28.346  1.00  0.00     0.031 C 
ATOM     45  C   UNL A   1      45.602  27.439  29.911  1.00  0.00     0.029 A 
ATOM     46  C   UNL A   1      46.699  26.889  29.144  1.00  0.00     0.049 A 
ATOM     47  H   UNL A   1      46.600  25.084  28.059  1.00  0.00     0.167 HD
ATOM     48  C   UNL A   1      40.607  28.719  28.628  1.00  0.00     0.031 A 
ATOM     49  C   UNL A   1      47.799  27.552  28.692  1.00  0.00     0.031 A 
ATOM     50  C   UNL A   1      41.746  29.593  28.921  1.00  0.00     0.049 A 
ATOM     51  C   UNL A   1      47.395  28.944  28.251  1.00  0.00     0.074 A 
ATOM     52  C   UNL A   1      42.319  29.959  30.131  1.00  0.00     0.029 A 
ATOM     53  N   UNL A   1      42.634  30.003  27.934  1.00  0.00    -0.354 N 
ATOM     54  N   UNL A   1      46.188  29.409  28.413  1.00  0.00    -0.248 NA
ATOM     55  C   UNL A   1      48.248  29.906  27.559  1.00  0.00     0.031 C 
ATOM     56  C   UNL A   1      43.566  30.575  29.869  1.00  0.00     0.029 A 
ATOM     57  C   UNL A   1      43.749  30.607  28.498  1.00  0.00     0.049 A 
ATOM     58  H   UNL A   1      42.493  29.883  26.968  1.00  0.00     0.167 HD
ATOM     59  C   UNL A   1      46.037  30.599  27.775  1.00  0.00     0.074 A 
ATOM     60  C   UNL A   1      47.376  30.904  27.303  1.00  0.00     0.031 C 
ATOM     61  C   UNL A   1      44.805  31.177  27.663  1.00  0.00     0.031 A 
BRANCH  48  62
ATOM     62  C   UNL A   1      39.231  28.937  29.243  1.00  0.00    -0.014 A 
ATOM     63  C   UNL A   1      38.995  28.674  30.606  1.00  0.00     0.009 A 
ATOM     64  C   UNL A   1      38.150  29.496  28.535  1.00  0.00     0.009 A 
ATOM     65  C   UNL A   1      37.737  28.862  31.198  1.00  0.00     0.001 A 
ATOM     66  C   UNL A   1      36.879  29.656  29.109  1.00  0.00     0.001 A 
ATOM     67  C   UNL A   1      36.670  29.329  30.442  1.00  0.00     0.000 A 
ENDBRANCH  48  62
BRANCH  49  68
ATOM     68  C   UNL A   1      48.795  26.620  28.085  1.00  0.00    -0.014 A 
ATOM     69  C   UNL A   1      48.797  26.573  26.671  1.00  0.00     0.009 A 
ATOM     70  C   UNL A   1      49.964  26.234  28.759  1.00  0.00     0.009 A 
ATOM     71  C   UNL A   1      49.970  26.312  25.955  1.00  0.00     0.001 A 
ATOM     72  C   UNL A   1      51.138  25.966  28.033  1.00  0.00     0.001 A 
ATOM     73  C   UNL A   1      51.152  26.048  26.639  1.00  0.00     0.000 A 
ENDBRANCH  49  68
BRANCH  61  74
ATOM     74  C   UNL A   1      44.467  32.371  26.812  1.00  0.00    -0.014 A 
ATOM     75  C   UNL A   1      44.314  32.324  25.423  1.00  0.00     0.009 A 
ATOM     76  C   UNL A   1      44.159  33.596  27.447  1.00  0.00     0.009 A 
ATOM     77  C   UNL A   1      43.911  33.454  24.699  1.00  0.00     0.001 A 
ATOM     78  C   UNL A   1      43.712  34.709  26.737  1.00  0.00     0.001 A 
ATOM     79  C   UNL A   1      43.599  34.641  25.357  1.00  0.00     0.000 A 
ENDBRANCH  61  74
ENDBRANCH  35  36
ENDBRANCH  28  30
ENDBRANCH  27  28
ENDBRANCH  26  27
ENDBRANCH  25  26
ENDBRANCH  24  25
ENDBRANCH   1  24
TORSDOF 18
ENDMDL
MODEL 3
REMARK VINA RESULT:     -10.4      3.555      8.825
REMARK SMILES CCc1cccc(C)c1Nc1ccccc1CC(=O)OCCOCCOC(=O)c1ccc(-c2c3nc(c(-c4ccccc4)c4ccc([nH]4)c(-c4ccccc4)c4nc(c(-c5ccccc5)c5ccc2[nH]5)C=C4)C=C3)cc1
REMARK SMILES IDX 22 1 21 2 20 3 18 4 19 5 17 6 16 7 11 8 12 9 13 10 15 11
REMARK SMILES IDX 14 12 10 13 9 15 3 16 4 17 5 18 7 19 6 20 8 21 2 22 1 23
REMARK SMILES IDX 23 24 24 25 25 26 26 27 27 28 28 29 29 30 30 31 76 32 31 33
REMARK SMILES IDX 75 34 32 35 33 36 34 37 69 38 35 39 74 40 68 41 70 42 36 43
REMARK SMILES IDX 73 44 67 45 66 46 37 48 59 49 44 50 58 51 45 52 48 53 57 54
REMARK SMILES IDX 71 55 46 56 47 57 56 59 72 60 49 61 38 62 39 63 43 64 40 65
REMARK SMILES IDX 42 66 41 67 60 68 61 69 65 70 62 71 64 72 63 73 50 74 51 75
REMARK SMILES IDX 55 76 52 77 54 78 53 79
REMARK H PARENT 10 14 70 47 48 58
REMARK Flexibility Score: inf
ROOT
ATOM      1  C   UNL A   1      38.030  22.160  25.620  1.00  0.00     0.202 C 
ENDROOT
BRANCH   1   2
ATOM      2  C   UNL A   1      36.932  23.226  25.853  1.00  0.00     0.261 C 
BRANCH   2   3
ATOM      3  O   UNL A   1      36.340  24.066  24.830  1.00  0.00    -0.463 OA
BRANCH   3   4
ATOM      4  C   UNL A   1      35.887  23.635  23.623  1.00  0.00     0.310 C 
ATOM      5  O   UNL A   1      36.532  22.910  22.874  1.00  0.00    -0.252 OA
BRANCH   4   6
ATOM      6  C   UNL A   1      34.463  24.096  23.275  1.00  0.00     0.160 C 
BRANCH   6   7
ATOM      7  C   UNL A   1      33.883  25.259  24.071  1.00  0.00    -0.013 A 
ATOM      8  C   UNL A   1      33.390  25.183  25.411  1.00  0.00     0.042 A 
ATOM      9  C   UNL A   1      33.028  26.394  26.039  1.00  0.00     0.026 A 
ATOM     10  C   UNL A   1      33.133  27.631  25.391  1.00  0.00     0.002 A 
ATOM     11  C   UNL A   1      33.912  26.517  23.413  1.00  0.00     0.006 A 
ATOM     12  C   UNL A   1      33.556  27.690  24.071  1.00  0.00     0.000 A 
BRANCH   8  13
ATOM     13  N   UNL A   1      33.429  24.035  26.268  1.00  0.00    -0.355 N 
ATOM     14  H   UNL A   1      33.823  24.191  27.156  1.00  0.00     0.167 HD
BRANCH  13  15
ATOM     15  C   UNL A   1      32.988  22.710  26.029  1.00  0.00     0.045 A 
ATOM     16  C   UNL A   1      31.920  22.364  25.178  1.00  0.00    -0.024 A 
ATOM     17  C   UNL A   1      32.033  21.245  24.324  1.00  0.00     0.006 A 
ATOM     18  C   UNL A   1      33.134  20.441  24.415  1.00  0.00     0.001 A 
ATOM     19  C   UNL A   1      33.763  21.660  26.454  1.00  0.00    -0.027 A 
ATOM     20  C   UNL A   1      33.921  20.612  25.539  1.00  0.00     0.005 A 
ATOM     21  C   UNL A   1      34.324  21.752  27.849  1.00  0.00     0.046 C 
BRANCH  16  22
ATOM     22  C   UNL A   1      30.481  22.706  25.510  1.00  0.00     0.034 C 
ATOM     23  C   UNL A   1      30.167  23.023  26.948  1.00  0.00     0.009 C 
ENDBRANCH  16  22
ENDBRANCH  13  15
ENDBRANCH   8  13
ENDBRANCH   6   7
ENDBRANCH   4   6
ENDBRANCH   3   4
ENDBRANCH   2   3
ENDBRANCH   1   2
BRANCH   1  24
ATOM     24  O   UNL A   1      39.434  22.364  25.753  1.00  0.00    -0.374 OA
BRANCH  24  25
ATOM     25  C   UNL A   1      40.197  21.893  26.867  1.00  0.00     0.202 C 
BRANCH  25  26
ATOM     26  C   UNL A   1      41.567  22.516  27.097  1.00  0.00     0.261 C 
BRANCH  26  27
ATOM     27  O   UNL A   1      41.392  23.638  27.986  1.00  0.00    -0.460 OA
BRANCH  27  28
ATOM     28  C   UNL A   1      41.800  24.827  27.476  1.00  0.00     0.338 C 
ATOM     29  O   UNL A   1      42.967  25.192  27.394  1.00  0.00    -0.246 OA
BRANCH  28  30
ATOM     30  C   UNL A   1      40.625  25.761  27.447  1.00  0.00     0.060 A 
ATOM     31  C   UNL A   1      40.811  26.970  26.775  1.00  0.00     0.016 A 
ATOM     32  C   UNL A   1      39.579  25.662  28.372  1.00  0.00     0.016 A 
ATOM     33  C   UNL A   1      40.134  28.117  27.208  1.00  0.00     0.010 A 
ATOM     34  C   UNL A   1      38.933  26.830  28.817  1.00  0.00     0.010 A 
ATOM     35  C   UNL A   1      39.342  28.096  28.364  1.00  0.00    -0.014 A 
BRANCH  35  36
ATOM     36  C   UNL A   1      39.153  29.329  29.197  1.00  0.00     0.031 A 
ATOM     37  C   UNL A   1      38.029  30.281  29.017  1.00  0.00     0.074 A 
ATOM     38  C   UNL A   1      39.906  29.645  30.286  1.00  0.00     0.049 A 
ATOM     39  N   UNL A   1      38.187  31.545  28.758  1.00  0.00    -0.248 NA
ATOM     40  C   UNL A   1      36.644  29.895  29.286  1.00  0.00     0.031 C 
ATOM     41  C   UNL A   1      39.681  30.760  31.221  1.00  0.00     0.029 A 
ATOM     42  N   UNL A   1      41.050  29.058  30.801  1.00  0.00    -0.354 N 
ATOM     43  C   UNL A   1      36.980  32.149  29.049  1.00  0.00     0.074 A 
ATOM     44  C   UNL A   1      36.019  31.075  29.221  1.00  0.00     0.031 C 
ATOM     45  C   UNL A   1      40.723  30.871  32.060  1.00  0.00     0.029 A 
ATOM     46  C   UNL A   1      41.739  29.936  31.628  1.00  0.00     0.049 A 
ATOM     47  H   UNL A   1      41.337  28.137  30.605  1.00  0.00     0.167 HD
ATOM     48  C   UNL A   1      36.871  33.447  29.461  1.00  0.00     0.031 A 
ATOM     49  C   UNL A   1      43.068  30.183  31.468  1.00  0.00     0.031 A 
ATOM     50  C   UNL A   1      38.121  33.964  30.022  1.00  0.00     0.049 A 
ATOM     51  C   UNL A   1      43.251  31.575  30.897  1.00  0.00     0.074 A 
ATOM     52  C   UNL A   1      38.467  34.271  31.331  1.00  0.00     0.029 A 
ATOM     53  N   UNL A   1      39.306  33.977  29.297  1.00  0.00    -0.354 N 
ATOM     54  N   UNL A   1      42.253  32.397  30.720  1.00  0.00    -0.248 NA
ATOM     55  C   UNL A   1      44.507  32.154  30.433  1.00  0.00     0.031 C 
ATOM     56  C   UNL A   1      39.869  34.450  31.394  1.00  0.00     0.029 A 
ATOM     57  C   UNL A   1      40.382  34.275  30.121  1.00  0.00     0.049 A 
ATOM     58  H   UNL A   1      39.374  33.800  28.331  1.00  0.00     0.167 HD
ATOM     59  C   UNL A   1      42.651  33.500  30.033  1.00  0.00     0.074 A 
ATOM     60  C   UNL A   1      44.090  33.333  29.927  1.00  0.00     0.031 C 
ATOM     61  C   UNL A   1      41.735  34.406  29.582  1.00  0.00     0.031 A 
BRANCH  48  62
ATOM     62  C   UNL A   1      35.530  34.135  29.681  1.00  0.00    -0.014 A 
ATOM     63  C   UNL A   1      34.758  34.585  28.593  1.00  0.00     0.009 A 
ATOM     64  C   UNL A   1      34.935  34.277  30.950  1.00  0.00     0.009 A 
ATOM     65  C   UNL A   1      33.521  35.226  28.767  1.00  0.00     0.001 A 
ATOM     66  C   UNL A   1      33.716  34.947  31.136  1.00  0.00     0.001 A 
ATOM     67  C   UNL A   1      33.012  35.430  30.042  1.00  0.00     0.000 A 
ENDBRANCH  48  62
BRANCH  49  68
ATOM     68  C   UNL A   1      43.831  28.934  31.173  1.00  0.00    -0.014 A 
ATOM     69  C   UNL A   1      43.955  28.030  32.253  1.00  0.00     0.009 A 
ATOM     70  C   UNL A   1      43.956  28.426  29.870  1.00  0.00     0.009 A 
ATOM     71  C   UNL A   1      44.033  26.650  32.040  1.00  0.00     0.001 A 
ATOM     72  C   UNL A   1      44.042  27.038  29.663  1.00  0.00     0.001 A 
ATOM     73  C   UNL A   1      44.035  26.151  30.742  1.00  0.00     0.000 A 
ENDBRANCH  49  68
BRANCH  61  74
ATOM     74  C   UNL A   1      42.015  35.545  28.640  1.00  0.00    -0.014 A 
ATOM     75  C   UNL A   1      42.074  36.887  29.030  1.00  0.00     0.009 A 
ATOM     76  C   UNL A   1      42.365  35.253  27.302  1.00  0.00     0.009 A 
ATOM     77  C   UNL A   1      42.428  37.891  28.119  1.00  0.00     0.001 A 
ATOM     78  C   UNL A   1      42.764  36.243  26.405  1.00  0.00     0.001 A 
ATOM     79  C   UNL A   1      42.784  37.569  26.813  1.00  0.00     0.000 A 
ENDBRANCH  61  74
ENDBRANCH  35  36
ENDBRANCH  28  30
ENDBRANCH  27  28
ENDBRANCH  26  27
ENDBRANCH  25  26
ENDBRANCH  24  25
ENDBRANCH   1  24
TORSDOF 18
ENDMDL
