MODEL 1
REMARK VINA RESULT:     -11.1      0.000      0.000
REMARK SMILES NS(=O)(=O)c1ccc(N2N=C(C(=O)OCCOCCOC(=O)c3ccc(-c4c5nc(c(-c6ccccc6)c6ccc([nH]6)c(-c6ccccc6)c6nc(c(-c7ccccc7)c7ccc4[nH]7)C=C6)C=C5)cc3)C[C@H]2c2cccs2)cc1
REMARK SMILES IDX 16 1 15 2 14 3 12 4 13 5 11 6 9 7 10 8 72 9 71 10 8 11 5 12
REMARK SMILES IDX 6 13 79 14 7 15 78 16 2 17 3 18 4 19 1 20 73 23 74 24 77 25
REMARK SMILES IDX 75 26 76 27 17 28 18 29 19 30 20 31 21 32 22 33 23 34 24 35
REMARK SMILES IDX 70 36 25 37 69 38 26 39 27 40 28 41 63 42 29 43 68 44 62 45
REMARK SMILES IDX 64 46 30 47 67 48 61 49 60 50 31 52 53 53 38 54 52 55 39 56
REMARK SMILES IDX 42 57 51 58 65 59 40 60 41 61 50 63 66 64 43 65 32 66 33 67
REMARK SMILES IDX 37 68 34 69 36 70 35 71 54 72 55 73 59 74 56 75 58 76 57 77
REMARK SMILES IDX 44 78 45 79 49 80 46 81 48 82 47 83
REMARK H PARENT 1 21 1 22 64 51 42 62
REMARK Flexibility Score: inf
ROOT
ATOM      1  C   UNL A   1      40.286  20.038  26.078  1.00  0.00     0.202 C 
ENDROOT
BRANCH   1   2
ATOM      2  C   UNL A   1      39.852  21.490  26.288  1.00  0.00     0.261 C 
BRANCH   2   3
ATOM      3  O   UNL A   1      38.486  21.660  25.889  1.00  0.00    -0.459 OA
BRANCH   3   4
ATOM      4  C   UNL A   1      38.024  22.920  26.013  1.00  0.00     0.354 C 
ATOM      5  O   UNL A   1      38.445  23.806  26.732  1.00  0.00    -0.245 OA
BRANCH   4   6
ATOM      6  C   UNL A   1      36.930  23.146  25.006  1.00  0.00     0.148 C 
ATOM      7  N   UNL A   1      35.264  24.008  24.028  1.00  0.00    -0.256 N 
ATOM      8  N   UNL A   1      36.158  24.188  25.045  1.00  0.00    -0.169 NA
ATOM      9  C   UNL A   1      35.255  22.608  23.556  1.00  0.00     0.154 C 
ATOM     10  C   UNL A   1      36.716  22.221  23.849  1.00  0.00     0.099 C 
BRANCH   7  11
ATOM     11  C   UNL A   1      34.183  24.873  23.967  1.00  0.00     0.060 A 
ATOM     12  C   UNL A   1      32.098  26.746  23.778  1.00  0.00     0.082 A 
ATOM     13  C   UNL A   1      32.576  26.120  22.624  1.00  0.00     0.024 A 
ATOM     14  C   UNL A   1      32.648  26.445  25.024  1.00  0.00     0.024 A 
ATOM     15  C   UNL A   1      33.615  25.189  22.725  1.00  0.00     0.029 A 
ATOM     16  C   UNL A   1      33.694  25.523  25.107  1.00  0.00     0.029 A 
BRANCH  12  17
ATOM     17  S   UNL A   1      30.789  27.920  23.615  1.00  0.00     0.238 S 
ATOM     18  O   UNL A   1      31.228  29.174  24.180  1.00  0.00    -0.207 OA
ATOM     19  O   UNL A   1      29.550  27.282  23.994  1.00  0.00    -0.207 OA
BRANCH  17  20
ATOM     20  N   UNL A   1      30.671  28.201  21.961  1.00  0.00    -0.225 NA
ATOM     21  H   UNL A   1      31.193  27.485  21.457  1.00  0.00     0.137 HD
ATOM     22  H   UNL A   1      31.057  29.120  21.744  1.00  0.00     0.137 HD
ENDBRANCH  17  20
ENDBRANCH  12  17
ENDBRANCH   7  11
BRANCH   9  23
ATOM     23  C   UNL A   1      34.230  21.677  24.205  1.00  0.00     0.030 A 
ATOM     24  C   UNL A   1      32.875  21.918  24.365  1.00  0.00     0.017 A 
ATOM     25  S   UNL A   1      34.652  20.154  24.889  1.00  0.00    -0.147 S 
ATOM     26  C   UNL A   1      32.200  20.865  25.050  1.00  0.00     0.012 A 
ATOM     27  C   UNL A   1      33.049  19.831  25.368  1.00  0.00     0.065 A 
ENDBRANCH   9  23
ENDBRANCH   4   6
ENDBRANCH   3   4
ENDBRANCH   2   3
ENDBRANCH   1   2
BRANCH   1  28
ATOM     28  O   UNL A   1      41.609  19.847  25.580  1.00  0.00    -0.374 OA
BRANCH  28  29
ATOM     29  C   UNL A   1      42.682  20.503  26.259  1.00  0.00     0.202 C 
BRANCH  29  30
ATOM     30  C   UNL A   1      43.589  21.400  25.407  1.00  0.00     0.261 C 
BRANCH  30  31
ATOM     31  O   UNL A   1      42.935  22.618  25.003  1.00  0.00    -0.460 OA
BRANCH  31  32
ATOM     32  C   UNL A   1      43.699  23.735  25.105  1.00  0.00     0.338 C 
ATOM     33  O   UNL A   1      44.676  24.031  24.438  1.00  0.00    -0.246 OA
BRANCH  32  34
ATOM     34  C   UNL A   1      43.073  24.682  26.048  1.00  0.00     0.060 A 
ATOM     35  C   UNL A   1      43.580  25.987  26.094  1.00  0.00     0.016 A 
ATOM     36  C   UNL A   1      42.059  24.283  26.918  1.00  0.00     0.016 A 
ATOM     37  C   UNL A   1      43.090  26.894  27.032  1.00  0.00     0.010 A 
ATOM     38  C   UNL A   1      41.577  25.191  27.867  1.00  0.00     0.010 A 
ATOM     39  C   UNL A   1      42.107  26.492  27.945  1.00  0.00    -0.014 A 
BRANCH  39  40
ATOM     40  C   UNL A   1      41.706  27.396  29.049  1.00  0.00     0.031 A 
ATOM     41  C   UNL A   1      42.466  27.360  30.344  1.00  0.00     0.074 A 
ATOM     42  C   UNL A   1      40.671  28.242  28.899  1.00  0.00     0.049 A 
ATOM     43  N   UNL A   1      42.246  28.022  31.452  1.00  0.00    -0.248 NA
ATOM     44  C   UNL A   1      43.626  26.457  30.399  1.00  0.00     0.031 C 
ATOM     45  C   UNL A   1      39.876  28.400  27.682  1.00  0.00     0.029 A 
ATOM     46  N   UNL A   1      40.105  29.120  29.788  1.00  0.00    -0.354 N 
ATOM     47  C   UNL A   1      43.232  27.607  32.338  1.00  0.00     0.074 A 
ATOM     48  C   UNL A   1      44.034  26.620  31.649  1.00  0.00     0.031 C 
ATOM     49  C   UNL A   1      38.913  29.309  27.907  1.00  0.00     0.029 A 
ATOM     50  C   UNL A   1      39.003  29.770  29.291  1.00  0.00     0.049 A 
ATOM     51  H   UNL A   1      40.455  29.270  30.697  1.00  0.00     0.167 HD
ATOM     52  C   UNL A   1      43.451  28.013  33.612  1.00  0.00     0.031 A 
ATOM     53  C   UNL A   1      38.145  30.617  29.891  1.00  0.00     0.031 A 
ATOM     54  C   UNL A   1      42.645  28.983  34.304  1.00  0.00     0.049 A 
ATOM     55  C   UNL A   1      38.362  30.995  31.331  1.00  0.00     0.074 A 
ATOM     56  C   UNL A   1      42.805  29.480  35.587  1.00  0.00     0.029 A 
ATOM     57  N   UNL A   1      41.519  29.594  33.776  1.00  0.00    -0.354 N 
ATOM     58  N   UNL A   1      39.318  30.624  32.148  1.00  0.00    -0.248 NA
ATOM     59  C   UNL A   1      37.382  31.913  31.931  1.00  0.00     0.031 C 
ATOM     60  C   UNL A   1      41.740  30.346  35.856  1.00  0.00     0.029 A 
ATOM     61  C   UNL A   1      40.951  30.436  34.719  1.00  0.00     0.049 A 
ATOM     62  H   UNL A   1      41.173  29.452  32.866  1.00  0.00     0.167 HD
ATOM     63  C   UNL A   1      39.068  31.279  33.348  1.00  0.00     0.074 A 
ATOM     64  C   UNL A   1      37.879  32.082  33.147  1.00  0.00     0.031 C 
ATOM     65  C   UNL A   1      39.764  31.222  34.510  1.00  0.00     0.031 A 
BRANCH  52  66
ATOM     66  C   UNL A   1      44.591  27.374  34.354  1.00  0.00    -0.014 A 
ATOM     67  C   UNL A   1      44.414  26.193  35.092  1.00  0.00     0.009 A 
ATOM     68  C   UNL A   1      45.870  27.950  34.291  1.00  0.00     0.009 A 
ATOM     69  C   UNL A   1      45.486  25.623  35.782  1.00  0.00     0.001 A 
ATOM     70  C   UNL A   1      46.947  27.363  34.959  1.00  0.00     0.001 A 
ATOM     71  C   UNL A   1      46.752  26.206  35.712  1.00  0.00     0.000 A 
ENDBRANCH  52  66
BRANCH  53  72
ATOM     72  C   UNL A   1      36.977  31.143  29.138  1.00  0.00    -0.014 A 
ATOM     73  C   UNL A   1      35.870  30.325  28.867  1.00  0.00     0.009 A 
ATOM     74  C   UNL A   1      36.969  32.470  28.680  1.00  0.00     0.009 A 
ATOM     75  C   UNL A   1      34.787  30.821  28.135  1.00  0.00     0.001 A 
ATOM     76  C   UNL A   1      35.873  32.972  27.974  1.00  0.00     0.001 A 
ATOM     77  C   UNL A   1      34.788  32.144  27.694  1.00  0.00     0.000 A 
ENDBRANCH  53  72
BRANCH  65  78
ATOM     78  C   UNL A   1      39.272  32.070  35.651  1.00  0.00    -0.014 A 
ATOM     79  C   UNL A   1      39.692  33.401  35.803  1.00  0.00     0.009 A 
ATOM     80  C   UNL A   1      38.339  31.543  36.558  1.00  0.00     0.009 A 
ATOM     81  C   UNL A   1      39.207  34.177  36.858  1.00  0.00     0.001 A 
ATOM     82  C   UNL A   1      37.835  32.331  37.594  1.00  0.00     0.001 A 
ATOM     83  C   UNL A   1      38.276  33.644  37.749  1.00  0.00     0.000 A 
ENDBRANCH  65  78
ENDBRANCH  39  40
ENDBRANCH  32  34
ENDBRANCH  31  32
ENDBRANCH  30  31
ENDBRANCH  29  30
ENDBRANCH  28  29
ENDBRANCH   1  28
TORSDOF 18
ENDMDL
MODEL 2
REMARK VINA RESULT:     -10.7      3.776      8.707
REMARK SMILES NS(=O)(=O)c1ccc(N2N=C(C(=O)OCCOCCOC(=O)c3ccc(-c4c5nc(c(-c6ccccc6)c6ccc([nH]6)c(-c6ccccc6)c6nc(c(-c7ccccc7)c7ccc4[nH]7)C=C6)C=C5)cc3)C[C@H]2c2cccs2)cc1
REMARK SMILES IDX 16 1 15 2 14 3 12 4 13 5 11 6 9 7 10 8 72 9 71 10 8 11 5 12
REMARK SMILES IDX 6 13 79 14 7 15 78 16 2 17 3 18 4 19 1 20 73 23 74 24 77 25
REMARK SMILES IDX 75 26 76 27 17 28 18 29 19 30 20 31 21 32 22 33 23 34 24 35
REMARK SMILES IDX 70 36 25 37 69 38 26 39 27 40 28 41 63 42 29 43 68 44 62 45
REMARK SMILES IDX 64 46 30 47 67 48 61 49 60 50 31 52 53 53 38 54 52 55 39 56
REMARK SMILES IDX 42 57 51 58 65 59 40 60 41 61 50 63 66 64 43 65 32 66 33 67
REMARK SMILES IDX 37 68 34 69 36 70 35 71 54 72 55 73 59 74 56 75 58 76 57 77
REMARK SMILES IDX 44 78 45 79 49 80 46 81 48 82 47 83
REMARK H PARENT 1 21 1 22 64 51 42 62
REMARK Flexibility Score: inf
ROOT
ATOM      1  C   UNL A   1      33.219  29.134  24.142  1.00  0.00     0.202 C 
ENDROOT
BRANCH   1   2
ATOM      2  C   UNL A   1      33.489  28.261  22.915  1.00  0.00     0.261 C 
BRANCH   2   3
ATOM      3  O   UNL A   1      32.708  27.061  22.981  1.00  0.00    -0.459 OA
BRANCH   3   4
ATOM      4  C   UNL A   1      33.280  25.993  22.391  1.00  0.00     0.354 C 
ATOM      5  O   UNL A   1      33.633  25.875  21.234  1.00  0.00    -0.245 OA
BRANCH   4   6
ATOM      6  C   UNL A   1      33.555  24.942  23.433  1.00  0.00     0.148 C 
ATOM      7  N   UNL A   1      33.812  23.048  24.337  1.00  0.00    -0.256 N 
ATOM      8  N   UNL A   1      33.618  23.680  23.142  1.00  0.00    -0.169 NA
ATOM      9  C   UNL A   1      33.497  23.934  25.477  1.00  0.00     0.154 C 
ATOM     10  C   UNL A   1      33.851  25.297  24.856  1.00  0.00     0.099 C 
BRANCH   7  11
ATOM     11  C   UNL A   1      33.707  21.666  24.354  1.00  0.00     0.060 A 
ATOM     12  C   UNL A   1      33.613  18.860  24.263  1.00  0.00     0.082 A 
ATOM     13  C   UNL A   1      34.695  19.499  24.874  1.00  0.00     0.024 A 
ATOM     14  C   UNL A   1      32.578  19.606  23.700  1.00  0.00     0.024 A 
ATOM     15  C   UNL A   1      34.736  20.897  24.915  1.00  0.00     0.029 A 
ATOM     16  C   UNL A   1      32.640  21.001  23.737  1.00  0.00     0.029 A 
BRANCH  12  17
ATOM     17  S   UNL A   1      33.595  17.094  24.225  1.00  0.00     0.238 S 
ATOM     18  O   UNL A   1      33.828  16.666  22.866  1.00  0.00    -0.207 OA
ATOM     19  O   UNL A   1      32.477  16.630  25.012  1.00  0.00    -0.207 OA
BRANCH  17  20
ATOM     20  N   UNL A   1      34.973  16.635  25.072  1.00  0.00    -0.225 NA
ATOM     21  H   UNL A   1      35.165  17.318  25.804  1.00  0.00     0.137 HD
ATOM     22  H   UNL A   1      35.766  16.588  24.433  1.00  0.00     0.137 HD
ENDBRANCH  17  20
ENDBRANCH  12  17
ENDBRANCH   7  11
BRANCH   9  23
ATOM     23  C   UNL A   1      32.071  23.859  26.024  1.00  0.00     0.030 A 
ATOM     24  C   UNL A   1      31.491  22.786  26.682  1.00  0.00     0.017 A 
ATOM     25  S   UNL A   1      30.934  25.141  25.852  1.00  0.00    -0.147 S 
ATOM     26  C   UNL A   1      30.127  23.019  27.028  1.00  0.00     0.012 A 
ATOM     27  C   UNL A   1      29.709  24.274  26.656  1.00  0.00     0.065 A 
ENDBRANCH   9  23
ENDBRANCH   4   6
ENDBRANCH   3   4
ENDBRANCH   2   3
ENDBRANCH   1   2
BRANCH   1  28
ATOM     28  O   UNL A   1      32.089  28.768  24.932  1.00  0.00    -0.374 OA
BRANCH  28  29
ATOM     29  C   UNL A   1      31.831  29.518  26.121  1.00  0.00     0.202 C 
BRANCH  29  30
ATOM     30  C   UNL A   1      32.932  30.485  26.577  1.00  0.00     0.261 C 
BRANCH  30  31
ATOM     31  O   UNL A   1      33.746  29.936  27.629  1.00  0.00    -0.460 OA
BRANCH  31  32
ATOM     32  C   UNL A   1      34.633  30.807  28.176  1.00  0.00     0.338 C 
ATOM     33  O   UNL A   1      34.405  31.919  28.619  1.00  0.00    -0.246 OA
BRANCH  32  34
ATOM     34  C   UNL A   1      35.942  30.146  28.341  1.00  0.00     0.060 A 
ATOM     35  C   UNL A   1      36.228  29.566  29.584  1.00  0.00     0.016 A 
ATOM     36  C   UNL A   1      36.898  30.156  27.325  1.00  0.00     0.016 A 
ATOM     37  C   UNL A   1      37.485  29.014  29.824  1.00  0.00     0.010 A 
ATOM     38  C   UNL A   1      38.162  29.611  27.572  1.00  0.00     0.010 A 
ATOM     39  C   UNL A   1      38.470  29.060  28.830  1.00  0.00    -0.014 A 
BRANCH  39  40
ATOM     40  C   UNL A   1      39.854  28.629  29.137  1.00  0.00     0.031 A 
ATOM     41  C   UNL A   1      40.783  29.577  29.842  1.00  0.00     0.074 A 
ATOM     42  C   UNL A   1      40.282  27.402  28.790  1.00  0.00     0.049 A 
ATOM     43  N   UNL A   1      42.045  29.423  30.153  1.00  0.00    -0.248 NA
ATOM     44  C   UNL A   1      40.213  30.872  30.248  1.00  0.00     0.031 C 
ATOM     45  C   UNL A   1      39.470  26.376  28.137  1.00  0.00     0.029 A 
ATOM     46  N   UNL A   1      41.516  26.818  28.930  1.00  0.00    -0.354 N 
ATOM     47  C   UNL A   1      42.424  30.603  30.780  1.00  0.00     0.074 A 
ATOM     48  C   UNL A   1      41.267  31.472  30.783  1.00  0.00     0.031 C 
ATOM     49  C   UNL A   1      40.233  25.293  27.917  1.00  0.00     0.029 A 
ATOM     50  C   UNL A   1      41.592  25.562  28.383  1.00  0.00     0.049 A 
ATOM     51  H   UNL A   1      42.273  27.258  29.381  1.00  0.00     0.167 HD
ATOM     52  C   UNL A   1      43.627  30.933  31.308  1.00  0.00     0.031 A 
ATOM     53  C   UNL A   1      42.645  24.733  28.245  1.00  0.00     0.031 A 
ATOM     54  C   UNL A   1      44.783  30.076  31.292  1.00  0.00     0.049 A 
ATOM     55  C   UNL A   1      43.992  25.152  28.769  1.00  0.00     0.074 A 
ATOM     56  C   UNL A   1      46.038  30.312  31.826  1.00  0.00     0.029 A 
ATOM     57  N   UNL A   1      44.828  28.825  30.699  1.00  0.00    -0.354 N 
ATOM     58  N   UNL A   1      44.330  26.256  29.392  1.00  0.00    -0.248 NA
ATOM     59  C   UNL A   1      45.103  24.208  28.575  1.00  0.00     0.031 C 
ATOM     60  C   UNL A   1      46.860  29.227  31.503  1.00  0.00     0.029 A 
ATOM     61  C   UNL A   1      46.100  28.290  30.822  1.00  0.00     0.049 A 
ATOM     62  H   UNL A   1      44.069  28.380  30.257  1.00  0.00     0.167 HD
ATOM     63  C   UNL A   1      45.683  26.129  29.683  1.00  0.00     0.074 A 
ATOM     64  C   UNL A   1      46.100  24.835  29.182  1.00  0.00     0.031 C 
ATOM     65  C   UNL A   1      46.504  27.005  30.311  1.00  0.00     0.031 A 
BRANCH  52  66
ATOM     66  C   UNL A   1      43.762  32.302  31.914  1.00  0.00    -0.014 A 
ATOM     67  C   UNL A   1      43.508  32.529  33.275  1.00  0.00     0.009 A 
ATOM     68  C   UNL A   1      44.177  33.377  31.111  1.00  0.00     0.009 A 
ATOM     69  C   UNL A   1      43.631  33.812  33.813  1.00  0.00     0.001 A 
ATOM     70  C   UNL A   1      44.326  34.654  31.658  1.00  0.00     0.001 A 
ATOM     71  C   UNL A   1      44.043  34.872  33.005  1.00  0.00     0.000 A 
ENDBRANCH  52  66
BRANCH  53  72
ATOM     72  C   UNL A   1      42.476  23.432  27.549  1.00  0.00    -0.014 A 
ATOM     73  C   UNL A   1      42.054  22.292  28.249  1.00  0.00     0.009 A 
ATOM     74  C   UNL A   1      42.744  23.324  26.175  1.00  0.00     0.009 A 
ATOM     75  C   UNL A   1      41.923  21.066  27.590  1.00  0.00     0.001 A 
ATOM     76  C   UNL A   1      42.585  22.105  25.513  1.00  0.00     0.001 A 
ATOM     77  C   UNL A   1      42.184  20.975  26.223  1.00  0.00     0.000 A 
ENDBRANCH  53  72
BRANCH  65  78
ATOM     78  C   UNL A   1      47.934  26.586  30.516  1.00  0.00    -0.014 A 
ATOM     79  C   UNL A   1      48.925  26.887  29.567  1.00  0.00     0.009 A 
ATOM     80  C   UNL A   1      48.303  25.923  31.697  1.00  0.00     0.009 A 
ATOM     81  C   UNL A   1      50.250  26.507  29.787  1.00  0.00     0.001 A 
ATOM     82  C   UNL A   1      49.633  25.569  31.925  1.00  0.00     0.001 A 
ATOM     83  C   UNL A   1      50.605  25.853  30.967  1.00  0.00     0.000 A 
ENDBRANCH  65  78
ENDBRANCH  39  40
ENDBRANCH  32  34
ENDBRANCH  31  32
ENDBRANCH  30  31
ENDBRANCH  29  30
ENDBRANCH  28  29
ENDBRANCH   1  28
TORSDOF 18
ENDMDL
MODEL 3
REMARK VINA RESULT:     -10.6      3.919      8.771
REMARK SMILES NS(=O)(=O)c1ccc(N2N=C(C(=O)OCCOCCOC(=O)c3ccc(-c4c5nc(c(-c6ccccc6)c6ccc([nH]6)c(-c6ccccc6)c6nc(c(-c7ccccc7)c7ccc4[nH]7)C=C6)C=C5)cc3)C[C@H]2c2cccs2)cc1
REMARK SMILES IDX 16 1 15 2 14 3 12 4 13 5 11 6 9 7 10 8 72 9 71 10 8 11 5 12
REMARK SMILES IDX 6 13 79 14 7 15 78 16 2 17 3 18 4 19 1 20 73 23 74 24 77 25
REMARK SMILES IDX 75 26 76 27 17 28 18 29 19 30 20 31 21 32 22 33 23 34 24 35
REMARK SMILES IDX 70 36 25 37 69 38 26 39 27 40 28 41 63 42 29 43 68 44 62 45
REMARK SMILES IDX 64 46 30 47 67 48 61 49 60 50 31 52 53 53 38 54 52 55 39 56
REMARK SMILES IDX 42 57 51 58 65 59 40 60 41 61 50 63 66 64 43 65 32 66 33 67
REMARK SMILES IDX 37 68 34 69 36 70 35 71 54 72 55 73 59 74 56 75 58 76 57 77
REMARK SMILES IDX 44 78 45 79 49 80 46 81 48 82 47 83
REMARK H PARENT 1 21 1 22 64 51 42 62
REMARK Flexibility Score: inf
ROOT
ATOM      1  C   UNL A   1      30.705  28.638  24.276  1.00  0.00     0.202 C 
ENDROOT
BRANCH   1   2
ATOM      2  C   UNL A   1      30.320  27.165  24.419  1.00  0.00     0.261 C 
BRANCH   2   3
ATOM      3  O   UNL A   1      31.425  26.413  24.936  1.00  0.00    -0.459 OA
BRANCH   3   4
ATOM      4  C   UNL A   1      31.118  25.153  25.301  1.00  0.00     0.354 C 
ATOM      5  O   UNL A   1      30.273  24.786  26.094  1.00  0.00    -0.245 OA
BRANCH   4   6
ATOM      6  C   UNL A   1      31.919  24.189  24.468  1.00  0.00     0.148 C 
ATOM      7  N   UNL A   1      32.744  22.379  23.751  1.00  0.00    -0.256 N 
ATOM      8  N   UNL A   1      31.834  22.904  24.623  1.00  0.00    -0.169 NA
ATOM      9  C   UNL A   1      33.701  23.402  23.283  1.00  0.00     0.154 C 
ATOM     10  C   UNL A   1      32.806  24.652  23.354  1.00  0.00     0.099 C 
BRANCH   7  11
ATOM     11  C   UNL A   1      33.018  21.024  23.852  1.00  0.00     0.060 A 
ATOM     12  C   UNL A   1      33.425  18.260  24.144  1.00  0.00     0.082 A 
ATOM     13  C   UNL A   1      32.498  18.731  23.210  1.00  0.00     0.024 A 
ATOM     14  C   UNL A   1      34.152  19.154  24.930  1.00  0.00     0.024 A 
ATOM     15  C   UNL A   1      32.299  20.108  23.071  1.00  0.00     0.029 A 
ATOM     16  C   UNL A   1      33.933  20.526  24.789  1.00  0.00     0.029 A 
BRANCH  12  17
ATOM     17  S   UNL A   1      33.648  16.515  24.298  1.00  0.00     0.238 S 
ATOM     18  O   UNL A   1      34.140  16.005  23.040  1.00  0.00    -0.207 OA
ATOM     19  O   UNL A   1      32.494  15.963  24.970  1.00  0.00    -0.207 OA
BRANCH  17  20
ATOM     20  N   UNL A   1      34.929  16.341  25.374  1.00  0.00    -0.225 NA
ATOM     21  H   UNL A   1      34.951  17.140  26.007  1.00  0.00     0.137 HD
ATOM     22  H   UNL A   1      35.805  16.295  24.855  1.00  0.00     0.137 HD
ENDBRANCH  17  20
ENDBRANCH  12  17
ENDBRANCH   7  11
BRANCH   9  23
ATOM     23  C   UNL A   1      35.002  23.531  24.076  1.00  0.00     0.030 A 
ATOM     24  C   UNL A   1      35.163  24.137  25.312  1.00  0.00     0.017 A 
ATOM     25  S   UNL A   1      36.515  22.949  23.493  1.00  0.00    -0.147 S 
ATOM     26  C   UNL A   1      36.516  24.128  25.763  1.00  0.00     0.012 A 
ATOM     27  C   UNL A   1      37.349  23.487  24.877  1.00  0.00     0.065 A 
ENDBRANCH   9  23
ENDBRANCH   4   6
ENDBRANCH   3   4
ENDBRANCH   2   3
ENDBRANCH   1   2
BRANCH   1  28
ATOM     28  O   UNL A   1      32.103  28.918  24.245  1.00  0.00    -0.374 OA
BRANCH  28  29
ATOM     29  C   UNL A   1      32.681  29.571  25.378  1.00  0.00     0.202 C 
BRANCH  29  30
ATOM     30  C   UNL A   1      33.882  28.876  26.034  1.00  0.00     0.261 C 
BRANCH  30  31
ATOM     31  O   UNL A   1      33.945  29.108  27.453  1.00  0.00    -0.460 OA
BRANCH  31  32
ATOM     32  C   UNL A   1      34.544  30.270  27.814  1.00  0.00     0.338 C 
ATOM     33  O   UNL A   1      34.030  31.370  27.925  1.00  0.00    -0.246 OA
BRANCH  32  34
ATOM     34  C   UNL A   1      35.928  30.002  28.252  1.00  0.00     0.060 A 
ATOM     35  C   UNL A   1      36.954  30.174  27.315  1.00  0.00     0.016 A 
ATOM     36  C   UNL A   1      36.209  29.524  29.533  1.00  0.00     0.016 A 
ATOM     37  C   UNL A   1      38.266  29.843  27.647  1.00  0.00     0.010 A 
ATOM     38  C   UNL A   1      37.525  29.182  29.860  1.00  0.00     0.010 A 
ATOM     39  C   UNL A   1      38.555  29.317  28.912  1.00  0.00    -0.014 A 
BRANCH  39  40
ATOM     40  C   UNL A   1      39.915  28.807  29.210  1.00  0.00     0.031 A 
ATOM     41  C   UNL A   1      40.902  29.701  29.905  1.00  0.00     0.074 A 
ATOM     42  C   UNL A   1      40.269  27.556  28.862  1.00  0.00     0.049 A 
ATOM     43  N   UNL A   1      42.156  29.475  30.206  1.00  0.00    -0.248 NA
ATOM     44  C   UNL A   1      40.411  31.027  30.312  1.00  0.00     0.031 C 
ATOM     45  C   UNL A   1      39.394  26.578  28.217  1.00  0.00     0.029 A 
ATOM     46  N   UNL A   1      41.467  26.902  28.995  1.00  0.00    -0.354 N 
ATOM     47  C   UNL A   1      42.607  30.632  30.828  1.00  0.00     0.074 A 
ATOM     48  C   UNL A   1      41.502  31.567  30.837  1.00  0.00     0.031 C 
ATOM     49  C   UNL A   1      40.091  25.452  27.995  1.00  0.00     0.029 A 
ATOM     50  C   UNL A   1      41.467  25.643  28.449  1.00  0.00     0.049 A 
ATOM     51  H   UNL A   1      42.252  27.298  29.438  1.00  0.00     0.167 HD
ATOM     52  C   UNL A   1      43.831  30.893  31.346  1.00  0.00     0.031 A 
ATOM     53  C   UNL A   1      42.470  24.755  28.306  1.00  0.00     0.031 A 
ATOM     54  C   UNL A   1      44.935  29.971  31.323  1.00  0.00     0.049 A 
ATOM     55  C   UNL A   1      43.842  25.096  28.818  1.00  0.00     0.074 A 
ATOM     56  C   UNL A   1      46.207  30.135  31.847  1.00  0.00     0.029 A 
ATOM     57  N   UNL A   1      44.904  28.718  30.733  1.00  0.00    -0.354 N 
ATOM     58  N   UNL A   1      44.248  26.180  29.436  1.00  0.00    -0.248 NA
ATOM     59  C   UNL A   1      44.895  24.089  28.618  1.00  0.00     0.031 C 
ATOM     60  C   UNL A   1      46.962  29.003  31.521  1.00  0.00     0.029 A 
ATOM     61  C   UNL A   1      46.144  28.111  30.847  1.00  0.00     0.049 A 
ATOM     62  H   UNL A   1      44.117  28.317  30.297  1.00  0.00     0.167 HD
ATOM     63  C   UNL A   1      45.593  25.975  29.717  1.00  0.00     0.074 A 
ATOM     64  C   UNL A   1      45.932  24.659  29.216  1.00  0.00     0.031 C 
ATOM     65  C   UNL A   1      46.469  26.804  30.336  1.00  0.00     0.031 A 
BRANCH  52  66
ATOM     66  C   UNL A   1      44.050  32.253  31.947  1.00  0.00    -0.014 A 
ATOM     67  C   UNL A   1      44.520  33.328  31.176  1.00  0.00     0.009 A 
ATOM     68  C   UNL A   1      43.757  32.467  33.304  1.00  0.00     0.009 A 
ATOM     69  C   UNL A   1      44.725  34.580  31.760  1.00  0.00     0.001 A 
ATOM     70  C   UNL A   1      43.937  33.727  33.878  1.00  0.00     0.001 A 
ATOM     71  C   UNL A   1      44.430  34.779  33.108  1.00  0.00     0.000 A 
ENDBRANCH  52  66
BRANCH  53  72
ATOM     72  C   UNL A   1      42.220  23.464  27.614  1.00  0.00    -0.014 A 
ATOM     73  C   UNL A   1      42.534  23.304  26.256  1.00  0.00     0.009 A 
ATOM     74  C   UNL A   1      41.658  22.383  28.312  1.00  0.00     0.009 A 
ATOM     75  C   UNL A   1      42.270  22.094  25.607  1.00  0.00     0.001 A 
ATOM     76  C   UNL A   1      41.422  21.166  27.669  1.00  0.00     0.001 A 
ATOM     77  C   UNL A   1      41.720  21.026  26.315  1.00  0.00     0.000 A 
ENDBRANCH  53  72
BRANCH  65  78
ATOM     78  C   UNL A   1      47.874  26.303  30.531  1.00  0.00    -0.014 A 
ATOM     79  C   UNL A   1      48.271  25.697  31.734  1.00  0.00     0.009 A 
ATOM     80  C   UNL A   1      48.798  26.396  29.479  1.00  0.00     0.009 A 
ATOM     81  C   UNL A   1      49.575  25.220  31.886  1.00  0.00     0.001 A 
ATOM     82  C   UNL A   1      50.092  25.893  29.625  1.00  0.00     0.001 A 
ATOM     83  C   UNL A   1      50.482  25.314  30.831  1.00  0.00     0.000 A 
ENDBRANCH  65  78
ENDBRANCH  39  40
ENDBRANCH  32  34
ENDBRANCH  31  32
ENDBRANCH  30  31
ENDBRANCH  29  30
ENDBRANCH  28  29
ENDBRANCH   1  28
TORSDOF 18
ENDMDL
