MODEL 1
REMARK VINA RESULT:     -10.1      0.000      0.000
REMARK SMILES Cc1cnccc1N[C@@H]1C=C[C@@H](C(=O)OCCOCCOC(=O)c2ccc(-c3c4nc(c(-c5ccccc5)c5ccc([nH]5)c(-c5ccccc5)c5nc(c(-c6ccccc6)c6ccc3[nH]6)C=C5)C=C4)cc2)C1
REMARK SMILES IDX 18 1 17 2 16 3 15 4 13 5 14 6 12 7 9 8 10 9 72 10 11 11 8 12
REMARK SMILES IDX 7 14 1 15 2 16 3 17 4 18 6 19 5 20 19 21 20 22 21 23 22 24
REMARK SMILES IDX 23 25 24 26 25 27 71 28 26 29 70 30 27 31 28 32 29 33 64 34
REMARK SMILES IDX 30 35 69 36 63 37 65 38 31 39 68 40 62 41 61 42 32 44 54 45
REMARK SMILES IDX 39 46 53 47 40 48 43 49 52 50 66 51 41 52 42 53 51 55 67 56
REMARK SMILES IDX 44 57 33 58 34 59 38 60 35 61 37 62 36 63 55 64 56 65 60 66
REMARK SMILES IDX 57 67 59 68 58 69 45 70 46 71 50 72 47 73 49 74 48 75
REMARK H PARENT 8 13 65 43 43 54
REMARK Flexibility Score: inf
ROOT
ATOM      1  O   UNL A   1      41.907  21.461  25.462  1.00  0.00    -0.374 OA
ENDROOT
BRANCH   1   2
ATOM      2  C   UNL A   1      40.955  21.269  26.508  1.00  0.00     0.202 C 
BRANCH   2   3
ATOM      3  C   UNL A   1      39.488  21.476  26.126  1.00  0.00     0.261 C 
BRANCH   3   4
ATOM      4  O   UNL A   1      39.037  22.772  26.545  1.00  0.00    -0.463 OA
BRANCH   4   5
ATOM      5  C   UNL A   1      37.821  23.134  26.060  1.00  0.00     0.312 C 
ATOM      6  O   UNL A   1      37.513  24.283  25.763  1.00  0.00    -0.252 OA
BRANCH   5   7
ATOM      7  C   UNL A   1      36.958  21.920  25.730  1.00  0.00     0.124 C 
ATOM      8  C   UNL A   1      34.583  21.336  25.452  1.00  0.00     0.103 C 
ATOM      9  C   UNL A   1      35.238  21.609  24.146  1.00  0.00    -0.006 C 
ATOM     10  C   UNL A   1      35.634  21.736  26.495  1.00  0.00     0.048 C 
ATOM     11  C   UNL A   1      36.524  21.948  24.292  1.00  0.00    -0.014 C 
BRANCH   8  12
ATOM     12  N   UNL A   1      34.078  19.972  25.526  1.00  0.00    -0.379 N 
ATOM     13  H   UNL A   1      33.980  19.633  26.445  1.00  0.00     0.161 HD
BRANCH  12  14
ATOM     14  C   UNL A   1      33.710  19.058  24.555  1.00  0.00     0.040 A 
ATOM     15  C   UNL A   1      35.710  17.527  25.097  1.00  0.00     0.048 C 
ATOM     16  C   UNL A   1      34.516  17.934  24.281  1.00  0.00    -0.010 A 
ATOM     17  C   UNL A   1      34.152  17.087  23.226  1.00  0.00     0.116 A 
ATOM     18  N   UNL A   1      33.081  17.265  22.429  1.00  0.00    -0.264 NA
ATOM     19  C   UNL A   1      32.582  19.216  23.750  1.00  0.00     0.046 A 
ATOM     20  C   UNL A   1      32.312  18.324  22.720  1.00  0.00     0.113 A 
ENDBRANCH  12  14
ENDBRANCH   8  12
ENDBRANCH   5   7
ENDBRANCH   4   5
ENDBRANCH   3   4
ENDBRANCH   2   3
ENDBRANCH   1   2
BRANCH   1  21
ATOM     21  C   UNL A   1      43.279  21.172  25.741  1.00  0.00     0.202 C 
BRANCH  21  22
ATOM     22  C   UNL A   1      44.327  22.077  25.076  1.00  0.00     0.261 C 
BRANCH  22  23
ATOM     23  O   UNL A   1      43.781  23.340  24.648  1.00  0.00    -0.460 OA
BRANCH  23  24
ATOM     24  C   UNL A   1      44.488  24.427  25.040  1.00  0.00     0.338 C 
ATOM     25  O   UNL A   1      45.585  24.788  24.636  1.00  0.00    -0.246 OA
BRANCH  24  26
ATOM     26  C   UNL A   1      43.676  25.267  25.937  1.00  0.00     0.060 A 
ATOM     27  C   UNL A   1      44.100  26.586  26.155  1.00  0.00     0.016 A 
ATOM     28  C   UNL A   1      42.589  24.747  26.640  1.00  0.00     0.016 A 
ATOM     29  C   UNL A   1      43.460  27.378  27.104  1.00  0.00     0.010 A 
ATOM     30  C   UNL A   1      41.955  25.539  27.603  1.00  0.00     0.010 A 
ATOM     31  C   UNL A   1      42.408  26.846  27.862  1.00  0.00    -0.014 A 
BRANCH  31  32
ATOM     32  C   UNL A   1      41.884  27.613  29.018  1.00  0.00     0.031 A 
ATOM     33  C   UNL A   1      42.590  27.520  30.342  1.00  0.00     0.074 A 
ATOM     34  C   UNL A   1      40.813  28.415  28.883  1.00  0.00     0.049 A 
ATOM     35  N   UNL A   1      42.304  28.105  31.478  1.00  0.00    -0.248 NA
ATOM     36  C   UNL A   1      43.780  26.654  30.391  1.00  0.00     0.031 C 
ATOM     37  C   UNL A   1      40.066  28.630  27.645  1.00  0.00     0.029 A 
ATOM     38  N   UNL A   1      40.169  29.199  29.808  1.00  0.00    -0.354 N 
ATOM     39  C   UNL A   1      43.274  27.677  32.376  1.00  0.00     0.074 A 
ATOM     40  C   UNL A   1      44.140  26.763  31.662  1.00  0.00     0.031 C 
ATOM     41  C   UNL A   1      39.062  29.490  27.887  1.00  0.00     0.029 A 
ATOM     42  C   UNL A   1      39.079  29.862  29.300  1.00  0.00     0.049 A 
ATOM     43  H   UNL A   1      40.461  29.280  30.744  1.00  0.00     0.167 HD
ATOM     44  C   UNL A   1      43.434  28.017  33.677  1.00  0.00     0.031 A 
ATOM     45  C   UNL A   1      38.186  30.664  29.911  1.00  0.00     0.031 A 
ATOM     46  C   UNL A   1      42.568  28.912  34.397  1.00  0.00     0.049 A 
ATOM     47  C   UNL A   1      38.337  30.961  31.379  1.00  0.00     0.074 A 
ATOM     48  C   UNL A   1      42.660  29.330  35.713  1.00  0.00     0.029 A 
ATOM     49  N   UNL A   1      41.445  29.520  33.860  1.00  0.00    -0.354 N 
ATOM     50  N   UNL A   1      39.273  30.571  32.210  1.00  0.00    -0.248 NA
ATOM     51  C   UNL A   1      37.307  31.815  31.990  1.00  0.00     0.031 C 
ATOM     52  C   UNL A   1      41.559  30.149  35.988  1.00  0.00     0.029 A 
ATOM     53  C   UNL A   1      40.815  30.285  34.828  1.00  0.00     0.049 A 
ATOM     54  H   UNL A   1      41.138  29.422  32.930  1.00  0.00     0.167 HD
ATOM     55  C   UNL A   1      38.959  31.149  33.434  1.00  0.00     0.074 A 
ATOM     56  C   UNL A   1      37.753  31.927  33.234  1.00  0.00     0.031 C 
ATOM     57  C   UNL A   1      39.612  31.047  34.617  1.00  0.00     0.031 A 
BRANCH  44  58
ATOM     58  C   UNL A   1      44.578  27.384  34.416  1.00  0.00    -0.014 A 
ATOM     59  C   UNL A   1      44.383  26.265  35.241  1.00  0.00     0.009 A 
ATOM     60  C   UNL A   1      45.875  27.901  34.265  1.00  0.00     0.009 A 
ATOM     61  C   UNL A   1      45.459  25.698  35.928  1.00  0.00     0.001 A 
ATOM     62  C   UNL A   1      46.953  27.315  34.933  1.00  0.00     0.001 A 
ATOM     63  C   UNL A   1      46.742  26.220  35.770  1.00  0.00     0.000 A 
ENDBRANCH  44  58
BRANCH  45  64
ATOM     64  C   UNL A   1      37.051  31.233  29.141  1.00  0.00    -0.014 A 
ATOM     65  C   UNL A   1      37.072  32.570  28.718  1.00  0.00     0.009 A 
ATOM     66  C   UNL A   1      35.932  30.442  28.838  1.00  0.00     0.009 A 
ATOM     67  C   UNL A   1      35.986  33.109  28.024  1.00  0.00     0.001 A 
ATOM     68  C   UNL A   1      34.859  30.976  28.123  1.00  0.00     0.001 A 
ATOM     69  C   UNL A   1      34.883  32.311  27.723  1.00  0.00     0.000 A 
ENDBRANCH  45  64
BRANCH  57  70
ATOM     70  C   UNL A   1      39.051  31.813  35.782  1.00  0.00    -0.014 A 
ATOM     71  C   UNL A   1      38.149  31.218  36.678  1.00  0.00     0.009 A 
ATOM     72  C   UNL A   1      39.463  33.136  36.008  1.00  0.00     0.009 A 
ATOM     73  C   UNL A   1      37.648  31.944  37.760  1.00  0.00     0.001 A 
ATOM     74  C   UNL A   1      38.981  33.850  37.106  1.00  0.00     0.001 A 
ATOM     75  C   UNL A   1      38.069  33.257  37.976  1.00  0.00     0.000 A 
ENDBRANCH  57  70
ENDBRANCH  31  32
ENDBRANCH  24  26
ENDBRANCH  23  24
ENDBRANCH  22  23
ENDBRANCH  21  22
ENDBRANCH   1  21
TORSDOF 16
ENDMDL
MODEL 2
REMARK VINA RESULT:      -9.9      1.982      2.956
REMARK SMILES Cc1cnccc1N[C@@H]1C=C[C@@H](C(=O)OCCOCCOC(=O)c2ccc(-c3c4nc(c(-c5ccccc5)c5ccc([nH]5)c(-c5ccccc5)c5nc(c(-c6ccccc6)c6ccc3[nH]6)C=C5)C=C4)cc2)C1
REMARK SMILES IDX 18 1 17 2 16 3 15 4 13 5 14 6 12 7 9 8 10 9 72 10 11 11 8 12
REMARK SMILES IDX 7 14 1 15 2 16 3 17 4 18 6 19 5 20 19 21 20 22 21 23 22 24
REMARK SMILES IDX 23 25 24 26 25 27 71 28 26 29 70 30 27 31 28 32 29 33 64 34
REMARK SMILES IDX 30 35 69 36 63 37 65 38 31 39 68 40 62 41 61 42 32 44 54 45
REMARK SMILES IDX 39 46 53 47 40 48 43 49 52 50 66 51 41 52 42 53 51 55 67 56
REMARK SMILES IDX 44 57 33 58 34 59 38 60 35 61 37 62 36 63 55 64 56 65 60 66
REMARK SMILES IDX 57 67 59 68 58 69 45 70 46 71 50 72 47 73 49 74 48 75
REMARK H PARENT 8 13 65 43 43 54
REMARK Flexibility Score: inf
ROOT
ATOM      1  O   UNL A   1      42.140  21.701  25.427  1.00  0.00    -0.374 OA
ENDROOT
BRANCH   1   2
ATOM      2  C   UNL A   1      41.333  21.277  26.525  1.00  0.00     0.202 C 
BRANCH   2   3
ATOM      3  C   UNL A   1      40.009  20.600  26.162  1.00  0.00     0.261 C 
BRANCH   3   4
ATOM      4  O   UNL A   1      39.033  21.577  25.776  1.00  0.00    -0.463 OA
BRANCH   4   5
ATOM      5  C   UNL A   1      37.865  21.060  25.314  1.00  0.00     0.312 C 
ATOM      6  O   UNL A   1      37.706  19.883  25.008  1.00  0.00    -0.252 OA
BRANCH   5   7
ATOM      7  C   UNL A   1      36.720  22.062  25.422  1.00  0.00     0.124 C 
ATOM      8  C   UNL A   1      35.504  23.668  24.007  1.00  0.00     0.103 C 
ATOM      9  C   UNL A   1      34.784  22.371  24.111  1.00  0.00    -0.006 C 
ATOM     10  C   UNL A   1      36.856  23.407  24.682  1.00  0.00     0.048 C 
ATOM     11  C   UNL A   1      35.450  21.487  24.861  1.00  0.00    -0.014 C 
BRANCH   8  12
ATOM     12  N   UNL A   1      34.710  24.767  24.540  1.00  0.00    -0.379 N 
ATOM     13  H   UNL A   1      34.760  24.853  25.520  1.00  0.00     0.161 HD
BRANCH  12  14
ATOM     14  C   UNL A   1      33.902  25.714  23.938  1.00  0.00     0.040 A 
ATOM     15  C   UNL A   1      33.682  27.059  26.125  1.00  0.00     0.048 C 
ATOM     16  C   UNL A   1      33.338  26.764  24.692  1.00  0.00    -0.010 A 
ATOM     17  C   UNL A   1      32.451  27.645  24.059  1.00  0.00     0.116 A 
ATOM     18  N   UNL A   1      32.076  27.566  22.768  1.00  0.00    -0.264 NA
ATOM     19  C   UNL A   1      33.539  25.661  22.593  1.00  0.00     0.046 A 
ATOM     20  C   UNL A   1      32.643  26.578  22.060  1.00  0.00     0.113 A 
ENDBRANCH  12  14
ENDBRANCH   8  12
ENDBRANCH   5   7
ENDBRANCH   4   5
ENDBRANCH   3   4
ENDBRANCH   2   3
ENDBRANCH   1   2
BRANCH   1  21
ATOM     21  C   UNL A   1      43.505  21.276  25.394  1.00  0.00     0.202 C 
BRANCH  21  22
ATOM     22  C   UNL A   1      44.534  22.290  24.871  1.00  0.00     0.261 C 
BRANCH  22  23
ATOM     23  O   UNL A   1      43.940  23.556  24.522  1.00  0.00    -0.460 OA
BRANCH  23  24
ATOM     24  C   UNL A   1      44.608  24.641  24.981  1.00  0.00     0.338 C 
ATOM     25  O   UNL A   1      45.708  25.044  24.628  1.00  0.00    -0.246 OA
BRANCH  24  26
ATOM     26  C   UNL A   1      43.749  25.425  25.886  1.00  0.00     0.060 A 
ATOM     27  C   UNL A   1      44.056  26.782  26.062  1.00  0.00     0.016 A 
ATOM     28  C   UNL A   1      42.736  24.824  26.633  1.00  0.00     0.016 A 
ATOM     29  C   UNL A   1      43.373  27.534  27.015  1.00  0.00     0.010 A 
ATOM     30  C   UNL A   1      42.059  25.577  27.598  1.00  0.00     0.010 A 
ATOM     31  C   UNL A   1      42.397  26.926  27.816  1.00  0.00    -0.014 A 
BRANCH  31  32
ATOM     32  C   UNL A   1      41.839  27.669  28.971  1.00  0.00     0.031 A 
ATOM     33  C   UNL A   1      42.542  27.598  30.298  1.00  0.00     0.074 A 
ATOM     34  C   UNL A   1      40.738  28.430  28.833  1.00  0.00     0.049 A 
ATOM     35  N   UNL A   1      42.227  28.168  31.435  1.00  0.00    -0.248 NA
ATOM     36  C   UNL A   1      43.763  26.779  30.351  1.00  0.00     0.031 C 
ATOM     37  C   UNL A   1      39.990  28.621  27.592  1.00  0.00     0.029 A 
ATOM     38  N   UNL A   1      40.061  29.186  29.757  1.00  0.00    -0.354 N 
ATOM     39  C   UNL A   1      43.209  27.775  32.337  1.00  0.00     0.074 A 
ATOM     40  C   UNL A   1      44.113  26.897  31.624  1.00  0.00     0.031 C 
ATOM     41  C   UNL A   1      38.953  29.441  27.831  1.00  0.00     0.029 A 
ATOM     42  C   UNL A   1      38.949  29.809  29.246  1.00  0.00     0.049 A 
ATOM     43  H   UNL A   1      40.345  29.275  30.695  1.00  0.00     0.167 HD
ATOM     44  C   UNL A   1      43.349  28.117  33.639  1.00  0.00     0.031 A 
ATOM     45  C   UNL A   1      38.023  30.575  29.855  1.00  0.00     0.031 A 
ATOM     46  C   UNL A   1      42.446  28.976  34.357  1.00  0.00     0.049 A 
ATOM     47  C   UNL A   1      38.155  30.872  31.324  1.00  0.00     0.074 A 
ATOM     48  C   UNL A   1      42.516  29.393  35.675  1.00  0.00     0.029 A 
ATOM     49  N   UNL A   1      41.303  29.543  33.817  1.00  0.00    -0.354 N 
ATOM     50  N   UNL A   1      39.101  30.515  32.158  1.00  0.00    -0.248 NA
ATOM     51  C   UNL A   1      37.091  31.684  31.933  1.00  0.00     0.031 C 
ATOM     52  C   UNL A   1      41.383  30.169  35.947  1.00  0.00     0.029 A 
ATOM     53  C   UNL A   1      40.640  30.280  34.783  1.00  0.00     0.049 A 
ATOM     54  H   UNL A   1      41.005  29.436  32.884  1.00  0.00     0.167 HD
ATOM     55  C   UNL A   1      38.759  31.077  33.383  1.00  0.00     0.074 A 
ATOM     56  C   UNL A   1      37.525  31.809  33.179  1.00  0.00     0.031 C 
ATOM     57  C   UNL A   1      39.410  30.996  34.569  1.00  0.00     0.031 A 
BRANCH  44  58
ATOM     58  C   UNL A   1      44.513  27.525  34.383  1.00  0.00    -0.014 A 
ATOM     59  C   UNL A   1      44.405  26.290  35.041  1.00  0.00     0.009 A 
ATOM     60  C   UNL A   1      45.742  28.203  34.403  1.00  0.00     0.009 A 
ATOM     61  C   UNL A   1      45.497  25.763  35.735  1.00  0.00     0.001 A 
ATOM     62  C   UNL A   1      46.839  27.660  35.077  1.00  0.00     0.001 A 
ATOM     63  C   UNL A   1      46.712  26.446  35.749  1.00  0.00     0.000 A 
ENDBRANCH  44  58
BRANCH  45  64
ATOM     64  C   UNL A   1      36.871  31.102  29.080  1.00  0.00    -0.014 A 
ATOM     65  C   UNL A   1      36.816  32.454  28.710  1.00  0.00     0.009 A 
ATOM     66  C   UNL A   1      35.811  30.256  28.720  1.00  0.00     0.009 A 
ATOM     67  C   UNL A   1      35.713  32.952  28.012  1.00  0.00     0.001 A 
ATOM     68  C   UNL A   1      34.722  30.750  28.000  1.00  0.00     0.001 A 
ATOM     69  C   UNL A   1      34.670  32.099  27.654  1.00  0.00     0.000 A 
ENDBRANCH  45  64
BRANCH  57  70
ATOM     70  C   UNL A   1      38.814  31.737  35.733  1.00  0.00    -0.014 A 
ATOM     71  C   UNL A   1      37.958  31.096  36.642  1.00  0.00     0.009 A 
ATOM     72  C   UNL A   1      39.147  33.084  35.944  1.00  0.00     0.009 A 
ATOM     73  C   UNL A   1      37.425  31.800  37.724  1.00  0.00     0.001 A 
ATOM     74  C   UNL A   1      38.634  33.777  37.041  1.00  0.00     0.001 A 
ATOM     75  C   UNL A   1      37.767  33.137  37.925  1.00  0.00     0.000 A 
ENDBRANCH  57  70
ENDBRANCH  31  32
ENDBRANCH  24  26
ENDBRANCH  23  24
ENDBRANCH  22  23
ENDBRANCH  21  22
ENDBRANCH   1  21
TORSDOF 16
ENDMDL
MODEL 3
REMARK VINA RESULT:      -9.8      4.242      8.213
REMARK SMILES Cc1cnccc1N[C@@H]1C=C[C@@H](C(=O)OCCOCCOC(=O)c2ccc(-c3c4nc(c(-c5ccccc5)c5ccc([nH]5)c(-c5ccccc5)c5nc(c(-c6ccccc6)c6ccc3[nH]6)C=C5)C=C4)cc2)C1
REMARK SMILES IDX 18 1 17 2 16 3 15 4 13 5 14 6 12 7 9 8 10 9 72 10 11 11 8 12
REMARK SMILES IDX 7 14 1 15 2 16 3 17 4 18 6 19 5 20 19 21 20 22 21 23 22 24
REMARK SMILES IDX 23 25 24 26 25 27 71 28 26 29 70 30 27 31 28 32 29 33 64 34
REMARK SMILES IDX 30 35 69 36 63 37 65 38 31 39 68 40 62 41 61 42 32 44 54 45
REMARK SMILES IDX 39 46 53 47 40 48 43 49 52 50 66 51 41 52 42 53 51 55 67 56
REMARK SMILES IDX 44 57 33 58 34 59 38 60 35 61 37 62 36 63 55 64 56 65 60 66
REMARK SMILES IDX 57 67 59 68 58 69 45 70 46 71 50 72 47 73 49 74 48 75
REMARK H PARENT 8 13 65 43 43 54
REMARK Flexibility Score: inf
ROOT
ATOM      1  O   UNL A   1      47.378  25.896  32.382  1.00  0.00    -0.374 OA
ENDROOT
BRANCH   1   2
ATOM      2  C   UNL A   1      47.594  25.953  30.973  1.00  0.00     0.202 C 
BRANCH   2   3
ATOM      3  C   UNL A   1      46.370  26.292  30.119  1.00  0.00     0.261 C 
BRANCH   3   4
ATOM      4  O   UNL A   1      46.258  25.380  29.017  1.00  0.00    -0.463 OA
BRANCH   4   5
ATOM      5  C   UNL A   1      45.241  24.485  29.123  1.00  0.00     0.312 C 
ATOM      6  O   UNL A   1      44.467  24.433  30.072  1.00  0.00    -0.252 OA
BRANCH   5   7
ATOM      7  C   UNL A   1      45.043  23.698  27.832  1.00  0.00     0.124 C 
ATOM      8  C   UNL A   1      43.290  23.263  26.158  1.00  0.00     0.103 C 
ATOM      9  C   UNL A   1      44.216  24.341  25.719  1.00  0.00    -0.006 C 
ATOM     10  C   UNL A   1      43.695  22.985  27.611  1.00  0.00     0.048 C 
ATOM     11  C   UNL A   1      45.158  24.596  26.634  1.00  0.00    -0.014 C 
BRANCH   8  12
ATOM     12  N   UNL A   1      43.317  22.128  25.246  1.00  0.00    -0.379 N 
ATOM     13  H   UNL A   1      42.999  22.340  24.338  1.00  0.00     0.161 HD
BRANCH  12  14
ATOM     14  C   UNL A   1      43.702  20.809  25.406  1.00  0.00     0.040 A 
ATOM     15  C   UNL A   1      46.112  21.319  24.652  1.00  0.00     0.048 C 
ATOM     16  C   UNL A   1      45.001  20.390  25.052  1.00  0.00    -0.010 A 
ATOM     17  C   UNL A   1      45.316  19.029  25.145  1.00  0.00     0.116 A 
ATOM     18  N   UNL A   1      44.464  18.065  25.541  1.00  0.00    -0.264 NA
ATOM     19  C   UNL A   1      42.836  19.812  25.852  1.00  0.00     0.046 A 
ATOM     20  C   UNL A   1      43.242  18.484  25.899  1.00  0.00     0.113 A 
ENDBRANCH  12  14
ENDBRANCH   8  12
ENDBRANCH   5   7
ENDBRANCH   4   5
ENDBRANCH   3   4
ENDBRANCH   2   3
ENDBRANCH   1   2
BRANCH   1  21
ATOM     21  C   UNL A   1      48.509  25.674  33.227  1.00  0.00     0.202 C 
BRANCH  21  22
ATOM     22  C   UNL A   1      48.275  24.841  34.496  1.00  0.00     0.261 C 
BRANCH  22  23
ATOM     23  O   UNL A   1      46.875  24.642  34.779  1.00  0.00    -0.460 OA
BRANCH  23  24
ATOM     24  C   UNL A   1      46.406  25.342  35.839  1.00  0.00     0.338 C 
ATOM     25  O   UNL A   1      46.866  25.376  36.973  1.00  0.00    -0.246 OA
BRANCH  24  26
ATOM     26  C   UNL A   1      45.318  26.241  35.417  1.00  0.00     0.060 A 
ATOM     27  C   UNL A   1      44.020  25.714  35.367  1.00  0.00     0.016 A 
ATOM     28  C   UNL A   1      45.575  27.538  34.970  1.00  0.00     0.016 A 
ATOM     29  C   UNL A   1      42.979  26.470  34.836  1.00  0.00     0.010 A 
ATOM     30  C   UNL A   1      44.530  28.292  34.425  1.00  0.00     0.010 A 
ATOM     31  C   UNL A   1      43.235  27.750  34.325  1.00  0.00    -0.014 A 
BRANCH  31  32
ATOM     32  C   UNL A   1      42.177  28.454  33.562  1.00  0.00     0.031 A 
ATOM     33  C   UNL A   1      41.294  29.442  34.272  1.00  0.00     0.074 A 
ATOM     34  C   UNL A   1      42.026  28.245  32.242  1.00  0.00     0.049 A 
ATOM     35  N   UNL A   1      40.312  30.167  33.797  1.00  0.00    -0.248 NA
ATOM     36  C   UNL A   1      41.555  29.643  35.706  1.00  0.00     0.031 C 
ATOM     37  C   UNL A   1      42.845  27.350  31.427  1.00  0.00     0.029 A 
ATOM     38  N   UNL A   1      41.124  28.779  31.356  1.00  0.00    -0.354 N 
ATOM     39  C   UNL A   1      39.836  30.907  34.874  1.00  0.00     0.074 A 
ATOM     40  C   UNL A   1      40.619  30.524  36.030  1.00  0.00     0.031 C 
ATOM     41  C   UNL A   1      42.406  27.394  30.158  1.00  0.00     0.029 A 
ATOM     42  C   UNL A   1      41.260  28.298  30.078  1.00  0.00     0.049 A 
ATOM     43  H   UNL A   1      40.446  29.445  31.612  1.00  0.00     0.167 HD
ATOM     44  C   UNL A   1      38.842  31.826  34.898  1.00  0.00     0.031 A 
ATOM     45  C   UNL A   1      40.531  28.545  28.972  1.00  0.00     0.031 A 
ATOM     46  C   UNL A   1      38.051  32.198  33.756  1.00  0.00     0.049 A 
ATOM     47  C   UNL A   1      39.377  29.508  29.044  1.00  0.00     0.074 A 
ATOM     48  C   UNL A   1      37.032  33.132  33.680  1.00  0.00     0.029 A 
ATOM     49  N   UNL A   1      38.186  31.648  32.492  1.00  0.00    -0.354 N 
ATOM     50  N   UNL A   1      38.955  30.219  30.061  1.00  0.00    -0.248 NA
ATOM     51  C   UNL A   1      38.602  29.704  27.810  1.00  0.00     0.031 C 
ATOM     52  C   UNL A   1      36.514  33.107  32.381  1.00  0.00     0.029 A 
ATOM     53  C   UNL A   1      37.247  32.198  31.636  1.00  0.00     0.049 A 
ATOM     54  H   UNL A   1      38.849  30.965  32.240  1.00  0.00     0.167 HD
ATOM     55  C   UNL A   1      37.882  30.963  29.585  1.00  0.00     0.074 A 
ATOM     56  C   UNL A   1      37.726  30.626  28.184  1.00  0.00     0.031 C 
ATOM     57  C   UNL A   1      37.098  31.848  30.247  1.00  0.00     0.031 A 
BRANCH  44  58
ATOM     58  C   UNL A   1      38.532  32.467  36.221  1.00  0.00    -0.014 A 
ATOM     59  C   UNL A   1      37.825  31.777  37.217  1.00  0.00     0.009 A 
ATOM     60  C   UNL A   1      38.978  33.773  36.481  1.00  0.00     0.009 A 
ATOM     61  C   UNL A   1      37.538  32.396  38.436  1.00  0.00     0.001 A 
ATOM     62  C   UNL A   1      38.712  34.379  37.711  1.00  0.00     0.001 A 
ATOM     63  C   UNL A   1      37.985  33.693  38.683  1.00  0.00     0.000 A 
ENDBRANCH  44  58
BRANCH  45  64
ATOM     64  C   UNL A   1      40.857  27.853  27.699  1.00  0.00    -0.014 A 
ATOM     65  C   UNL A   1      40.374  26.562  27.442  1.00  0.00     0.009 A 
ATOM     66  C   UNL A   1      41.669  28.479  26.740  1.00  0.00     0.009 A 
ATOM     67  C   UNL A   1      40.713  25.903  26.258  1.00  0.00     0.001 A 
ATOM     68  C   UNL A   1      41.986  27.828  25.546  1.00  0.00     0.001 A 
ATOM     69  C   UNL A   1      41.515  26.538  25.310  1.00  0.00     0.000 A 
ENDBRANCH  45  64
BRANCH  57  70
ATOM     70  C   UNL A   1      36.016  32.533  29.460  1.00  0.00    -0.014 A 
ATOM     71  C   UNL A   1      34.804  31.885  29.173  1.00  0.00     0.009 A 
ATOM     72  C   UNL A   1      36.197  33.859  29.037  1.00  0.00     0.009 A 
ATOM     73  C   UNL A   1      33.807  32.544  28.451  1.00  0.00     0.001 A 
ATOM     74  C   UNL A   1      35.188  34.523  28.338  1.00  0.00     0.001 A 
ATOM     75  C   UNL A   1      33.998  33.863  28.038  1.00  0.00     0.000 A 
ENDBRANCH  57  70
ENDBRANCH  31  32
ENDBRANCH  24  26
ENDBRANCH  23  24
ENDBRANCH  22  23
ENDBRANCH  21  22
ENDBRANCH   1  21
TORSDOF 16
ENDMDL
