MODEL 1
REMARK VINA RESULT:      -9.6      0.000      0.000
REMARK SMILES CC(C)(C)OC(=O)N1C[C@H](Oc2ccncc2)C[C@H]1C(=O)OCCOCCOC(=O)c1ccc(-c2c3nc(c(-c4ccccc4)c4ccc([nH]4)c(-c4ccccc4)c4nc(c(-c5ccccc5)c5ccc2[nH]5)C=C4)C=C3)cc1
REMARK SMILES IDX 24 1 23 2 22 3 20 4 21 5 19 6 8 7 9 8 10 9 18 10 6 11 7 12
REMARK SMILES IDX 5 13 2 14 1 15 3 16 4 17 11 18 12 19 13 20 17 21 14 22 16 23
REMARK SMILES IDX 15 24 25 25 26 26 27 27 28 28 29 29 30 30 31 31 32 32 78 33
REMARK SMILES IDX 33 34 77 35 34 36 35 37 36 38 71 39 37 40 76 41 70 42 72 43
REMARK SMILES IDX 38 44 75 45 69 46 68 47 39 49 61 50 46 51 60 52 47 53 50 54
REMARK SMILES IDX 59 55 73 56 48 57 49 58 58 60 74 61 51 62 40 63 41 64 45 65
REMARK SMILES IDX 42 66 44 67 43 68 62 69 63 70 67 71 64 72 66 73 65 74 52 75
REMARK SMILES IDX 53 76 57 77 54 78 56 79 55 80
REMARK H PARENT 72 48 50 59
REMARK Flexibility Score: inf
ROOT
ATOM      1  C   UNL A   1      32.168  26.587  24.693  1.00  0.00     0.202 C 
ENDROOT
BRANCH   1   2
ATOM      2  C   UNL A   1      31.224  25.507  24.149  1.00  0.00     0.261 C 
BRANCH   2   3
ATOM      3  O   UNL A   1      31.896  24.335  23.664  1.00  0.00    -0.462 OA
BRANCH   3   4
ATOM      4  C   UNL A   1      31.776  23.264  24.499  1.00  0.00     0.329 C 
ATOM      5  O   UNL A   1      30.903  23.165  25.354  1.00  0.00    -0.250 OA
BRANCH   4   6
ATOM      6  C   UNL A   1      32.862  22.205  24.232  1.00  0.00     0.202 C 
ATOM      7  N   UNL A   1      33.443  21.846  25.521  1.00  0.00    -0.291 N 
ATOM      8  C   UNL A   1      33.013  20.536  25.964  1.00  0.00     0.169 C 
ATOM      9  C   UNL A   1      32.800  19.784  24.652  1.00  0.00     0.195 C 
ATOM     10  C   UNL A   1      32.350  20.871  23.654  1.00  0.00     0.084 C 
BRANCH   7  11
ATOM     11  C   UNL A   1      34.317  22.705  26.135  1.00  0.00     0.411 C 
ATOM     12  O   UNL A   1      34.305  22.889  27.346  1.00  0.00    -0.224 OA
BRANCH  11  13
ATOM     13  O   UNL A   1      35.121  23.339  25.251  1.00  0.00    -0.444 OA
BRANCH  13  14
ATOM     14  C   UNL A   1      36.453  22.845  24.943  1.00  0.00     0.106 C 
ATOM     15  C   UNL A   1      36.564  22.951  23.416  1.00  0.00     0.056 C 
ATOM     16  C   UNL A   1      36.515  21.376  25.366  1.00  0.00     0.056 C 
ATOM     17  C   UNL A   1      37.615  23.639  25.556  1.00  0.00     0.056 C 
ENDBRANCH  13  14
ENDBRANCH  11  13
ENDBRANCH   7  11
BRANCH   9  18
ATOM     18  O   UNL A   1      33.919  18.981  24.216  1.00  0.00    -0.488 OA
BRANCH  18  19
ATOM     19  C   UNL A   1      33.930  17.676  24.614  1.00  0.00     0.122 A 
ATOM     20  C   UNL A   1      32.748  16.973  24.805  1.00  0.00     0.066 A 
ATOM     21  C   UNL A   1      35.148  17.022  24.737  1.00  0.00     0.066 A 
ATOM     22  C   UNL A   1      32.836  15.664  25.244  1.00  0.00     0.115 A 
ATOM     23  C   UNL A   1      35.133  15.704  25.157  1.00  0.00     0.115 A 
ATOM     24  N   UNL A   1      34.005  15.016  25.433  1.00  0.00    -0.264 NA
ENDBRANCH  18  19
ENDBRANCH   9  18
ENDBRANCH   4   6
ENDBRANCH   3   4
ENDBRANCH   2   3
ENDBRANCH   1   2
BRANCH   1  25
ATOM     25  O   UNL A   1      31.789  27.953  24.575  1.00  0.00    -0.374 OA
BRANCH  25  26
ATOM     26  C   UNL A   1      32.149  28.848  25.625  1.00  0.00     0.202 C 
BRANCH  26  27
ATOM     27  C   UNL A   1      33.630  29.222  25.761  1.00  0.00     0.261 C 
BRANCH  27  28
ATOM     28  O   UNL A   1      34.106  29.055  27.110  1.00  0.00    -0.460 OA
BRANCH  28  29
ATOM     29  C   UNL A   1      34.491  30.205  27.717  1.00  0.00     0.338 C 
ATOM     30  O   UNL A   1      33.809  31.191  27.940  1.00  0.00    -0.246 OA
BRANCH  29  31
ATOM     31  C   UNL A   1      35.845  30.042  28.280  1.00  0.00     0.060 A 
ATOM     32  C   UNL A   1      36.929  30.383  27.459  1.00  0.00     0.016 A 
ATOM     33  C   UNL A   1      36.054  29.507  29.550  1.00  0.00     0.016 A 
ATOM     34  C   UNL A   1      38.232  30.152  27.892  1.00  0.00     0.010 A 
ATOM     35  C   UNL A   1      37.362  29.259  29.976  1.00  0.00     0.010 A 
ATOM     36  C   UNL A   1      38.453  29.550  29.136  1.00  0.00    -0.014 A 
BRANCH  36  37
ATOM     37  C   UNL A   1      39.814  29.085  29.492  1.00  0.00     0.031 A 
ATOM     38  C   UNL A   1      40.265  27.730  29.020  1.00  0.00     0.074 A 
ATOM     39  C   UNL A   1      40.644  29.862  30.209  1.00  0.00     0.049 A 
ATOM     40  N   UNL A   1      41.387  27.102  29.257  1.00  0.00    -0.248 NA
ATOM     41  C   UNL A   1      39.324  26.988  28.164  1.00  0.00     0.031 C 
ATOM     42  C   UNL A   1      40.345  31.214  30.677  1.00  0.00     0.029 A 
ATOM     43  N   UNL A   1      41.911  29.614  30.674  1.00  0.00    -0.354 N 
ATOM     44  C   UNL A   1      41.284  25.886  28.593  1.00  0.00     0.074 A 
ATOM     45  C   UNL A   1      39.984  25.857  27.958  1.00  0.00     0.031 C 
ATOM     46  C   UNL A   1      41.396  31.671  31.380  1.00  0.00     0.029 A 
ATOM     47  C   UNL A   1      42.422  30.632  31.439  1.00  0.00     0.049 A 
ATOM     48  H   UNL A   1      42.405  28.785  30.478  1.00  0.00     0.167 HD
ATOM     49  C   UNL A   1      42.192  24.885  28.514  1.00  0.00     0.031 A 
ATOM     50  C   UNL A   1      43.574  30.704  32.133  1.00  0.00     0.031 A 
ATOM     51  C   UNL A   1      43.479  24.908  29.155  1.00  0.00     0.049 A 
ATOM     52  C   UNL A   1      44.528  29.539  32.108  1.00  0.00     0.074 A 
ATOM     53  C   UNL A   1      44.477  23.951  29.117  1.00  0.00     0.029 A 
ATOM     54  N   UNL A   1      43.939  25.938  29.960  1.00  0.00    -0.354 N 
ATOM     55  N   UNL A   1      44.431  28.406  31.455  1.00  0.00    -0.248 NA
ATOM     56  C   UNL A   1      45.748  29.664  32.919  1.00  0.00     0.031 C 
ATOM     57  C   UNL A   1      45.520  24.376  29.947  1.00  0.00     0.029 A 
ATOM     58  C   UNL A   1      45.193  25.623  30.456  1.00  0.00     0.049 A 
ATOM     59  H   UNL A   1      43.448  26.769  30.151  1.00  0.00     0.167 HD
ATOM     60  C   UNL A   1      45.586  27.694  31.758  1.00  0.00     0.074 A 
ATOM     61  C   UNL A   1      46.373  28.527  32.643  1.00  0.00     0.031 C 
ATOM     62  C   UNL A   1      45.960  26.460  31.341  1.00  0.00     0.031 A 
BRANCH  49  63
ATOM     63  C   UNL A   1      41.801  23.658  27.741  1.00  0.00    -0.014 A 
ATOM     64  C   UNL A   1      41.010  22.653  28.318  1.00  0.00     0.009 A 
ATOM     65  C   UNL A   1      42.207  23.523  26.405  1.00  0.00     0.009 A 
ATOM     66  C   UNL A   1      40.660  21.520  27.579  1.00  0.00     0.001 A 
ATOM     67  C   UNL A   1      41.836  22.401  25.662  1.00  0.00     0.001 A 
ATOM     68  C   UNL A   1      41.071  21.397  26.252  1.00  0.00     0.000 A 
ENDBRANCH  49  63
BRANCH  50  69
ATOM     69  C   UNL A   1      43.874  31.909  32.948  1.00  0.00    -0.014 A 
ATOM     70  C   UNL A   1      43.422  32.011  34.272  1.00  0.00     0.009 A 
ATOM     71  C   UNL A   1      44.607  32.972  32.397  1.00  0.00     0.009 A 
ATOM     72  C   UNL A   1      43.683  33.161  35.021  1.00  0.00     0.001 A 
ATOM     73  C   UNL A   1      44.889  34.109  33.157  1.00  0.00     0.001 A 
ATOM     74  C   UNL A   1      44.420  34.207  34.465  1.00  0.00     0.000 A 
ENDBRANCH  50  69
BRANCH  62  75
ATOM     75  C   UNL A   1      47.289  25.943  31.816  1.00  0.00    -0.014 A 
ATOM     76  C   UNL A   1      47.404  25.243  33.025  1.00  0.00     0.009 A 
ATOM     77  C   UNL A   1      48.427  26.108  31.011  1.00  0.00     0.009 A 
ATOM     78  C   UNL A   1      48.641  24.738  33.432  1.00  0.00     0.001 A 
ATOM     79  C   UNL A   1      49.657  25.580  31.407  1.00  0.00     0.001 A 
ATOM     80  C   UNL A   1      49.764  24.902  32.621  1.00  0.00     0.000 A 
ENDBRANCH  62  75
ENDBRANCH  36  37
ENDBRANCH  29  31
ENDBRANCH  28  29
ENDBRANCH  27  28
ENDBRANCH  26  27
ENDBRANCH  25  26
ENDBRANCH   1  25
TORSDOF 19
ENDMDL
MODEL 2
REMARK VINA RESULT:      -9.5      1.137      5.951
REMARK SMILES CC(C)(C)OC(=O)N1C[C@H](Oc2ccncc2)C[C@H]1C(=O)OCCOCCOC(=O)c1ccc(-c2c3nc(c(-c4ccccc4)c4ccc([nH]4)c(-c4ccccc4)c4nc(c(-c5ccccc5)c5ccc2[nH]5)C=C4)C=C3)cc1
REMARK SMILES IDX 24 1 23 2 22 3 20 4 21 5 19 6 8 7 9 8 10 9 18 10 6 11 7 12
REMARK SMILES IDX 5 13 2 14 1 15 3 16 4 17 11 18 12 19 13 20 17 21 14 22 16 23
REMARK SMILES IDX 15 24 25 25 26 26 27 27 28 28 29 29 30 30 31 31 32 32 78 33
REMARK SMILES IDX 33 34 77 35 34 36 35 37 36 38 71 39 37 40 76 41 70 42 72 43
REMARK SMILES IDX 38 44 75 45 69 46 68 47 39 49 61 50 46 51 60 52 47 53 50 54
REMARK SMILES IDX 59 55 73 56 48 57 49 58 58 60 74 61 51 62 40 63 41 64 45 65
REMARK SMILES IDX 42 66 44 67 43 68 62 69 63 70 67 71 64 72 66 73 65 74 52 75
REMARK SMILES IDX 53 76 57 77 54 78 56 79 55 80
REMARK H PARENT 72 48 50 59
REMARK Flexibility Score: inf
ROOT
ATOM      1  C   UNL A   1      32.342  26.576  23.654  1.00  0.00     0.202 C 
ENDROOT
BRANCH   1   2
ATOM      2  C   UNL A   1      32.142  25.161  24.209  1.00  0.00     0.261 C 
BRANCH   2   3
ATOM      3  O   UNL A   1      32.275  24.125  23.224  1.00  0.00    -0.462 OA
BRANCH   3   4
ATOM      4  C   UNL A   1      33.541  23.625  23.140  1.00  0.00     0.329 C 
ATOM      5  O   UNL A   1      34.477  24.232  22.631  1.00  0.00    -0.250 OA
BRANCH   4   6
ATOM      6  C   UNL A   1      33.645  22.220  23.761  1.00  0.00     0.202 C 
ATOM      7  N   UNL A   1      33.840  22.395  25.196  1.00  0.00    -0.291 N 
ATOM      8  C   UNL A   1      32.647  22.070  25.950  1.00  0.00     0.169 C 
ATOM      9  C   UNL A   1      31.986  20.990  25.095  1.00  0.00     0.195 C 
ATOM     10  C   UNL A   1      32.374  21.356  23.647  1.00  0.00     0.084 C 
BRANCH   7  11
ATOM     11  C   UNL A   1      35.064  22.785  25.673  1.00  0.00     0.411 C 
ATOM     12  O   UNL A   1      35.321  23.955  25.928  1.00  0.00    -0.224 OA
BRANCH  11  13
ATOM     13  O   UNL A   1      35.934  21.752  25.762  1.00  0.00    -0.444 OA
BRANCH  13  14
ATOM     14  C   UNL A   1      37.262  21.822  25.176  1.00  0.00     0.106 C 
ATOM     15  C   UNL A   1      37.052  22.496  23.814  1.00  0.00     0.056 C 
ATOM     16  C   UNL A   1      37.759  20.389  24.974  1.00  0.00     0.056 C 
ATOM     17  C   UNL A   1      38.292  22.650  25.958  1.00  0.00     0.056 C 
ENDBRANCH  13  14
ENDBRANCH  11  13
ENDBRANCH   7  11
BRANCH   9  18
ATOM     18  O   UNL A   1      32.285  19.632  25.482  1.00  0.00    -0.488 OA
BRANCH  18  19
ATOM     19  C   UNL A   1      32.729  18.797  24.497  1.00  0.00     0.122 A 
ATOM     20  C   UNL A   1      32.015  18.633  23.318  1.00  0.00     0.066 A 
ATOM     21  C   UNL A   1      33.962  18.179  24.648  1.00  0.00     0.066 A 
ATOM     22  C   UNL A   1      32.508  17.744  22.380  1.00  0.00     0.115 A 
ATOM     23  C   UNL A   1      34.383  17.326  23.643  1.00  0.00     0.115 A 
ATOM     24  N   UNL A   1      33.675  17.079  22.521  1.00  0.00    -0.264 NA
ENDBRANCH  18  19
ENDBRANCH   9  18
ENDBRANCH   4   6
ENDBRANCH   3   4
ENDBRANCH   2   3
ENDBRANCH   1   2
BRANCH   1  25
ATOM     25  O   UNL A   1      33.400  27.374  24.174  1.00  0.00    -0.374 OA
BRANCH  25  26
ATOM     26  C   UNL A   1      33.154  28.140  25.351  1.00  0.00     0.202 C 
BRANCH  26  27
ATOM     27  C   UNL A   1      34.301  28.280  26.359  1.00  0.00     0.261 C 
BRANCH  27  28
ATOM     28  O   UNL A   1      33.894  28.993  27.542  1.00  0.00    -0.460 OA
BRANCH  28  29
ATOM     29  C   UNL A   1      34.517  30.184  27.723  1.00  0.00     0.338 C 
ATOM     30  O   UNL A   1      34.019  31.296  27.678  1.00  0.00    -0.246 OA
BRANCH  29  31
ATOM     31  C   UNL A   1      35.895  29.959  28.198  1.00  0.00     0.060 A 
ATOM     32  C   UNL A   1      36.935  30.172  27.283  1.00  0.00     0.016 A 
ATOM     33  C   UNL A   1      36.162  29.486  29.483  1.00  0.00     0.016 A 
ATOM     34  C   UNL A   1      38.249  29.874  27.637  1.00  0.00     0.010 A 
ATOM     35  C   UNL A   1      37.479  29.171  29.830  1.00  0.00     0.010 A 
ATOM     36  C   UNL A   1      38.521  29.333  28.898  1.00  0.00    -0.014 A 
BRANCH  36  37
ATOM     37  C   UNL A   1      39.871  28.794  29.186  1.00  0.00     0.031 A 
ATOM     38  C   UNL A   1      40.870  29.673  29.886  1.00  0.00     0.074 A 
ATOM     39  C   UNL A   1      40.199  27.535  28.847  1.00  0.00     0.049 A 
ATOM     40  N   UNL A   1      42.118  29.430  30.189  1.00  0.00    -0.248 NA
ATOM     41  C   UNL A   1      40.394  31.003  30.301  1.00  0.00     0.031 C 
ATOM     42  C   UNL A   1      39.303  26.568  28.216  1.00  0.00     0.029 A 
ATOM     43  N   UNL A   1      41.385  26.861  28.984  1.00  0.00    -0.354 N 
ATOM     44  C   UNL A   1      42.582  30.579  30.818  1.00  0.00     0.074 A 
ATOM     45  C   UNL A   1      41.488  31.525  30.836  1.00  0.00     0.031 C 
ATOM     46  C   UNL A   1      39.980  25.426  28.003  1.00  0.00     0.029 A 
ATOM     47  C   UNL A   1      41.361  25.596  28.451  1.00  0.00     0.049 A 
ATOM     48  H   UNL A   1      42.178  27.247  29.422  1.00  0.00     0.167 HD
ATOM     49  C   UNL A   1      43.809  30.822  31.336  1.00  0.00     0.031 A 
ATOM     50  C   UNL A   1      42.349  24.692  28.313  1.00  0.00     0.031 A 
ATOM     51  C   UNL A   1      44.901  29.887  31.307  1.00  0.00     0.049 A 
ATOM     52  C   UNL A   1      43.730  25.021  28.812  1.00  0.00     0.074 A 
ATOM     53  C   UNL A   1      46.175  30.034  31.826  1.00  0.00     0.029 A 
ATOM     54  N   UNL A   1      44.848  28.634  30.715  1.00  0.00    -0.354 N 
ATOM     55  N   UNL A   1      44.150  26.099  29.428  1.00  0.00    -0.248 NA
ATOM     56  C   UNL A   1      44.774  24.007  28.595  1.00  0.00     0.031 C 
ATOM     57  C   UNL A   1      46.913  28.892  31.496  1.00  0.00     0.029 A 
ATOM     58  C   UNL A   1      46.080  28.012  30.823  1.00  0.00     0.049 A 
ATOM     59  H   UNL A   1      44.054  28.246  30.284  1.00  0.00     0.167 HD
ATOM     60  C   UNL A   1      45.499  25.886  29.691  1.00  0.00     0.074 A 
ATOM     61  C   UNL A   1      45.823  24.570  29.179  1.00  0.00     0.031 C 
ATOM     62  C   UNL A   1      46.388  26.706  30.302  1.00  0.00     0.031 A 
BRANCH  49  63
ATOM     63  C   UNL A   1      44.045  32.177  31.941  1.00  0.00    -0.014 A 
ATOM     64  C   UNL A   1      43.871  32.404  33.315  1.00  0.00     0.009 A 
ATOM     65  C   UNL A   1      44.478  33.233  31.125  1.00  0.00     0.009 A 
ATOM     66  C   UNL A   1      44.096  33.673  33.854  1.00  0.00     0.001 A 
ATOM     67  C   UNL A   1      44.725  34.494  31.671  1.00  0.00     0.001 A 
ATOM     68  C   UNL A   1      44.525  34.715  33.032  1.00  0.00     0.000 A 
ENDBRANCH  49  63
BRANCH  50  69
ATOM     69  C   UNL A   1      42.080  23.398  27.633  1.00  0.00    -0.014 A 
ATOM     70  C   UNL A   1      42.374  23.228  26.272  1.00  0.00     0.009 A 
ATOM     71  C   UNL A   1      41.514  22.329  28.345  1.00  0.00     0.009 A 
ATOM     72  C   UNL A   1      42.089  22.018  25.634  1.00  0.00     0.001 A 
ATOM     73  C   UNL A   1      41.254  21.112  27.710  1.00  0.00     0.001 A 
ATOM     74  C   UNL A   1      41.534  20.960  26.354  1.00  0.00     0.000 A 
ENDBRANCH  50  69
BRANCH  62  75
ATOM     75  C   UNL A   1      47.792  26.199  30.472  1.00  0.00    -0.014 A 
ATOM     76  C   UNL A   1      48.731  26.299  29.435  1.00  0.00     0.009 A 
ATOM     77  C   UNL A   1      48.195  25.668  31.708  1.00  0.00     0.009 A 
ATOM     78  C   UNL A   1      50.041  25.855  29.625  1.00  0.00     0.001 A 
ATOM     79  C   UNL A   1      49.512  25.249  31.903  1.00  0.00     0.001 A 
ATOM     80  C   UNL A   1      50.432  25.337  30.859  1.00  0.00     0.000 A 
ENDBRANCH  62  75
ENDBRANCH  36  37
ENDBRANCH  29  31
ENDBRANCH  28  29
ENDBRANCH  27  28
ENDBRANCH  26  27
ENDBRANCH  25  26
ENDBRANCH   1  25
TORSDOF 19
ENDMDL
MODEL 3
REMARK VINA RESULT:      -9.5      2.400      3.295
REMARK SMILES CC(C)(C)OC(=O)N1C[C@H](Oc2ccncc2)C[C@H]1C(=O)OCCOCCOC(=O)c1ccc(-c2c3nc(c(-c4ccccc4)c4ccc([nH]4)c(-c4ccccc4)c4nc(c(-c5ccccc5)c5ccc2[nH]5)C=C4)C=C3)cc1
REMARK SMILES IDX 24 1 23 2 22 3 20 4 21 5 19 6 8 7 9 8 10 9 18 10 6 11 7 12
REMARK SMILES IDX 5 13 2 14 1 15 3 16 4 17 11 18 12 19 13 20 17 21 14 22 16 23
REMARK SMILES IDX 15 24 25 25 26 26 27 27 28 28 29 29 30 30 31 31 32 32 78 33
REMARK SMILES IDX 33 34 77 35 34 36 35 37 36 38 71 39 37 40 76 41 70 42 72 43
REMARK SMILES IDX 38 44 75 45 69 46 68 47 39 49 61 50 46 51 60 52 47 53 50 54
REMARK SMILES IDX 59 55 73 56 48 57 49 58 58 60 74 61 51 62 40 63 41 64 45 65
REMARK SMILES IDX 42 66 44 67 43 68 62 69 63 70 67 71 64 72 66 73 65 74 52 75
REMARK SMILES IDX 53 76 57 77 54 78 56 79 55 80
REMARK H PARENT 72 48 50 59
REMARK Flexibility Score: inf
ROOT
ATOM      1  C   UNL A   1      32.567  26.767  25.537  1.00  0.00     0.202 C 
ENDROOT
BRANCH   1   2
ATOM      2  C   UNL A   1      31.814  25.438  25.676  1.00  0.00     0.261 C 
BRANCH   2   3
ATOM      3  O   UNL A   1      32.218  24.438  24.729  1.00  0.00    -0.462 OA
BRANCH   3   4
ATOM      4  C   UNL A   1      31.803  23.182  25.066  1.00  0.00     0.329 C 
ATOM      5  O   UNL A   1      30.745  22.949  25.639  1.00  0.00    -0.250 OA
BRANCH   4   6
ATOM      6  C   UNL A   1      32.819  22.109  24.634  1.00  0.00     0.202 C 
ATOM      7  N   UNL A   1      33.468  21.617  25.843  1.00  0.00    -0.291 N 
ATOM      8  C   UNL A   1      33.011  20.291  26.205  1.00  0.00     0.169 C 
ATOM      9  C   UNL A   1      32.676  19.664  24.852  1.00  0.00     0.195 C 
ATOM     10  C   UNL A   1      32.209  20.851  23.984  1.00  0.00     0.084 C 
BRANCH   7  11
ATOM     11  C   UNL A   1      34.420  22.383  26.464  1.00  0.00     0.411 C 
ATOM     12  O   UNL A   1      34.125  23.326  27.188  1.00  0.00    -0.224 OA
BRANCH  11  13
ATOM     13  O   UNL A   1      35.677  22.009  26.134  1.00  0.00    -0.444 OA
BRANCH  13  14
ATOM     14  C   UNL A   1      36.511  22.822  25.265  1.00  0.00     0.106 C 
ATOM     15  C   UNL A   1      37.143  21.825  24.286  1.00  0.00     0.056 C 
ATOM     16  C   UNL A   1      37.601  23.462  26.128  1.00  0.00     0.056 C 
ATOM     17  C   UNL A   1      35.773  23.888  24.441  1.00  0.00     0.056 C 
ENDBRANCH  13  14
ENDBRANCH  11  13
ENDBRANCH   7  11
BRANCH   9  18
ATOM     18  O   UNL A   1      33.725  18.860  24.272  1.00  0.00    -0.488 OA
BRANCH  18  19
ATOM     19  C   UNL A   1      33.761  17.544  24.635  1.00  0.00     0.122 A 
ATOM     20  C   UNL A   1      34.949  16.825  24.616  1.00  0.00     0.066 A 
ATOM     21  C   UNL A   1      32.605  16.950  25.121  1.00  0.00     0.066 A 
ATOM     22  C   UNL A   1      34.902  15.488  24.963  1.00  0.00     0.115 A 
ATOM     23  C   UNL A   1      32.663  15.613  25.468  1.00  0.00     0.115 A 
ATOM     24  N   UNL A   1      33.782  14.862  25.382  1.00  0.00    -0.264 NA
ENDBRANCH  18  19
ENDBRANCH   9  18
ENDBRANCH   4   6
ENDBRANCH   3   4
ENDBRANCH   2   3
ENDBRANCH   1   2
BRANCH   1  25
ATOM     25  O   UNL A   1      32.038  27.768  24.674  1.00  0.00    -0.374 OA
BRANCH  25  26
ATOM     26  C   UNL A   1      31.486  28.944  25.262  1.00  0.00     0.202 C 
BRANCH  26  27
ATOM     27  C   UNL A   1      32.446  30.101  25.569  1.00  0.00     0.261 C 
BRANCH  27  28
ATOM     28  O   UNL A   1      32.379  30.503  26.950  1.00  0.00    -0.460 OA
BRANCH  28  29
ATOM     29  C   UNL A   1      33.073  31.631  27.241  1.00  0.00     0.338 C 
ATOM     30  O   UNL A   1      32.653  32.776  27.262  1.00  0.00    -0.246 OA
BRANCH  29  31
ATOM     31  C   UNL A   1      34.412  31.277  27.747  1.00  0.00     0.060 A 
ATOM     32  C   UNL A   1      34.639  29.935  28.084  1.00  0.00     0.016 A 
ATOM     33  C   UNL A   1      35.400  32.240  27.951  1.00  0.00     0.016 A 
ATOM     34  C   UNL A   1      35.846  29.556  28.667  1.00  0.00     0.010 A 
ATOM     35  C   UNL A   1      36.604  31.861  28.553  1.00  0.00     0.010 A 
ATOM     36  C   UNL A   1      36.817  30.525  28.942  1.00  0.00    -0.014 A 
BRANCH  36  37
ATOM     37  C   UNL A   1      37.990  30.169  29.774  1.00  0.00     0.031 A 
ATOM     38  C   UNL A   1      39.042  29.263  29.197  1.00  0.00     0.074 A 
ATOM     39  C   UNL A   1      38.128  30.657  31.020  1.00  0.00     0.049 A 
ATOM     40  N   UNL A   1      40.118  28.780  29.760  1.00  0.00    -0.248 NA
ATOM     41  C   UNL A   1      38.854  28.851  27.796  1.00  0.00     0.031 C 
ATOM     42  C   UNL A   1      37.206  31.587  31.671  1.00  0.00     0.029 A 
ATOM     43  N   UNL A   1      39.100  30.428  31.959  1.00  0.00    -0.354 N 
ATOM     44  C   UNL A   1      40.730  27.997  28.789  1.00  0.00     0.074 A 
ATOM     45  C   UNL A   1      39.896  28.054  27.609  1.00  0.00     0.031 C 
ATOM     46  C   UNL A   1      37.649  31.835  32.916  1.00  0.00     0.029 A 
ATOM     47  C   UNL A   1      38.863  31.056  33.156  1.00  0.00     0.049 A 
ATOM     48  H   UNL A   1      39.891  29.866  31.791  1.00  0.00     0.167 HD
ATOM     49  C   UNL A   1      41.885  27.295  28.872  1.00  0.00     0.031 A 
ATOM     50  C   UNL A   1      39.533  30.986  34.322  1.00  0.00     0.031 A 
ATOM     51  C   UNL A   1      42.708  27.227  30.050  1.00  0.00     0.049 A 
ATOM     52  C   UNL A   1      40.763  30.124  34.420  1.00  0.00     0.074 A 
ATOM     53  C   UNL A   1      43.907  26.560  30.225  1.00  0.00     0.029 A 
ATOM     54  N   UNL A   1      42.408  27.840  31.256  1.00  0.00    -0.354 N 
ATOM     55  N   UNL A   1      41.346  29.409  33.488  1.00  0.00    -0.248 NA
ATOM     56  C   UNL A   1      41.426  30.059  35.731  1.00  0.00     0.031 C 
ATOM     57  C   UNL A   1      44.304  26.721  31.557  1.00  0.00     0.029 A 
ATOM     58  C   UNL A   1      43.381  27.535  32.193  1.00  0.00     0.049 A 
ATOM     59  H   UNL A   1      41.621  28.407  31.422  1.00  0.00     0.167 HD
ATOM     60  C   UNL A   1      42.454  28.827  34.094  1.00  0.00     0.074 A 
ATOM     61  C   UNL A   1      42.468  29.283  35.468  1.00  0.00     0.031 C 
ATOM     62  C   UNL A   1      43.376  27.991  33.558  1.00  0.00     0.031 A 
BRANCH  49  63
ATOM     63  C   UNL A   1      42.301  26.506  27.664  1.00  0.00    -0.014 A 
ATOM     64  C   UNL A   1      41.907  25.169  27.494  1.00  0.00     0.009 A 
ATOM     65  C   UNL A   1      43.075  27.120  26.668  1.00  0.00     0.009 A 
ATOM     66  C   UNL A   1      42.308  24.455  26.362  1.00  0.00     0.001 A 
ATOM     67  C   UNL A   1      43.453  26.412  25.527  1.00  0.00     0.001 A 
ATOM     68  C   UNL A   1      43.078  25.077  25.379  1.00  0.00     0.000 A 
ENDBRANCH  49  63
BRANCH  50  69
ATOM     69  C   UNL A   1      39.031  31.723  35.511  1.00  0.00    -0.014 A 
ATOM     70  C   UNL A   1      39.408  33.054  35.742  1.00  0.00     0.009 A 
ATOM     71  C   UNL A   1      38.179  31.089  36.429  1.00  0.00     0.009 A 
ATOM     72  C   UNL A   1      38.956  33.729  36.879  1.00  0.00     0.001 A 
ATOM     73  C   UNL A   1      37.707  31.775  37.550  1.00  0.00     0.001 A 
ATOM     74  C   UNL A   1      38.102  33.091  37.779  1.00  0.00     0.000 A 
ENDBRANCH  50  69
BRANCH  62  75
ATOM     75  C   UNL A   1      44.493  27.530  34.452  1.00  0.00    -0.014 A 
ATOM     76  C   UNL A   1      44.395  26.335  35.179  1.00  0.00     0.009 A 
ATOM     77  C   UNL A   1      45.682  28.274  34.520  1.00  0.00     0.009 A 
ATOM     78  C   UNL A   1      45.458  25.905  35.976  1.00  0.00     0.001 A 
ATOM     79  C   UNL A   1      46.752  27.829  35.297  1.00  0.00     0.001 A 
ATOM     80  C   UNL A   1      46.636  26.648  36.030  1.00  0.00     0.000 A 
ENDBRANCH  62  75
ENDBRANCH  36  37
ENDBRANCH  29  31
ENDBRANCH  28  29
ENDBRANCH  27  28
ENDBRANCH  26  27
ENDBRANCH  25  26
ENDBRANCH   1  25
TORSDOF 19
ENDMDL
