MODEL 1
REMARK VINA RESULT:     -11.7      0.000      0.000
REMARK SMILES C[C@@H]1C(C(=O)OCCOCCOC(=O)c2ccc(-c3c4nc(c(-c5ccccc5)c5ccc([nH]5)c(-c5ccccc5)c5nc(c(-c6ccccc6)c6ccc3[nH]6)C=C5)C=C4)cc2)=NC2=C1C(=O)C[C@H](c1ccccc1)C2
REMARK SMILES IDX 10 1 9 2 8 3 7 4 6 5 4 6 5 7 3 8 1 9 2 10 65 11 63 12 64 13
REMARK SMILES IDX 66 14 76 15 67 16 68 17 69 18 70 19 71 20 75 21 72 22 74 23
REMARK SMILES IDX 73 24 11 25 12 26 13 27 14 28 15 29 16 30 62 31 17 32 61 33
REMARK SMILES IDX 18 34 19 35 20 36 55 37 21 38 60 39 54 40 56 41 22 42 59 43
REMARK SMILES IDX 53 44 52 45 23 47 45 48 30 49 44 50 31 51 34 52 43 53 57 54
REMARK SMILES IDX 32 55 33 56 42 58 58 59 35 60 24 61 25 62 29 63 26 64 28 65
REMARK SMILES IDX 27 66 46 67 47 68 51 69 48 70 50 71 49 72 36 73 37 74 41 75
REMARK SMILES IDX 38 76 40 77 39 78
REMARK H PARENT 56 46 34 57
REMARK Flexibility Score: inf
ROOT
ATOM      1  C   UNL A   1      34.034  29.292  27.321  1.00  0.00     0.202 C 
ENDROOT
BRANCH   1   2
ATOM      2  O   UNL A   1      34.339  28.560  26.136  1.00  0.00    -0.374 OA
BRANCH   2   3
ATOM      3  C   UNL A   1      33.221  28.295  25.291  1.00  0.00     0.202 C 
BRANCH   3   4
ATOM      4  C   UNL A   1      33.623  27.924  23.859  1.00  0.00     0.261 C 
BRANCH   4   5
ATOM      5  O   UNL A   1      34.038  26.541  23.784  1.00  0.00    -0.459 OA
BRANCH   5   6
ATOM      6  C   UNL A   1      33.473  25.789  22.807  1.00  0.00     0.353 C 
ATOM      7  O   UNL A   1      33.678  25.865  21.612  1.00  0.00    -0.245 OA
BRANCH   6   8
ATOM      8  C   UNL A   1      32.666  24.655  23.442  1.00  0.00     0.133 C 
ATOM      9  C   UNL A   1      30.239  25.033  23.593  1.00  0.00     0.020 C 
ATOM     10  C   UNL A   1      31.534  24.956  24.401  1.00  0.00     0.078 C 
ATOM     11  C   UNL A   1      31.675  23.648  25.094  1.00  0.00     0.026 C 
ATOM     12  N   UNL A   1      32.934  23.385  23.263  1.00  0.00    -0.249 NA
ATOM     13  C   UNL A   1      32.298  22.764  24.315  1.00  0.00     0.049 C 
ATOM     14  C   UNL A   1      31.638  23.377  26.534  1.00  0.00     0.161 C 
ATOM     15  C   UNL A   1      32.640  21.391  24.805  1.00  0.00     0.065 C 
ATOM     16  O   UNL A   1      30.865  24.014  27.248  1.00  0.00    -0.294 OA
ATOM     17  C   UNL A   1      32.647  22.364  27.117  1.00  0.00     0.089 C 
ATOM     18  C   UNL A   1      33.481  21.519  26.089  1.00  0.00     0.033 C 
BRANCH  18  19
ATOM     19  C   UNL A   1      34.930  21.967  25.817  1.00  0.00    -0.044 A 
ATOM     20  C   UNL A   1      35.895  21.085  25.286  1.00  0.00     0.004 A 
ATOM     21  C   UNL A   1      35.376  23.263  26.118  1.00  0.00     0.004 A 
ATOM     22  C   UNL A   1      37.163  21.510  24.886  1.00  0.00     0.000 A 
ATOM     23  C   UNL A   1      36.664  23.688  25.745  1.00  0.00     0.000 A 
ATOM     24  C   UNL A   1      37.536  22.827  25.082  1.00  0.00     0.000 A 
ENDBRANCH  18  19
ENDBRANCH   6   8
ENDBRANCH   5   6
ENDBRANCH   4   5
ENDBRANCH   3   4
ENDBRANCH   2   3
ENDBRANCH   1   2
BRANCH   1  25
ATOM     25  C   UNL A   1      33.307  30.594  27.034  1.00  0.00     0.261 C 
BRANCH  25  26
ATOM     26  O   UNL A   1      34.041  31.644  27.630  1.00  0.00    -0.460 OA
BRANCH  26  27
ATOM     27  C   UNL A   1      33.348  32.746  27.985  1.00  0.00     0.338 C 
ATOM     28  O   UNL A   1      32.299  33.164  27.526  1.00  0.00    -0.246 OA
BRANCH  27  29
ATOM     29  C   UNL A   1      34.208  33.418  28.978  1.00  0.00     0.060 A 
ATOM     30  C   UNL A   1      35.181  34.187  28.352  1.00  0.00     0.016 A 
ATOM     31  C   UNL A   1      34.464  32.682  30.149  1.00  0.00     0.016 A 
ATOM     32  C   UNL A   1      36.485  33.835  28.596  1.00  0.00     0.010 A 
ATOM     33  C   UNL A   1      35.759  32.282  30.346  1.00  0.00     0.010 A 
ATOM     34  C   UNL A   1      36.736  32.787  29.490  1.00  0.00    -0.014 A 
BRANCH  34  35
ATOM     35  C   UNL A   1      38.099  32.345  29.648  1.00  0.00     0.031 A 
ATOM     36  C   UNL A   1      38.205  30.911  29.324  1.00  0.00     0.074 A 
ATOM     37  C   UNL A   1      39.137  33.150  29.924  1.00  0.00     0.049 A 
ATOM     38  N   UNL A   1      38.152  29.924  30.155  1.00  0.00    -0.248 NA
ATOM     39  C   UNL A   1      38.030  30.534  27.910  1.00  0.00     0.031 C 
ATOM     40  C   UNL A   1      39.212  34.611  29.951  1.00  0.00     0.029 A 
ATOM     41  N   UNL A   1      40.420  32.778  30.149  1.00  0.00    -0.354 N 
ATOM     42  C   UNL A   1      38.153  28.796  29.348  1.00  0.00     0.074 A 
ATOM     43  C   UNL A   1      37.739  29.241  28.044  1.00  0.00     0.031 C 
ATOM     44  C   UNL A   1      40.518  34.982  29.925  1.00  0.00     0.029 A 
ATOM     45  C   UNL A   1      41.351  33.792  30.004  1.00  0.00     0.049 A 
ATOM     46  H   UNL A   1      40.671  31.859  30.395  1.00  0.00     0.167 HD
ATOM     47  C   UNL A   1      38.859  27.684  29.686  1.00  0.00     0.031 A 
ATOM     48  C   UNL A   1      42.690  33.611  29.860  1.00  0.00     0.031 A 
ATOM     49  C   UNL A   1      39.275  27.723  31.066  1.00  0.00     0.049 A 
ATOM     50  C   UNL A   1      43.002  32.226  30.307  1.00  0.00     0.074 A 
ATOM     51  C   UNL A   1      38.624  27.802  32.282  1.00  0.00     0.029 A 
ATOM     52  N   UNL A   1      40.575  28.109  31.305  1.00  0.00    -0.354 N 
ATOM     53  N   UNL A   1      42.887  31.834  31.544  1.00  0.00    -0.248 NA
ATOM     54  C   UNL A   1      42.949  31.161  29.313  1.00  0.00     0.031 C 
ATOM     55  C   UNL A   1      39.435  28.666  33.078  1.00  0.00     0.029 A 
ATOM     56  C   UNL A   1      40.566  29.012  32.336  1.00  0.00     0.049 A 
ATOM     57  H   UNL A   1      41.372  27.791  30.821  1.00  0.00     0.167 HD
ATOM     58  C   UNL A   1      42.317  30.569  31.469  1.00  0.00     0.074 A 
ATOM     59  C   UNL A   1      42.458  30.172  30.068  1.00  0.00     0.031 C 
ATOM     60  C   UNL A   1      41.515  30.095  32.470  1.00  0.00     0.031 A 
BRANCH  47  61
ATOM     61  C   UNL A   1      39.572  26.837  28.659  1.00  0.00    -0.014 A 
ATOM     62  C   UNL A   1      40.400  27.481  27.728  1.00  0.00     0.009 A 
ATOM     63  C   UNL A   1      39.259  25.487  28.393  1.00  0.00     0.009 A 
ATOM     64  C   UNL A   1      40.815  26.833  26.559  1.00  0.00     0.001 A 
ATOM     65  C   UNL A   1      39.707  24.824  27.252  1.00  0.00     0.001 A 
ATOM     66  C   UNL A   1      40.460  25.509  26.317  1.00  0.00     0.000 A 
ENDBRANCH  47  61
BRANCH  48  67
ATOM     67  C   UNL A   1      43.624  34.398  29.020  1.00  0.00    -0.014 A 
ATOM     68  C   UNL A   1      43.486  34.445  27.623  1.00  0.00     0.009 A 
ATOM     69  C   UNL A   1      44.498  35.324  29.619  1.00  0.00     0.009 A 
ATOM     70  C   UNL A   1      44.178  35.400  26.861  1.00  0.00     0.001 A 
ATOM     71  C   UNL A   1      45.190  36.275  28.860  1.00  0.00     0.001 A 
ATOM     72  C   UNL A   1      45.021  36.321  27.481  1.00  0.00     0.000 A 
ENDBRANCH  48  67
BRANCH  60  73
ATOM     73  C   UNL A   1      41.426  30.908  33.740  1.00  0.00    -0.014 A 
ATOM     74  C   UNL A   1      40.544  31.993  33.899  1.00  0.00     0.009 A 
ATOM     75  C   UNL A   1      42.135  30.460  34.863  1.00  0.00     0.009 A 
ATOM     76  C   UNL A   1      40.398  32.624  35.139  1.00  0.00     0.001 A 
ATOM     77  C   UNL A   1      41.975  31.079  36.106  1.00  0.00     0.001 A 
ATOM     78  C   UNL A   1      41.111  32.162  36.243  1.00  0.00     0.000 A 
ENDBRANCH  60  73
ENDBRANCH  34  35
ENDBRANCH  27  29
ENDBRANCH  26  27
ENDBRANCH  25  26
ENDBRANCH   1  25
TORSDOF 15
ENDMDL
MODEL 2
REMARK VINA RESULT:     -11.4      4.691      8.977
REMARK SMILES C[C@@H]1C(C(=O)OCCOCCOC(=O)c2ccc(-c3c4nc(c(-c5ccccc5)c5ccc([nH]5)c(-c5ccccc5)c5nc(c(-c6ccccc6)c6ccc3[nH]6)C=C5)C=C4)cc2)=NC2=C1C(=O)C[C@H](c1ccccc1)C2
REMARK SMILES IDX 10 1 9 2 8 3 7 4 6 5 4 6 5 7 3 8 1 9 2 10 65 11 63 12 64 13
REMARK SMILES IDX 66 14 76 15 67 16 68 17 69 18 70 19 71 20 75 21 72 22 74 23
REMARK SMILES IDX 73 24 11 25 12 26 13 27 14 28 15 29 16 30 62 31 17 32 61 33
REMARK SMILES IDX 18 34 19 35 20 36 55 37 21 38 60 39 54 40 56 41 22 42 59 43
REMARK SMILES IDX 53 44 52 45 23 47 45 48 30 49 44 50 31 51 34 52 43 53 57 54
REMARK SMILES IDX 32 55 33 56 42 58 58 59 35 60 24 61 25 62 29 63 26 64 28 65
REMARK SMILES IDX 27 66 46 67 47 68 51 69 48 70 50 71 49 72 36 73 37 74 41 75
REMARK SMILES IDX 38 76 40 77 39 78
REMARK H PARENT 56 46 34 57
REMARK Flexibility Score: inf
ROOT
ATOM      1  C   UNL A   1      40.924  20.203  26.406  1.00  0.00     0.202 C 
ENDROOT
BRANCH   1   2
ATOM      2  O   UNL A   1      40.536  21.464  25.866  1.00  0.00    -0.374 OA
BRANCH   2   3
ATOM      3  C   UNL A   1      39.289  21.964  26.347  1.00  0.00     0.202 C 
BRANCH   3   4
ATOM      4  C   UNL A   1      38.122  21.691  25.392  1.00  0.00     0.261 C 
BRANCH   4   5
ATOM      5  O   UNL A   1      36.858  21.763  26.090  1.00  0.00    -0.459 OA
BRANCH   5   6
ATOM      6  C   UNL A   1      36.065  22.823  25.802  1.00  0.00     0.353 C 
ATOM      7  O   UNL A   1      36.418  23.962  25.568  1.00  0.00    -0.245 OA
BRANCH   6   8
ATOM      8  C   UNL A   1      34.626  22.342  25.604  1.00  0.00     0.133 C 
ATOM      9  C   UNL A   1      34.380  20.013  24.849  1.00  0.00     0.020 C 
ATOM     10  C   UNL A   1      34.259  21.474  24.419  1.00  0.00     0.078 C 
ATOM     11  C   UNL A   1      32.845  21.936  24.426  1.00  0.00     0.026 C 
ATOM     12  N   UNL A   1      33.629  22.692  26.380  1.00  0.00    -0.249 NA
ATOM     13  C   UNL A   1      32.513  22.427  25.619  1.00  0.00     0.049 C 
ATOM     14  C   UNL A   1      32.008  22.308  23.281  1.00  0.00     0.161 C 
ATOM     15  C   UNL A   1      31.167  23.035  25.870  1.00  0.00     0.065 C 
ATOM     16  O   UNL A   1      32.116  21.683  22.227  1.00  0.00    -0.294 OA
ATOM     17  C   UNL A   1      31.088  23.540  23.414  1.00  0.00     0.089 C 
ATOM     18  C   UNL A   1      30.937  24.163  24.847  1.00  0.00     0.033 C 
BRANCH  18  19
ATOM     19  C   UNL A   1      31.756  25.432  25.156  1.00  0.00    -0.044 A 
ATOM     20  C   UNL A   1      31.456  26.262  26.257  1.00  0.00     0.004 A 
ATOM     21  C   UNL A   1      32.816  25.849  24.337  1.00  0.00     0.004 A 
ATOM     22  C   UNL A   1      32.278  27.322  26.644  1.00  0.00     0.000 A 
ATOM     23  C   UNL A   1      33.629  26.936  24.707  1.00  0.00     0.000 A 
ATOM     24  C   UNL A   1      33.391  27.637  25.886  1.00  0.00     0.000 A 
ENDBRANCH  18  19
ENDBRANCH   6   8
ENDBRANCH   5   6
ENDBRANCH   4   5
ENDBRANCH   3   4
ENDBRANCH   2   3
ENDBRANCH   1   2
BRANCH   1  25
ATOM     25  C   UNL A   1      42.430  20.000  26.394  1.00  0.00     0.261 C 
BRANCH  25  26
ATOM     26  O   UNL A   1      42.934  20.552  25.195  1.00  0.00    -0.460 OA
BRANCH  26  27
ATOM     27  C   UNL A   1      44.192  20.206  24.848  1.00  0.00     0.338 C 
ATOM     28  O   UNL A   1      44.704  19.101  24.852  1.00  0.00    -0.246 OA
BRANCH  27  29
ATOM     29  C   UNL A   1      44.865  21.491  24.578  1.00  0.00     0.060 A 
ATOM     30  C   UNL A   1      45.838  21.752  25.533  1.00  0.00     0.016 A 
ATOM     31  C   UNL A   1      44.045  22.499  24.041  1.00  0.00     0.016 A 
ATOM     32  C   UNL A   1      45.660  22.882  26.291  1.00  0.00     0.010 A 
ATOM     33  C   UNL A   1      43.823  23.593  24.836  1.00  0.00     0.010 A 
ATOM     34  C   UNL A   1      44.565  23.708  26.009  1.00  0.00    -0.014 A 
BRANCH  34  35
ATOM     35  C   UNL A   1      44.318  24.825  26.885  1.00  0.00     0.031 A 
ATOM     36  C   UNL A   1      45.404  25.814  26.762  1.00  0.00     0.074 A 
ATOM     37  C   UNL A   1      43.199  24.997  27.608  1.00  0.00     0.049 A 
ATOM     38  N   UNL A   1      46.454  25.906  27.507  1.00  0.00    -0.248 NA
ATOM     39  C   UNL A   1      45.482  26.561  25.494  1.00  0.00     0.031 C 
ATOM     40  C   UNL A   1      41.935  24.262  27.571  1.00  0.00     0.029 A 
ATOM     41  N   UNL A   1      42.946  25.989  28.494  1.00  0.00    -0.354 N 
ATOM     42  C   UNL A   1      47.222  26.887  26.897  1.00  0.00     0.074 A 
ATOM     43  C   UNL A   1      46.746  26.979  25.543  1.00  0.00     0.031 C 
ATOM     44  C   UNL A   1      40.984  24.995  28.206  1.00  0.00     0.029 A 
ATOM     45  C   UNL A   1      41.607  26.174  28.789  1.00  0.00     0.049 A 
ATOM     46  H   UNL A   1      43.658  26.536  28.896  1.00  0.00     0.167 HD
ATOM     47  C   UNL A   1      47.898  27.813  27.629  1.00  0.00     0.031 A 
ATOM     48  C   UNL A   1      41.080  27.280  29.378  1.00  0.00     0.031 A 
ATOM     49  C   UNL A   1      47.981  27.431  29.017  1.00  0.00     0.049 A 
ATOM     50  C   UNL A   1      42.202  28.022  30.015  1.00  0.00     0.074 A 
ATOM     51  C   UNL A   1      48.508  26.355  29.705  1.00  0.00     0.029 A 
ATOM     52  N   UNL A   1      47.083  28.026  29.873  1.00  0.00    -0.354 N 
ATOM     53  N   UNL A   1      42.874  27.562  31.033  1.00  0.00    -0.248 NA
ATOM     54  C   UNL A   1      42.900  29.021  29.214  1.00  0.00     0.031 C 
ATOM     55  C   UNL A   1      47.569  26.089  30.747  1.00  0.00     0.029 A 
ATOM     56  C   UNL A   1      46.561  27.053  30.684  1.00  0.00     0.049 A 
ATOM     57  H   UNL A   1      46.855  28.985  29.900  1.00  0.00     0.167 HD
ATOM     58  C   UNL A   1      44.200  27.868  30.757  1.00  0.00     0.074 A 
ATOM     59  C   UNL A   1      44.146  28.842  29.667  1.00  0.00     0.031 C 
ATOM     60  C   UNL A   1      45.218  27.082  31.221  1.00  0.00     0.031 A 
BRANCH  47  61
ATOM     61  C   UNL A   1      48.034  29.251  27.186  1.00  0.00    -0.014 A 
ATOM     62  C   UNL A   1      49.305  29.841  27.234  1.00  0.00     0.009 A 
ATOM     63  C   UNL A   1      46.943  30.123  26.987  1.00  0.00     0.009 A 
ATOM     64  C   UNL A   1      49.460  31.231  27.173  1.00  0.00     0.001 A 
ATOM     65  C   UNL A   1      47.096  31.504  26.881  1.00  0.00     0.001 A 
ATOM     66  C   UNL A   1      48.356  32.061  27.007  1.00  0.00     0.000 A 
ENDBRANCH  47  61
BRANCH  48  67
ATOM     67  C   UNL A   1      39.772  27.917  29.100  1.00  0.00    -0.014 A 
ATOM     68  C   UNL A   1      38.794  28.045  30.100  1.00  0.00     0.009 A 
ATOM     69  C   UNL A   1      39.582  28.644  27.910  1.00  0.00     0.009 A 
ATOM     70  C   UNL A   1      37.685  28.889  29.923  1.00  0.00     0.001 A 
ATOM     71  C   UNL A   1      38.477  29.485  27.732  1.00  0.00     0.001 A 
ATOM     72  C   UNL A   1      37.534  29.616  28.744  1.00  0.00     0.000 A 
ENDBRANCH  48  67
BRANCH  60  73
ATOM     73  C   UNL A   1      44.865  25.986  32.199  1.00  0.00    -0.014 A 
ATOM     74  C   UNL A   1      44.616  26.223  33.564  1.00  0.00     0.009 A 
ATOM     75  C   UNL A   1      44.615  24.703  31.692  1.00  0.00     0.009 A 
ATOM     76  C   UNL A   1      44.157  25.198  34.398  1.00  0.00     0.001 A 
ATOM     77  C   UNL A   1      44.138  23.685  32.522  1.00  0.00     0.001 A 
ATOM     78  C   UNL A   1      43.913  23.931  33.874  1.00  0.00     0.000 A 
ENDBRANCH  60  73
ENDBRANCH  34  35
ENDBRANCH  27  29
ENDBRANCH  26  27
ENDBRANCH  25  26
ENDBRANCH   1  25
TORSDOF 15
ENDMDL
MODEL 3
REMARK VINA RESULT:     -11.3      2.772      7.063
REMARK SMILES C[C@@H]1C(C(=O)OCCOCCOC(=O)c2ccc(-c3c4nc(c(-c5ccccc5)c5ccc([nH]5)c(-c5ccccc5)c5nc(c(-c6ccccc6)c6ccc3[nH]6)C=C5)C=C4)cc2)=NC2=C1C(=O)C[C@H](c1ccccc1)C2
REMARK SMILES IDX 10 1 9 2 8 3 7 4 6 5 4 6 5 7 3 8 1 9 2 10 65 11 63 12 64 13
REMARK SMILES IDX 66 14 76 15 67 16 68 17 69 18 70 19 71 20 75 21 72 22 74 23
REMARK SMILES IDX 73 24 11 25 12 26 13 27 14 28 15 29 16 30 62 31 17 32 61 33
REMARK SMILES IDX 18 34 19 35 20 36 55 37 21 38 60 39 54 40 56 41 22 42 59 43
REMARK SMILES IDX 53 44 52 45 23 47 45 48 30 49 44 50 31 51 34 52 43 53 57 54
REMARK SMILES IDX 32 55 33 56 42 58 58 59 35 60 24 61 25 62 29 63 26 64 28 65
REMARK SMILES IDX 27 66 46 67 47 68 51 69 48 70 50 71 49 72 36 73 37 74 41 75
REMARK SMILES IDX 38 76 40 77 39 78
REMARK H PARENT 56 46 34 57
REMARK Flexibility Score: inf
ROOT
ATOM      1  C   UNL A   1      34.338  35.157  28.363  1.00  0.00     0.202 C 
ENDROOT
BRANCH   1   2
ATOM      2  O   UNL A   1      34.666  33.897  27.784  1.00  0.00    -0.374 OA
BRANCH   2   3
ATOM      3  C   UNL A   1      33.796  32.826  28.146  1.00  0.00     0.202 C 
BRANCH   3   4
ATOM      4  C   UNL A   1      34.101  31.524  27.398  1.00  0.00     0.261 C 
BRANCH   4   5
ATOM      5  O   UNL A   1      33.021  30.575  27.556  1.00  0.00    -0.459 OA
BRANCH   5   6
ATOM      6  C   UNL A   1      32.116  30.510  26.550  1.00  0.00     0.353 C 
ATOM      7  O   UNL A   1      31.475  31.429  26.080  1.00  0.00    -0.245 OA
BRANCH   6   8
ATOM      8  C   UNL A   1      32.155  29.116  25.921  1.00  0.00     0.133 C 
ATOM      9  C   UNL A   1      34.231  27.845  26.282  1.00  0.00     0.020 C 
ATOM     10  C   UNL A   1      33.410  28.609  25.243  1.00  0.00     0.078 C 
ATOM     11  C   UNL A   1      32.648  27.689  24.357  1.00  0.00     0.026 C 
ATOM     12  N   UNL A   1      31.118  28.316  25.865  1.00  0.00    -0.249 NA
ATOM     13  C   UNL A   1      31.449  27.420  24.872  1.00  0.00     0.049 C 
ATOM     14  C   UNL A   1      32.844  27.442  22.925  1.00  0.00     0.161 C 
ATOM     15  C   UNL A   1      30.449  26.581  24.137  1.00  0.00     0.065 C 
ATOM     16  O   UNL A   1      33.984  27.426  22.467  1.00  0.00    -0.294 OA
ATOM     17  C   UNL A   1      31.596  27.307  22.026  1.00  0.00     0.089 C 
ATOM     18  C   UNL A   1      30.206  27.206  22.750  1.00  0.00     0.033 C 
BRANCH  18  19
ATOM     19  C   UNL A   1      29.344  28.483  22.808  1.00  0.00    -0.044 A 
ATOM     20  C   UNL A   1      27.982  28.446  23.177  1.00  0.00     0.004 A 
ATOM     21  C   UNL A   1      29.858  29.741  22.461  1.00  0.00     0.004 A 
ATOM     22  C   UNL A   1      27.231  29.603  23.388  1.00  0.00     0.000 A 
ATOM     23  C   UNL A   1      29.093  30.908  22.643  1.00  0.00     0.000 A 
ATOM     24  C   UNL A   1      27.800  30.842  23.156  1.00  0.00     0.000 A 
ENDBRANCH  18  19
ENDBRANCH   6   8
ENDBRANCH   5   6
ENDBRANCH   4   5
ENDBRANCH   3   4
ENDBRANCH   2   3
ENDBRANCH   1   2
BRANCH   1  25
ATOM     25  C   UNL A   1      33.308  35.040  29.475  1.00  0.00     0.261 C 
BRANCH  25  26
ATOM     26  O   UNL A   1      34.000  34.991  30.706  1.00  0.00    -0.460 OA
BRANCH  26  27
ATOM     27  C   UNL A   1      33.263  35.157  31.824  1.00  0.00     0.338 C 
ATOM     28  O   UNL A   1      32.188  35.717  31.949  1.00  0.00    -0.246 OA
BRANCH  27  29
ATOM     29  C   UNL A   1      34.109  34.618  32.906  1.00  0.00     0.060 A 
ATOM     30  C   UNL A   1      35.245  35.398  33.084  1.00  0.00     0.016 A 
ATOM     31  C   UNL A   1      34.133  33.215  33.009  1.00  0.00     0.016 A 
ATOM     32  C   UNL A   1      36.450  34.776  32.873  1.00  0.00     0.010 A 
ATOM     33  C   UNL A   1      35.327  32.604  32.731  1.00  0.00     0.010 A 
ATOM     34  C   UNL A   1      36.450  33.411  32.561  1.00  0.00    -0.014 A 
BRANCH  34  35
ATOM     35  C   UNL A   1      37.708  32.795  32.223  1.00  0.00     0.031 A 
ATOM     36  C   UNL A   1      38.568  32.715  33.418  1.00  0.00     0.074 A 
ATOM     37  C   UNL A   1      38.000  32.258  31.028  1.00  0.00     0.049 A 
ATOM     38  N   UNL A   1      39.473  33.562  33.778  1.00  0.00    -0.248 NA
ATOM     39  C   UNL A   1      38.155  31.771  34.473  1.00  0.00     0.031 C 
ATOM     40  C   UNL A   1      37.133  31.993  29.880  1.00  0.00     0.029 A 
ATOM     41  N   UNL A   1      39.185  31.730  30.639  1.00  0.00    -0.354 N 
ATOM     42  C   UNL A   1      39.885  33.114  35.025  1.00  0.00     0.074 A 
ATOM     43  C   UNL A   1      38.831  32.264  35.509  1.00  0.00     0.031 C 
ATOM     44  C   UNL A   1      37.766  31.131  29.043  1.00  0.00     0.029 A 
ATOM     45  C   UNL A   1      39.113  30.893  29.540  1.00  0.00     0.049 A 
ATOM     46  H   UNL A   1      40.031  31.926  31.103  1.00  0.00     0.167 HD
ATOM     47  C   UNL A   1      41.195  33.142  35.389  1.00  0.00     0.031 A 
ATOM     48  C   UNL A   1      40.075  30.010  29.163  1.00  0.00     0.031 A 
ATOM     49  C   UNL A   1      41.973  33.970  34.502  1.00  0.00     0.049 A 
ATOM     50  C   UNL A   1      41.335  30.404  29.853  1.00  0.00     0.074 A 
ATOM     51  C   UNL A   1      41.944  35.300  34.129  1.00  0.00     0.029 A 
ATOM     52  N   UNL A   1      42.693  33.318  33.527  1.00  0.00    -0.354 N 
ATOM     53  N   UNL A   1      41.974  31.509  29.591  1.00  0.00    -0.248 NA
ATOM     54  C   UNL A   1      41.600  29.832  31.167  1.00  0.00     0.031 C 
ATOM     55  C   UNL A   1      42.242  35.298  32.734  1.00  0.00     0.029 A 
ATOM     56  C   UNL A   1      42.504  33.983  32.344  1.00  0.00     0.049 A 
ATOM     57  H   UNL A   1      43.249  32.515  33.657  1.00  0.00     0.167 HD
ATOM     58  C   UNL A   1      42.366  32.000  30.831  1.00  0.00     0.074 A 
ATOM     59  C   UNL A   1      42.183  30.882  31.757  1.00  0.00     0.031 C 
ATOM     60  C   UNL A   1      42.506  33.342  31.047  1.00  0.00     0.031 A 
BRANCH  47  61
ATOM     61  C   UNL A   1      41.825  32.050  36.222  1.00  0.00    -0.014 A 
ATOM     62  C   UNL A   1      42.568  32.424  37.351  1.00  0.00     0.009 A 
ATOM     63  C   UNL A   1      41.951  30.709  35.802  1.00  0.00     0.009 A 
ATOM     64  C   UNL A   1      43.450  31.527  37.966  1.00  0.00     0.001 A 
ATOM     65  C   UNL A   1      42.795  29.800  36.438  1.00  0.00     0.001 A 
ATOM     66  C   UNL A   1      43.570  30.220  37.503  1.00  0.00     0.000 A 
ENDBRANCH  47  61
BRANCH  48  67
ATOM     67  C   UNL A   1      39.887  28.664  28.574  1.00  0.00    -0.014 A 
ATOM     68  C   UNL A   1      40.485  28.310  27.353  1.00  0.00     0.009 A 
ATOM     69  C   UNL A   1      39.332  27.628  29.350  1.00  0.00     0.009 A 
ATOM     70  C   UNL A   1      40.546  26.970  26.940  1.00  0.00     0.001 A 
ATOM     71  C   UNL A   1      39.392  26.292  28.938  1.00  0.00     0.001 A 
ATOM     72  C   UNL A   1      40.009  25.961  27.738  1.00  0.00     0.000 A 
ENDBRANCH  48  67
BRANCH  60  73
ATOM     73  C   UNL A   1      42.410  34.258  29.849  1.00  0.00    -0.014 A 
ATOM     74  C   UNL A   1      43.477  34.472  28.957  1.00  0.00     0.009 A 
ATOM     75  C   UNL A   1      41.154  34.787  29.521  1.00  0.00     0.009 A 
ATOM     76  C   UNL A   1      43.295  35.217  27.787  1.00  0.00     0.001 A 
ATOM     77  C   UNL A   1      40.969  35.515  28.342  1.00  0.00     0.001 A 
ATOM     78  C   UNL A   1      42.039  35.733  27.478  1.00  0.00     0.000 A 
ENDBRANCH  60  73
ENDBRANCH  34  35
ENDBRANCH  27  29
ENDBRANCH  26  27
ENDBRANCH  25  26
ENDBRANCH   1  25
TORSDOF 15
ENDMDL
