MODEL 1
REMARK VINA RESULT:      -9.0      0.000      0.000
REMARK SMILES CC[C@H](CCO)CNc1cc(C(=O)OCCOCCOC(=O)c2ccc(-c3c4nc(c(-c5ccccc5)c5ccc([nH]5)c(-c5ccccc5)c5nc(c(-c6ccccc6)c6ccc3[nH]6)C=C5)C=C4)cc2)ccn1
REMARK SMILES IDX 15 1 14 2 12 3 13 4 11 5 9 6 10 7 73 8 72 9 71 10 8 11 7 13
REMARK SMILES IDX 3 14 2 15 1 16 4 17 5 18 6 19 16 21 17 22 18 23 19 24 20 25
REMARK SMILES IDX 21 26 22 27 23 28 24 29 70 30 25 31 69 32 26 33 27 34 28 35
REMARK SMILES IDX 63 36 29 37 68 38 62 39 64 40 30 41 67 42 61 43 60 44 31 46
REMARK SMILES IDX 53 47 38 48 52 49 39 50 42 51 51 52 65 53 40 54 41 55 50 57
REMARK SMILES IDX 66 58 43 59 32 60 33 61 37 62 34 63 36 64 35 65 54 66 55 67
REMARK SMILES IDX 59 68 56 69 58 70 57 71 44 72 45 73 49 74 46 75 48 76 47 77
REMARK H PARENT 8 12 6 20 64 45 42 56
REMARK Flexibility Score: inf
ROOT
ATOM      1  C   UNL A   1      33.135  31.555  27.550  1.00  0.00     0.261 C 
ENDROOT
BRANCH   1   2
ATOM      2  O   UNL A   1      33.573  30.697  26.488  1.00  0.00    -0.460 OA
BRANCH   2   3
ATOM      3  C   UNL A   1      33.180  29.405  26.600  1.00  0.00     0.338 C 
ATOM      4  O   UNL A   1      33.043  28.765  27.631  1.00  0.00    -0.246 OA
BRANCH   3   5
ATOM      5  C   UNL A   1      32.769  28.892  25.279  1.00  0.00     0.065 A 
ATOM      6  C   UNL A   1      31.682  29.116  23.171  1.00  0.00     0.126 A 
ATOM      7  C   UNL A   1      31.942  29.623  24.431  1.00  0.00     0.062 A 
ATOM      8  N   UNL A   1      32.093  27.888  22.800  1.00  0.00    -0.240 NA
ATOM      9  C   UNL A   1      32.840  27.168  23.664  1.00  0.00     0.114 A 
ATOM     10  C   UNL A   1      33.228  27.635  24.898  1.00  0.00     0.036 A 
BRANCH   6  11
ATOM     11  N   UNL A   1      31.035  29.807  22.179  1.00  0.00    -0.370 N 
ATOM     12  H   UNL A   1      31.577  30.361  21.573  1.00  0.00     0.162 HD
BRANCH  11  13
ATOM     13  C   UNL A   1      29.600  29.772  21.971  1.00  0.00     0.118 C 
BRANCH  13  14
ATOM     14  C   UNL A   1      28.865  30.805  22.839  1.00  0.00     0.010 C 
BRANCH  14  15
ATOM     15  C   UNL A   1      27.468  30.251  23.235  1.00  0.00     0.002 C 
ATOM     16  C   UNL A   1      27.314  28.740  23.051  1.00  0.00     0.004 C 
ENDBRANCH  14  15
BRANCH  14  17
ATOM     17  C   UNL A   1      28.694  32.235  22.264  1.00  0.00     0.033 C 
BRANCH  17  18
ATOM     18  C   UNL A   1      29.234  33.416  23.058  1.00  0.00     0.156 C 
BRANCH  18  19
ATOM     19  O   UNL A   1      29.949  32.978  24.204  1.00  0.00    -0.396 OA
ATOM     20  H   UNL A   1      29.471  32.246  24.622  1.00  0.00     0.210 HD
ENDBRANCH  18  19
ENDBRANCH  17  18
ENDBRANCH  14  17
ENDBRANCH  13  14
ENDBRANCH  11  13
ENDBRANCH   6  11
ENDBRANCH   3   5
ENDBRANCH   2   3
ENDBRANCH   1   2
BRANCH   1  21
ATOM     21  C   UNL A   1      34.322  32.133  28.328  1.00  0.00     0.202 C 
BRANCH  21  22
ATOM     22  O   UNL A   1      34.048  33.184  29.251  1.00  0.00    -0.374 OA
BRANCH  22  23
ATOM     23  C   UNL A   1      34.035  34.521  28.749  1.00  0.00     0.202 C 
BRANCH  23  24
ATOM     24  C   UNL A   1      33.089  35.523  29.418  1.00  0.00     0.261 C 
BRANCH  24  25
ATOM     25  O   UNL A   1      32.460  34.985  30.594  1.00  0.00    -0.460 OA
BRANCH  25  26
ATOM     26  C   UNL A   1      32.805  35.606  31.747  1.00  0.00     0.338 C 
ATOM     27  O   UNL A   1      32.207  36.505  32.315  1.00  0.00    -0.246 OA
BRANCH  26  28
ATOM     28  C   UNL A   1      33.952  34.913  32.360  1.00  0.00     0.060 A 
ATOM     29  C   UNL A   1      35.202  35.541  32.287  1.00  0.00     0.016 A 
ATOM     30  C   UNL A   1      33.824  33.643  32.923  1.00  0.00     0.016 A 
ATOM     31  C   UNL A   1      36.342  34.876  32.731  1.00  0.00     0.010 A 
ATOM     32  C   UNL A   1      34.970  32.975  33.361  1.00  0.00     0.010 A 
ATOM     33  C   UNL A   1      36.238  33.572  33.234  1.00  0.00    -0.014 A 
BRANCH  33  34
ATOM     34  C   UNL A   1      37.467  32.788  33.496  1.00  0.00     0.031 A 
ATOM     35  C   UNL A   1      38.223  33.017  34.777  1.00  0.00     0.074 A 
ATOM     36  C   UNL A   1      37.893  31.867  32.615  1.00  0.00     0.049 A 
ATOM     37  N   UNL A   1      39.340  32.472  35.188  1.00  0.00    -0.248 NA
ATOM     38  C   UNL A   1      37.645  33.990  35.717  1.00  0.00     0.031 C 
ATOM     39  C   UNL A   1      37.224  31.520  31.362  1.00  0.00     0.029 A 
ATOM     40  N   UNL A   1      39.000  31.056  32.643  1.00  0.00    -0.354 N 
ATOM     41  C   UNL A   1      39.605  33.048  36.424  1.00  0.00     0.074 A 
ATOM     42  C   UNL A   1      38.551  34.003  36.684  1.00  0.00     0.031 C 
ATOM     43  C   UNL A   1      37.938  30.570  30.736  1.00  0.00     0.029 A 
ATOM     44  C   UNL A   1      39.132  30.271  31.523  1.00  0.00     0.049 A 
ATOM     45  H   UNL A   1      39.638  31.039  33.393  1.00  0.00     0.167 HD
ATOM     46  C   UNL A   1      40.634  32.798  37.271  1.00  0.00     0.031 A 
ATOM     47  C   UNL A   1      40.118  29.427  31.163  1.00  0.00     0.031 A 
ATOM     48  C   UNL A   1      41.688  31.856  37.006  1.00  0.00     0.049 A 
ATOM     49  C   UNL A   1      41.292  29.229  32.085  1.00  0.00     0.074 A 
ATOM     50  C   UNL A   1      42.762  31.517  37.811  1.00  0.00     0.029 A 
ATOM     51  N   UNL A   1      41.808  31.110  35.844  1.00  0.00    -0.354 N 
ATOM     52  N   UNL A   1      41.518  29.755  33.264  1.00  0.00    -0.248 NA
ATOM     53  C   UNL A   1      42.344  28.310  31.626  1.00  0.00     0.031 C 
ATOM     54  C   UNL A   1      43.568  30.618  37.105  1.00  0.00     0.029 A 
ATOM     55  C   UNL A   1      42.956  30.337  35.895  1.00  0.00     0.049 A 
ATOM     56  H   UNL A   1      41.170  31.127  35.094  1.00  0.00     0.167 HD
ATOM     57  C   UNL A   1      42.718  29.208  33.702  1.00  0.00     0.074 A 
ATOM     58  C   UNL A   1      43.164  28.297  32.668  1.00  0.00     0.031 C 
ATOM     59  C   UNL A   1      43.390  29.437  34.857  1.00  0.00     0.031 A 
BRANCH  46  60
ATOM     60  C   UNL A   1      40.689  33.590  38.549  1.00  0.00    -0.014 A 
ATOM     61  C   UNL A   1      41.339  34.833  38.618  1.00  0.00     0.009 A 
ATOM     62  C   UNL A   1      40.045  33.099  39.696  1.00  0.00     0.009 A 
ATOM     63  C   UNL A   1      41.374  35.548  39.817  1.00  0.00     0.001 A 
ATOM     64  C   UNL A   1      40.052  33.832  40.884  1.00  0.00     0.001 A 
ATOM     65  C   UNL A   1      40.726  35.051  40.947  1.00  0.00     0.000 A 
ENDBRANCH  46  60
BRANCH  47  66
ATOM     66  C   UNL A   1      40.053  28.721  29.856  1.00  0.00    -0.014 A 
ATOM     67  C   UNL A   1      40.513  29.338  28.683  1.00  0.00     0.009 A 
ATOM     68  C   UNL A   1      39.508  27.429  29.774  1.00  0.00     0.009 A 
ATOM     69  C   UNL A   1      40.403  28.687  27.451  1.00  0.00     0.001 A 
ATOM     70  C   UNL A   1      39.430  26.767  28.547  1.00  0.00     0.001 A 
ATOM     71  C   UNL A   1      39.867  27.402  27.385  1.00  0.00     0.000 A 
ENDBRANCH  47  66
BRANCH  59  72
ATOM     72  C   UNL A   1      44.656  28.657  35.088  1.00  0.00    -0.014 A 
ATOM     73  C   UNL A   1      45.909  29.162  34.708  1.00  0.00     0.009 A 
ATOM     74  C   UNL A   1      44.595  27.413  35.737  1.00  0.00     0.009 A 
ATOM     75  C   UNL A   1      47.070  28.419  34.939  1.00  0.00     0.001 A 
ATOM     76  C   UNL A   1      45.758  26.689  35.998  1.00  0.00     0.001 A 
ATOM     77  C   UNL A   1      46.993  27.187  35.589  1.00  0.00     0.000 A 
ENDBRANCH  59  72
ENDBRANCH  33  34
ENDBRANCH  26  28
ENDBRANCH  25  26
ENDBRANCH  24  25
ENDBRANCH  23  24
ENDBRANCH  22  23
ENDBRANCH  21  22
ENDBRANCH   1  21
TORSDOF 21
ENDMDL
MODEL 2
REMARK VINA RESULT:      -8.9      1.543      2.487
REMARK SMILES CC[C@H](CCO)CNc1cc(C(=O)OCCOCCOC(=O)c2ccc(-c3c4nc(c(-c5ccccc5)c5ccc([nH]5)c(-c5ccccc5)c5nc(c(-c6ccccc6)c6ccc3[nH]6)C=C5)C=C4)cc2)ccn1
REMARK SMILES IDX 15 1 14 2 12 3 13 4 11 5 9 6 10 7 73 8 72 9 71 10 8 11 7 13
REMARK SMILES IDX 3 14 2 15 1 16 4 17 5 18 6 19 16 21 17 22 18 23 19 24 20 25
REMARK SMILES IDX 21 26 22 27 23 28 24 29 70 30 25 31 69 32 26 33 27 34 28 35
REMARK SMILES IDX 63 36 29 37 68 38 62 39 64 40 30 41 67 42 61 43 60 44 31 46
REMARK SMILES IDX 53 47 38 48 52 49 39 50 42 51 51 52 65 53 40 54 41 55 50 57
REMARK SMILES IDX 66 58 43 59 32 60 33 61 37 62 34 63 36 64 35 65 54 66 55 67
REMARK SMILES IDX 59 68 56 69 58 70 57 71 44 72 45 73 49 74 46 75 48 76 47 77
REMARK H PARENT 8 12 6 20 64 45 42 56
REMARK Flexibility Score: inf
ROOT
ATOM      1  C   UNL A   1      34.502  31.962  28.037  1.00  0.00     0.261 C 
ENDROOT
BRANCH   1   2
ATOM      2  O   UNL A   1      33.853  30.693  28.194  1.00  0.00    -0.460 OA
BRANCH   2   3
ATOM      3  C   UNL A   1      32.872  30.439  27.295  1.00  0.00     0.338 C 
ATOM      4  O   UNL A   1      32.149  31.255  26.745  1.00  0.00    -0.246 OA
BRANCH   3   5
ATOM      5  C   UNL A   1      32.891  29.010  26.925  1.00  0.00     0.065 A 
ATOM      6  C   UNL A   1      31.870  26.867  26.723  1.00  0.00     0.126 A 
ATOM      7  C   UNL A   1      31.813  28.168  27.187  1.00  0.00     0.062 A 
ATOM      8  N   UNL A   1      32.981  26.364  26.150  1.00  0.00    -0.240 NA
ATOM      9  C   UNL A   1      34.038  27.181  25.965  1.00  0.00     0.114 A 
ATOM     10  C   UNL A   1      34.033  28.513  26.306  1.00  0.00     0.036 A 
BRANCH   6  11
ATOM     11  N   UNL A   1      30.816  25.990  26.755  1.00  0.00    -0.370 N 
ATOM     12  H   UNL A   1      30.730  25.398  27.536  1.00  0.00     0.162 HD
BRANCH  11  13
ATOM     13  C   UNL A   1      29.821  25.881  25.705  1.00  0.00     0.118 C 
BRANCH  13  14
ATOM     14  C   UNL A   1      30.448  25.960  24.304  1.00  0.00     0.010 C 
BRANCH  14  15
ATOM     15  C   UNL A   1      29.757  27.089  23.489  1.00  0.00     0.002 C 
ATOM     16  C   UNL A   1      30.349  28.481  23.712  1.00  0.00     0.004 C 
ENDBRANCH  14  15
BRANCH  14  17
ATOM     17  C   UNL A   1      30.470  24.665  23.453  1.00  0.00     0.033 C 
BRANCH  17  18
ATOM     18  C   UNL A   1      31.812  24.093  23.018  1.00  0.00     0.156 C 
BRANCH  18  19
ATOM     19  O   UNL A   1      32.885  24.753  23.672  1.00  0.00    -0.396 OA
ATOM     20  H   UNL A   1      32.598  25.042  24.552  1.00  0.00     0.210 HD
ENDBRANCH  18  19
ENDBRANCH  17  18
ENDBRANCH  14  17
ENDBRANCH  13  14
ENDBRANCH  11  13
ENDBRANCH   6  11
ENDBRANCH   3   5
ENDBRANCH   2   3
ENDBRANCH   1   2
BRANCH   1  21
ATOM     21  C   UNL A   1      34.498  32.757  29.346  1.00  0.00     0.202 C 
BRANCH  21  22
ATOM     22  O   UNL A   1      35.057  34.068  29.315  1.00  0.00    -0.374 OA
BRANCH  22  23
ATOM     23  C   UNL A   1      34.219  35.136  28.871  1.00  0.00     0.202 C 
BRANCH  23  24
ATOM     24  C   UNL A   1      32.942  35.418  29.670  1.00  0.00     0.261 C 
BRANCH  24  25
ATOM     25  O   UNL A   1      33.196  36.185  30.860  1.00  0.00    -0.460 OA
BRANCH  25  26
ATOM     26  C   UNL A   1      32.835  35.569  32.010  1.00  0.00     0.338 C 
ATOM     27  O   UNL A   1      31.710  35.438  32.462  1.00  0.00    -0.246 OA
BRANCH  26  28
ATOM     28  C   UNL A   1      34.002  34.883  32.593  1.00  0.00     0.060 A 
ATOM     29  C   UNL A   1      35.247  35.517  32.482  1.00  0.00     0.016 A 
ATOM     30  C   UNL A   1      33.896  33.615  33.165  1.00  0.00     0.016 A 
ATOM     31  C   UNL A   1      36.403  34.859  32.896  1.00  0.00     0.010 A 
ATOM     32  C   UNL A   1      35.058  32.954  33.573  1.00  0.00     0.010 A 
ATOM     33  C   UNL A   1      36.319  33.557  33.407  1.00  0.00    -0.014 A 
BRANCH  33  34
ATOM     34  C   UNL A   1      37.558  32.779  33.637  1.00  0.00     0.031 A 
ATOM     35  C   UNL A   1      38.336  32.999  34.906  1.00  0.00     0.074 A 
ATOM     36  C   UNL A   1      37.976  31.872  32.737  1.00  0.00     0.049 A 
ATOM     37  N   UNL A   1      39.465  32.458  35.290  1.00  0.00    -0.248 NA
ATOM     38  C   UNL A   1      37.768  33.956  35.868  1.00  0.00     0.031 C 
ATOM     39  C   UNL A   1      37.286  31.535  31.492  1.00  0.00     0.029 A 
ATOM     40  N   UNL A   1      39.089  31.070  32.734  1.00  0.00    -0.354 N 
ATOM     41  C   UNL A   1      39.748  33.021  36.528  1.00  0.00     0.074 A 
ATOM     42  C   UNL A   1      38.691  33.965  36.818  1.00  0.00     0.031 C 
ATOM     43  C   UNL A   1      37.996  30.598  30.842  1.00  0.00     0.029 A 
ATOM     44  C   UNL A   1      39.206  30.300  31.603  1.00  0.00     0.049 A 
ATOM     45  H   UNL A   1      39.741  31.049  33.472  1.00  0.00     0.167 HD
ATOM     46  C   UNL A   1      40.794  32.770  37.352  1.00  0.00     0.031 A 
ATOM     47  C   UNL A   1      40.193  29.468  31.215  1.00  0.00     0.031 A 
ATOM     48  C   UNL A   1      41.851  31.839  37.057  1.00  0.00     0.049 A 
ATOM     49  C   UNL A   1      41.385  29.268  32.113  1.00  0.00     0.074 A 
ATOM     50  C   UNL A   1      42.942  31.500  37.838  1.00  0.00     0.029 A 
ATOM     51  N   UNL A   1      41.955  31.109  35.884  1.00  0.00    -0.354 N 
ATOM     52  N   UNL A   1      41.628  29.782  33.294  1.00  0.00    -0.248 NA
ATOM     53  C   UNL A   1      42.435  28.363  31.624  1.00  0.00     0.031 C 
ATOM     54  C   UNL A   1      43.742  30.615  37.107  1.00  0.00     0.029 A 
ATOM     55  C   UNL A   1      43.110  30.345  35.904  1.00  0.00     0.049 A 
ATOM     56  H   UNL A   1      41.303  31.129  35.146  1.00  0.00     0.167 HD
ATOM     57  C   UNL A   1      42.840  29.239  33.703  1.00  0.00     0.074 A 
ATOM     58  C   UNL A   1      43.274  28.345  32.650  1.00  0.00     0.031 C 
ATOM     59  C   UNL A   1      43.531  29.460  34.848  1.00  0.00     0.031 A 
BRANCH  46  60
ATOM     60  C   UNL A   1      40.866  33.547  38.639  1.00  0.00    -0.014 A 
ATOM     61  C   UNL A   1      41.511  34.792  38.712  1.00  0.00     0.009 A 
ATOM     62  C   UNL A   1      40.245  33.039  39.791  1.00  0.00     0.009 A 
ATOM     63  C   UNL A   1      41.562  35.494  39.918  1.00  0.00     0.001 A 
ATOM     64  C   UNL A   1      40.268  33.757  40.987  1.00  0.00     0.001 A 
ATOM     65  C   UNL A   1      40.936  34.979  41.053  1.00  0.00     0.000 A 
ENDBRANCH  46  60
BRANCH  47  66
ATOM     66  C   UNL A   1      40.108  28.777  29.901  1.00  0.00    -0.014 A 
ATOM     67  C   UNL A   1      40.540  29.412  28.727  1.00  0.00     0.009 A 
ATOM     68  C   UNL A   1      39.574  27.482  29.813  1.00  0.00     0.009 A 
ATOM     69  C   UNL A   1      40.413  28.775  27.490  1.00  0.00     0.001 A 
ATOM     70  C   UNL A   1      39.479  26.834  28.581  1.00  0.00     0.001 A 
ATOM     71  C   UNL A   1      39.888  27.486  27.418  1.00  0.00     0.000 A 
ENDBRANCH  47  66
BRANCH  59  72
ATOM     72  C   UNL A   1      44.807  28.688  35.046  1.00  0.00    -0.014 A 
ATOM     73  C   UNL A   1      44.813  27.419  35.647  1.00  0.00     0.009 A 
ATOM     74  C   UNL A   1      46.020  29.223  34.584  1.00  0.00     0.009 A 
ATOM     75  C   UNL A   1      46.012  26.721  35.814  1.00  0.00     0.001 A 
ATOM     76  C   UNL A   1      47.211  28.510  34.720  1.00  0.00     0.001 A 
ATOM     77  C   UNL A   1      47.208  27.264  35.345  1.00  0.00     0.000 A 
ENDBRANCH  59  72
ENDBRANCH  33  34
ENDBRANCH  26  28
ENDBRANCH  25  26
ENDBRANCH  24  25
ENDBRANCH  23  24
ENDBRANCH  22  23
ENDBRANCH  21  22
ENDBRANCH   1  21
TORSDOF 21
ENDMDL
MODEL 3
REMARK VINA RESULT:      -8.8      5.993     10.540
REMARK SMILES CC[C@H](CCO)CNc1cc(C(=O)OCCOCCOC(=O)c2ccc(-c3c4nc(c(-c5ccccc5)c5ccc([nH]5)c(-c5ccccc5)c5nc(c(-c6ccccc6)c6ccc3[nH]6)C=C5)C=C4)cc2)ccn1
REMARK SMILES IDX 15 1 14 2 12 3 13 4 11 5 9 6 10 7 73 8 72 9 71 10 8 11 7 13
REMARK SMILES IDX 3 14 2 15 1 16 4 17 5 18 6 19 16 21 17 22 18 23 19 24 20 25
REMARK SMILES IDX 21 26 22 27 23 28 24 29 70 30 25 31 69 32 26 33 27 34 28 35
REMARK SMILES IDX 63 36 29 37 68 38 62 39 64 40 30 41 67 42 61 43 60 44 31 46
REMARK SMILES IDX 53 47 38 48 52 49 39 50 42 51 51 52 65 53 40 54 41 55 50 57
REMARK SMILES IDX 66 58 43 59 32 60 33 61 37 62 34 63 36 64 35 65 54 66 55 67
REMARK SMILES IDX 59 68 56 69 58 70 57 71 44 72 45 73 49 74 46 75 48 76 47 77
REMARK H PARENT 8 12 6 20 64 45 42 56
REMARK Flexibility Score: inf
ROOT
ATOM      1  C   UNL A   1      36.782  22.889  25.558  1.00  0.00     0.261 C 
ENDROOT
BRANCH   1   2
ATOM      2  O   UNL A   1      35.611  22.491  24.832  1.00  0.00    -0.460 OA
BRANCH   2   3
ATOM      3  C   UNL A   1      35.463  23.078  23.620  1.00  0.00     0.338 C 
ATOM      4  O   UNL A   1      36.300  23.158  22.735  1.00  0.00    -0.246 OA
BRANCH   3   5
ATOM      5  C   UNL A   1      34.057  23.486  23.431  1.00  0.00     0.065 A 
ATOM      6  C   UNL A   1      32.369  25.115  23.017  1.00  0.00     0.126 A 
ATOM      7  C   UNL A   1      33.692  24.823  23.287  1.00  0.00     0.062 A 
ATOM      8  N   UNL A   1      31.414  24.164  23.023  1.00  0.00    -0.240 NA
ATOM      9  C   UNL A   1      31.782  22.882  23.230  1.00  0.00     0.114 A 
ATOM     10  C   UNL A   1      33.087  22.489  23.408  1.00  0.00     0.036 A 
BRANCH   6  11
ATOM     11  N   UNL A   1      31.907  26.361  22.680  1.00  0.00    -0.370 N 
ATOM     12  H   UNL A   1      31.494  26.478  21.795  1.00  0.00     0.162 HD
BRANCH  11  13
ATOM     13  C   UNL A   1      31.991  27.519  23.550  1.00  0.00     0.118 C 
BRANCH  13  14
ATOM     14  C   UNL A   1      30.603  28.062  23.926  1.00  0.00     0.010 C 
BRANCH  14  15
ATOM     15  C   UNL A   1      29.507  27.226  23.209  1.00  0.00     0.002 C 
ATOM     16  C   UNL A   1      28.660  26.362  24.145  1.00  0.00     0.004 C 
ENDBRANCH  14  15
BRANCH  14  17
ATOM     17  C   UNL A   1      30.330  29.568  23.679  1.00  0.00     0.033 C 
BRANCH  17  18
ATOM     18  C   UNL A   1      29.693  29.994  22.363  1.00  0.00     0.156 C 
BRANCH  18  19
ATOM     19  O   UNL A   1      30.657  30.051  21.323  1.00  0.00    -0.396 OA
ATOM     20  H   UNL A   1      30.851  29.153  21.013  1.00  0.00     0.210 HD
ENDBRANCH  18  19
ENDBRANCH  17  18
ENDBRANCH  14  17
ENDBRANCH  13  14
ENDBRANCH  11  13
ENDBRANCH   6  11
ENDBRANCH   3   5
ENDBRANCH   2   3
ENDBRANCH   1   2
BRANCH   1  21
ATOM     21  C   UNL A   1      37.902  21.853  25.422  1.00  0.00     0.202 C 
BRANCH  21  22
ATOM     22  O   UNL A   1      37.533  20.546  24.988  1.00  0.00    -0.374 OA
BRANCH  22  23
ATOM     23  C   UNL A   1      38.496  19.502  25.133  1.00  0.00     0.202 C 
BRANCH  23  24
ATOM     24  C   UNL A   1      39.821  19.847  25.822  1.00  0.00     0.261 C 
BRANCH  24  25
ATOM     25  O   UNL A   1      40.726  18.731  25.862  1.00  0.00    -0.460 OA
BRANCH  25  26
ATOM     26  C   UNL A   1      42.035  19.074  25.917  1.00  0.00     0.338 C 
ATOM     27  O   UNL A   1      42.990  18.429  25.516  1.00  0.00    -0.246 OA
BRANCH  26  28
ATOM     28  C   UNL A   1      42.164  20.467  26.380  1.00  0.00     0.060 A 
ATOM     29  C   UNL A   1      42.374  21.454  25.408  1.00  0.00     0.016 A 
ATOM     30  C   UNL A   1      42.159  20.791  27.737  1.00  0.00     0.016 A 
ATOM     31  C   UNL A   1      42.634  22.767  25.794  1.00  0.00     0.010 A 
ATOM     32  C   UNL A   1      42.428  22.108  28.122  1.00  0.00     0.010 A 
ATOM     33  C   UNL A   1      42.703  23.093  27.155  1.00  0.00    -0.014 A 
BRANCH  33  34
ATOM     34  C   UNL A   1      43.195  24.429  27.565  1.00  0.00     0.031 A 
ATOM     35  C   UNL A   1      42.201  25.487  27.959  1.00  0.00     0.074 A 
ATOM     36  C   UNL A   1      44.513  24.690  27.606  1.00  0.00     0.049 A 
ATOM     37  N   UNL A   1      42.410  26.731  28.309  1.00  0.00    -0.248 NA
ATOM     38  C   UNL A   1      40.783  25.091  27.956  1.00  0.00     0.031 C 
ATOM     39  C   UNL A   1      45.576  23.736  27.293  1.00  0.00     0.029 A 
ATOM     40  N   UNL A   1      45.179  25.845  27.927  1.00  0.00    -0.354 N 
ATOM     41  C   UNL A   1      41.152  27.269  28.551  1.00  0.00     0.074 A 
ATOM     42  C   UNL A   1      40.185  26.228  28.281  1.00  0.00     0.031 C 
ATOM     43  C   UNL A   1      46.764  24.348  27.431  1.00  0.00     0.029 A 
ATOM     44  C   UNL A   1      46.544  25.743  27.803  1.00  0.00     0.049 A 
ATOM     45  H   UNL A   1      44.724  26.669  28.218  1.00  0.00     0.167 HD
ATOM     46  C   UNL A   1      40.832  28.518  28.967  1.00  0.00     0.031 A 
ATOM     47  C   UNL A   1      47.503  26.678  27.948  1.00  0.00     0.031 A 
ATOM     48  C   UNL A   1      41.795  29.556  29.225  1.00  0.00     0.049 A 
ATOM     49  C   UNL A   1      47.115  28.081  28.331  1.00  0.00     0.074 A 
ATOM     50  C   UNL A   1      41.571  30.847  29.670  1.00  0.00     0.029 A 
ATOM     51  N   UNL A   1      43.163  29.425  29.050  1.00  0.00    -0.354 N 
ATOM     52  N   UNL A   1      45.926  28.571  28.587  1.00  0.00    -0.248 NA
ATOM     53  C   UNL A   1      48.206  29.058  28.454  1.00  0.00     0.031 C 
ATOM     54  C   UNL A   1      42.798  31.518  29.697  1.00  0.00     0.029 A 
ATOM     55  C   UNL A   1      43.794  30.622  29.344  1.00  0.00     0.049 A 
ATOM     56  H   UNL A   1      43.620  28.602  28.758  1.00  0.00     0.167 HD
ATOM     57  C   UNL A   1      46.129  29.902  28.932  1.00  0.00     0.074 A 
ATOM     58  C   UNL A   1      47.556  30.137  28.868  1.00  0.00     0.031 C 
ATOM     59  C   UNL A   1      45.216  30.844  29.274  1.00  0.00     0.031 A 
BRANCH  46  60
ATOM     60  C   UNL A   1      39.372  28.843  29.131  1.00  0.00    -0.014 A 
ATOM     61  C   UNL A   1      38.712  28.668  30.358  1.00  0.00     0.009 A 
ATOM     62  C   UNL A   1      38.653  29.368  28.045  1.00  0.00     0.009 A 
ATOM     63  C   UNL A   1      37.356  28.979  30.483  1.00  0.00     0.001 A 
ATOM     64  C   UNL A   1      37.307  29.710  28.181  1.00  0.00     0.001 A 
ATOM     65  C   UNL A   1      36.656  29.504  29.398  1.00  0.00     0.000 A 
ENDBRANCH  46  60
BRANCH  47  66
ATOM     66  C   UNL A   1      48.927  26.325  27.706  1.00  0.00    -0.014 A 
ATOM     67  C   UNL A   1      49.769  25.969  28.771  1.00  0.00     0.009 A 
ATOM     68  C   UNL A   1      49.458  26.362  26.407  1.00  0.00     0.009 A 
ATOM     69  C   UNL A   1      51.118  25.686  28.542  1.00  0.00     0.001 A 
ATOM     70  C   UNL A   1      50.797  26.045  26.176  1.00  0.00     0.001 A 
ATOM     71  C   UNL A   1      51.630  25.719  27.246  1.00  0.00     0.000 A 
ENDBRANCH  47  66
BRANCH  59  72
ATOM     72  C   UNL A   1      45.734  32.205  29.651  1.00  0.00    -0.014 A 
ATOM     73  C   UNL A   1      46.082  32.519  30.974  1.00  0.00     0.009 A 
ATOM     74  C   UNL A   1      45.917  33.177  28.654  1.00  0.00     0.009 A 
ATOM     75  C   UNL A   1      46.566  33.790  31.295  1.00  0.00     0.001 A 
ATOM     76  C   UNL A   1      46.433  34.434  28.971  1.00  0.00     0.001 A 
ATOM     77  C   UNL A   1      46.746  34.743  30.293  1.00  0.00     0.000 A 
ENDBRANCH  59  72
ENDBRANCH  33  34
ENDBRANCH  26  28
ENDBRANCH  25  26
ENDBRANCH  24  25
ENDBRANCH  23  24
ENDBRANCH  22  23
ENDBRANCH  21  22
ENDBRANCH   1  21
TORSDOF 21
ENDMDL
