MODEL 1
REMARK VINA RESULT:     -11.2      0.000      0.000
REMARK SMILES Cc1n[nH]c(C[N@H+]2CCC[C@H](c3cccc(C(=O)OCCOCCOC(=O)c4ccc(-c5c6nc(c(-c7ccccc7)c7ccc([nH]7)c(-c7ccccc7)c7nc(c(-c8ccccc8)c8ccc5[nH]8)C=C7)C=C6)cc4)c3)C2)n1
REMARK SMILES IDX 21 1 20 2 19 3 17 4 18 5 16 6 12 7 13 8 76 9 14 10 15 11
REMARK SMILES IDX 11 12 7 13 8 14 77 15 9 17 10 18 6 19 5 20 1 21 2 22 3 23
REMARK SMILES IDX 78 24 4 25 22 27 23 28 24 29 25 30 26 31 27 32 28 33 29 34
REMARK SMILES IDX 75 35 30 36 74 37 31 38 32 39 33 40 68 41 34 42 73 43 67 44
REMARK SMILES IDX 69 45 35 46 72 47 66 48 65 49 36 51 58 52 43 53 57 54 44 55
REMARK SMILES IDX 47 56 56 57 70 58 45 59 46 60 55 62 71 63 48 64 37 65 38 66
REMARK SMILES IDX 42 67 39 68 41 69 40 70 59 71 60 72 64 73 61 74 63 75 62 76
REMARK SMILES IDX 49 77 50 78 54 79 51 80 53 81 52 82
REMARK H PARENT 7 16 4 26 69 50 47 61
REMARK Flexibility Score: inf
ROOT
ATOM      1  C   UNL A   1      40.419  21.103  26.706  1.00  0.00     0.202 C 
ENDROOT
BRANCH   1   2
ATOM      2  C   UNL A   1      39.540  22.167  26.045  1.00  0.00     0.261 C 
BRANCH   2   3
ATOM      3  O   UNL A   1      38.148  21.825  26.097  1.00  0.00    -0.460 OA
BRANCH   3   4
ATOM      4  C   UNL A   1      37.718  21.064  25.059  1.00  0.00     0.338 C 
ATOM      5  O   UNL A   1      38.127  19.963  24.734  1.00  0.00    -0.246 OA
BRANCH   4   6
ATOM      6  C   UNL A   1      36.500  21.667  24.481  1.00  0.00     0.060 A 
ATOM      7  C   UNL A   1      34.085  21.856  24.318  1.00  0.00    -0.038 A 
ATOM      8  C   UNL A   1      34.272  22.911  23.406  1.00  0.00     0.004 A 
ATOM      9  C   UNL A   1      35.226  21.187  24.791  1.00  0.00     0.020 A 
ATOM     10  C   UNL A   1      35.546  23.356  23.055  1.00  0.00     0.001 A 
ATOM     11  C   UNL A   1      36.662  22.756  23.620  1.00  0.00     0.016 A 
BRANCH   7  12
ATOM     12  C   UNL A   1      32.700  21.463  24.843  1.00  0.00     0.074 C 
ATOM     13  N   UNL A   1      32.006  23.701  25.736  1.00  0.00    -0.328 N 
ATOM     14  C   UNL A   1      32.114  23.245  27.126  1.00  0.00     0.262 C 
ATOM     15  C   UNL A   1      31.641  22.595  24.823  1.00  0.00     0.270 C 
ATOM     16  H   UNL A   1      32.938  24.018  25.466  1.00  0.00     0.348 HD
ATOM     17  C   UNL A   1      33.089  22.073  27.270  1.00  0.00     0.062 C 
ATOM     18  C   UNL A   1      32.747  20.942  26.300  1.00  0.00     0.020 C 
BRANCH  13  19
ATOM     19  C   UNL A   1      31.131  24.875  25.575  1.00  0.00     0.340 C 
BRANCH  19  20
ATOM     20  C   UNL A   1      31.478  25.741  24.414  1.00  0.00     0.179 A 
ATOM     21  C   UNL A   1      33.571  27.192  21.989  1.00  0.00     0.092 C 
ATOM     22  C   UNL A   1      32.454  26.728  22.830  1.00  0.00     0.147 A 
ATOM     23  N   UNL A   1      31.175  26.739  22.437  1.00  0.00    -0.159 NA
ATOM     24  N   UNL A   1      32.671  26.175  24.060  1.00  0.00    -0.211 NA
ATOM     25  N   UNL A   1      30.572  26.126  23.469  1.00  0.00    -0.258 N 
ATOM     26  H   UNL A   1      29.602  25.974  23.536  1.00  0.00     0.192 HD
ENDBRANCH  19  20
ENDBRANCH  13  19
ENDBRANCH   7  12
ENDBRANCH   4   6
ENDBRANCH   3   4
ENDBRANCH   2   3
ENDBRANCH   1   2
BRANCH   1  27
ATOM     27  O   UNL A   1      41.569  20.623  26.007  1.00  0.00    -0.374 OA
BRANCH  27  28
ATOM     28  C   UNL A   1      42.264  19.470  26.469  1.00  0.00     0.202 C 
BRANCH  28  29
ATOM     29  C   UNL A   1      43.254  18.785  25.539  1.00  0.00     0.261 C 
BRANCH  29  30
ATOM     30  O   UNL A   1      44.438  19.544  25.380  1.00  0.00    -0.460 OA
BRANCH  30  31
ATOM     31  C   UNL A   1      44.599  20.037  24.131  1.00  0.00     0.338 C 
ATOM     32  O   UNL A   1      44.522  19.435  23.078  1.00  0.00    -0.246 OA
BRANCH  31  33
ATOM     33  C   UNL A   1      45.051  21.428  24.244  1.00  0.00     0.060 A 
ATOM     34  C   UNL A   1      46.077  21.642  25.166  1.00  0.00     0.016 A 
ATOM     35  C   UNL A   1      44.183  22.445  23.829  1.00  0.00     0.016 A 
ATOM     36  C   UNL A   1      46.019  22.784  25.924  1.00  0.00     0.010 A 
ATOM     37  C   UNL A   1      44.101  23.563  24.611  1.00  0.00     0.010 A 
ATOM     38  C   UNL A   1      44.951  23.657  25.710  1.00  0.00    -0.014 A 
BRANCH  38  39
ATOM     39  C   UNL A   1      44.773  24.754  26.626  1.00  0.00     0.031 A 
ATOM     40  C   UNL A   1      45.894  25.709  26.543  1.00  0.00     0.074 A 
ATOM     41  C   UNL A   1      43.645  24.912  27.342  1.00  0.00     0.049 A 
ATOM     42  N   UNL A   1      46.862  25.857  27.384  1.00  0.00    -0.248 NA
ATOM     43  C   UNL A   1      46.100  26.391  25.252  1.00  0.00     0.031 C 
ATOM     44  C   UNL A   1      42.386  24.169  27.243  1.00  0.00     0.029 A 
ATOM     45  N   UNL A   1      43.353  25.878  28.246  1.00  0.00    -0.354 N 
ATOM     46  C   UNL A   1      47.674  26.833  26.818  1.00  0.00     0.074 A 
ATOM     47  C   UNL A   1      47.322  26.887  25.425  1.00  0.00     0.031 C 
ATOM     48  C   UNL A   1      41.406  24.878  27.857  1.00  0.00     0.029 A 
ATOM     49  C   UNL A   1      41.997  26.047  28.488  1.00  0.00     0.049 A 
ATOM     50  H   UNL A   1      44.045  26.416  28.693  1.00  0.00     0.167 HD
ATOM     51  C   UNL A   1      48.283  27.768  27.595  1.00  0.00     0.031 A 
ATOM     52  C   UNL A   1      41.424  27.128  29.081  1.00  0.00     0.031 A 
ATOM     53  C   UNL A   1      48.306  27.359  28.980  1.00  0.00     0.049 A 
ATOM     54  C   UNL A   1      42.503  27.875  29.778  1.00  0.00     0.074 A 
ATOM     55  C   UNL A   1      48.816  26.277  29.669  1.00  0.00     0.029 A 
ATOM     56  N   UNL A   1      47.366  27.928  29.808  1.00  0.00    -0.354 N 
ATOM     57  N   UNL A   1      43.136  27.413  30.819  1.00  0.00    -0.248 NA
ATOM     58  C   UNL A   1      43.213  28.899  29.024  1.00  0.00     0.031 C 
ATOM     59  C   UNL A   1      47.843  25.984  30.671  1.00  0.00     0.029 A 
ATOM     60  C   UNL A   1      46.831  26.941  30.592  1.00  0.00     0.049 A 
ATOM     61  H   UNL A   1      47.120  28.881  29.833  1.00  0.00     0.167 HD
ATOM     62  C   UNL A   1      44.467  27.741  30.600  1.00  0.00     0.074 A 
ATOM     63  C   UNL A   1      44.442  28.732  29.524  1.00  0.00     0.031 C 
ATOM     64  C   UNL A   1      45.475  26.960  31.093  1.00  0.00     0.031 A 
BRANCH  51  65
ATOM     65  C   UNL A   1      48.370  29.225  27.189  1.00  0.00    -0.014 A 
ATOM     66  C   UNL A   1      49.617  29.863  27.294  1.00  0.00     0.009 A 
ATOM     67  C   UNL A   1      47.256  30.066  26.994  1.00  0.00     0.009 A 
ATOM     68  C   UNL A   1      49.722  31.257  27.333  1.00  0.00     0.001 A 
ATOM     69  C   UNL A   1      47.359  31.458  26.992  1.00  0.00     0.001 A 
ATOM     70  C   UNL A   1      48.590  32.055  27.200  1.00  0.00     0.000 A 
ENDBRANCH  51  65
BRANCH  52  71
ATOM     71  C   UNL A   1      40.105  27.742  28.797  1.00  0.00    -0.014 A 
ATOM     72  C   UNL A   1      39.119  27.829  29.795  1.00  0.00     0.009 A 
ATOM     73  C   UNL A   1      39.907  28.491  27.622  1.00  0.00     0.009 A 
ATOM     74  C   UNL A   1      37.999  28.659  29.634  1.00  0.00     0.001 A 
ATOM     75  C   UNL A   1      38.789  29.317  27.461  1.00  0.00     0.001 A 
ATOM     76  C   UNL A   1      37.841  29.412  28.474  1.00  0.00     0.000 A 
ENDBRANCH  52  71
BRANCH  64  77
ATOM     77  C   UNL A   1      45.109  25.866  32.066  1.00  0.00    -0.014 A 
ATOM     78  C   UNL A   1      44.631  24.603  31.668  1.00  0.00     0.009 A 
ATOM     79  C   UNL A   1      45.415  26.063  33.420  1.00  0.00     0.009 A 
ATOM     80  C   UNL A   1      44.443  23.582  32.606  1.00  0.00     0.001 A 
ATOM     81  C   UNL A   1      45.248  25.037  34.351  1.00  0.00     0.001 A 
ATOM     82  C   UNL A   1      44.758  23.798  33.945  1.00  0.00     0.000 A 
ENDBRANCH  64  77
ENDBRANCH  38  39
ENDBRANCH  31  33
ENDBRANCH  30  31
ENDBRANCH  29  30
ENDBRANCH  28  29
ENDBRANCH  27  28
ENDBRANCH   1  27
TORSDOF 17
ENDMDL
MODEL 2
REMARK VINA RESULT:     -11.1      1.576      2.320
REMARK SMILES Cc1n[nH]c(C[N@H+]2CCC[C@H](c3cccc(C(=O)OCCOCCOC(=O)c4ccc(-c5c6nc(c(-c7ccccc7)c7ccc([nH]7)c(-c7ccccc7)c7nc(c(-c8ccccc8)c8ccc5[nH]8)C=C7)C=C6)cc4)c3)C2)n1
REMARK SMILES IDX 21 1 20 2 19 3 17 4 18 5 16 6 12 7 13 8 76 9 14 10 15 11
REMARK SMILES IDX 11 12 7 13 8 14 77 15 9 17 10 18 6 19 5 20 1 21 2 22 3 23
REMARK SMILES IDX 78 24 4 25 22 27 23 28 24 29 25 30 26 31 27 32 28 33 29 34
REMARK SMILES IDX 75 35 30 36 74 37 31 38 32 39 33 40 68 41 34 42 73 43 67 44
REMARK SMILES IDX 69 45 35 46 72 47 66 48 65 49 36 51 58 52 43 53 57 54 44 55
REMARK SMILES IDX 47 56 56 57 70 58 45 59 46 60 55 62 71 63 48 64 37 65 38 66
REMARK SMILES IDX 42 67 39 68 41 69 40 70 59 71 60 72 64 73 61 74 63 75 62 76
REMARK SMILES IDX 49 77 50 78 54 79 51 80 53 81 52 82
REMARK H PARENT 7 16 4 26 69 50 47 61
REMARK Flexibility Score: inf
ROOT
ATOM      1  C   UNL A   1      39.540  21.656  26.030  1.00  0.00     0.202 C 
ENDROOT
BRANCH   1   2
ATOM      2  C   UNL A   1      38.148  21.528  25.407  1.00  0.00     0.261 C 
BRANCH   2   3
ATOM      3  O   UNL A   1      37.460  22.786  25.360  1.00  0.00    -0.460 OA
BRANCH   3   4
ATOM      4  C   UNL A   1      36.718  22.978  24.239  1.00  0.00     0.338 C 
ATOM      5  O   UNL A   1      36.975  22.595  23.112  1.00  0.00    -0.246 OA
BRANCH   4   6
ATOM      6  C   UNL A   1      35.406  23.544  24.613  1.00  0.00     0.060 A 
ATOM      7  C   UNL A   1      33.268  24.538  24.033  1.00  0.00    -0.038 A 
ATOM      8  C   UNL A   1      32.934  24.513  25.399  1.00  0.00     0.004 A 
ATOM      9  C   UNL A   1      34.557  24.115  23.664  1.00  0.00     0.020 A 
ATOM     10  C   UNL A   1      33.805  23.990  26.355  1.00  0.00     0.001 A 
ATOM     11  C   UNL A   1      35.029  23.474  25.958  1.00  0.00     0.016 A 
BRANCH   7  12
ATOM     12  C   UNL A   1      32.264  24.951  22.951  1.00  0.00     0.074 C 
ATOM     13  N   UNL A   1      31.769  27.263  23.783  1.00  0.00    -0.328 N 
ATOM     14  C   UNL A   1      30.412  26.887  24.196  1.00  0.00     0.262 C 
ATOM     15  C   UNL A   1      32.230  26.466  22.626  1.00  0.00     0.270 C 
ATOM     16  H   UNL A   1      32.380  27.036  24.568  1.00  0.00     0.348 HD
ATOM     17  C   UNL A   1      30.297  25.388  24.485  1.00  0.00     0.062 C 
ATOM     18  C   UNL A   1      30.812  24.554  23.312  1.00  0.00     0.020 C 
BRANCH  13  19
ATOM     19  C   UNL A   1      31.931  28.712  23.568  1.00  0.00     0.340 C 
BRANCH  19  20
ATOM     20  C   UNL A   1      30.739  29.378  22.971  1.00  0.00     0.179 A 
ATOM     21  C   UNL A   1      27.866  31.404  22.925  1.00  0.00     0.092 C 
ATOM     22  C   UNL A   1      29.025  30.548  22.617  1.00  0.00     0.147 A 
ATOM     23  N   UNL A   1      29.551  30.424  21.393  1.00  0.00    -0.159 NA
ATOM     24  N   UNL A   1      29.694  29.875  23.600  1.00  0.00    -0.211 NA
ATOM     25  N   UNL A   1      30.627  29.658  21.640  1.00  0.00    -0.258 N 
ATOM     26  H   UNL A   1      31.254  29.341  20.951  1.00  0.00     0.192 HD
ENDBRANCH  19  20
ENDBRANCH  13  19
ENDBRANCH   7  12
ENDBRANCH   4   6
ENDBRANCH   3   4
ENDBRANCH   2   3
ENDBRANCH   1   2
BRANCH   1  27
ATOM     27  O   UNL A   1      40.170  20.490  26.562  1.00  0.00    -0.374 OA
BRANCH  27  28
ATOM     28  C   UNL A   1      41.548  20.515  26.919  1.00  0.00     0.202 C 
BRANCH  28  29
ATOM     29  C   UNL A   1      42.489  19.494  26.296  1.00  0.00     0.261 C 
BRANCH  29  30
ATOM     30  O   UNL A   1      42.772  19.798  24.943  1.00  0.00    -0.460 OA
BRANCH  30  31
ATOM     31  C   UNL A   1      44.092  19.781  24.651  1.00  0.00     0.338 C 
ATOM     32  O   UNL A   1      44.807  18.810  24.496  1.00  0.00    -0.246 OA
BRANCH  31  33
ATOM     33  C   UNL A   1      44.589  21.160  24.703  1.00  0.00     0.060 A 
ATOM     34  C   UNL A   1      45.623  21.380  25.614  1.00  0.00     0.016 A 
ATOM     35  C   UNL A   1      43.754  22.186  24.245  1.00  0.00     0.016 A 
ATOM     36  C   UNL A   1      45.604  22.555  26.322  1.00  0.00     0.010 A 
ATOM     37  C   UNL A   1      43.710  23.338  24.978  1.00  0.00     0.010 A 
ATOM     38  C   UNL A   1      44.564  23.452  26.071  1.00  0.00    -0.014 A 
BRANCH  38  39
ATOM     39  C   UNL A   1      44.424  24.593  26.939  1.00  0.00     0.031 A 
ATOM     40  C   UNL A   1      45.576  25.506  26.816  1.00  0.00     0.074 A 
ATOM     41  C   UNL A   1      43.303  24.819  27.647  1.00  0.00     0.049 A 
ATOM     42  N   UNL A   1      46.549  25.658  27.649  1.00  0.00    -0.248 NA
ATOM     43  C   UNL A   1      45.803  26.124  25.497  1.00  0.00     0.031 C 
ATOM     44  C   UNL A   1      42.019  24.115  27.579  1.00  0.00     0.029 A 
ATOM     45  N   UNL A   1      43.043  25.833  28.508  1.00  0.00    -0.354 N 
ATOM     46  C   UNL A   1      47.393  26.580  27.043  1.00  0.00     0.074 A 
ATOM     47  C   UNL A   1      47.042  26.586  25.649  1.00  0.00     0.031 C 
ATOM     48  C   UNL A   1      41.064  24.881  28.162  1.00  0.00     0.029 A 
ATOM     49  C   UNL A   1      41.694  26.057  28.742  1.00  0.00     0.049 A 
ATOM     50  H   UNL A   1      43.754  26.366  28.932  1.00  0.00     0.167 HD
ATOM     51  C   UNL A   1      48.033  27.527  27.779  1.00  0.00     0.031 A 
ATOM     52  C   UNL A   1      41.158  27.180  29.288  1.00  0.00     0.031 A 
ATOM     53  C   UNL A   1      48.044  27.178  29.180  1.00  0.00     0.049 A 
ATOM     54  C   UNL A   1      42.263  27.920  29.953  1.00  0.00     0.074 A 
ATOM     55  C   UNL A   1      48.518  26.111  29.916  1.00  0.00     0.029 A 
ATOM     56  N   UNL A   1      47.124  27.813  29.983  1.00  0.00    -0.354 N 
ATOM     57  N   UNL A   1      42.880  27.483  31.013  1.00  0.00    -0.248 NA
ATOM     58  C   UNL A   1      43.005  28.887  29.155  1.00  0.00     0.031 C 
ATOM     59  C   UNL A   1      47.537  25.893  30.929  1.00  0.00     0.029 A 
ATOM     60  C   UNL A   1      46.557  26.879  30.808  1.00  0.00     0.049 A 
ATOM     61  H   UNL A   1      46.910  28.774  29.966  1.00  0.00     0.167 HD
ATOM     62  C   UNL A   1      44.222  27.757  30.780  1.00  0.00     0.074 A 
ATOM     63  C   UNL A   1      44.228  28.701  29.663  1.00  0.00     0.031 C 
ATOM     64  C   UNL A   1      45.203  26.964  31.307  1.00  0.00     0.031 A 
BRANCH  51  65
ATOM     65  C   UNL A   1      48.168  28.962  27.310  1.00  0.00    -0.014 A 
ATOM     66  C   UNL A   1      49.464  29.473  27.126  1.00  0.00     0.009 A 
ATOM     67  C   UNL A   1      47.123  29.907  27.325  1.00  0.00     0.009 A 
ATOM     68  C   UNL A   1      49.706  30.851  27.091  1.00  0.00     0.001 A 
ATOM     69  C   UNL A   1      47.354  31.281  27.250  1.00  0.00     0.001 A 
ATOM     70  C   UNL A   1      48.651  31.755  27.171  1.00  0.00     0.000 A 
ENDBRANCH  51  65
BRANCH  52  71
ATOM     71  C   UNL A   1      39.860  27.825  28.977  1.00  0.00    -0.014 A 
ATOM     72  C   UNL A   1      38.893  28.020  29.977  1.00  0.00     0.009 A 
ATOM     73  C   UNL A   1      39.674  28.498  27.755  1.00  0.00     0.009 A 
ATOM     74  C   UNL A   1      37.803  28.881  29.772  1.00  0.00     0.001 A 
ATOM     75  C   UNL A   1      38.587  29.355  27.549  1.00  0.00     0.001 A 
ATOM     76  C   UNL A   1      37.659  29.557  28.564  1.00  0.00     0.000 A 
ENDBRANCH  52  71
BRANCH  64  77
ATOM     77  C   UNL A   1      44.802  25.926  32.326  1.00  0.00    -0.014 A 
ATOM     78  C   UNL A   1      44.376  26.245  33.629  1.00  0.00     0.009 A 
ATOM     79  C   UNL A   1      44.697  24.595  31.900  1.00  0.00     0.009 A 
ATOM     80  C   UNL A   1      43.884  25.252  34.483  1.00  0.00     0.001 A 
ATOM     81  C   UNL A   1      44.185  23.610  32.745  1.00  0.00     0.001 A 
ATOM     82  C   UNL A   1      43.782  23.936  34.038  1.00  0.00     0.000 A 
ENDBRANCH  64  77
ENDBRANCH  38  39
ENDBRANCH  31  33
ENDBRANCH  30  31
ENDBRANCH  29  30
ENDBRANCH  28  29
ENDBRANCH  27  28
ENDBRANCH   1  27
TORSDOF 17
ENDMDL
MODEL 3
REMARK VINA RESULT:     -11.1      2.259      6.363
REMARK SMILES Cc1n[nH]c(C[N@H+]2CCC[C@H](c3cccc(C(=O)OCCOCCOC(=O)c4ccc(-c5c6nc(c(-c7ccccc7)c7ccc([nH]7)c(-c7ccccc7)c7nc(c(-c8ccccc8)c8ccc5[nH]8)C=C7)C=C6)cc4)c3)C2)n1
REMARK SMILES IDX 21 1 20 2 19 3 17 4 18 5 16 6 12 7 13 8 76 9 14 10 15 11
REMARK SMILES IDX 11 12 7 13 8 14 77 15 9 17 10 18 6 19 5 20 1 21 2 22 3 23
REMARK SMILES IDX 78 24 4 25 22 27 23 28 24 29 25 30 26 31 27 32 28 33 29 34
REMARK SMILES IDX 75 35 30 36 74 37 31 38 32 39 33 40 68 41 34 42 73 43 67 44
REMARK SMILES IDX 69 45 35 46 72 47 66 48 65 49 36 51 58 52 43 53 57 54 44 55
REMARK SMILES IDX 47 56 56 57 70 58 45 59 46 60 55 62 71 63 48 64 37 65 38 66
REMARK SMILES IDX 42 67 39 68 41 69 40 70 59 71 60 72 64 73 61 74 63 75 62 76
REMARK SMILES IDX 49 77 50 78 54 79 51 80 53 81 52 82
REMARK H PARENT 7 16 4 26 69 50 47 61
REMARK Flexibility Score: inf
ROOT
ATOM      1  C   UNL A   1      35.127  22.280  26.040  1.00  0.00     0.202 C 
ENDROOT
BRANCH   1   2
ATOM      2  C   UNL A   1      34.113  21.499  26.880  1.00  0.00     0.261 C 
BRANCH   2   3
ATOM      3  O   UNL A   1      32.803  22.080  26.822  1.00  0.00    -0.460 OA
BRANCH   3   4
ATOM      4  C   UNL A   1      32.103  21.774  25.701  1.00  0.00     0.338 C 
ATOM      5  O   UNL A   1      31.786  20.664  25.311  1.00  0.00    -0.246 OA
BRANCH   4   6
ATOM      6  C   UNL A   1      31.567  23.014  25.105  1.00  0.00     0.060 A 
ATOM      7  C   UNL A   1      31.149  25.406  25.171  1.00  0.00    -0.038 A 
ATOM      8  C   UNL A   1      30.607  25.303  23.877  1.00  0.00     0.004 A 
ATOM      9  C   UNL A   1      31.558  24.221  25.807  1.00  0.00     0.020 A 
ATOM     10  C   UNL A   1      30.567  24.087  23.195  1.00  0.00     0.001 A 
ATOM     11  C   UNL A   1      31.079  22.947  23.796  1.00  0.00     0.016 A 
BRANCH   7  12
ATOM     12  C   UNL A   1      31.355  26.754  25.868  1.00  0.00     0.074 C 
ATOM     13  N   UNL A   1      32.374  28.001  23.947  1.00  0.00    -0.328 N 
ATOM     14  C   UNL A   1      33.693  28.030  24.589  1.00  0.00     0.262 C 
ATOM     15  C   UNL A   1      31.280  27.995  24.942  1.00  0.00     0.270 C 
ATOM     16  H   UNL A   1      32.324  27.118  23.439  1.00  0.00     0.348 HD
ATOM     17  C   UNL A   1      33.869  26.883  25.588  1.00  0.00     0.062 C 
ATOM     18  C   UNL A   1      32.719  26.841  26.595  1.00  0.00     0.020 C 
BRANCH  13  19
ATOM     19  C   UNL A   1      32.200  29.050  22.926  1.00  0.00     0.340 C 
BRANCH  19  20
ATOM     20  C   UNL A   1      30.791  29.243  22.483  1.00  0.00     0.179 A 
ATOM     21  C   UNL A   1      27.289  29.260  22.796  1.00  0.00     0.092 C 
ATOM     22  C   UNL A   1      28.694  29.400  22.376  1.00  0.00     0.147 A 
ATOM     23  N   UNL A   1      29.099  30.221  21.400  1.00  0.00    -0.159 NA
ATOM     24  N   UNL A   1      29.700  28.741  23.024  1.00  0.00    -0.211 NA
ATOM     25  N   UNL A   1      30.433  30.088  21.473  1.00  0.00    -0.258 N 
ATOM     26  H   UNL A   1      31.071  30.542  20.876  1.00  0.00     0.192 HD
ENDBRANCH  19  20
ENDBRANCH  13  19
ENDBRANCH   7  12
ENDBRANCH   4   6
ENDBRANCH   3   4
ENDBRANCH   2   3
ENDBRANCH   1   2
BRANCH   1  27
ATOM     27  O   UNL A   1      35.674  21.669  24.871  1.00  0.00    -0.374 OA
BRANCH  27  28
ATOM     28  C   UNL A   1      36.876  20.911  24.949  1.00  0.00     0.202 C 
BRANCH  28  29
ATOM     29  C   UNL A   1      38.002  21.404  25.847  1.00  0.00     0.261 C 
BRANCH  29  30
ATOM     30  O   UNL A   1      39.259  21.332  25.201  1.00  0.00    -0.460 OA
BRANCH  30  31
ATOM     31  C   UNL A   1      40.059  20.355  25.684  1.00  0.00     0.338 C 
ATOM     32  O   UNL A   1      39.850  19.158  25.690  1.00  0.00    -0.246 OA
BRANCH  31  33
ATOM     33  C   UNL A   1      41.192  20.989  26.368  1.00  0.00     0.060 A 
ATOM     34  C   UNL A   1      41.171  20.891  27.760  1.00  0.00     0.016 A 
ATOM     35  C   UNL A   1      41.903  21.987  25.691  1.00  0.00     0.016 A 
ATOM     36  C   UNL A   1      41.579  21.986  28.478  1.00  0.00     0.010 A 
ATOM     37  C   UNL A   1      42.272  23.093  26.404  1.00  0.00     0.010 A 
ATOM     38  C   UNL A   1      42.001  23.112  27.769  1.00  0.00    -0.014 A 
BRANCH  38  39
ATOM     39  C   UNL A   1      42.246  24.328  28.503  1.00  0.00     0.031 A 
ATOM     40  C   UNL A   1      41.227  25.350  28.203  1.00  0.00     0.074 A 
ATOM     41  C   UNL A   1      43.213  24.418  29.433  1.00  0.00     0.049 A 
ATOM     42  N   UNL A   1      41.361  26.397  27.460  1.00  0.00    -0.248 NA
ATOM     43  C   UNL A   1      39.832  25.031  28.557  1.00  0.00     0.031 C 
ATOM     44  C   UNL A   1      44.054  23.353  29.986  1.00  0.00     0.029 A 
ATOM     45  N   UNL A   1      43.563  25.493  30.179  1.00  0.00    -0.354 N 
ATOM     46  C   UNL A   1      40.104  26.990  27.455  1.00  0.00     0.074 A 
ATOM     47  C   UNL A   1      39.181  25.971  27.877  1.00  0.00     0.031 C 
ATOM     48  C   UNL A   1      44.615  23.788  31.142  1.00  0.00     0.029 A 
ATOM     49  C   UNL A   1      44.268  25.187  31.334  1.00  0.00     0.049 A 
ATOM     50  H   UNL A   1      43.336  26.416  29.923  1.00  0.00     0.167 HD
ATOM     51  C   UNL A   1      39.972  28.343  27.479  1.00  0.00     0.031 A 
ATOM     52  C   UNL A   1      44.453  26.015  32.396  1.00  0.00     0.031 A 
ATOM     53  C   UNL A   1      41.206  28.993  27.103  1.00  0.00     0.049 A 
ATOM     54  C   UNL A   1      44.142  27.396  31.940  1.00  0.00     0.074 A 
ATOM     55  C   UNL A   1      42.020  28.970  25.988  1.00  0.00     0.029 A 
ATOM     56  N   UNL A   1      41.978  29.495  28.126  1.00  0.00    -0.354 N 
ATOM     57  N   UNL A   1      44.869  28.045  31.077  1.00  0.00    -0.248 NA
ATOM     58  C   UNL A   1      42.764  27.853  32.061  1.00  0.00     0.031 C 
ATOM     59  C   UNL A   1      43.351  29.025  26.499  1.00  0.00     0.029 A 
ATOM     60  C   UNL A   1      43.281  29.154  27.887  1.00  0.00     0.049 A 
ATOM     61  H   UNL A   1      41.648  30.011  28.897  1.00  0.00     0.167 HD
ATOM     62  C   UNL A   1      43.954  28.671  30.241  1.00  0.00     0.074 A 
ATOM     63  C   UNL A   1      42.676  28.590  30.949  1.00  0.00     0.031 C 
ATOM     64  C   UNL A   1      44.254  28.920  28.931  1.00  0.00     0.031 A 
BRANCH  51  65
ATOM     65  C   UNL A   1      38.927  29.039  28.328  1.00  0.00    -0.014 A 
ATOM     66  C   UNL A   1      38.946  28.808  29.713  1.00  0.00     0.009 A 
ATOM     67  C   UNL A   1      37.770  29.660  27.816  1.00  0.00     0.009 A 
ATOM     68  C   UNL A   1      37.824  29.063  30.510  1.00  0.00     0.001 A 
ATOM     69  C   UNL A   1      36.663  29.953  28.612  1.00  0.00     0.001 A 
ATOM     70  C   UNL A   1      36.676  29.619  29.955  1.00  0.00     0.000 A 
ENDBRANCH  51  65
BRANCH  52  71
ATOM     71  C   UNL A   1      44.530  25.665  33.834  1.00  0.00    -0.014 A 
ATOM     72  C   UNL A   1      43.390  25.234  34.535  1.00  0.00     0.009 A 
ATOM     73  C   UNL A   1      45.779  25.492  34.459  1.00  0.00     0.009 A 
ATOM     74  C   UNL A   1      43.502  24.623  35.793  1.00  0.00     0.001 A 
ATOM     75  C   UNL A   1      45.891  24.885  35.715  1.00  0.00     0.001 A 
ATOM     76  C   UNL A   1      44.753  24.437  36.376  1.00  0.00     0.000 A 
ENDBRANCH  52  71
BRANCH  64  77
ATOM     77  C   UNL A   1      45.678  28.705  28.478  1.00  0.00    -0.014 A 
ATOM     78  C   UNL A   1      46.635  29.736  28.418  1.00  0.00     0.009 A 
ATOM     79  C   UNL A   1      46.107  27.388  28.263  1.00  0.00     0.009 A 
ATOM     80  C   UNL A   1      47.973  29.452  28.127  1.00  0.00     0.001 A 
ATOM     81  C   UNL A   1      47.446  27.104  27.994  1.00  0.00     0.001 A 
ATOM     82  C   UNL A   1      48.378  28.135  27.922  1.00  0.00     0.000 A 
ENDBRANCH  64  77
ENDBRANCH  38  39
ENDBRANCH  31  33
ENDBRANCH  30  31
ENDBRANCH  29  30
ENDBRANCH  28  29
ENDBRANCH  27  28
ENDBRANCH   1  27
TORSDOF 17
ENDMDL
