MODEL 1
REMARK VINA RESULT:      -9.2      0.000      0.000
REMARK SMILES CCC(CC)(CC)NC(=O)NC[C@@H]1CC[C@H](C(=O)OCCOCCOC(=O)c2ccc(-c3c4nc(c(-c5ccccc5)c5ccc([nH]5)c(-c5ccccc5)c5nc(c(-c6ccccc6)c6ccc3[nH]6)C=C5)C=C4)cc2)O1
REMARK SMILES IDX 21 1 20 2 19 3 17 4 18 5 16 6 13 7 14 8 76 9 15 10 12 11
REMARK SMILES IDX 11 12 8 13 9 14 10 16 3 18 2 19 1 20 4 21 5 22 6 23 7 24
REMARK SMILES IDX 22 25 23 26 24 27 25 28 26 29 27 30 28 31 29 32 75 33 30 34
REMARK SMILES IDX 74 35 31 36 32 37 33 38 68 39 34 40 73 41 67 42 69 43 35 44
REMARK SMILES IDX 72 45 66 46 65 47 36 49 58 50 43 51 57 52 44 53 47 54 56 55
REMARK SMILES IDX 70 56 45 57 46 58 55 60 71 61 48 62 37 63 38 64 42 65 39 66
REMARK SMILES IDX 41 67 40 68 59 69 60 70 64 71 61 72 63 73 62 74 49 75 50 76
REMARK SMILES IDX 54 77 51 78 53 79 52 80
REMARK H PARENT 8 15 11 17 69 48 47 59
REMARK Flexibility Score: inf
ROOT
ATOM      1  C   UNL A   1      41.054  22.000  27.370  1.00  0.00     0.202 C 
ENDROOT
BRANCH   1   2
ATOM      2  C   UNL A   1      39.787  22.720  26.901  1.00  0.00     0.261 C 
BRANCH   2   3
ATOM      3  O   UNL A   1      38.968  21.913  26.034  1.00  0.00    -0.461 OA
BRANCH   3   4
ATOM      4  C   UNL A   1      37.832  22.510  25.571  1.00  0.00     0.335 C 
ATOM      5  O   UNL A   1      37.418  23.604  25.942  1.00  0.00    -0.249 OA
BRANCH   4   6
ATOM      6  C   UNL A   1      37.124  21.682  24.481  1.00  0.00     0.228 C 
ATOM      7  C   UNL A   1      34.972  22.385  23.897  1.00  0.00     0.138 C 
ATOM      8  C   UNL A   1      34.837  21.347  25.007  1.00  0.00     0.037 C 
ATOM      9  O   UNL A   1      36.362  22.471  23.569  1.00  0.00    -0.361 OA
ATOM     10  C   UNL A   1      36.164  20.621  24.979  1.00  0.00     0.047 C 
BRANCH   7  11
ATOM     11  C   UNL A   1      34.390  23.777  24.219  1.00  0.00     0.149 C 
BRANCH  11  12
ATOM     12  N   UNL A   1      34.055  24.574  23.052  1.00  0.00    -0.336 N 
ATOM     13  N   UNL A   1      32.861  26.581  23.588  1.00  0.00    -0.333 N 
ATOM     14  C   UNL A   1      33.564  25.780  22.801  1.00  0.00     0.315 C 
ATOM     15  H   UNL A   1      32.739  27.437  23.116  1.00  0.00     0.165 HD
ATOM     16  O   UNL A   1      33.776  26.211  21.659  1.00  0.00    -0.249 OA
ATOM     17  H   UNL A   1      34.246  24.085  22.218  1.00  0.00     0.165 HD
BRANCH  13  18
ATOM     18  C   UNL A   1      32.182  26.691  24.915  1.00  0.00     0.041 C 
BRANCH  18  19
ATOM     19  C   UNL A   1      31.248  25.511  25.269  1.00  0.00     0.025 C 
ATOM     20  C   UNL A   1      31.629  24.784  26.553  1.00  0.00     0.006 C 
ENDBRANCH  18  19
BRANCH  18  21
ATOM     21  C   UNL A   1      31.288  27.995  24.808  1.00  0.00     0.025 C 
ATOM     22  C   UNL A   1      30.229  28.009  23.707  1.00  0.00     0.006 C 
ENDBRANCH  18  21
BRANCH  18  23
ATOM     23  C   UNL A   1      33.226  26.972  26.042  1.00  0.00     0.025 C 
ATOM     24  C   UNL A   1      33.880  28.344  26.077  1.00  0.00     0.006 C 
ENDBRANCH  18  23
ENDBRANCH  13  18
ENDBRANCH  11  12
ENDBRANCH   7  11
ENDBRANCH   4   6
ENDBRANCH   3   4
ENDBRANCH   2   3
ENDBRANCH   1   2
BRANCH   1  25
ATOM     25  O   UNL A   1      41.766  21.231  26.404  1.00  0.00    -0.374 OA
BRANCH  25  26
ATOM     26  C   UNL A   1      42.162  19.906  26.748  1.00  0.00     0.202 C 
BRANCH  26  27
ATOM     27  C   UNL A   1      42.738  19.044  25.620  1.00  0.00     0.261 C 
BRANCH  27  28
ATOM     28  O   UNL A   1      44.157  19.232  25.449  1.00  0.00    -0.460 OA
BRANCH  28  29
ATOM     29  C   UNL A   1      44.487  19.925  24.333  1.00  0.00     0.338 C 
ATOM     30  O   UNL A   1      44.310  19.589  23.175  1.00  0.00    -0.246 OA
BRANCH  29  31
ATOM     31  C   UNL A   1      44.991  21.268  24.671  1.00  0.00     0.060 A 
ATOM     32  C   UNL A   1      45.596  21.425  25.923  1.00  0.00     0.016 A 
ATOM     33  C   UNL A   1      44.710  22.379  23.873  1.00  0.00     0.016 A 
ATOM     34  C   UNL A   1      45.856  22.703  26.414  1.00  0.00     0.010 A 
ATOM     35  C   UNL A   1      44.974  23.664  24.370  1.00  0.00     0.010 A 
ATOM     36  C   UNL A   1      45.501  23.833  25.663  1.00  0.00    -0.014 A 
BRANCH  36  37
ATOM     37  C   UNL A   1      45.558  25.167  26.318  1.00  0.00     0.031 A 
ATOM     38  C   UNL A   1      46.862  25.923  26.353  1.00  0.00     0.074 A 
ATOM     39  C   UNL A   1      44.439  25.749  26.786  1.00  0.00     0.049 A 
ATOM     40  N   UNL A   1      47.104  27.137  26.784  1.00  0.00    -0.248 NA
ATOM     41  C   UNL A   1      48.047  25.227  25.824  1.00  0.00     0.031 C 
ATOM     42  C   UNL A   1      43.106  25.147  26.779  1.00  0.00     0.029 A 
ATOM     43  N   UNL A   1      44.246  26.990  27.339  1.00  0.00    -0.354 N 
ATOM     44  C   UNL A   1      48.460  27.355  26.565  1.00  0.00     0.074 A 
ATOM     45  C   UNL A   1      48.997  26.133  26.005  1.00  0.00     0.031 C 
ATOM     46  C   UNL A   1      42.229  26.026  27.295  1.00  0.00     0.029 A 
ATOM     47  C   UNL A   1      42.941  27.243  27.683  1.00  0.00     0.049 A 
ATOM     48  H   UNL A   1      44.975  27.639  27.477  1.00  0.00     0.167 HD
ATOM     49  C   UNL A   1      49.192  28.472  26.790  1.00  0.00     0.031 A 
ATOM     50  C   UNL A   1      42.380  28.330  28.245  1.00  0.00     0.031 A 
ATOM     51  C   UNL A   1      48.674  29.688  27.360  1.00  0.00     0.049 A 
ATOM     52  C   UNL A   1      43.231  29.535  28.548  1.00  0.00     0.074 A 
ATOM     53  C   UNL A   1      49.346  30.866  27.638  1.00  0.00     0.029 A 
ATOM     54  N   UNL A   1      47.357  29.882  27.741  1.00  0.00    -0.354 N 
ATOM     55  N   UNL A   1      44.506  29.728  28.317  1.00  0.00    -0.248 NA
ATOM     56  C   UNL A   1      42.553  30.680  29.177  1.00  0.00     0.031 C 
ATOM     57  C   UNL A   1      48.444  31.760  28.224  1.00  0.00     0.029 A 
ATOM     58  C   UNL A   1      47.199  31.155  28.265  1.00  0.00     0.049 A 
ATOM     59  H   UNL A   1      46.638  29.215  27.651  1.00  0.00     0.167 HD
ATOM     60  C   UNL A   1      44.777  31.022  28.748  1.00  0.00     0.074 A 
ATOM     61  C   UNL A   1      43.530  31.574  29.233  1.00  0.00     0.031 C 
ATOM     62  C   UNL A   1      45.955  31.692  28.746  1.00  0.00     0.031 A 
BRANCH  49  63
ATOM     63  C   UNL A   1      50.649  28.432  26.422  1.00  0.00    -0.014 A 
ATOM     64  C   UNL A   1      51.076  28.787  25.133  1.00  0.00     0.009 A 
ATOM     65  C   UNL A   1      51.607  28.091  27.387  1.00  0.00     0.009 A 
ATOM     66  C   UNL A   1      52.436  28.780  24.813  1.00  0.00     0.001 A 
ATOM     67  C   UNL A   1      52.967  28.107  27.071  1.00  0.00     0.001 A 
ATOM     68  C   UNL A   1      53.380  28.446  25.783  1.00  0.00     0.000 A 
ENDBRANCH  49  63
BRANCH  50  69
ATOM     69  C   UNL A   1      40.932  28.335  28.580  1.00  0.00    -0.014 A 
ATOM     70  C   UNL A   1      39.986  28.867  27.690  1.00  0.00     0.009 A 
ATOM     71  C   UNL A   1      40.496  27.849  29.822  1.00  0.00     0.009 A 
ATOM     72  C   UNL A   1      38.639  28.941  28.052  1.00  0.00     0.001 A 
ATOM     73  C   UNL A   1      39.145  27.896  30.169  1.00  0.00     0.001 A 
ATOM     74  C   UNL A   1      38.219  28.454  29.289  1.00  0.00     0.000 A 
ENDBRANCH  50  69
BRANCH  62  75
ATOM     75  C   UNL A   1      45.940  33.105  29.258  1.00  0.00    -0.014 A 
ATOM     76  C   UNL A   1      46.126  33.387  30.621  1.00  0.00     0.009 A 
ATOM     77  C   UNL A   1      45.755  34.169  28.363  1.00  0.00     0.009 A 
ATOM     78  C   UNL A   1      46.083  34.704  31.082  1.00  0.00     0.001 A 
ATOM     79  C   UNL A   1      45.739  35.487  28.823  1.00  0.00     0.001 A 
ATOM     80  C   UNL A   1      45.892  35.753  30.182  1.00  0.00     0.000 A 
ENDBRANCH  62  75
ENDBRANCH  36  37
ENDBRANCH  29  31
ENDBRANCH  28  29
ENDBRANCH  27  28
ENDBRANCH  26  27
ENDBRANCH  25  26
ENDBRANCH   1  25
TORSDOF 20
ENDMDL
MODEL 2
REMARK VINA RESULT:      -9.1      3.602      9.605
REMARK SMILES CCC(CC)(CC)NC(=O)NC[C@@H]1CC[C@H](C(=O)OCCOCCOC(=O)c2ccc(-c3c4nc(c(-c5ccccc5)c5ccc([nH]5)c(-c5ccccc5)c5nc(c(-c6ccccc6)c6ccc3[nH]6)C=C5)C=C4)cc2)O1
REMARK SMILES IDX 21 1 20 2 19 3 17 4 18 5 16 6 13 7 14 8 76 9 15 10 12 11
REMARK SMILES IDX 11 12 8 13 9 14 10 16 3 18 2 19 1 20 4 21 5 22 6 23 7 24
REMARK SMILES IDX 22 25 23 26 24 27 25 28 26 29 27 30 28 31 29 32 75 33 30 34
REMARK SMILES IDX 74 35 31 36 32 37 33 38 68 39 34 40 73 41 67 42 69 43 35 44
REMARK SMILES IDX 72 45 66 46 65 47 36 49 58 50 43 51 57 52 44 53 47 54 56 55
REMARK SMILES IDX 70 56 45 57 46 58 55 60 71 61 48 62 37 63 38 64 42 65 39 66
REMARK SMILES IDX 41 67 40 68 59 69 60 70 64 71 61 72 63 73 62 74 49 75 50 76
REMARK SMILES IDX 54 77 51 78 53 79 52 80
REMARK H PARENT 8 15 11 17 69 48 47 59
REMARK Flexibility Score: inf
ROOT
ATOM      1  C   UNL A   1      34.900  33.043  28.414  1.00  0.00     0.202 C 
ENDROOT
BRANCH   1   2
ATOM      2  C   UNL A   1      33.765  32.237  27.777  1.00  0.00     0.261 C 
BRANCH   2   3
ATOM      3  O   UNL A   1      34.193  30.954  27.282  1.00  0.00    -0.461 OA
BRANCH   3   4
ATOM      4  C   UNL A   1      33.210  30.164  26.760  1.00  0.00     0.335 C 
ATOM      5  O   UNL A   1      32.507  30.467  25.801  1.00  0.00    -0.249 OA
BRANCH   4   6
ATOM      6  C   UNL A   1      33.092  28.806  27.478  1.00  0.00     0.228 C 
ATOM      7  C   UNL A   1      32.837  26.936  26.098  1.00  0.00     0.138 C 
ATOM      8  C   UNL A   1      31.443  27.438  26.464  1.00  0.00     0.037 C 
ATOM      9  O   UNL A   1      33.776  27.747  26.811  1.00  0.00    -0.361 OA
ATOM     10  C   UNL A   1      31.683  28.292  27.689  1.00  0.00     0.047 C 
BRANCH   7  11
ATOM     11  C   UNL A   1      33.157  26.915  24.589  1.00  0.00     0.149 C 
BRANCH  11  12
ATOM     12  N   UNL A   1      32.216  26.155  23.785  1.00  0.00    -0.336 N 
ATOM     13  N   UNL A   1      32.481  23.783  24.008  1.00  0.00    -0.333 N 
ATOM     14  C   UNL A   1      31.841  24.889  23.656  1.00  0.00     0.315 C 
ATOM     15  H   UNL A   1      31.875  23.023  23.852  1.00  0.00     0.165 HD
ATOM     16  O   UNL A   1      30.743  24.716  23.108  1.00  0.00    -0.249 OA
ATOM     17  H   UNL A   1      31.720  26.740  23.167  1.00  0.00     0.165 HD
BRANCH  13  18
ATOM     18  C   UNL A   1      33.763  23.242  24.553  1.00  0.00     0.041 C 
BRANCH  18  19
ATOM     19  C   UNL A   1      34.171  23.802  25.935  1.00  0.00     0.025 C 
ATOM     20  C   UNL A   1      34.582  22.731  26.939  1.00  0.00     0.006 C 
ENDBRANCH  18  19
BRANCH  18  21
ATOM     21  C   UNL A   1      34.869  23.689  23.509  1.00  0.00     0.025 C 
ATOM     22  C   UNL A   1      36.172  22.892  23.513  1.00  0.00     0.006 C 
ENDBRANCH  18  21
BRANCH  18  23
ATOM     23  C   UNL A   1      33.752  21.681  24.531  1.00  0.00     0.025 C 
ATOM     24  C   UNL A   1      32.757  20.992  23.611  1.00  0.00     0.006 C 
ENDBRANCH  18  23
ENDBRANCH  13  18
ENDBRANCH  11  12
ENDBRANCH   7  11
ENDBRANCH   4   6
ENDBRANCH   3   4
ENDBRANCH   2   3
ENDBRANCH   1   2
BRANCH   1  25
ATOM     25  O   UNL A   1      34.540  34.039  29.367  1.00  0.00    -0.374 OA
BRANCH  25  26
ATOM     26  C   UNL A   1      34.189  33.624  30.684  1.00  0.00     0.202 C 
BRANCH  26  27
ATOM     27  C   UNL A   1      34.854  34.374  31.843  1.00  0.00     0.261 C 
BRANCH  27  28
ATOM     28  O   UNL A   1      36.211  33.945  32.073  1.00  0.00    -0.460 OA
BRANCH  28  29
ATOM     29  C   UNL A   1      36.307  32.732  32.670  1.00  0.00     0.338 C 
ATOM     30  O   UNL A   1      35.689  32.336  33.643  1.00  0.00    -0.246 OA
BRANCH  29  31
ATOM     31  C   UNL A   1      37.188  31.832  31.905  1.00  0.00     0.060 A 
ATOM     32  C   UNL A   1      38.205  31.181  32.612  1.00  0.00     0.016 A 
ATOM     33  C   UNL A   1      37.143  31.775  30.510  1.00  0.00     0.016 A 
ATOM     34  C   UNL A   1      39.225  30.531  31.922  1.00  0.00     0.010 A 
ATOM     35  C   UNL A   1      38.172  31.117  29.818  1.00  0.00     0.010 A 
ATOM     36  C   UNL A   1      39.243  30.536  30.519  1.00  0.00    -0.014 A 
BRANCH  36  37
ATOM     37  C   UNL A   1      40.467  30.058  29.824  1.00  0.00     0.031 A 
ATOM     38  C   UNL A   1      40.477  28.687  29.195  1.00  0.00     0.074 A 
ATOM     39  C   UNL A   1      41.525  30.872  29.661  1.00  0.00     0.049 A 
ATOM     40  N   UNL A   1      41.403  28.120  28.460  1.00  0.00    -0.248 NA
ATOM     41  C   UNL A   1      39.287  27.849  29.413  1.00  0.00     0.031 C 
ATOM     42  C   UNL A   1      41.633  32.234  30.183  1.00  0.00     0.029 A 
ATOM     43  N   UNL A   1      42.706  30.674  28.988  1.00  0.00    -0.354 N 
ATOM     44  C   UNL A   1      40.901  26.870  28.116  1.00  0.00     0.074 A 
ATOM     45  C   UNL A   1      39.611  26.742  28.759  1.00  0.00     0.031 C 
ATOM     46  C   UNL A   1      42.812  32.755  29.800  1.00  0.00     0.029 A 
ATOM     47  C   UNL A   1      43.548  31.758  29.023  1.00  0.00     0.049 A 
ATOM     48  H   UNL A   1      42.928  29.834  28.523  1.00  0.00     0.167 HD
ATOM     49  C   UNL A   1      41.451  25.919  27.323  1.00  0.00     0.031 A 
ATOM     50  C   UNL A   1      44.772  31.931  28.490  1.00  0.00     0.031 A 
ATOM     51  C   UNL A   1      42.739  26.026  26.690  1.00  0.00     0.049 A 
ATOM     52  C   UNL A   1      45.390  30.830  27.669  1.00  0.00     0.074 A 
ATOM     53  C   UNL A   1      43.383  25.105  25.881  1.00  0.00     0.029 A 
ATOM     54  N   UNL A   1      43.581  27.121  26.795  1.00  0.00    -0.354 N 
ATOM     55  N   UNL A   1      44.893  29.663  27.340  1.00  0.00    -0.248 NA
ATOM     56  C   UNL A   1      46.736  31.084  27.133  1.00  0.00     0.031 C 
ATOM     57  C   UNL A   1      44.632  25.626  25.529  1.00  0.00     0.029 A 
ATOM     58  C   UNL A   1      44.744  26.893  26.078  1.00  0.00     0.049 A 
ATOM     59  H   UNL A   1      43.381  27.940  27.302  1.00  0.00     0.167 HD
ATOM     60  C   UNL A   1      45.853  29.055  26.540  1.00  0.00     0.074 A 
ATOM     61  C   UNL A   1      46.950  29.990  26.414  1.00  0.00     0.031 C 
ATOM     62  C   UNL A   1      45.829  27.829  25.963  1.00  0.00     0.031 A 
BRANCH  49  63
ATOM     63  C   UNL A   1      40.658  24.662  27.097  1.00  0.00    -0.014 A 
ATOM     64  C   UNL A   1      39.457  24.689  26.372  1.00  0.00     0.009 A 
ATOM     65  C   UNL A   1      41.145  23.432  27.564  1.00  0.00     0.009 A 
ATOM     66  C   UNL A   1      38.746  23.509  26.138  1.00  0.00     0.001 A 
ATOM     67  C   UNL A   1      40.445  22.252  27.309  1.00  0.00     0.001 A 
ATOM     68  C   UNL A   1      39.243  22.291  26.601  1.00  0.00     0.000 A 
ENDBRANCH  49  63
BRANCH  50  69
ATOM     69  C   UNL A   1      45.518  33.196  28.725  1.00  0.00    -0.014 A 
ATOM     70  C   UNL A   1      45.417  34.271  27.829  1.00  0.00     0.009 A 
ATOM     71  C   UNL A   1      46.376  33.311  29.829  1.00  0.00     0.009 A 
ATOM     72  C   UNL A   1      46.186  35.422  28.017  1.00  0.00     0.001 A 
ATOM     73  C   UNL A   1      47.121  34.474  30.031  1.00  0.00     0.001 A 
ATOM     74  C   UNL A   1      47.035  35.523  29.118  1.00  0.00     0.000 A 
ENDBRANCH  50  69
BRANCH  62  75
ATOM     75  C   UNL A   1      47.014  27.445  25.121  1.00  0.00    -0.014 A 
ATOM     76  C   UNL A   1      47.105  27.830  23.774  1.00  0.00     0.009 A 
ATOM     77  C   UNL A   1      48.061  26.702  25.689  1.00  0.00     0.009 A 
ATOM     78  C   UNL A   1      48.201  27.441  23.001  1.00  0.00     0.001 A 
ATOM     79  C   UNL A   1      49.168  26.338  24.920  1.00  0.00     0.001 A 
ATOM     80  C   UNL A   1      49.232  26.697  23.576  1.00  0.00     0.000 A 
ENDBRANCH  62  75
ENDBRANCH  36  37
ENDBRANCH  29  31
ENDBRANCH  28  29
ENDBRANCH  27  28
ENDBRANCH  26  27
ENDBRANCH  25  26
ENDBRANCH   1  25
TORSDOF 20
ENDMDL
MODEL 3
REMARK VINA RESULT:      -9.1      2.165      3.384
REMARK SMILES CCC(CC)(CC)NC(=O)NC[C@@H]1CC[C@H](C(=O)OCCOCCOC(=O)c2ccc(-c3c4nc(c(-c5ccccc5)c5ccc([nH]5)c(-c5ccccc5)c5nc(c(-c6ccccc6)c6ccc3[nH]6)C=C5)C=C4)cc2)O1
REMARK SMILES IDX 21 1 20 2 19 3 17 4 18 5 16 6 13 7 14 8 76 9 15 10 12 11
REMARK SMILES IDX 11 12 8 13 9 14 10 16 3 18 2 19 1 20 4 21 5 22 6 23 7 24
REMARK SMILES IDX 22 25 23 26 24 27 25 28 26 29 27 30 28 31 29 32 75 33 30 34
REMARK SMILES IDX 74 35 31 36 32 37 33 38 68 39 34 40 73 41 67 42 69 43 35 44
REMARK SMILES IDX 72 45 66 46 65 47 36 49 58 50 43 51 57 52 44 53 47 54 56 55
REMARK SMILES IDX 70 56 45 57 46 58 55 60 71 61 48 62 37 63 38 64 42 65 39 66
REMARK SMILES IDX 41 67 40 68 59 69 60 70 64 71 61 72 63 73 62 74 49 75 50 76
REMARK SMILES IDX 54 77 51 78 53 79 52 80
REMARK H PARENT 8 15 11 17 69 48 47 59
REMARK Flexibility Score: inf
ROOT
ATOM      1  C   UNL A   1      37.631  21.746  24.855  1.00  0.00     0.202 C 
ENDROOT
BRANCH   1   2
ATOM      2  C   UNL A   1      36.811  22.573  23.860  1.00  0.00     0.261 C 
BRANCH   2   3
ATOM      3  O   UNL A   1      36.080  23.645  24.486  1.00  0.00    -0.461 OA
BRANCH   3   4
ATOM      4  C   UNL A   1      34.735  23.449  24.610  1.00  0.00     0.335 C 
ATOM      5  O   UNL A   1      34.073  23.762  25.593  1.00  0.00    -0.249 OA
BRANCH   4   6
ATOM      6  C   UNL A   1      34.105  22.823  23.351  1.00  0.00     0.228 C 
ATOM      7  C   UNL A   1      32.918  24.284  21.964  1.00  0.00     0.138 C 
ATOM      8  C   UNL A   1      31.931  23.682  22.959  1.00  0.00     0.037 C 
ATOM      9  O   UNL A   1      34.184  23.658  22.198  1.00  0.00    -0.361 OA
ATOM     10  C   UNL A   1      32.642  22.446  23.463  1.00  0.00     0.047 C 
BRANCH   7  11
ATOM     11  C   UNL A   1      33.044  25.821  22.004  1.00  0.00     0.149 C 
BRANCH  11  12
ATOM     12  N   UNL A   1      31.783  26.531  21.877  1.00  0.00    -0.336 N 
ATOM     13  N   UNL A   1      31.293  27.932  23.759  1.00  0.00    -0.333 N 
ATOM     14  C   UNL A   1      31.137  27.498  22.517  1.00  0.00     0.315 C 
ATOM     15  H   UNL A   1      30.715  28.720  23.877  1.00  0.00     0.165 HD
ATOM     16  O   UNL A   1      30.247  28.061  21.864  1.00  0.00    -0.249 OA
ATOM     17  H   UNL A   1      31.267  26.207  21.103  1.00  0.00     0.165 HD
BRANCH  13  18
ATOM     18  C   UNL A   1      32.006  27.691  25.050  1.00  0.00     0.041 C 
BRANCH  18  19
ATOM     19  C   UNL A   1      31.607  26.389  25.781  1.00  0.00     0.025 C 
ATOM     20  C   UNL A   1      30.233  25.856  25.391  1.00  0.00     0.006 C 
ENDBRANCH  18  19
BRANCH  18  21
ATOM     21  C   UNL A   1      31.590  28.908  25.977  1.00  0.00     0.025 C 
ATOM     22  C   UNL A   1      31.707  28.688  27.485  1.00  0.00     0.006 C 
ENDBRANCH  18  21
BRANCH  18  23
ATOM     23  C   UNL A   1      33.550  27.805  24.852  1.00  0.00     0.025 C 
ATOM     24  C   UNL A   1      34.064  28.842  23.867  1.00  0.00     0.006 C 
ENDBRANCH  18  23
ENDBRANCH  13  18
ENDBRANCH  11  12
ENDBRANCH   7  11
ENDBRANCH   4   6
ENDBRANCH   3   4
ENDBRANCH   2   3
ENDBRANCH   1   2
BRANCH   1  25
ATOM     25  O   UNL A   1      37.323  20.359  24.963  1.00  0.00    -0.374 OA
BRANCH  25  26
ATOM     26  C   UNL A   1      38.399  19.425  24.985  1.00  0.00     0.202 C 
BRANCH  26  27
ATOM     27  C   UNL A   1      39.630  19.811  25.810  1.00  0.00     0.261 C 
BRANCH  27  28
ATOM     28  O   UNL A   1      40.777  18.991  25.509  1.00  0.00    -0.460 OA
BRANCH  28  29
ATOM     29  C   UNL A   1      41.942  19.481  25.997  1.00  0.00     0.338 C 
ATOM     30  O   UNL A   1      43.046  18.968  25.930  1.00  0.00    -0.246 OA
BRANCH  29  31
ATOM     31  C   UNL A   1      41.763  20.842  26.533  1.00  0.00     0.060 A 
ATOM     32  C   UNL A   1      42.054  21.909  25.676  1.00  0.00     0.016 A 
ATOM     33  C   UNL A   1      41.504  21.069  27.887  1.00  0.00     0.016 A 
ATOM     34  C   UNL A   1      42.161  23.201  26.185  1.00  0.00     0.010 A 
ATOM     35  C   UNL A   1      41.610  22.371  28.396  1.00  0.00     0.010 A 
ATOM     36  C   UNL A   1      41.989  23.435  27.558  1.00  0.00    -0.014 A 
BRANCH  36  37
ATOM     37  C   UNL A   1      42.357  24.769  28.102  1.00  0.00     0.031 A 
ATOM     38  C   UNL A   1      43.811  25.116  28.300  1.00  0.00     0.074 A 
ATOM     39  C   UNL A   1      41.414  25.704  28.320  1.00  0.00     0.049 A 
ATOM     40  N   UNL A   1      44.348  26.254  28.667  1.00  0.00    -0.248 NA
ATOM     41  C   UNL A   1      44.789  24.046  28.043  1.00  0.00     0.031 C 
ATOM     42  C   UNL A   1      39.976  25.516  28.131  1.00  0.00     0.029 A 
ATOM     43  N   UNL A   1      41.533  27.009  28.729  1.00  0.00    -0.354 N 
ATOM     44  C   UNL A   1      45.722  26.042  28.669  1.00  0.00     0.074 A 
ATOM     45  C   UNL A   1      45.935  24.656  28.312  1.00  0.00     0.031 C 
ATOM     46  C   UNL A   1      39.345  26.669  28.414  1.00  0.00     0.029 A 
ATOM     47  C   UNL A   1      40.332  27.669  28.819  1.00  0.00     0.049 A 
ATOM     48  H   UNL A   1      42.397  27.433  28.938  1.00  0.00     0.167 HD
ATOM     49  C   UNL A   1      46.720  26.921  28.925  1.00  0.00     0.031 A 
ATOM     50  C   UNL A   1      40.057  28.935  29.185  1.00  0.00     0.031 A 
ATOM     51  C   UNL A   1      46.524  28.297  29.297  1.00  0.00     0.049 A 
ATOM     52  C   UNL A   1      41.182  29.873  29.532  1.00  0.00     0.074 A 
ATOM     53  C   UNL A   1      47.477  29.257  29.590  1.00  0.00     0.029 A 
ATOM     54  N   UNL A   1      45.288  28.910  29.426  1.00  0.00    -0.354 N 
ATOM     55  N   UNL A   1      42.475  29.659  29.510  1.00  0.00    -0.248 NA
ATOM     56  C   UNL A   1      40.804  31.235  29.938  1.00  0.00     0.031 C 
ATOM     57  C   UNL A   1      46.817  30.441  29.936  1.00  0.00     0.029 A 
ATOM     58  C   UNL A   1      45.454  30.231  29.809  1.00  0.00     0.049 A 
ATOM     59  H   UNL A   1      44.421  28.472  29.268  1.00  0.00     0.167 HD
ATOM     60  C   UNL A   1      43.063  30.864  29.875  1.00  0.00     0.074 A 
ATOM     61  C   UNL A   1      41.990  31.810  30.090  1.00  0.00     0.031 C 
ATOM     62  C   UNL A   1      44.378  31.161  30.023  1.00  0.00     0.031 A 
BRANCH  49  63
ATOM     63  C   UNL A   1      48.132  26.416  28.820  1.00  0.00    -0.014 A 
ATOM     64  C   UNL A   1      48.769  25.823  29.921  1.00  0.00     0.009 A 
ATOM     65  C   UNL A   1      48.812  26.482  27.594  1.00  0.00     0.009 A 
ATOM     66  C   UNL A   1      50.069  25.325  29.801  1.00  0.00     0.001 A 
ATOM     67  C   UNL A   1      50.102  25.964  27.472  1.00  0.00     0.001 A 
ATOM     68  C   UNL A   1      50.732  25.391  28.577  1.00  0.00     0.000 A 
ENDBRANCH  49  63
BRANCH  50  69
ATOM     69  C   UNL A   1      38.646  29.400  29.263  1.00  0.00    -0.014 A 
ATOM     70  C   UNL A   1      38.025  30.009  28.162  1.00  0.00     0.009 A 
ATOM     71  C   UNL A   1      37.931  29.278  30.464  1.00  0.00     0.009 A 
ATOM     72  C   UNL A   1      36.728  30.516  28.274  1.00  0.00     0.001 A 
ATOM     73  C   UNL A   1      36.625  29.759  30.564  1.00  0.00     0.001 A 
ATOM     74  C   UNL A   1      36.029  30.389  29.473  1.00  0.00     0.000 A 
ENDBRANCH  50  69
BRANCH  62  75
ATOM     75  C   UNL A   1      44.723  32.572  30.408  1.00  0.00    -0.014 A 
ATOM     76  C   UNL A   1      45.032  33.537  29.436  1.00  0.00     0.009 A 
ATOM     77  C   UNL A   1      44.723  32.945  31.760  1.00  0.00     0.009 A 
ATOM     78  C   UNL A   1      45.376  34.836  29.814  1.00  0.00     0.001 A 
ATOM     79  C   UNL A   1      45.041  34.253  32.134  1.00  0.00     0.001 A 
ATOM     80  C   UNL A   1      45.378  35.193  31.163  1.00  0.00     0.000 A 
ENDBRANCH  62  75
ENDBRANCH  36  37
ENDBRANCH  29  31
ENDBRANCH  28  29
ENDBRANCH  27  28
ENDBRANCH  26  27
ENDBRANCH  25  26
ENDBRANCH   1  25
TORSDOF 20
ENDMDL
