MODEL 1
REMARK VINA RESULT:     -10.3      0.000      0.000
REMARK SMILES C[C@@H](C(=O)OCCOCCOC(=O)c1ccc(-c2c3nc(c(-c4ccccc4)c4ccc([nH]4)c(-c4ccccc4)c4nc(c(-c5ccccc5)c5ccc2[nH]5)C=C4)C=C3)cc1)c1ccc(C[C@H]2CCC[C@H]2O)cc1
REMARK SMILES IDX 7 1 6 2 5 3 3 4 4 5 2 6 1 7 62 8 63 9 74 10 64 11 73 12
REMARK SMILES IDX 65 13 66 14 67 15 68 16 71 17 69 18 70 19 72 20 8 22 9 23
REMARK SMILES IDX 10 24 11 25 12 26 13 27 14 28 15 29 61 30 16 31 60 32 17 33
REMARK SMILES IDX 18 34 19 35 54 36 20 37 59 38 53 39 55 40 21 41 58 42 52 43
REMARK SMILES IDX 51 44 22 46 44 47 29 48 43 49 30 50 33 51 42 52 56 53 31 54
REMARK SMILES IDX 32 55 41 57 57 58 34 59 23 60 24 61 28 62 25 63 27 64 26 65
REMARK SMILES IDX 45 66 46 67 50 68 47 69 49 70 48 71 35 72 36 73 40 74 37 75
REMARK SMILES IDX 39 76 38 77
REMARK H PARENT 72 21 55 45 33 56
REMARK Flexibility Score: inf
ROOT
ATOM      1  C   UNL A   1      36.975  22.050  24.279  1.00  0.00     0.202 C 
ENDROOT
BRANCH   1   2
ATOM      2  C   UNL A   1      36.179  22.960  23.340  1.00  0.00     0.261 C 
BRANCH   2   3
ATOM      3  O   UNL A   1      35.538  24.001  24.088  1.00  0.00    -0.463 OA
BRANCH   3   4
ATOM      4  C   UNL A   1      34.389  24.484  23.542  1.00  0.00     0.313 C 
ATOM      5  O   UNL A   1      34.328  25.051  22.457  1.00  0.00    -0.252 OA
BRANCH   4   6
ATOM      6  C   UNL A   1      33.162  24.123  24.381  1.00  0.00     0.126 C 
ATOM      7  C   UNL A   1      33.346  24.550  25.844  1.00  0.00     0.025 C 
BRANCH   6   8
ATOM      8  C   UNL A   1      32.686  22.676  24.204  1.00  0.00    -0.034 A 
ATOM      9  C   UNL A   1      32.619  21.783  25.285  1.00  0.00     0.005 A 
ATOM     10  C   UNL A   1      32.424  22.156  22.924  1.00  0.00     0.005 A 
ATOM     11  C   UNL A   1      32.385  20.418  25.088  1.00  0.00     0.004 A 
ATOM     12  C   UNL A   1      32.209  20.788  22.727  1.00  0.00     0.004 A 
ATOM     13  C   UNL A   1      32.267  19.895  23.800  1.00  0.00    -0.048 A 
BRANCH  13  14
ATOM     14  C   UNL A   1      32.303  18.404  23.570  1.00  0.00     0.041 C 
BRANCH  14  15
ATOM     15  C   UNL A   1      33.186  17.575  24.533  1.00  0.00     0.022 C 
ATOM     16  C   UNL A   1      32.479  16.444  25.303  1.00  0.00     0.007 C 
ATOM     17  C   UNL A   1      34.465  16.928  23.975  1.00  0.00     0.117 C 
ATOM     18  C   UNL A   1      33.525  15.349  25.519  1.00  0.00     0.003 C 
ATOM     19  C   UNL A   1      34.855  15.945  25.075  1.00  0.00     0.032 C 
BRANCH  17  20
ATOM     20  O   UNL A   1      34.294  16.208  22.769  1.00  0.00    -0.393 OA
ATOM     21  H   UNL A   1      33.358  15.979  22.658  1.00  0.00     0.210 HD
ENDBRANCH  17  20
ENDBRANCH  14  15
ENDBRANCH  13  14
ENDBRANCH   6   8
ENDBRANCH   4   6
ENDBRANCH   3   4
ENDBRANCH   2   3
ENDBRANCH   1   2
BRANCH   1  22
ATOM     22  O   UNL A   1      37.800  22.709  25.241  1.00  0.00    -0.374 OA
BRANCH  22  23
ATOM     23  C   UNL A   1      38.673  21.903  26.037  1.00  0.00     0.202 C 
BRANCH  23  24
ATOM     24  C   UNL A   1      39.241  20.642  25.373  1.00  0.00     0.261 C 
BRANCH  24  25
ATOM     25  O   UNL A   1      40.027  19.843  26.280  1.00  0.00    -0.460 OA
BRANCH  25  26
ATOM     26  C   UNL A   1      41.357  19.846  26.029  1.00  0.00     0.338 C 
ATOM     27  O   UNL A   1      41.991  19.038  25.364  1.00  0.00    -0.246 OA
BRANCH  26  28
ATOM     28  C   UNL A   1      41.975  21.083  26.537  1.00  0.00     0.060 A 
ATOM     29  C   UNL A   1      41.885  21.334  27.912  1.00  0.00     0.016 A 
ATOM     30  C   UNL A   1      42.530  22.033  25.678  1.00  0.00     0.016 A 
ATOM     31  C   UNL A   1      42.305  22.558  28.429  1.00  0.00     0.010 A 
ATOM     32  C   UNL A   1      42.942  23.267  26.197  1.00  0.00     0.010 A 
ATOM     33  C   UNL A   1      42.798  23.548  27.568  1.00  0.00    -0.014 A 
BRANCH  33  34
ATOM     34  C   UNL A   1      43.017  24.919  28.089  1.00  0.00     0.031 A 
ATOM     35  C   UNL A   1      44.414  25.355  28.439  1.00  0.00     0.074 A 
ATOM     36  C   UNL A   1      41.994  25.783  28.208  1.00  0.00     0.049 A 
ATOM     37  N   UNL A   1      44.831  26.504  28.910  1.00  0.00    -0.248 NA
ATOM     38  C   UNL A   1      45.484  24.366  28.229  1.00  0.00     0.031 C 
ATOM     39  C   UNL A   1      40.603  25.502  27.859  1.00  0.00     0.029 A 
ATOM     40  N   UNL A   1      41.975  27.080  28.659  1.00  0.00    -0.354 N 
ATOM     41  C   UNL A   1      46.207  26.377  29.051  1.00  0.00     0.074 A 
ATOM     42  C   UNL A   1      46.551  25.031  28.646  1.00  0.00     0.031 C 
ATOM     43  C   UNL A   1      39.862  26.595  28.115  1.00  0.00     0.029 A 
ATOM     44  C   UNL A   1      40.721  27.638  28.670  1.00  0.00     0.049 A 
ATOM     45  H   UNL A   1      42.783  27.563  28.945  1.00  0.00     0.167 HD
ATOM     46  C   UNL A   1      47.106  27.297  29.473  1.00  0.00     0.031 A 
ATOM     47  C   UNL A   1      40.310  28.848  29.097  1.00  0.00     0.031 A 
ATOM     48  C   UNL A   1      46.768  28.631  29.892  1.00  0.00     0.049 A 
ATOM     49  C   UNL A   1      41.317  29.827  29.638  1.00  0.00     0.074 A 
ATOM     50  C   UNL A   1      47.611  29.636  30.333  1.00  0.00     0.029 A 
ATOM     51  N   UNL A   1      45.480  29.142  29.932  1.00  0.00    -0.354 N 
ATOM     52  N   UNL A   1      42.618  29.699  29.748  1.00  0.00    -0.248 NA
ATOM     53  C   UNL A   1      40.798  31.121  30.107  1.00  0.00     0.031 C 
ATOM     54  C   UNL A   1      46.827  30.741  30.685  1.00  0.00     0.029 A 
ATOM     55  C   UNL A   1      45.503  30.440  30.413  1.00  0.00     0.049 A 
ATOM     56  H   UNL A   1      44.671  28.654  29.658  1.00  0.00     0.167 HD
ATOM     57  C   UNL A   1      43.074  30.903  30.274  1.00  0.00     0.074 A 
ATOM     58  C   UNL A   1      41.913  31.752  30.449  1.00  0.00     0.031 C 
ATOM     59  C   UNL A   1      44.340  31.271  30.584  1.00  0.00     0.031 A 
BRANCH  46  60
ATOM     60  C   UNL A   1      48.546  26.877  29.529  1.00  0.00    -0.014 A 
ATOM     61  C   UNL A   1      49.377  26.974  28.403  1.00  0.00     0.009 A 
ATOM     62  C   UNL A   1      49.087  26.403  30.735  1.00  0.00     0.009 A 
ATOM     63  C   UNL A   1      50.714  26.575  28.474  1.00  0.00     0.001 A 
ATOM     64  C   UNL A   1      50.430  26.028  30.810  1.00  0.00     0.001 A 
ATOM     65  C   UNL A   1      51.240  26.107  29.677  1.00  0.00     0.000 A 
ENDBRANCH  46  60
BRANCH  47  66
ATOM     66  C   UNL A   1      38.868  29.199  29.054  1.00  0.00    -0.014 A 
ATOM     67  C   UNL A   1      38.292  29.735  27.891  1.00  0.00     0.009 A 
ATOM     68  C   UNL A   1      38.061  29.017  30.188  1.00  0.00     0.009 A 
ATOM     69  C   UNL A   1      36.944  30.101  27.874  1.00  0.00     0.001 A 
ATOM     70  C   UNL A   1      36.708  29.358  30.159  1.00  0.00     0.001 A 
ATOM     71  C   UNL A   1      36.153  29.909  29.006  1.00  0.00     0.000 A 
ENDBRANCH  47  66
BRANCH  59  72
ATOM     72  C   UNL A   1      44.543  32.663  31.114  1.00  0.00    -0.014 A 
ATOM     73  C   UNL A   1      44.809  33.739  30.253  1.00  0.00     0.009 A 
ATOM     74  C   UNL A   1      44.423  32.907  32.492  1.00  0.00     0.009 A 
ATOM     75  C   UNL A   1      44.982  35.026  30.765  1.00  0.00     0.001 A 
ATOM     76  C   UNL A   1      44.570  34.199  32.998  1.00  0.00     0.001 A 
ATOM     77  C   UNL A   1      44.858  35.255  32.135  1.00  0.00     0.000 A 
ENDBRANCH  59  72
ENDBRANCH  33  34
ENDBRANCH  26  28
ENDBRANCH  25  26
ENDBRANCH  24  25
ENDBRANCH  23  24
ENDBRANCH  22  23
ENDBRANCH   1  22
TORSDOF 18
ENDMDL
MODEL 2
REMARK VINA RESULT:     -10.0      3.649      8.702
REMARK SMILES C[C@@H](C(=O)OCCOCCOC(=O)c1ccc(-c2c3nc(c(-c4ccccc4)c4ccc([nH]4)c(-c4ccccc4)c4nc(c(-c5ccccc5)c5ccc2[nH]5)C=C4)C=C3)cc1)c1ccc(C[C@H]2CCC[C@H]2O)cc1
REMARK SMILES IDX 7 1 6 2 5 3 3 4 4 5 2 6 1 7 62 8 63 9 74 10 64 11 73 12
REMARK SMILES IDX 65 13 66 14 67 15 68 16 71 17 69 18 70 19 72 20 8 22 9 23
REMARK SMILES IDX 10 24 11 25 12 26 13 27 14 28 15 29 61 30 16 31 60 32 17 33
REMARK SMILES IDX 18 34 19 35 54 36 20 37 59 38 53 39 55 40 21 41 58 42 52 43
REMARK SMILES IDX 51 44 22 46 44 47 29 48 43 49 30 50 33 51 42 52 56 53 31 54
REMARK SMILES IDX 32 55 41 57 57 58 34 59 23 60 24 61 28 62 25 63 27 64 26 65
REMARK SMILES IDX 45 66 46 67 50 68 47 69 49 70 48 71 35 72 36 73 40 74 37 75
REMARK SMILES IDX 39 76 38 77
REMARK H PARENT 72 21 55 45 33 56
REMARK Flexibility Score: inf
ROOT
ATOM      1  C   UNL A   1      31.877  29.206  25.965  1.00  0.00     0.202 C 
ENDROOT
BRANCH   1   2
ATOM      2  C   UNL A   1      31.445  29.423  24.513  1.00  0.00     0.261 C 
BRANCH   2   3
ATOM      3  O   UNL A   1      30.269  28.655  24.228  1.00  0.00    -0.463 OA
BRANCH   3   4
ATOM      4  C   UNL A   1      30.390  27.767  23.205  1.00  0.00     0.313 C 
ATOM      5  O   UNL A   1      30.470  28.085  22.023  1.00  0.00    -0.252 OA
BRANCH   4   6
ATOM      6  C   UNL A   1      30.545  26.332  23.709  1.00  0.00     0.126 C 
ATOM      7  C   UNL A   1      29.386  25.942  24.636  1.00  0.00     0.025 C 
BRANCH   6   8
ATOM      8  C   UNL A   1      31.935  26.014  24.274  1.00  0.00    -0.034 A 
ATOM      9  C   UNL A   1      33.081  26.014  23.462  1.00  0.00     0.005 A 
ATOM     10  C   UNL A   1      32.091  25.581  25.602  1.00  0.00     0.005 A 
ATOM     11  C   UNL A   1      34.305  25.526  23.930  1.00  0.00     0.004 A 
ATOM     12  C   UNL A   1      33.311  25.076  26.063  1.00  0.00     0.004 A 
ATOM     13  C   UNL A   1      34.408  24.971  25.205  1.00  0.00    -0.048 A 
BRANCH  13  14
ATOM     14  C   UNL A   1      35.636  24.189  25.606  1.00  0.00     0.041 C 
BRANCH  14  15
ATOM     15  C   UNL A   1      35.804  22.788  24.972  1.00  0.00     0.022 C 
ATOM     16  C   UNL A   1      37.251  22.297  24.777  1.00  0.00     0.007 C 
ATOM     17  C   UNL A   1      35.072  21.601  25.622  1.00  0.00     0.117 C 
ATOM     18  C   UNL A   1      37.211  20.773  24.917  1.00  0.00     0.003 C 
ATOM     19  C   UNL A   1      35.737  20.394  24.968  1.00  0.00     0.032 C 
BRANCH  17  20
ATOM     20  O   UNL A   1      35.230  21.496  27.024  1.00  0.00    -0.393 OA
ATOM     21  H   UNL A   1      36.161  21.640  27.257  1.00  0.00     0.210 HD
ENDBRANCH  17  20
ENDBRANCH  14  15
ENDBRANCH  13  14
ENDBRANCH   6   8
ENDBRANCH   4   6
ENDBRANCH   3   4
ENDBRANCH   2   3
ENDBRANCH   1   2
BRANCH   1  22
ATOM     22  O   UNL A   1      31.883  30.366  26.799  1.00  0.00    -0.374 OA
BRANCH  22  23
ATOM     23  C   UNL A   1      31.249  31.548  26.306  1.00  0.00     0.202 C 
BRANCH  23  24
ATOM     24  C   UNL A   1      31.791  32.887  26.821  1.00  0.00     0.261 C 
BRANCH  24  25
ATOM     25  O   UNL A   1      33.042  32.748  27.523  1.00  0.00    -0.460 OA
BRANCH  25  26
ATOM     26  C   UNL A   1      33.355  33.785  28.334  1.00  0.00     0.338 C 
ATOM     27  O   UNL A   1      32.668  34.765  28.587  1.00  0.00    -0.246 OA
BRANCH  26  28
ATOM     28  C   UNL A   1      34.616  33.521  29.048  1.00  0.00     0.060 A 
ATOM     29  C   UNL A   1      35.808  33.902  28.418  1.00  0.00     0.016 A 
ATOM     30  C   UNL A   1      34.644  32.814  30.251  1.00  0.00     0.016 A 
ATOM     31  C   UNL A   1      37.036  33.535  28.965  1.00  0.00     0.010 A 
ATOM     32  C   UNL A   1      35.880  32.436  30.794  1.00  0.00     0.010 A 
ATOM     33  C   UNL A   1      37.078  32.764  30.134  1.00  0.00    -0.014 A 
BRANCH  33  34
ATOM     34  C   UNL A   1      38.370  32.182  30.574  1.00  0.00     0.031 A 
ATOM     35  C   UNL A   1      38.821  30.872  29.987  1.00  0.00     0.074 A 
ATOM     36  C   UNL A   1      39.155  32.831  31.452  1.00  0.00     0.049 A 
ATOM     37  N   UNL A   1      39.910  30.186  30.229  1.00  0.00    -0.248 NA
ATOM     38  C   UNL A   1      37.928  30.255  28.992  1.00  0.00     0.031 C 
ATOM     39  C   UNL A   1      38.857  34.127  32.057  1.00  0.00     0.029 A 
ATOM     40  N   UNL A   1      40.371  32.479  31.983  1.00  0.00    -0.354 N 
ATOM     41  C   UNL A   1      39.833  29.060  29.419  1.00  0.00     0.074 A 
ATOM     42  C   UNL A   1      38.579  29.138  28.702  1.00  0.00     0.031 C 
ATOM     43  C   UNL A   1      39.863  34.459  32.886  1.00  0.00     0.029 A 
ATOM     44  C   UNL A   1      40.857  33.389  32.888  1.00  0.00     0.049 A 
ATOM     45  H   UNL A   1      40.848  31.653  31.739  1.00  0.00     0.167 HD
ATOM     46  C   UNL A   1      40.727  28.053  29.278  1.00  0.00     0.031 A 
ATOM     47  C   UNL A   1      41.971  33.355  33.645  1.00  0.00     0.031 A 
ATOM     48  C   UNL A   1      41.968  27.961  30.000  1.00  0.00     0.049 A 
ATOM     49  C   UNL A   1      42.912  32.185  33.531  1.00  0.00     0.074 A 
ATOM     50  C   UNL A   1      42.941  26.979  29.922  1.00  0.00     0.029 A 
ATOM     51  N   UNL A   1      42.403  28.881  30.941  1.00  0.00    -0.354 N 
ATOM     52  N   UNL A   1      42.835  31.136  32.748  1.00  0.00    -0.248 NA
ATOM     53  C   UNL A   1      44.096  32.200  34.403  1.00  0.00     0.031 C 
ATOM     54  C   UNL A   1      43.942  27.281  30.851  1.00  0.00     0.029 A 
ATOM     55  C   UNL A   1      43.617  28.478  31.469  1.00  0.00     0.049 A 
ATOM     56  H   UNL A   1      41.919  29.700  31.195  1.00  0.00     0.167 HD
ATOM     57  C   UNL A   1      43.972  30.381  33.014  1.00  0.00     0.074 A 
ATOM     58  C   UNL A   1      44.727  31.099  34.020  1.00  0.00     0.031 C 
ATOM     59  C   UNL A   1      44.355  29.200  32.472  1.00  0.00     0.031 A 
BRANCH  46  60
ATOM     60  C   UNL A   1      40.376  26.949  28.322  1.00  0.00    -0.014 A 
ATOM     61  C   UNL A   1      39.550  25.884  28.713  1.00  0.00     0.009 A 
ATOM     62  C   UNL A   1      40.856  26.991  27.003  1.00  0.00     0.009 A 
ATOM     63  C   UNL A   1      39.237  24.866  27.809  1.00  0.00     0.001 A 
ATOM     64  C   UNL A   1      40.520  25.985  26.096  1.00  0.00     0.001 A 
ATOM     65  C   UNL A   1      39.719  24.918  26.502  1.00  0.00     0.000 A 
ENDBRANCH  46  60
BRANCH  47  66
ATOM     66  C   UNL A   1      42.252  34.455  34.602  1.00  0.00    -0.014 A 
ATOM     67  C   UNL A   1      41.755  34.412  35.914  1.00  0.00     0.009 A 
ATOM     68  C   UNL A   1      43.006  35.568  34.199  1.00  0.00     0.009 A 
ATOM     69  C   UNL A   1      41.989  35.471  36.794  1.00  0.00     0.001 A 
ATOM     70  C   UNL A   1      43.262  36.613  35.089  1.00  0.00     0.001 A 
ATOM     71  C   UNL A   1      42.746  36.567  36.383  1.00  0.00     0.000 A 
ENDBRANCH  47  66
BRANCH  59  72
ATOM     72  C   UNL A   1      45.665  28.623  32.931  1.00  0.00    -0.014 A 
ATOM     73  C   UNL A   1      46.872  28.961  32.300  1.00  0.00     0.009 A 
ATOM     74  C   UNL A   1      45.694  27.763  34.041  1.00  0.00     0.009 A 
ATOM     75  C   UNL A   1      48.078  28.424  32.752  1.00  0.00     0.001 A 
ATOM     76  C   UNL A   1      46.905  27.248  34.506  1.00  0.00     0.001 A 
ATOM     77  C   UNL A   1      48.095  27.572  33.856  1.00  0.00     0.000 A 
ENDBRANCH  59  72
ENDBRANCH  33  34
ENDBRANCH  26  28
ENDBRANCH  25  26
ENDBRANCH  24  25
ENDBRANCH  23  24
ENDBRANCH  22  23
ENDBRANCH   1  22
TORSDOF 18
ENDMDL
MODEL 3
REMARK VINA RESULT:      -9.9      3.845      8.044
REMARK SMILES C[C@@H](C(=O)OCCOCCOC(=O)c1ccc(-c2c3nc(c(-c4ccccc4)c4ccc([nH]4)c(-c4ccccc4)c4nc(c(-c5ccccc5)c5ccc2[nH]5)C=C4)C=C3)cc1)c1ccc(C[C@H]2CCC[C@H]2O)cc1
REMARK SMILES IDX 7 1 6 2 5 3 3 4 4 5 2 6 1 7 62 8 63 9 74 10 64 11 73 12
REMARK SMILES IDX 65 13 66 14 67 15 68 16 71 17 69 18 70 19 72 20 8 22 9 23
REMARK SMILES IDX 10 24 11 25 12 26 13 27 14 28 15 29 61 30 16 31 60 32 17 33
REMARK SMILES IDX 18 34 19 35 54 36 20 37 59 38 53 39 55 40 21 41 58 42 52 43
REMARK SMILES IDX 51 44 22 46 44 47 29 48 43 49 30 50 33 51 42 52 56 53 31 54
REMARK SMILES IDX 32 55 41 57 57 58 34 59 23 60 24 61 28 62 25 63 27 64 26 65
REMARK SMILES IDX 45 66 46 67 50 68 47 69 49 70 48 71 35 72 36 73 40 74 37 75
REMARK SMILES IDX 39 76 38 77
REMARK H PARENT 72 21 55 45 33 56
REMARK Flexibility Score: inf
ROOT
ATOM      1  C   UNL A   1      42.370  21.072  26.763  1.00  0.00     0.202 C 
ENDROOT
BRANCH   1   2
ATOM      2  C   UNL A   1      40.891  20.700  26.890  1.00  0.00     0.261 C 
BRANCH   2   3
ATOM      3  O   UNL A   1      40.086  21.884  26.936  1.00  0.00    -0.463 OA
BRANCH   3   4
ATOM      4  C   UNL A   1      39.054  21.919  26.050  1.00  0.00     0.313 C 
ATOM      5  O   UNL A   1      38.508  20.922  25.590  1.00  0.00    -0.252 OA
BRANCH   4   6
ATOM      6  C   UNL A   1      38.569  23.346  25.794  1.00  0.00     0.126 C 
ATOM      7  C   UNL A   1      38.880  24.259  26.988  1.00  0.00     0.025 C 
BRANCH   6   8
ATOM      8  C   UNL A   1      37.122  23.436  25.295  1.00  0.00    -0.034 A 
ATOM      9  C   UNL A   1      36.773  23.102  23.976  1.00  0.00     0.005 A 
ATOM     10  C   UNL A   1      36.113  23.983  26.106  1.00  0.00     0.005 A 
ATOM     11  C   UNL A   1      35.500  23.380  23.468  1.00  0.00     0.004 A 
ATOM     12  C   UNL A   1      34.846  24.277  25.591  1.00  0.00     0.004 A 
ATOM     13  C   UNL A   1      34.555  24.050  24.244  1.00  0.00    -0.048 A 
BRANCH  13  14
ATOM     14  C   UNL A   1      33.298  24.604  23.616  1.00  0.00     0.041 C 
BRANCH  14  15
ATOM     15  C   UNL A   1      31.968  24.301  24.345  1.00  0.00     0.022 C 
ATOM     16  C   UNL A   1      31.956  23.055  25.251  1.00  0.00     0.007 C 
ATOM     17  C   UNL A   1      31.334  25.411  25.200  1.00  0.00     0.117 C 
ATOM     18  C   UNL A   1      30.977  23.357  26.387  1.00  0.00     0.003 C 
ATOM     19  C   UNL A   1      30.282  24.659  26.008  1.00  0.00     0.032 C 
BRANCH  17  20
ATOM     20  O   UNL A   1      32.219  26.052  26.099  1.00  0.00    -0.393 OA
ATOM     21  H   UNL A   1      32.719  26.737  25.629  1.00  0.00     0.210 HD
ENDBRANCH  17  20
ENDBRANCH  14  15
ENDBRANCH  13  14
ENDBRANCH   6   8
ENDBRANCH   4   6
ENDBRANCH   3   4
ENDBRANCH   2   3
ENDBRANCH   1   2
BRANCH   1  22
ATOM     22  O   UNL A   1      42.969  20.840  25.486  1.00  0.00    -0.374 OA
BRANCH  22  23
ATOM     23  C   UNL A   1      44.291  21.337  25.268  1.00  0.00     0.202 C 
BRANCH  23  24
ATOM     24  C   UNL A   1      44.453  22.414  24.187  1.00  0.00     0.261 C 
BRANCH  24  25
ATOM     25  O   UNL A   1      43.698  23.608  24.475  1.00  0.00    -0.460 OA
BRANCH  25  26
ATOM     26  C   UNL A   1      44.415  24.607  25.041  1.00  0.00     0.338 C 
ATOM     27  O   UNL A   1      45.545  24.971  24.747  1.00  0.00    -0.246 OA
BRANCH  26  28
ATOM     28  C   UNL A   1      43.584  25.360  25.998  1.00  0.00     0.060 A 
ATOM     29  C   UNL A   1      43.763  26.748  26.058  1.00  0.00     0.016 A 
ATOM     30  C   UNL A   1      42.734  24.715  26.897  1.00  0.00     0.016 A 
ATOM     31  C   UNL A   1      43.128  27.493  27.049  1.00  0.00     0.010 A 
ATOM     32  C   UNL A   1      42.104  25.463  27.900  1.00  0.00     0.010 A 
ATOM     33  C   UNL A   1      42.327  26.849  28.002  1.00  0.00    -0.014 A 
BRANCH  33  34
ATOM     34  C   UNL A   1      41.852  27.609  29.183  1.00  0.00     0.031 A 
ATOM     35  C   UNL A   1      40.548  28.354  29.100  1.00  0.00     0.074 A 
ATOM     36  C   UNL A   1      42.549  27.601  30.334  1.00  0.00     0.049 A 
ATOM     37  N   UNL A   1      39.948  29.081  30.009  1.00  0.00    -0.248 NA
ATOM     38  C   UNL A   1      39.822  28.267  27.822  1.00  0.00     0.031 C 
ATOM     39  C   UNL A   1      43.800  26.881  30.561  1.00  0.00     0.029 A 
ATOM     40  N   UNL A   1      42.293  28.224  31.530  1.00  0.00    -0.354 N 
ATOM     41  C   UNL A   1      38.777  29.536  29.415  1.00  0.00     0.074 A 
ATOM     42  C   UNL A   1      38.765  29.031  28.060  1.00  0.00     0.031 C 
ATOM     43  C   UNL A   1      44.208  27.109  31.822  1.00  0.00     0.029 A 
ATOM     44  C   UNL A   1      43.263  28.010  32.478  1.00  0.00     0.049 A 
ATOM     45  H   UNL A   1      41.491  28.770  31.694  1.00  0.00     0.167 HD
ATOM     46  C   UNL A   1      37.796  30.301  29.950  1.00  0.00     0.031 A 
ATOM     47  C   UNL A   1      43.383  28.499  33.726  1.00  0.00     0.031 A 
ATOM     48  C   UNL A   1      37.810  30.820  31.291  1.00  0.00     0.049 A 
ATOM     49  C   UNL A   1      42.319  29.413  34.273  1.00  0.00     0.074 A 
ATOM     50  C   UNL A   1      36.858  31.603  31.924  1.00  0.00     0.029 A 
ATOM     51  N   UNL A   1      38.833  30.618  32.205  1.00  0.00    -0.354 N 
ATOM     52  N   UNL A   1      41.209  29.821  33.707  1.00  0.00    -0.248 NA
ATOM     53  C   UNL A   1      42.525  29.930  35.634  1.00  0.00     0.031 C 
ATOM     54  C   UNL A   1      37.329  31.913  33.205  1.00  0.00     0.029 A 
ATOM     55  C   UNL A   1      38.549  31.280  33.386  1.00  0.00     0.049 A 
ATOM     56  H   UNL A   1      39.641  30.083  32.037  1.00  0.00     0.167 HD
ATOM     57  C   UNL A   1      40.572  30.619  34.650  1.00  0.00     0.074 A 
ATOM     58  C   UNL A   1      41.414  30.627  35.829  1.00  0.00     0.031 C 
ATOM     59  C   UNL A   1      39.396  31.283  34.549  1.00  0.00     0.031 A 
BRANCH  46  60
ATOM     60  C   UNL A   1      36.633  30.646  29.065  1.00  0.00    -0.014 A 
ATOM     61  C   UNL A   1      35.716  29.667  28.653  1.00  0.00     0.009 A 
ATOM     62  C   UNL A   1      36.437  31.976  28.660  1.00  0.00     0.009 A 
ATOM     63  C   UNL A   1      34.642  30.009  27.828  1.00  0.00     0.001 A 
ATOM     64  C   UNL A   1      35.349  32.318  27.855  1.00  0.00     0.001 A 
ATOM     65  C   UNL A   1      34.458  31.332  27.432  1.00  0.00     0.000 A 
ENDBRANCH  46  60
BRANCH  47  66
ATOM     66  C   UNL A   1      44.573  28.155  34.547  1.00  0.00    -0.014 A 
ATOM     67  C   UNL A   1      44.624  26.954  35.271  1.00  0.00     0.009 A 
ATOM     68  C   UNL A   1      45.659  29.041  34.624  1.00  0.00     0.009 A 
ATOM     69  C   UNL A   1      45.730  26.659  36.073  1.00  0.00     0.001 A 
ATOM     70  C   UNL A   1      46.774  28.731  35.404  1.00  0.00     0.001 A 
ATOM     71  C   UNL A   1      46.805  27.545  36.135  1.00  0.00     0.000 A 
ENDBRANCH  47  66
BRANCH  59  72
ATOM     72  C   UNL A   1      38.932  32.050  35.756  1.00  0.00    -0.014 A 
ATOM     73  C   UNL A   1      39.248  33.407  35.922  1.00  0.00     0.009 A 
ATOM     74  C   UNL A   1      38.130  31.414  36.717  1.00  0.00     0.009 A 
ATOM     75  C   UNL A   1      38.796  34.104  37.044  1.00  0.00     0.001 A 
ATOM     76  C   UNL A   1      37.658  32.121  37.825  1.00  0.00     0.001 A 
ATOM     77  C   UNL A   1      37.998  33.462  37.991  1.00  0.00     0.000 A 
ENDBRANCH  59  72
ENDBRANCH  33  34
ENDBRANCH  26  28
ENDBRANCH  25  26
ENDBRANCH  24  25
ENDBRANCH  23  24
ENDBRANCH  22  23
ENDBRANCH   1  22
TORSDOF 18
ENDMDL
