MODEL 1
REMARK VINA RESULT:      -9.4      0.000      0.000
REMARK SMILES CCN(CC(C)(C)O)C(=O)Nc1ccc(C(=O)OCCOCCOC(=O)c2ccc(-c3c4nc(c(-c5ccccc5)c5ccc([nH]5)c(-c5ccccc5)c5nc(c(-c6ccccc6)c6ccc3[nH]6)C=C5)C=C4)cc2)c(O)c1
REMARK SMILES IDX 19 1 18 2 16 3 17 4 15 5 12 6 13 7 77 8 14 9 75 10 11 11
REMARK SMILES IDX 9 12 10 13 3 15 2 16 1 17 4 18 5 19 6 20 7 21 8 22 76 24
REMARK SMILES IDX 20 26 21 27 22 28 23 29 24 30 25 31 26 32 27 33 28 34 74 35
REMARK SMILES IDX 29 36 73 37 30 38 31 39 32 40 67 41 33 42 72 43 66 44 68 45
REMARK SMILES IDX 34 46 71 47 65 48 64 49 35 51 57 52 42 53 56 54 43 55 46 56
REMARK SMILES IDX 55 57 69 58 44 59 45 60 54 62 70 63 47 64 36 65 37 66 41 67
REMARK SMILES IDX 38 68 40 69 39 70 58 71 59 72 63 73 60 74 62 75 61 76 48 77
REMARK SMILES IDX 49 78 53 79 50 80 52 81 51 82
REMARK H PARENT 11 14 8 23 76 25 68 50 46 61
REMARK Flexibility Score: inf
ROOT
ATOM      1  C   UNL A   1      42.346  20.153  26.546  1.00  0.00     0.261 C 
ENDROOT
BRANCH   1   2
ATOM      2  O   UNL A   1      41.468  21.186  26.064  1.00  0.00    -0.460 OA
BRANCH   2   3
ATOM      3  C   UNL A   1      40.518  21.563  26.955  1.00  0.00     0.341 C 
ATOM      4  O   UNL A   1      40.680  21.830  28.137  1.00  0.00    -0.246 OA
BRANCH   3   5
ATOM      5  C   UNL A   1      39.282  21.890  26.229  1.00  0.00     0.101 A 
ATOM      6  C   UNL A   1      36.991  22.823  24.853  1.00  0.00     0.046 A 
ATOM      7  C   UNL A   1      37.695  23.633  25.726  1.00  0.00     0.027 A 
ATOM      8  C   UNL A   1      37.415  21.489  24.736  1.00  0.00     0.073 A 
ATOM      9  C   UNL A   1      38.827  23.193  26.404  1.00  0.00     0.022 A 
ATOM     10  C   UNL A   1      38.573  21.032  25.391  1.00  0.00     0.132 A 
BRANCH   6  11
ATOM     11  N   UNL A   1      35.820  23.212  24.178  1.00  0.00    -0.308 N 
ATOM     12  C   UNL A   1      34.557  22.789  23.927  1.00  0.00     0.321 C 
ATOM     13  O   UNL A   1      34.051  23.306  22.922  1.00  0.00    -0.248 OA
ATOM     14  H   UNL A   1      35.967  24.083  23.743  1.00  0.00     0.171 HD
BRANCH  12  15
ATOM     15  N   UNL A   1      33.800  21.988  24.746  1.00  0.00    -0.322 N 
BRANCH  15  16
ATOM     16  C   UNL A   1      33.580  20.596  24.308  1.00  0.00     0.118 C 
ATOM     17  C   UNL A   1      32.612  19.816  25.196  1.00  0.00     0.027 C 
ENDBRANCH  15  16
BRANCH  15  18
ATOM     18  C   UNL A   1      33.160  22.312  26.022  1.00  0.00     0.155 C 
BRANCH  18  19
ATOM     19  C   UNL A   1      31.955  23.315  25.896  1.00  0.00     0.077 C 
ATOM     20  C   UNL A   1      30.672  22.889  26.646  1.00  0.00     0.043 C 
ATOM     21  C   UNL A   1      32.433  24.731  26.269  1.00  0.00     0.043 C 
BRANCH  19  22
ATOM     22  O   UNL A   1      31.565  23.394  24.510  1.00  0.00    -0.389 OA
ATOM     23  H   UNL A   1      31.509  24.325  24.242  1.00  0.00     0.211 HD
ENDBRANCH  19  22
ENDBRANCH  18  19
ENDBRANCH  15  18
ENDBRANCH  12  15
ENDBRANCH   6  11
BRANCH  10  24
ATOM     24  O   UNL A   1      38.933  19.734  25.162  1.00  0.00    -0.507 OA
ATOM     25  H   UNL A   1      39.560  19.533  24.495  1.00  0.00     0.293 HD
ENDBRANCH  10  24
ENDBRANCH   3   5
ENDBRANCH   2   3
ENDBRANCH   1   2
BRANCH   1  26
ATOM     26  C   UNL A   1      43.553  19.936  25.622  1.00  0.00     0.202 C 
BRANCH  26  27
ATOM     27  O   UNL A   1      44.564  20.941  25.610  1.00  0.00    -0.374 OA
BRANCH  27  28
ATOM     28  C   UNL A   1      44.752  21.701  24.418  1.00  0.00     0.202 C 
BRANCH  28  29
ATOM     29  C   UNL A   1      43.986  23.023  24.269  1.00  0.00     0.261 C 
BRANCH  29  30
ATOM     30  O   UNL A   1      44.817  24.177  24.494  1.00  0.00    -0.460 OA
BRANCH  30  31
ATOM     31  C   UNL A   1      45.307  24.284  25.752  1.00  0.00     0.338 C 
ATOM     32  O   UNL A   1      46.432  24.002  26.140  1.00  0.00    -0.246 OA
BRANCH  31  33
ATOM     33  C   UNL A   1      44.349  25.007  26.603  1.00  0.00     0.060 A 
ATOM     34  C   UNL A   1      44.457  26.402  26.661  1.00  0.00     0.016 A 
ATOM     35  C   UNL A   1      43.436  24.328  27.411  1.00  0.00     0.016 A 
ATOM     36  C   UNL A   1      43.681  27.123  27.560  1.00  0.00     0.010 A 
ATOM     37  C   UNL A   1      42.662  25.055  28.323  1.00  0.00     0.010 A 
ATOM     38  C   UNL A   1      42.811  26.450  28.428  1.00  0.00    -0.014 A 
BRANCH  38  39
ATOM     39  C   UNL A   1      42.177  27.213  29.529  1.00  0.00     0.031 A 
ATOM     40  C   UNL A   1      42.871  27.297  30.861  1.00  0.00     0.074 A 
ATOM     41  C   UNL A   1      41.038  27.896  29.316  1.00  0.00     0.049 A 
ATOM     42  N   UNL A   1      42.537  27.978  31.928  1.00  0.00    -0.248 NA
ATOM     43  C   UNL A   1      44.107  26.514  31.008  1.00  0.00     0.031 C 
ATOM     44  C   UNL A   1      40.299  27.933  28.056  1.00  0.00     0.029 A 
ATOM     45  N   UNL A   1      40.318  28.707  30.155  1.00  0.00    -0.354 N 
ATOM     46  C   UNL A   1      43.518  27.704  32.872  1.00  0.00     0.074 A 
ATOM     47  C   UNL A   1      44.436  26.763  32.267  1.00  0.00     0.031 C 
ATOM     48  C   UNL A   1      39.237  28.743  28.198  1.00  0.00     0.029 A 
ATOM     49  C   UNL A   1      39.206  29.256  29.566  1.00  0.00     0.049 A 
ATOM     50  H   UNL A   1      40.573  28.879  31.091  1.00  0.00     0.167 HD
ATOM     51  C   UNL A   1      43.652  28.199  34.128  1.00  0.00     0.031 A 
ATOM     52  C   UNL A   1      38.269  30.079  30.073  1.00  0.00     0.031 A 
ATOM     53  C   UNL A   1      42.725  29.115  34.737  1.00  0.00     0.049 A 
ATOM     54  C   UNL A   1      38.393  30.551  31.496  1.00  0.00     0.074 A 
ATOM     55  C   UNL A   1      42.773  29.680  36.000  1.00  0.00     0.029 A 
ATOM     56  N   UNL A   1      41.573  29.594  34.130  1.00  0.00    -0.354 N 
ATOM     57  N   UNL A   1      39.340  30.306  32.371  1.00  0.00    -0.248 NA
ATOM     58  C   UNL A   1      37.324  31.426  31.996  1.00  0.00     0.031 C 
ATOM     59  C   UNL A   1      41.617  30.448  36.180  1.00  0.00     0.029 A 
ATOM     60  C   UNL A   1      40.887  30.424  35.002  1.00  0.00     0.049 A 
ATOM     61  H   UNL A   1      41.286  29.377  33.214  1.00  0.00     0.167 HD
ATOM     62  C   UNL A   1      39.001  31.026  33.510  1.00  0.00     0.074 A 
ATOM     63  C   UNL A   1      37.768  31.724  33.210  1.00  0.00     0.031 C 
ATOM     64  C   UNL A   1      39.658  31.109  34.694  1.00  0.00     0.031 A 
BRANCH  51  65
ATOM     65  C   UNL A   1      44.827  27.716  34.935  1.00  0.00    -0.014 A 
ATOM     66  C   UNL A   1      44.742  26.568  35.742  1.00  0.00     0.009 A 
ATOM     67  C   UNL A   1      46.042  28.416  34.882  1.00  0.00     0.009 A 
ATOM     68  C   UNL A   1      45.834  26.162  36.513  1.00  0.00     0.001 A 
ATOM     69  C   UNL A   1      47.142  27.988  35.628  1.00  0.00     0.001 A 
ATOM     70  C   UNL A   1      47.034  26.869  36.451  1.00  0.00     0.000 A 
ENDBRANCH  51  65
BRANCH  52  71
ATOM     71  C   UNL A   1      37.133  30.521  29.221  1.00  0.00    -0.014 A 
ATOM     72  C   UNL A   1      36.112  29.626  28.868  1.00  0.00     0.009 A 
ATOM     73  C   UNL A   1      37.066  31.845  28.757  1.00  0.00     0.009 A 
ATOM     74  C   UNL A   1      35.059  30.043  28.050  1.00  0.00     0.001 A 
ATOM     75  C   UNL A   1      35.996  32.265  27.965  1.00  0.00     0.001 A 
ATOM     76  C   UNL A   1      34.998  31.362  27.606  1.00  0.00     0.000 A 
ENDBRANCH  52  71
BRANCH  64  77
ATOM     77  C   UNL A   1      39.080  32.027  35.739  1.00  0.00    -0.014 A 
ATOM     78  C   UNL A   1      38.166  31.569  36.701  1.00  0.00     0.009 A 
ATOM     79  C   UNL A   1      39.484  33.371  35.774  1.00  0.00     0.009 A 
ATOM     80  C   UNL A   1      37.636  32.449  37.646  1.00  0.00     0.001 A 
ATOM     81  C   UNL A   1      38.980  34.241  36.743  1.00  0.00     0.001 A 
ATOM     82  C   UNL A   1      38.046  33.782  37.669  1.00  0.00     0.000 A 
ENDBRANCH  64  77
ENDBRANCH  38  39
ENDBRANCH  31  33
ENDBRANCH  30  31
ENDBRANCH  29  30
ENDBRANCH  28  29
ENDBRANCH  27  28
ENDBRANCH  26  27
ENDBRANCH   1  26
TORSDOF 21
ENDMDL
MODEL 2
REMARK VINA RESULT:      -9.1      3.722      9.250
REMARK SMILES CCN(CC(C)(C)O)C(=O)Nc1ccc(C(=O)OCCOCCOC(=O)c2ccc(-c3c4nc(c(-c5ccccc5)c5ccc([nH]5)c(-c5ccccc5)c5nc(c(-c6ccccc6)c6ccc3[nH]6)C=C5)C=C4)cc2)c(O)c1
REMARK SMILES IDX 19 1 18 2 16 3 17 4 15 5 12 6 13 7 77 8 14 9 75 10 11 11
REMARK SMILES IDX 9 12 10 13 3 15 2 16 1 17 4 18 5 19 6 20 7 21 8 22 76 24
REMARK SMILES IDX 20 26 21 27 22 28 23 29 24 30 25 31 26 32 27 33 28 34 74 35
REMARK SMILES IDX 29 36 73 37 30 38 31 39 32 40 67 41 33 42 72 43 66 44 68 45
REMARK SMILES IDX 34 46 71 47 65 48 64 49 35 51 57 52 42 53 56 54 43 55 46 56
REMARK SMILES IDX 55 57 69 58 44 59 45 60 54 62 70 63 47 64 36 65 37 66 41 67
REMARK SMILES IDX 38 68 40 69 39 70 58 71 59 72 63 73 60 74 62 75 61 76 48 77
REMARK SMILES IDX 49 78 53 79 50 80 52 81 51 82
REMARK H PARENT 11 14 8 23 76 25 68 50 46 61
REMARK Flexibility Score: inf
ROOT
ATOM      1  C   UNL A   1      31.410  29.342  24.576  1.00  0.00     0.261 C 
ENDROOT
BRANCH   1   2
ATOM      2  O   UNL A   1      31.743  28.610  23.382  1.00  0.00    -0.460 OA
BRANCH   2   3
ATOM      3  C   UNL A   1      30.739  27.827  22.917  1.00  0.00     0.341 C 
ATOM      4  O   UNL A   1      29.897  28.126  22.082  1.00  0.00    -0.246 OA
BRANCH   3   5
ATOM      5  C   UNL A   1      30.971  26.441  23.350  1.00  0.00     0.101 A 
ATOM      6  C   UNL A   1      31.215  23.833  24.422  1.00  0.00     0.046 A 
ATOM      7  C   UNL A   1      30.831  24.908  25.205  1.00  0.00     0.027 A 
ATOM      8  C   UNL A   1      31.556  24.104  23.087  1.00  0.00     0.073 A 
ATOM      9  C   UNL A   1      30.699  26.194  24.692  1.00  0.00     0.022 A 
ATOM     10  C   UNL A   1      31.402  25.392  22.542  1.00  0.00     0.132 A 
BRANCH   6  11
ATOM     11  N   UNL A   1      31.401  22.526  24.905  1.00  0.00    -0.308 N 
ATOM     12  C   UNL A   1      32.323  21.532  24.932  1.00  0.00     0.321 C 
ATOM     13  O   UNL A   1      31.837  20.410  25.129  1.00  0.00    -0.248 OA
ATOM     14  H   UNL A   1      30.592  22.235  25.384  1.00  0.00     0.171 HD
BRANCH  12  15
ATOM     15  N   UNL A   1      33.685  21.698  24.905  1.00  0.00    -0.322 N 
BRANCH  15  16
ATOM     16  C   UNL A   1      34.506  20.616  25.484  1.00  0.00     0.118 C 
ATOM     17  C   UNL A   1      35.924  20.549  24.919  1.00  0.00     0.027 C 
ENDBRANCH  15  16
BRANCH  15  18
ATOM     18  C   UNL A   1      34.471  22.814  24.375  1.00  0.00     0.155 C 
BRANCH  18  19
ATOM     19  C   UNL A   1      34.828  23.909  25.445  1.00  0.00     0.077 C 
ATOM     20  C   UNL A   1      36.270  23.834  25.999  1.00  0.00     0.043 C 
ATOM     21  C   UNL A   1      34.464  25.299  24.887  1.00  0.00     0.043 C 
BRANCH  19  22
ATOM     22  O   UNL A   1      33.978  23.723  26.595  1.00  0.00    -0.389 OA
ATOM     23  H   UNL A   1      33.986  22.789  26.856  1.00  0.00     0.211 HD
ENDBRANCH  19  22
ENDBRANCH  18  19
ENDBRANCH  15  18
ENDBRANCH  12  15
ENDBRANCH   6  11
BRANCH  10  24
ATOM     24  O   UNL A   1      31.703  25.535  21.217  1.00  0.00    -0.507 OA
ATOM     25  H   UNL A   1      32.547  25.854  20.960  1.00  0.00     0.293 HD
ENDBRANCH  10  24
ENDBRANCH   3   5
ENDBRANCH   2   3
ENDBRANCH   1   2
BRANCH   1  26
ATOM     26  C   UNL A   1      32.571  29.379  25.579  1.00  0.00     0.202 C 
BRANCH  26  27
ATOM     27  O   UNL A   1      32.315  29.935  26.866  1.00  0.00    -0.374 OA
BRANCH  27  28
ATOM     28  C   UNL A   1      33.121  31.025  27.309  1.00  0.00     0.202 C 
BRANCH  28  29
ATOM     29  C   UNL A   1      32.490  32.423  27.364  1.00  0.00     0.261 C 
BRANCH  29  30
ATOM     30  O   UNL A   1      33.470  33.478  27.349  1.00  0.00    -0.460 OA
BRANCH  30  31
ATOM     31  C   UNL A   1      33.503  34.235  28.472  1.00  0.00     0.338 C 
ATOM     32  O   UNL A   1      32.629  34.979  28.893  1.00  0.00    -0.246 OA
BRANCH  31  33
ATOM     33  C   UNL A   1      34.686  33.890  29.275  1.00  0.00     0.060 A 
ATOM     34  C   UNL A   1      35.944  34.194  28.738  1.00  0.00     0.016 A 
ATOM     35  C   UNL A   1      34.573  33.188  30.475  1.00  0.00     0.016 A 
ATOM     36  C   UNL A   1      37.097  33.757  29.380  1.00  0.00     0.010 A 
ATOM     37  C   UNL A   1      35.735  32.741  31.115  1.00  0.00     0.010 A 
ATOM     38  C   UNL A   1      36.998  32.990  30.548  1.00  0.00    -0.014 A 
BRANCH  38  39
ATOM     39  C   UNL A   1      38.222  32.342  31.077  1.00  0.00     0.031 A 
ATOM     40  C   UNL A   1      38.718  31.074  30.437  1.00  0.00     0.074 A 
ATOM     41  C   UNL A   1      38.931  32.925  32.058  1.00  0.00     0.049 A 
ATOM     42  N   UNL A   1      39.807  30.392  30.685  1.00  0.00    -0.248 NA
ATOM     43  C   UNL A   1      37.877  30.502  29.375  1.00  0.00     0.031 C 
ATOM     44  C   UNL A   1      38.580  34.179  32.724  1.00  0.00     0.029 A 
ATOM     45  N   UNL A   1      40.108  32.546  32.651  1.00  0.00    -0.354 N 
ATOM     46  C   UNL A   1      39.782  29.311  29.812  1.00  0.00     0.074 A 
ATOM     47  C   UNL A   1      38.549  29.405  29.060  1.00  0.00     0.031 C 
ATOM     48  C   UNL A   1      39.533  34.477  33.622  1.00  0.00     0.029 A 
ATOM     49  C   UNL A   1      40.544  33.421  33.615  1.00  0.00     0.049 A 
ATOM     50  H   UNL A   1      40.595  31.725  32.409  1.00  0.00     0.167 HD
ATOM     51  C   UNL A   1      40.706  28.333  29.643  1.00  0.00     0.031 A 
ATOM     52  C   UNL A   1      41.633  33.374  34.405  1.00  0.00     0.031 A 
ATOM     53  C   UNL A   1      41.919  28.228  30.409  1.00  0.00     0.049 A 
ATOM     54  C   UNL A   1      42.604  32.234  34.256  1.00  0.00     0.074 A 
ATOM     55  C   UNL A   1      42.922  27.279  30.312  1.00  0.00     0.029 A 
ATOM     56  N   UNL A   1      42.289  29.097  31.425  1.00  0.00    -0.354 N 
ATOM     57  N   UNL A   1      42.582  31.233  33.410  1.00  0.00    -0.248 NA
ATOM     58  C   UNL A   1      43.758  32.230  35.165  1.00  0.00     0.031 C 
ATOM     59  C   UNL A   1      43.867  27.536  31.312  1.00  0.00     0.029 A 
ATOM     60  C   UNL A   1      43.491  28.690  31.982  1.00  0.00     0.049 A 
ATOM     61  H   UNL A   1      41.775  29.887  31.708  1.00  0.00     0.167 HD
ATOM     62  C   UNL A   1      43.737  30.500  33.658  1.00  0.00     0.074 A 
ATOM     63  C   UNL A   1      44.440  31.180  34.726  1.00  0.00     0.031 C 
ATOM     64  C   UNL A   1      44.179  29.372  33.049  1.00  0.00     0.031 A 
BRANCH  51  65
ATOM     65  C   UNL A   1      40.407  27.276  28.614  1.00  0.00    -0.014 A 
ATOM     66  C   UNL A   1      40.879  27.382  27.294  1.00  0.00     0.009 A 
ATOM     67  C   UNL A   1      39.649  26.151  28.971  1.00  0.00     0.009 A 
ATOM     68  C   UNL A   1      40.558  26.408  26.346  1.00  0.00     0.001 A 
ATOM     69  C   UNL A   1      39.358  25.162  28.029  1.00  0.00     0.001 A 
ATOM     70  C   UNL A   1      39.801  25.297  26.715  1.00  0.00     0.000 A 
ENDBRANCH  51  65
BRANCH  52  71
ATOM     71  C   UNL A   1      41.872  34.452  35.402  1.00  0.00    -0.014 A 
ATOM     72  C   UNL A   1      41.297  34.385  36.680  1.00  0.00     0.009 A 
ATOM     73  C   UNL A   1      42.677  35.555  35.076  1.00  0.00     0.009 A 
ATOM     74  C   UNL A   1      41.509  35.411  37.604  1.00  0.00     0.001 A 
ATOM     75  C   UNL A   1      42.911  36.564  36.013  1.00  0.00     0.001 A 
ATOM     76  C   UNL A   1      42.320  36.495  37.272  1.00  0.00     0.000 A 
ENDBRANCH  52  71
BRANCH  64  77
ATOM     77  C   UNL A   1      45.512  28.828  33.491  1.00  0.00    -0.014 A 
ATOM     78  C   UNL A   1      46.715  29.253  32.905  1.00  0.00     0.009 A 
ATOM     79  C   UNL A   1      45.562  27.894  34.538  1.00  0.00     0.009 A 
ATOM     80  C   UNL A   1      47.934  28.718  33.327  1.00  0.00     0.001 A 
ATOM     81  C   UNL A   1      46.785  27.387  34.982  1.00  0.00     0.001 A 
ATOM     82  C   UNL A   1      47.968  27.790  34.367  1.00  0.00     0.000 A 
ENDBRANCH  64  77
ENDBRANCH  38  39
ENDBRANCH  31  33
ENDBRANCH  30  31
ENDBRANCH  29  30
ENDBRANCH  28  29
ENDBRANCH  27  28
ENDBRANCH  26  27
ENDBRANCH   1  26
TORSDOF 21
ENDMDL
MODEL 3
REMARK VINA RESULT:      -8.7      2.075      3.364
REMARK SMILES CCN(CC(C)(C)O)C(=O)Nc1ccc(C(=O)OCCOCCOC(=O)c2ccc(-c3c4nc(c(-c5ccccc5)c5ccc([nH]5)c(-c5ccccc5)c5nc(c(-c6ccccc6)c6ccc3[nH]6)C=C5)C=C4)cc2)c(O)c1
REMARK SMILES IDX 19 1 18 2 16 3 17 4 15 5 12 6 13 7 77 8 14 9 75 10 11 11
REMARK SMILES IDX 9 12 10 13 3 15 2 16 1 17 4 18 5 19 6 20 7 21 8 22 76 24
REMARK SMILES IDX 20 26 21 27 22 28 23 29 24 30 25 31 26 32 27 33 28 34 74 35
REMARK SMILES IDX 29 36 73 37 30 38 31 39 32 40 67 41 33 42 72 43 66 44 68 45
REMARK SMILES IDX 34 46 71 47 65 48 64 49 35 51 57 52 42 53 56 54 43 55 46 56
REMARK SMILES IDX 55 57 69 58 44 59 45 60 54 62 70 63 47 64 36 65 37 66 41 67
REMARK SMILES IDX 38 68 40 69 39 70 58 71 59 72 63 73 60 74 62 75 61 76 48 77
REMARK SMILES IDX 49 78 53 79 50 80 52 81 51 82
REMARK H PARENT 11 14 8 23 76 25 68 50 46 61
REMARK Flexibility Score: inf
ROOT
ATOM      1  C   UNL A   1      41.178  22.347  28.033  1.00  0.00     0.261 C 
ENDROOT
BRANCH   1   2
ATOM      2  O   UNL A   1      40.417  22.572  26.832  1.00  0.00    -0.460 OA
BRANCH   2   3
ATOM      3  C   UNL A   1      39.783  21.468  26.365  1.00  0.00     0.341 C 
ATOM      4  O   UNL A   1      40.068  20.301  26.597  1.00  0.00    -0.246 OA
BRANCH   3   5
ATOM      5  C   UNL A   1      38.507  21.868  25.756  1.00  0.00     0.101 A 
ATOM      6  C   UNL A   1      36.156  22.938  24.596  1.00  0.00     0.046 A 
ATOM      7  C   UNL A   1      36.981  23.701  25.403  1.00  0.00     0.027 A 
ATOM      8  C   UNL A   1      36.493  21.583  24.439  1.00  0.00     0.073 A 
ATOM      9  C   UNL A   1      38.144  23.193  25.975  1.00  0.00     0.022 A 
ATOM     10  C   UNL A   1      37.678  21.057  24.985  1.00  0.00     0.132 A 
BRANCH   6  11
ATOM     11  N   UNL A   1      34.953  23.397  24.032  1.00  0.00    -0.308 N 
ATOM     12  C   UNL A   1      33.695  22.980  23.748  1.00  0.00     0.321 C 
ATOM     13  O   UNL A   1      33.141  23.644  22.861  1.00  0.00    -0.248 OA
ATOM     14  H   UNL A   1      35.060  24.333  23.749  1.00  0.00     0.171 HD
BRANCH  12  15
ATOM     15  N   UNL A   1      32.989  22.026  24.438  1.00  0.00    -0.322 N 
BRANCH  15  16
ATOM     16  C   UNL A   1      33.387  20.619  24.238  1.00  0.00     0.118 C 
ATOM     17  C   UNL A   1      32.486  19.616  24.956  1.00  0.00     0.027 C 
ENDBRANCH  15  16
BRANCH  15  18
ATOM     18  C   UNL A   1      31.871  22.195  25.368  1.00  0.00     0.155 C 
BRANCH  18  19
ATOM     19  C   UNL A   1      32.257  22.924  26.707  1.00  0.00     0.077 C 
ATOM     20  C   UNL A   1      33.611  22.493  27.316  1.00  0.00     0.043 C 
ATOM     21  C   UNL A   1      32.140  24.447  26.506  1.00  0.00     0.043 C 
BRANCH  19  22
ATOM     22  O   UNL A   1      31.276  22.592  27.711  1.00  0.00    -0.389 OA
ATOM     23  H   UNL A   1      31.553  22.956  28.566  1.00  0.00     0.211 HD
ENDBRANCH  19  22
ENDBRANCH  18  19
ENDBRANCH  15  18
ENDBRANCH  12  15
ENDBRANCH   6  11
BRANCH  10  24
ATOM     24  O   UNL A   1      37.941  19.743  24.721  1.00  0.00    -0.507 OA
ATOM     25  H   UNL A   1      37.696  19.373  23.895  1.00  0.00     0.293 HD
ENDBRANCH  10  24
ENDBRANCH   3   5
ENDBRANCH   2   3
ENDBRANCH   1   2
BRANCH   1  26
ATOM     26  C   UNL A   1      42.398  23.272  28.130  1.00  0.00     0.202 C 
BRANCH  26  27
ATOM     27  O   UNL A   1      43.312  23.277  27.037  1.00  0.00    -0.374 OA
BRANCH  27  28
ATOM     28  C   UNL A   1      43.539  24.504  26.347  1.00  0.00     0.202 C 
BRANCH  28  29
ATOM     29  C   UNL A   1      43.214  25.818  27.071  1.00  0.00     0.261 C 
BRANCH  29  30
ATOM     30  O   UNL A   1      42.423  26.715  26.270  1.00  0.00    -0.460 OA
BRANCH  30  31
ATOM     31  C   UNL A   1      41.085  26.589  26.434  1.00  0.00     0.338 C 
ATOM     32  O   UNL A   1      40.326  25.847  25.825  1.00  0.00    -0.246 OA
BRANCH  31  33
ATOM     33  C   UNL A   1      40.653  27.335  27.626  1.00  0.00     0.060 A 
ATOM     34  C   UNL A   1      41.088  28.661  27.753  1.00  0.00     0.016 A 
ATOM     35  C   UNL A   1      39.931  26.720  28.650  1.00  0.00     0.016 A 
ATOM     36  C   UNL A   1      40.838  29.365  28.925  1.00  0.00     0.010 A 
ATOM     37  C   UNL A   1      39.690  27.427  29.833  1.00  0.00     0.010 A 
ATOM     38  C   UNL A   1      40.177  28.738  29.989  1.00  0.00    -0.014 A 
BRANCH  38  39
ATOM     39  C   UNL A   1      40.135  29.426  31.301  1.00  0.00     0.031 A 
ATOM     40  C   UNL A   1      41.251  29.202  32.286  1.00  0.00     0.074 A 
ATOM     41  C   UNL A   1      39.157  30.306  31.577  1.00  0.00     0.049 A 
ATOM     42  N   UNL A   1      41.454  29.766  33.449  1.00  0.00    -0.248 NA
ATOM     43  C   UNL A   1      42.275  28.218  31.905  1.00  0.00     0.031 C 
ATOM     44  C   UNL A   1      38.049  30.643  30.686  1.00  0.00     0.029 A 
ATOM     45  N   UNL A   1      38.954  31.092  32.682  1.00  0.00    -0.354 N 
ATOM     46  C   UNL A   1      42.626  29.204  33.940  1.00  0.00     0.074 A 
ATOM     47  C   UNL A   1      43.064  28.225  32.969  1.00  0.00     0.031 C 
ATOM     48  C   UNL A   1      37.291  31.585  31.271  1.00  0.00     0.029 A 
ATOM     49  C   UNL A   1      37.843  31.893  32.589  1.00  0.00     0.049 A 
ATOM     50  H   UNL A   1      39.549  31.084  33.468  1.00  0.00     0.167 HD
ATOM     51  C   UNL A   1      43.285  29.483  35.091  1.00  0.00     0.031 A 
ATOM     52  C   UNL A   1      37.328  32.773  33.468  1.00  0.00     0.031 A 
ATOM     53  C   UNL A   1      42.835  30.439  36.068  1.00  0.00     0.049 A 
ATOM     54  C   UNL A   1      38.033  33.008  34.776  1.00  0.00     0.074 A 
ATOM     55  C   UNL A   1      43.433  30.800  37.264  1.00  0.00     0.029 A 
ATOM     56  N   UNL A   1      41.666  31.180  35.968  1.00  0.00    -0.354 N 
ATOM     57  N   UNL A   1      39.154  32.489  35.218  1.00  0.00    -0.248 NA
ATOM     58  C   UNL A   1      37.406  33.962  35.701  1.00  0.00     0.031 C 
ATOM     59  C   UNL A   1      42.593  31.709  37.916  1.00  0.00     0.029 A 
ATOM     60  C   UNL A   1      41.510  31.974  37.092  1.00  0.00     0.049 A 
ATOM     61  H   UNL A   1      41.040  31.147  35.209  1.00  0.00     0.167 HD
ATOM     62  C   UNL A   1      39.387  33.082  36.453  1.00  0.00     0.074 A 
ATOM     63  C   UNL A   1      38.295  34.006  36.684  1.00  0.00     0.031 C 
ATOM     64  C   UNL A   1      40.417  32.885  37.314  1.00  0.00     0.031 A 
BRANCH  51  65
ATOM     65  C   UNL A   1      44.544  28.706  35.369  1.00  0.00    -0.014 A 
ATOM     66  C   UNL A   1      45.804  29.178  34.960  1.00  0.00     0.009 A 
ATOM     67  C   UNL A   1      44.471  27.486  36.057  1.00  0.00     0.009 A 
ATOM     68  C   UNL A   1      46.954  28.421  35.195  1.00  0.00     0.001 A 
ATOM     69  C   UNL A   1      45.627  26.747  36.320  1.00  0.00     0.001 A 
ATOM     70  C   UNL A   1      46.865  27.209  35.878  1.00  0.00     0.000 A 
ENDBRANCH  51  65
BRANCH  52  71
ATOM     71  C   UNL A   1      36.082  33.512  33.132  1.00  0.00    -0.014 A 
ATOM     72  C   UNL A   1      34.824  32.968  33.434  1.00  0.00     0.009 A 
ATOM     73  C   UNL A   1      36.146  34.767  32.506  1.00  0.00     0.009 A 
ATOM     74  C   UNL A   1      33.657  33.657  33.098  1.00  0.00     0.001 A 
ATOM     75  C   UNL A   1      34.977  35.466  32.198  1.00  0.00     0.001 A 
ATOM     76  C   UNL A   1      33.735  34.908  32.486  1.00  0.00     0.000 A 
ENDBRANCH  52  71
BRANCH  64  77
ATOM     77  C   UNL A   1      40.437  33.723  38.565  1.00  0.00    -0.014 A 
ATOM     78  C   UNL A   1      39.634  33.415  39.674  1.00  0.00     0.009 A 
ATOM     79  C   UNL A   1      41.303  34.827  38.641  1.00  0.00     0.009 A 
ATOM     80  C   UNL A   1      39.664  34.222  40.814  1.00  0.00     0.001 A 
ATOM     81  C   UNL A   1      41.357  35.611  39.795  1.00  0.00     0.001 A 
ATOM     82  C   UNL A   1      40.528  35.315  40.875  1.00  0.00     0.000 A 
ENDBRANCH  64  77
ENDBRANCH  38  39
ENDBRANCH  31  33
ENDBRANCH  30  31
ENDBRANCH  29  30
ENDBRANCH  28  29
ENDBRANCH  27  28
ENDBRANCH  26  27
ENDBRANCH   1  26
TORSDOF 21
ENDMDL
