MODEL 1
REMARK VINA RESULT:     -11.2      0.000      0.000
REMARK SMILES O=C(OCCOCCOC(=O)C1(C/C=C/c2ccccc2)Cc2ccccc2C1)c1ccc(-c2c3nc(c(-c4ccccc4)c4ccc([nH]4)c(-c4ccccc4)c4nc(c(-c5ccccc5)c5ccc2[nH]5)C=C4)C=C3)cc1
REMARK SMILES IDX 7 1 6 2 5 3 4 4 3 5 2 6 1 7 30 8 31 9 77 10 32 11 76 12
REMARK SMILES IDX 33 13 34 14 35 15 70 16 36 17 75 18 69 19 71 20 37 21 74 22
REMARK SMILES IDX 68 23 67 24 38 26 60 27 45 28 59 29 46 30 49 31 58 32 72 33
REMARK SMILES IDX 47 34 48 35 57 37 73 38 50 39 39 40 40 41 44 42 41 43 43 44
REMARK SMILES IDX 42 45 61 46 62 47 66 48 63 49 65 50 64 51 51 52 52 53 56 54
REMARK SMILES IDX 53 55 55 56 54 57 8 58 9 59 10 60 11 61 12 62 22 63 29 64
REMARK SMILES IDX 23 65 28 66 24 67 27 68 25 69 26 70 13 71 14 72 15 73 16 74
REMARK SMILES IDX 17 75 21 76 18 77 20 78 19 79
REMARK H PARENT 71 25 49 36
REMARK Flexibility Score: inf
ROOT
ATOM      1  C   UNL A   1      35.776  21.823  25.389  1.00  0.00     0.202 C 
ENDROOT
BRANCH   1   2
ATOM      2  O   UNL A   1      36.023  20.423  25.224  1.00  0.00    -0.374 OA
BRANCH   2   3
ATOM      3  C   UNL A   1      37.299  20.040  24.702  1.00  0.00     0.202 C 
BRANCH   3   4
ATOM      4  C   UNL A   1      38.552  20.628  25.376  1.00  0.00     0.261 C 
BRANCH   4   5
ATOM      5  O   UNL A   1      39.493  19.614  25.768  1.00  0.00    -0.460 OA
BRANCH   5   6
ATOM      6  C   UNL A   1      40.805  19.769  26.076  1.00  0.00     0.338 C 
ATOM      7  O   UNL A   1      41.565  18.814  25.929  1.00  0.00    -0.246 OA
BRANCH   6   8
ATOM      8  C   UNL A   1      41.376  21.041  26.615  1.00  0.00     0.060 A 
ATOM      9  C   UNL A   1      41.352  21.404  27.958  1.00  0.00     0.016 A 
ATOM     10  C   UNL A   1      42.036  21.901  25.723  1.00  0.00     0.016 A 
ATOM     11  C   UNL A   1      41.925  22.557  28.427  1.00  0.00     0.010 A 
ATOM     12  C   UNL A   1      42.612  23.094  26.177  1.00  0.00     0.010 A 
ATOM     13  C   UNL A   1      42.532  23.420  27.534  1.00  0.00    -0.014 A 
BRANCH  13  14
ATOM     14  C   UNL A   1      42.816  24.742  28.091  1.00  0.00     0.031 A 
ATOM     15  C   UNL A   1      44.251  25.161  28.131  1.00  0.00     0.074 A 
ATOM     16  C   UNL A   1      41.802  25.612  28.238  1.00  0.00     0.049 A 
ATOM     17  N   UNL A   1      44.771  26.292  28.510  1.00  0.00    -0.248 NA
ATOM     18  C   UNL A   1      45.236  24.176  27.640  1.00  0.00     0.031 C 
ATOM     19  C   UNL A   1      40.391  25.322  27.956  1.00  0.00     0.029 A 
ATOM     20  N   UNL A   1      41.810  26.932  28.580  1.00  0.00    -0.354 N 
ATOM     21  C   UNL A   1      46.142  26.136  28.359  1.00  0.00     0.074 A 
ATOM     22  C   UNL A   1      46.378  24.814  27.832  1.00  0.00     0.031 C 
ATOM     23  C   UNL A   1      39.674  26.446  28.115  1.00  0.00     0.029 A 
ATOM     24  C   UNL A   1      40.562  27.501  28.584  1.00  0.00     0.049 A 
ATOM     25  H   UNL A   1      42.632  27.427  28.804  1.00  0.00     0.167 HD
ATOM     26  C   UNL A   1      47.113  27.025  28.666  1.00  0.00     0.031 A 
ATOM     27  C   UNL A   1      40.193  28.735  28.968  1.00  0.00     0.031 A 
ATOM     28  C   UNL A   1      46.821  28.326  29.196  1.00  0.00     0.049 A 
ATOM     29  C   UNL A   1      41.283  29.653  29.447  1.00  0.00     0.074 A 
ATOM     30  C   UNL A   1      47.692  29.296  29.648  1.00  0.00     0.029 A 
ATOM     31  N   UNL A   1      45.534  28.832  29.341  1.00  0.00    -0.354 N 
ATOM     32  N   UNL A   1      42.584  29.466  29.436  1.00  0.00    -0.248 NA
ATOM     33  C   UNL A   1      40.860  30.941  30.003  1.00  0.00     0.031 C 
ATOM     34  C   UNL A   1      46.926  30.366  30.125  1.00  0.00     0.029 A 
ATOM     35  C   UNL A   1      45.583  30.094  29.898  1.00  0.00     0.049 A 
ATOM     36  H   UNL A   1      44.709  28.361  29.084  1.00  0.00     0.167 HD
ATOM     37  C   UNL A   1      43.139  30.624  29.957  1.00  0.00     0.074 A 
ATOM     38  C   UNL A   1      42.029  31.511  30.258  1.00  0.00     0.031 C 
ATOM     39  C   UNL A   1      44.443  30.935  30.170  1.00  0.00     0.031 A 
BRANCH  26  40
ATOM     40  C   UNL A   1      48.530  26.538  28.565  1.00  0.00    -0.014 A 
ATOM     41  C   UNL A   1      49.181  25.891  29.627  1.00  0.00     0.009 A 
ATOM     42  C   UNL A   1      49.255  26.818  27.396  1.00  0.00     0.009 A 
ATOM     43  C   UNL A   1      50.542  25.580  29.537  1.00  0.00     0.001 A 
ATOM     44  C   UNL A   1      50.605  26.478  27.297  1.00  0.00     0.001 A 
ATOM     45  C   UNL A   1      51.251  25.873  28.373  1.00  0.00     0.000 A 
ENDBRANCH  26  40
BRANCH  27  46
ATOM     46  C   UNL A   1      38.759  29.129  28.994  1.00  0.00    -0.014 A 
ATOM     47  C   UNL A   1      38.144  29.702  27.872  1.00  0.00     0.009 A 
ATOM     48  C   UNL A   1      37.996  28.949  30.161  1.00  0.00     0.009 A 
ATOM     49  C   UNL A   1      36.807  30.112  27.928  1.00  0.00     0.001 A 
ATOM     50  C   UNL A   1      36.653  29.329  30.203  1.00  0.00     0.001 A 
ATOM     51  C   UNL A   1      36.062  29.922  29.091  1.00  0.00     0.000 A 
ENDBRANCH  27  46
BRANCH  39  52
ATOM     52  C   UNL A   1      44.724  32.313  30.690  1.00  0.00    -0.014 A 
ATOM     53  C   UNL A   1      44.898  33.403  29.826  1.00  0.00     0.009 A 
ATOM     54  C   UNL A   1      44.773  32.520  32.077  1.00  0.00     0.009 A 
ATOM     55  C   UNL A   1      45.155  34.672  30.344  1.00  0.00     0.001 A 
ATOM     56  C   UNL A   1      44.992  33.796  32.592  1.00  0.00     0.001 A 
ATOM     57  C   UNL A   1      45.195  34.868  31.725  1.00  0.00     0.000 A 
ENDBRANCH  39  52
ENDBRANCH  13  14
ENDBRANCH   6   8
ENDBRANCH   5   6
ENDBRANCH   4   5
ENDBRANCH   3   4
ENDBRANCH   2   3
ENDBRANCH   1   2
BRANCH   1  58
ATOM     58  C   UNL A   1      34.354  22.056  25.862  1.00  0.00     0.261 C 
BRANCH  58  59
ATOM     59  O   UNL A   1      34.074  23.437  25.614  1.00  0.00    -0.463 OA
BRANCH  59  60
ATOM     60  C   UNL A   1      32.761  23.760  25.522  1.00  0.00     0.313 C 
ATOM     61  O   UNL A   1      31.826  22.965  25.616  1.00  0.00    -0.252 OA
BRANCH  60  62
ATOM     62  C   UNL A   1      32.581  25.236  25.222  1.00  0.00     0.079 C 
ATOM     63  C   UNL A   1      31.596  25.784  26.295  1.00  0.00     0.055 C 
ATOM     64  C   UNL A   1      33.873  26.099  25.366  1.00  0.00     0.055 C 
ATOM     65  C   UNL A   1      32.072  27.184  26.501  1.00  0.00    -0.044 A 
ATOM     66  C   UNL A   1      33.355  27.360  25.984  1.00  0.00    -0.044 A 
ATOM     67  C   UNL A   1      31.403  28.218  27.133  1.00  0.00     0.004 A 
ATOM     68  C   UNL A   1      33.997  28.583  26.076  1.00  0.00     0.004 A 
ATOM     69  C   UNL A   1      32.031  29.463  27.204  1.00  0.00     0.000 A 
ATOM     70  C   UNL A   1      33.319  29.644  26.676  1.00  0.00     0.000 A 
BRANCH  62  71
ATOM     71  C   UNL A   1      32.009  25.326  23.783  1.00  0.00     0.047 C 
BRANCH  71  72
ATOM     72  C   UNL A   1      30.765  26.191  23.741  1.00  0.00    -0.025 C 
ATOM     73  C   UNL A   1      30.709  27.341  23.051  1.00  0.00     0.004 C 
BRANCH  73  74
ATOM     74  C   UNL A   1      29.668  28.357  23.252  1.00  0.00    -0.026 A 
ATOM     75  C   UNL A   1      28.326  27.994  23.116  1.00  0.00     0.008 A 
ATOM     76  C   UNL A   1      29.991  29.709  23.442  1.00  0.00     0.008 A 
ATOM     77  C   UNL A   1      27.323  28.963  23.193  1.00  0.00     0.001 A 
ATOM     78  C   UNL A   1      28.988  30.680  23.501  1.00  0.00     0.001 A 
ATOM     79  C   UNL A   1      27.654  30.304  23.381  1.00  0.00     0.000 A 
ENDBRANCH  73  74
ENDBRANCH  71  72
ENDBRANCH  62  71
ENDBRANCH  60  62
ENDBRANCH  59  60
ENDBRANCH  58  59
ENDBRANCH   1  58
TORSDOF 17
ENDMDL
MODEL 2
REMARK VINA RESULT:     -11.1      1.977      6.685
REMARK SMILES O=C(OCCOCCOC(=O)C1(C/C=C/c2ccccc2)Cc2ccccc2C1)c1ccc(-c2c3nc(c(-c4ccccc4)c4ccc([nH]4)c(-c4ccccc4)c4nc(c(-c5ccccc5)c5ccc2[nH]5)C=C4)C=C3)cc1
REMARK SMILES IDX 7 1 6 2 5 3 4 4 3 5 2 6 1 7 30 8 31 9 77 10 32 11 76 12
REMARK SMILES IDX 33 13 34 14 35 15 70 16 36 17 75 18 69 19 71 20 37 21 74 22
REMARK SMILES IDX 68 23 67 24 38 26 60 27 45 28 59 29 46 30 49 31 58 32 72 33
REMARK SMILES IDX 47 34 48 35 57 37 73 38 50 39 39 40 40 41 44 42 41 43 43 44
REMARK SMILES IDX 42 45 61 46 62 47 66 48 63 49 65 50 64 51 51 52 52 53 56 54
REMARK SMILES IDX 53 55 55 56 54 57 8 58 9 59 10 60 11 61 12 62 22 63 29 64
REMARK SMILES IDX 23 65 28 66 24 67 27 68 25 69 26 70 13 71 14 72 15 73 16 74
REMARK SMILES IDX 17 75 21 76 18 77 20 78 19 79
REMARK H PARENT 71 25 49 36
REMARK Flexibility Score: inf
ROOT
ATOM      1  C   UNL A   1      34.495  21.502  24.867  1.00  0.00     0.202 C 
ENDROOT
BRANCH   1   2
ATOM      2  O   UNL A   1      35.036  22.619  24.154  1.00  0.00    -0.374 OA
BRANCH   2   3
ATOM      3  C   UNL A   1      36.293  23.135  24.603  1.00  0.00     0.202 C 
BRANCH   3   4
ATOM      4  C   UNL A   1      37.475  22.155  24.696  1.00  0.00     0.261 C 
BRANCH   4   5
ATOM      5  O   UNL A   1      38.091  22.155  25.995  1.00  0.00    -0.460 OA
BRANCH   5   6
ATOM      6  C   UNL A   1      39.323  22.609  26.334  1.00  0.00     0.338 C 
ATOM      7  O   UNL A   1      40.280  21.841  26.252  1.00  0.00    -0.246 OA
BRANCH   6   8
ATOM      8  C   UNL A   1      39.579  23.995  26.831  1.00  0.00     0.060 A 
ATOM      9  C   UNL A   1      40.168  25.003  26.074  1.00  0.00     0.016 A 
ATOM     10  C   UNL A   1      39.143  24.326  28.124  1.00  0.00     0.016 A 
ATOM     11  C   UNL A   1      40.348  26.277  26.544  1.00  0.00     0.010 A 
ATOM     12  C   UNL A   1      39.333  25.617  28.631  1.00  0.00     0.010 A 
ATOM     13  C   UNL A   1      39.957  26.581  27.834  1.00  0.00    -0.014 A 
BRANCH  13  14
ATOM     14  C   UNL A   1      40.482  27.854  28.326  1.00  0.00     0.031 A 
ATOM     15  C   UNL A   1      39.484  28.937  28.588  1.00  0.00     0.074 A 
ATOM     16  C   UNL A   1      41.738  27.893  28.804  1.00  0.00     0.049 A 
ATOM     17  N   UNL A   1      39.669  30.128  29.081  1.00  0.00    -0.248 NA
ATOM     18  C   UNL A   1      38.075  28.619  28.284  1.00  0.00     0.031 C 
ATOM     19  C   UNL A   1      42.677  26.765  28.807  1.00  0.00     0.029 A 
ATOM     20  N   UNL A   1      42.409  28.889  29.450  1.00  0.00    -0.354 N 
ATOM     21  C   UNL A   1      38.412  30.719  29.092  1.00  0.00     0.074 A 
ATOM     22  C   UNL A   1      37.468  29.755  28.582  1.00  0.00     0.031 C 
ATOM     23  C   UNL A   1      43.797  27.132  29.451  1.00  0.00     0.029 A 
ATOM     24  C   UNL A   1      43.678  28.534  29.828  1.00  0.00     0.049 A 
ATOM     25  H   UNL A   1      42.020  29.777  29.626  1.00  0.00     0.167 HD
ATOM     26  C   UNL A   1      38.095  31.975  29.476  1.00  0.00     0.031 A 
ATOM     27  C   UNL A   1      44.642  29.289  30.383  1.00  0.00     0.031 A 
ATOM     28  C   UNL A   1      39.077  32.897  29.970  1.00  0.00     0.049 A 
ATOM     29  C   UNL A   1      44.303  30.727  30.661  1.00  0.00     0.074 A 
ATOM     30  C   UNL A   1      38.931  34.229  30.301  1.00  0.00     0.029 A 
ATOM     31  N   UNL A   1      40.407  32.562  30.201  1.00  0.00    -0.354 N 
ATOM     32  N   UNL A   1      43.145  31.339  30.548  1.00  0.00    -0.248 NA
ATOM     33  C   UNL A   1      45.398  31.582  31.126  1.00  0.00     0.031 C 
ATOM     34  C   UNL A   1      40.190  34.714  30.675  1.00  0.00     0.029 A 
ATOM     35  C   UNL A   1      41.102  33.667  30.650  1.00  0.00     0.049 A 
ATOM     36  H   UNL A   1      40.796  31.668  30.066  1.00  0.00     0.167 HD
ATOM     37  C   UNL A   1      43.365  32.646  30.956  1.00  0.00     0.074 A 
ATOM     38  C   UNL A   1      44.765  32.728  31.332  1.00  0.00     0.031 C 
ATOM     39  C   UNL A   1      42.497  33.687  31.017  1.00  0.00     0.031 A 
BRANCH  26  40
ATOM     40  C   UNL A   1      36.683  32.422  29.226  1.00  0.00    -0.014 A 
ATOM     41  C   UNL A   1      36.281  33.004  28.014  1.00  0.00     0.009 A 
ATOM     42  C   UNL A   1      35.754  32.330  30.274  1.00  0.00     0.009 A 
ATOM     43  C   UNL A   1      34.992  33.529  27.875  1.00  0.00     0.001 A 
ATOM     44  C   UNL A   1      34.458  32.827  30.123  1.00  0.00     0.001 A 
ATOM     45  C   UNL A   1      34.083  33.440  28.929  1.00  0.00     0.000 A 
ENDBRANCH  26  40
BRANCH  27  46
ATOM     46  C   UNL A   1      46.000  28.736  30.625  1.00  0.00    -0.014 A 
ATOM     47  C   UNL A   1      46.343  28.167  31.860  1.00  0.00     0.009 A 
ATOM     48  C   UNL A   1      46.979  28.793  29.617  1.00  0.00     0.009 A 
ATOM     49  C   UNL A   1      47.640  27.694  32.088  1.00  0.00     0.001 A 
ATOM     50  C   UNL A   1      48.263  28.291  29.836  1.00  0.00     0.001 A 
ATOM     51  C   UNL A   1      48.597  27.753  31.076  1.00  0.00     0.000 A 
ENDBRANCH  27  46
BRANCH  39  52
ATOM     52  C   UNL A   1      43.033  34.972  31.573  1.00  0.00    -0.014 A 
ATOM     53  C   UNL A   1      43.037  35.231  32.951  1.00  0.00     0.009 A 
ATOM     54  C   UNL A   1      43.582  35.918  30.694  1.00  0.00     0.009 A 
ATOM     55  C   UNL A   1      43.547  36.436  33.434  1.00  0.00     0.001 A 
ATOM     56  C   UNL A   1      44.125  37.104  31.183  1.00  0.00     0.001 A 
ATOM     57  C   UNL A   1      44.096  37.367  32.551  1.00  0.00     0.000 A 
ENDBRANCH  39  52
ENDBRANCH  13  14
ENDBRANCH   6   8
ENDBRANCH   5   6
ENDBRANCH   4   5
ENDBRANCH   3   4
ENDBRANCH   2   3
ENDBRANCH   1   2
BRANCH   1  58
ATOM     58  C   UNL A   1      33.169  21.874  25.502  1.00  0.00     0.261 C 
BRANCH  58  59
ATOM     59  O   UNL A   1      32.882  23.208  25.070  1.00  0.00    -0.463 OA
BRANCH  59  60
ATOM     60  C   UNL A   1      32.385  24.036  26.021  1.00  0.00     0.313 C 
ATOM     61  O   UNL A   1      31.853  23.674  27.070  1.00  0.00    -0.252 OA
BRANCH  60  62
ATOM     62  C   UNL A   1      32.509  25.488  25.600  1.00  0.00     0.079 C 
ATOM     63  C   UNL A   1      31.525  26.291  26.500  1.00  0.00     0.055 C 
ATOM     64  C   UNL A   1      33.911  26.126  25.847  1.00  0.00     0.055 C 
ATOM     65  C   UNL A   1      32.220  27.601  26.668  1.00  0.00    -0.044 A 
ATOM     66  C   UNL A   1      33.564  27.508  26.306  1.00  0.00    -0.044 A 
ATOM     67  C   UNL A   1      31.683  28.787  27.138  1.00  0.00     0.004 A 
ATOM     68  C   UNL A   1      34.402  28.606  26.395  1.00  0.00     0.004 A 
ATOM     69  C   UNL A   1      32.512  29.907  27.203  1.00  0.00     0.000 A 
ATOM     70  C   UNL A   1      33.863  29.817  26.831  1.00  0.00     0.000 A 
BRANCH  62  71
ATOM     71  C   UNL A   1      32.128  25.545  24.098  1.00  0.00     0.047 C 
BRANCH  71  72
ATOM     72  C   UNL A   1      30.866  26.356  23.883  1.00  0.00    -0.025 C 
ATOM     73  C   UNL A   1      30.834  27.452  23.107  1.00  0.00     0.004 C 
BRANCH  73  74
ATOM     74  C   UNL A   1      29.748  28.438  23.140  1.00  0.00    -0.026 A 
ATOM     75  C   UNL A   1      30.053  29.781  23.367  1.00  0.00     0.008 A 
ATOM     76  C   UNL A   1      28.402  28.046  23.086  1.00  0.00     0.008 A 
ATOM     77  C   UNL A   1      29.031  30.722  23.513  1.00  0.00     0.001 A 
ATOM     78  C   UNL A   1      27.379  28.984  23.251  1.00  0.00     0.001 A 
ATOM     79  C   UNL A   1      27.696  30.323  23.459  1.00  0.00     0.000 A 
ENDBRANCH  73  74
ENDBRANCH  71  72
ENDBRANCH  62  71
ENDBRANCH  60  62
ENDBRANCH  59  60
ENDBRANCH  58  59
ENDBRANCH   1  58
TORSDOF 17
ENDMDL
MODEL 3
REMARK VINA RESULT:     -10.8      2.096      6.099
REMARK SMILES O=C(OCCOCCOC(=O)C1(C/C=C/c2ccccc2)Cc2ccccc2C1)c1ccc(-c2c3nc(c(-c4ccccc4)c4ccc([nH]4)c(-c4ccccc4)c4nc(c(-c5ccccc5)c5ccc2[nH]5)C=C4)C=C3)cc1
REMARK SMILES IDX 7 1 6 2 5 3 4 4 3 5 2 6 1 7 30 8 31 9 77 10 32 11 76 12
REMARK SMILES IDX 33 13 34 14 35 15 70 16 36 17 75 18 69 19 71 20 37 21 74 22
REMARK SMILES IDX 68 23 67 24 38 26 60 27 45 28 59 29 46 30 49 31 58 32 72 33
REMARK SMILES IDX 47 34 48 35 57 37 73 38 50 39 39 40 40 41 44 42 41 43 43 44
REMARK SMILES IDX 42 45 61 46 62 47 66 48 63 49 65 50 64 51 51 52 52 53 56 54
REMARK SMILES IDX 53 55 55 56 54 57 8 58 9 59 10 60 11 61 12 62 22 63 29 64
REMARK SMILES IDX 23 65 28 66 24 67 27 68 25 69 26 70 13 71 14 72 15 73 16 74
REMARK SMILES IDX 17 75 21 76 18 77 20 78 19 79
REMARK H PARENT 71 25 49 36
REMARK Flexibility Score: inf
ROOT
ATOM      1  C   UNL A   1      33.923  20.804  25.018  1.00  0.00     0.202 C 
ENDROOT
BRANCH   1   2
ATOM      2  O   UNL A   1      34.472  21.648  24.002  1.00  0.00    -0.374 OA
BRANCH   2   3
ATOM      3  C   UNL A   1      35.667  22.367  24.322  1.00  0.00     0.202 C 
BRANCH   3   4
ATOM      4  C   UNL A   1      36.990  21.581  24.339  1.00  0.00     0.261 C 
BRANCH   4   5
ATOM      5  O   UNL A   1      37.520  21.425  25.667  1.00  0.00    -0.460 OA
BRANCH   5   6
ATOM      6  C   UNL A   1      38.811  21.535  26.066  1.00  0.00     0.338 C 
ATOM      7  O   UNL A   1      39.510  20.524  26.101  1.00  0.00    -0.246 OA
BRANCH   6   8
ATOM      8  C   UNL A   1      39.430  22.827  26.496  1.00  0.00     0.060 A 
ATOM      9  C   UNL A   1      38.906  24.082  26.202  1.00  0.00     0.016 A 
ATOM     10  C   UNL A   1      40.578  22.776  27.301  1.00  0.00     0.016 A 
ATOM     11  C   UNL A   1      39.472  25.247  26.649  1.00  0.00     0.010 A 
ATOM     12  C   UNL A   1      41.184  23.955  27.753  1.00  0.00     0.010 A 
ATOM     13  C   UNL A   1      40.629  25.189  27.403  1.00  0.00    -0.014 A 
BRANCH  13  14
ATOM     14  C   UNL A   1      41.306  26.477  27.546  1.00  0.00     0.031 A 
ATOM     15  C   UNL A   1      40.739  27.426  28.554  1.00  0.00     0.074 A 
ATOM     16  C   UNL A   1      42.537  26.621  27.026  1.00  0.00     0.049 A 
ATOM     17  N   UNL A   1      41.176  28.595  28.924  1.00  0.00    -0.248 NA
ATOM     18  C   UNL A   1      39.529  26.977  29.271  1.00  0.00     0.031 C 
ATOM     19  C   UNL A   1      43.248  25.604  26.242  1.00  0.00     0.029 A 
ATOM     20  N   UNL A   1      43.435  27.640  27.145  1.00  0.00    -0.354 N 
ATOM     21  C   UNL A   1      40.265  29.044  29.871  1.00  0.00     0.074 A 
ATOM     22  C   UNL A   1      39.266  28.018  30.041  1.00  0.00     0.031 C 
ATOM     23  C   UNL A   1      44.486  26.048  25.973  1.00  0.00     0.029 A 
ATOM     24  C   UNL A   1      44.619  27.401  26.495  1.00  0.00     0.049 A 
ATOM     25  H   UNL A   1      43.250  28.467  27.647  1.00  0.00     0.167 HD
ATOM     26  C   UNL A   1      40.264  30.231  30.517  1.00  0.00     0.031 A 
ATOM     27  C   UNL A   1      45.670  28.219  26.318  1.00  0.00     0.031 A 
ATOM     28  C   UNL A   1      41.281  31.221  30.304  1.00  0.00     0.049 A 
ATOM     29  C   UNL A   1      45.575  29.591  26.926  1.00  0.00     0.074 A 
ATOM     30  C   UNL A   1      41.365  32.505  30.804  1.00  0.00     0.029 A 
ATOM     31  N   UNL A   1      42.406  31.018  29.510  1.00  0.00    -0.354 N 
ATOM     32  N   UNL A   1      44.647  30.080  27.719  1.00  0.00    -0.248 NA
ATOM     33  C   UNL A   1      46.655  30.528  26.606  1.00  0.00     0.031 C 
ATOM     34  C   UNL A   1      42.510  33.099  30.261  1.00  0.00     0.029 A 
ATOM     35  C   UNL A   1      43.179  32.160  29.486  1.00  0.00     0.049 A 
ATOM     36  H   UNL A   1      42.618  30.182  29.036  1.00  0.00     0.167 HD
ATOM     37  C   UNL A   1      45.046  31.373  28.017  1.00  0.00     0.074 A 
ATOM     38  C   UNL A   1      46.307  31.583  27.329  1.00  0.00     0.031 C 
ATOM     39  C   UNL A   1      44.433  32.308  28.787  1.00  0.00     0.031 A 
BRANCH  26  40
ATOM     40  C   UNL A   1      39.065  30.537  31.367  1.00  0.00    -0.014 A 
ATOM     41  C   UNL A   1      37.912  31.148  30.851  1.00  0.00     0.009 A 
ATOM     42  C   UNL A   1      39.135  30.277  32.745  1.00  0.00     0.009 A 
ATOM     43  C   UNL A   1      36.876  31.538  31.706  1.00  0.00     0.001 A 
ATOM     44  C   UNL A   1      38.086  30.639  33.592  1.00  0.00     0.001 A 
ATOM     45  C   UNL A   1      36.965  31.283  33.074  1.00  0.00     0.000 A 
ENDBRANCH  26  40
BRANCH  27  46
ATOM     46  C   UNL A   1      46.830  27.802  25.486  1.00  0.00    -0.014 A 
ATOM     47  C   UNL A   1      47.973  27.236  26.066  1.00  0.00     0.009 A 
ATOM     48  C   UNL A   1      46.805  27.990  24.093  1.00  0.00     0.009 A 
ATOM     49  C   UNL A   1      49.075  26.893  25.274  1.00  0.00     0.001 A 
ATOM     50  C   UNL A   1      47.893  27.617  23.301  1.00  0.00     0.001 A 
ATOM     51  C   UNL A   1      49.033  27.080  23.894  1.00  0.00     0.000 A 
ENDBRANCH  27  46
BRANCH  39  52
ATOM     52  C   UNL A   1      45.163  33.606  28.971  1.00  0.00    -0.014 A 
ATOM     53  C   UNL A   1      44.943  34.698  28.119  1.00  0.00     0.009 A 
ATOM     54  C   UNL A   1      46.053  33.739  30.046  1.00  0.00     0.009 A 
ATOM     55  C   UNL A   1      45.637  35.891  28.320  1.00  0.00     0.001 A 
ATOM     56  C   UNL A   1      46.716  34.945  30.267  1.00  0.00     0.001 A 
ATOM     57  C   UNL A   1      46.516  36.015  29.397  1.00  0.00     0.000 A 
ENDBRANCH  39  52
ENDBRANCH  13  14
ENDBRANCH   6   8
ENDBRANCH   5   6
ENDBRANCH   4   5
ENDBRANCH   3   4
ENDBRANCH   2   3
ENDBRANCH   1   2
BRANCH   1  58
ATOM     58  C   UNL A   1      33.388  21.639  26.165  1.00  0.00     0.261 C 
BRANCH  58  59
ATOM     59  O   UNL A   1      32.318  22.419  25.622  1.00  0.00    -0.463 OA
BRANCH  59  60
ATOM     60  C   UNL A   1      31.981  23.524  26.332  1.00  0.00     0.313 C 
ATOM     61  O   UNL A   1      31.802  23.558  27.549  1.00  0.00    -0.252 OA
BRANCH  60  62
ATOM     62  C   UNL A   1      31.786  24.721  25.422  1.00  0.00     0.079 C 
ATOM     63  C   UNL A   1      32.652  25.869  26.016  1.00  0.00     0.055 C 
ATOM     64  C   UNL A   1      32.300  24.527  23.961  1.00  0.00     0.055 C 
ATOM     65  C   UNL A   1      33.090  26.620  24.802  1.00  0.00    -0.044 A 
ATOM     66  C   UNL A   1      32.898  25.863  23.646  1.00  0.00    -0.044 A 
ATOM     67  C   UNL A   1      33.646  27.886  24.748  1.00  0.00     0.004 A 
ATOM     68  C   UNL A   1      33.247  26.361  22.404  1.00  0.00     0.004 A 
ATOM     69  C   UNL A   1      33.974  28.409  23.496  1.00  0.00     0.000 A 
ATOM     70  C   UNL A   1      33.773  27.652  22.331  1.00  0.00     0.000 A 
BRANCH  62  71
ATOM     71  C   UNL A   1      30.270  25.045  25.439  1.00  0.00     0.047 C 
BRANCH  71  72
ATOM     72  C   UNL A   1      30.000  26.436  24.901  1.00  0.00    -0.025 C 
ATOM     73  C   UNL A   1      29.130  26.669  23.905  1.00  0.00     0.004 C 
BRANCH  73  74
ATOM     74  C   UNL A   1      29.089  27.921  23.140  1.00  0.00    -0.026 A 
ATOM     75  C   UNL A   1      30.282  28.463  22.657  1.00  0.00     0.008 A 
ATOM     76  C   UNL A   1      27.902  28.655  22.999  1.00  0.00     0.008 A 
ATOM     77  C   UNL A   1      30.284  29.708  22.023  1.00  0.00     0.001 A 
ATOM     78  C   UNL A   1      27.907  29.908  22.381  1.00  0.00     0.001 A 
ATOM     79  C   UNL A   1      29.099  30.431  21.888  1.00  0.00     0.000 A 
ENDBRANCH  73  74
ENDBRANCH  71  72
ENDBRANCH  62  71
ENDBRANCH  60  62
ENDBRANCH  59  60
ENDBRANCH  58  59
ENDBRANCH   1  58
TORSDOF 17
ENDMDL
