MODEL 1
REMARK VINA RESULT:     -11.8      0.000      0.000
REMARK SMILES Cc1ccc(S(=O)(=O)N2CCCC2)cc1C(=O)N[C@H](CC1=c2ccccc2=NC1)C(=O)OCCOCCOC(=O)c1ccc(-c2c3nc(c(-c4ccccc4)c4ccc([nH]4)c(-c4ccccc4)c4nc(c(-c5ccccc5)c5ccc2[nH]5)C=C4)C=C3)cc1
REMARK SMILES IDX 34 1 33 2 32 3 30 4 31 5 19 6 18 7 16 8 17 9 15 11 1 12 2 13
REMARK SMILES IDX 3 14 4 15 14 16 5 17 6 18 7 19 8 20 9 21 10 22 13 23 11 24
REMARK SMILES IDX 12 25 20 26 21 27 22 28 29 29 23 30 27 31 28 32 24 33 26 34
REMARK SMILES IDX 25 35 35 36 36 37 37 38 38 39 39 40 40 41 41 42 42 43 88 44
REMARK SMILES IDX 43 45 87 46 44 47 45 48 46 49 81 50 47 51 86 52 80 53 82 54
REMARK SMILES IDX 48 55 85 56 79 57 78 58 49 60 71 61 56 62 70 63 57 64 60 65
REMARK SMILES IDX 69 66 83 67 58 68 59 69 68 71 84 72 61 73 50 74 51 75 55 76
REMARK SMILES IDX 52 77 54 78 53 79 72 80 73 81 77 82 74 83 76 84 75 85 62 86
REMARK SMILES IDX 63 87 67 88 64 89 66 90 65 91
REMARK H PARENT 18 10 82 59 60 70
REMARK Flexibility Score: inf
ROOT
ATOM      1  C   UNL A   1      41.482  20.994  25.988  1.00  0.00     0.202 C 
ENDROOT
BRANCH   1   2
ATOM      2  C   UNL A   1      40.077  21.065  26.536  1.00  0.00     0.261 C 
BRANCH   2   3
ATOM      3  O   UNL A   1      39.014  21.221  25.566  1.00  0.00    -0.462 OA
BRANCH   3   4
ATOM      4  C   UNL A   1      38.269  20.175  25.105  1.00  0.00     0.329 C 
ATOM      5  O   UNL A   1      38.624  19.006  25.095  1.00  0.00    -0.250 OA
BRANCH   4   6
ATOM      6  C   UNL A   1      36.882  20.665  24.608  1.00  0.00     0.196 C 
BRANCH   6   7
ATOM      7  N   UNL A   1      37.034  21.865  23.755  1.00  0.00    -0.338 N 
ATOM      8  C   UNL A   1      36.496  23.102  23.550  1.00  0.00     0.252 C 
ATOM      9  O   UNL A   1      37.205  23.780  22.787  1.00  0.00    -0.269 OA
ATOM     10  H   UNL A   1      37.775  21.723  23.123  1.00  0.00     0.164 HD
BRANCH   8  11
ATOM     11  C   UNL A   1      35.203  23.736  24.027  1.00  0.00     0.044 A 
ATOM     12  C   UNL A   1      35.462  24.229  26.496  1.00  0.00     0.045 C 
ATOM     13  C   UNL A   1      34.641  23.924  25.301  1.00  0.00    -0.038 A 
ATOM     14  C   UNL A   1      33.325  24.420  25.479  1.00  0.00     0.005 A 
ATOM     15  C   UNL A   1      32.672  25.040  24.436  1.00  0.00     0.022 A 
ATOM     16  C   UNL A   1      34.500  24.381  22.992  1.00  0.00     0.035 A 
ATOM     17  C   UNL A   1      33.307  25.088  23.209  1.00  0.00     0.083 A 
BRANCH  17  18
ATOM     18  S   UNL A   1      32.730  26.314  22.058  1.00  0.00     0.243 S 
ATOM     19  O   UNL A   1      33.899  26.915  21.449  1.00  0.00    -0.207 OA
ATOM     20  O   UNL A   1      31.704  25.658  21.280  1.00  0.00    -0.207 OA
BRANCH  18  21
ATOM     21  N   UNL A   1      31.983  27.448  23.030  1.00  0.00    -0.198 NA
ATOM     22  C   UNL A   1      32.704  28.663  23.434  1.00  0.00     0.102 C 
ATOM     23  C   UNL A   1      30.570  27.792  22.797  1.00  0.00     0.102 C 
ATOM     24  C   UNL A   1      31.663  29.333  24.315  1.00  0.00     0.018 C 
ATOM     25  C   UNL A   1      30.381  29.130  23.518  1.00  0.00     0.018 C 
ENDBRANCH  18  21
ENDBRANCH  17  18
ENDBRANCH   8  11
ENDBRANCH   6   7
BRANCH   6  26
ATOM     26  C   UNL A   1      35.680  20.754  25.579  1.00  0.00     0.070 C 
BRANCH  26  27
ATOM     27  C   UNL A   1      34.405  20.027  25.266  1.00  0.00    -0.037 C 
ATOM     28  C   UNL A   1      34.208  18.798  24.791  1.00  0.00     0.001 A 
ATOM     29  C   UNL A   1      33.078  20.714  25.458  1.00  0.00     0.174 C 
ATOM     30  C   UNL A   1      35.038  17.726  24.350  1.00  0.00     0.010 A 
ATOM     31  C   UNL A   1      32.741  18.659  24.834  1.00  0.00     0.065 A 
ATOM     32  N   UNL A   1      32.044  19.691  25.199  1.00  0.00    -0.280 NA
ATOM     33  C   UNL A   1      34.467  16.548  24.046  1.00  0.00     0.001 A 
ATOM     34  C   UNL A   1      32.187  17.327  24.516  1.00  0.00     0.028 A 
ATOM     35  C   UNL A   1      33.033  16.344  24.166  1.00  0.00     0.002 A 
ENDBRANCH  26  27
ENDBRANCH   6  26
ENDBRANCH   4   6
ENDBRANCH   3   4
ENDBRANCH   2   3
ENDBRANCH   1   2
BRANCH   1  36
ATOM     36  O   UNL A   1      41.690  19.674  25.534  1.00  0.00    -0.374 OA
BRANCH  36  37
ATOM     37  C   UNL A   1      42.977  19.139  25.767  1.00  0.00     0.202 C 
BRANCH  37  38
ATOM     38  C   UNL A   1      43.993  19.465  24.667  1.00  0.00     0.261 C 
BRANCH  38  39
ATOM     39  O   UNL A   1      45.255  19.867  25.244  1.00  0.00    -0.460 OA
BRANCH  39  40
ATOM     40  C   UNL A   1      45.690  21.112  24.894  1.00  0.00     0.338 C 
ATOM     41  O   UNL A   1      46.785  21.361  24.420  1.00  0.00    -0.246 OA
BRANCH  40  42
ATOM     42  C   UNL A   1      44.768  22.147  25.462  1.00  0.00     0.060 A 
ATOM     43  C   UNL A   1      44.483  23.313  24.723  1.00  0.00     0.016 A 
ATOM     44  C   UNL A   1      44.555  22.134  26.834  1.00  0.00     0.016 A 
ATOM     45  C   UNL A   1      44.138  24.505  25.387  1.00  0.00     0.010 A 
ATOM     46  C   UNL A   1      44.396  23.345  27.477  1.00  0.00     0.010 A 
ATOM     47  C   UNL A   1      44.171  24.541  26.783  1.00  0.00    -0.014 A 
BRANCH  47  48
ATOM     48  C   UNL A   1      44.029  25.734  27.635  1.00  0.00     0.031 A 
ATOM     49  C   UNL A   1      42.668  26.320  27.725  1.00  0.00     0.074 A 
ATOM     50  C   UNL A   1      45.003  26.347  28.357  1.00  0.00     0.049 A 
ATOM     51  N   UNL A   1      42.442  27.591  27.643  1.00  0.00    -0.248 NA
ATOM     52  C   UNL A   1      41.447  25.523  27.857  1.00  0.00     0.031 C 
ATOM     53  C   UNL A   1      44.803  27.353  29.404  1.00  0.00     0.029 A 
ATOM     54  N   UNL A   1      46.396  26.257  28.273  1.00  0.00    -0.354 N 
ATOM     55  C   UNL A   1      41.131  27.769  28.011  1.00  0.00     0.074 A 
ATOM     56  C   UNL A   1      40.516  26.468  27.969  1.00  0.00     0.031 C 
ATOM     57  C   UNL A   1      45.974  27.950  29.682  1.00  0.00     0.029 A 
ATOM     58  C   UNL A   1      46.968  27.440  28.753  1.00  0.00     0.049 A 
ATOM     59  H   UNL A   1      46.897  25.480  27.931  1.00  0.00     0.167 HD
ATOM     60  C   UNL A   1      40.710  28.931  28.573  1.00  0.00     0.031 A 
ATOM     61  C   UNL A   1      47.903  28.143  28.059  1.00  0.00     0.031 A 
ATOM     62  C   UNL A   1      41.825  29.813  28.894  1.00  0.00     0.049 A 
ATOM     63  C   UNL A   1      47.406  29.533  27.794  1.00  0.00     0.074 A 
ATOM     64  C   UNL A   1      42.471  30.068  30.094  1.00  0.00     0.029 A 
ATOM     65  N   UNL A   1      42.641  30.320  27.892  1.00  0.00    -0.354 N 
ATOM     66  N   UNL A   1      46.143  29.832  27.892  1.00  0.00    -0.248 NA
ATOM     67  C   UNL A   1      48.218  30.675  27.388  1.00  0.00     0.031 C 
ATOM     68  C   UNL A   1      43.666  30.768  29.812  1.00  0.00     0.029 A 
ATOM     69  C   UNL A   1      43.743  30.946  28.441  1.00  0.00     0.049 A 
ATOM     70  H   UNL A   1      42.460  30.245  26.926  1.00  0.00     0.167 HD
ATOM     71  C   UNL A   1      45.952  31.142  27.582  1.00  0.00     0.074 A 
ATOM     72  C   UNL A   1      47.277  31.632  27.254  1.00  0.00     0.031 C 
ATOM     73  C   UNL A   1      44.697  31.665  27.608  1.00  0.00     0.031 A 
BRANCH  60  74
ATOM     74  C   UNL A   1      39.335  29.055  29.177  1.00  0.00    -0.014 A 
ATOM     75  C   UNL A   1      38.254  29.473  28.387  1.00  0.00     0.009 A 
ATOM     76  C   UNL A   1      39.054  28.782  30.530  1.00  0.00     0.009 A 
ATOM     77  C   UNL A   1      36.990  29.717  28.935  1.00  0.00     0.001 A 
ATOM     78  C   UNL A   1      37.806  29.070  31.095  1.00  0.00     0.001 A 
ATOM     79  C   UNL A   1      36.775  29.547  30.296  1.00  0.00     0.000 A 
ENDBRANCH  60  74
BRANCH  61  80
ATOM     80  C   UNL A   1      48.745  27.327  27.143  1.00  0.00    -0.014 A 
ATOM     81  C   UNL A   1      48.939  27.769  25.819  1.00  0.00     0.009 A 
ATOM     82  C   UNL A   1      49.629  26.363  27.657  1.00  0.00     0.009 A 
ATOM     83  C   UNL A   1      50.023  27.310  25.060  1.00  0.00     0.001 A 
ATOM     84  C   UNL A   1      50.723  25.922  26.903  1.00  0.00     0.001 A 
ATOM     85  C   UNL A   1      50.930  26.406  25.611  1.00  0.00     0.000 A 
ENDBRANCH  61  80
BRANCH  73  86
ATOM     86  C   UNL A   1      44.252  32.921  26.921  1.00  0.00    -0.014 A 
ATOM     87  C   UNL A   1      44.089  33.036  25.537  1.00  0.00     0.009 A 
ATOM     88  C   UNL A   1      43.801  34.003  27.712  1.00  0.00     0.009 A 
ATOM     89  C   UNL A   1      43.521  34.183  24.970  1.00  0.00     0.001 A 
ATOM     90  C   UNL A   1      43.188  35.123  27.156  1.00  0.00     0.001 A 
ATOM     91  C   UNL A   1      43.056  35.216  25.778  1.00  0.00     0.000 A 
ENDBRANCH  73  86
ENDBRANCH  47  48
ENDBRANCH  40  42
ENDBRANCH  39  40
ENDBRANCH  38  39
ENDBRANCH  37  38
ENDBRANCH  36  37
ENDBRANCH   1  36
TORSDOF 20
ENDMDL
MODEL 2
REMARK VINA RESULT:     -11.1      3.585      9.757
REMARK SMILES Cc1ccc(S(=O)(=O)N2CCCC2)cc1C(=O)N[C@H](CC1=c2ccccc2=NC1)C(=O)OCCOCCOC(=O)c1ccc(-c2c3nc(c(-c4ccccc4)c4ccc([nH]4)c(-c4ccccc4)c4nc(c(-c5ccccc5)c5ccc2[nH]5)C=C4)C=C3)cc1
REMARK SMILES IDX 34 1 33 2 32 3 30 4 31 5 19 6 18 7 16 8 17 9 15 11 1 12 2 13
REMARK SMILES IDX 3 14 4 15 14 16 5 17 6 18 7 19 8 20 9 21 10 22 13 23 11 24
REMARK SMILES IDX 12 25 20 26 21 27 22 28 29 29 23 30 27 31 28 32 24 33 26 34
REMARK SMILES IDX 25 35 35 36 36 37 37 38 38 39 39 40 40 41 41 42 42 43 88 44
REMARK SMILES IDX 43 45 87 46 44 47 45 48 46 49 81 50 47 51 86 52 80 53 82 54
REMARK SMILES IDX 48 55 85 56 79 57 78 58 49 60 71 61 56 62 70 63 57 64 60 65
REMARK SMILES IDX 69 66 83 67 58 68 59 69 68 71 84 72 61 73 50 74 51 75 55 76
REMARK SMILES IDX 52 77 54 78 53 79 72 80 73 81 77 82 74 83 76 84 75 85 62 86
REMARK SMILES IDX 63 87 67 88 64 89 66 90 65 91
REMARK H PARENT 18 10 82 59 60 70
REMARK Flexibility Score: inf
ROOT
ATOM      1  C   UNL A   1      32.415  25.682  25.639  1.00  0.00     0.202 C 
ENDROOT
BRANCH   1   2
ATOM      2  C   UNL A   1      32.902  24.253  25.667  1.00  0.00     0.261 C 
BRANCH   2   3
ATOM      3  O   UNL A   1      34.002  23.965  26.563  1.00  0.00    -0.462 OA
BRANCH   3   4
ATOM      4  C   UNL A   1      34.283  22.709  27.016  1.00  0.00     0.329 C 
ATOM      5  O   UNL A   1      33.722  22.153  27.947  1.00  0.00    -0.250 OA
BRANCH   4   6
ATOM      6  C   UNL A   1      35.412  22.060  26.169  1.00  0.00     0.196 C 
BRANCH   6   7
ATOM      7  N   UNL A   1      36.589  22.954  26.105  1.00  0.00    -0.338 N 
ATOM      8  C   UNL A   1      37.942  22.924  25.933  1.00  0.00     0.252 C 
ATOM      9  O   UNL A   1      38.399  24.067  25.767  1.00  0.00    -0.269 OA
ATOM     10  H   UNL A   1      36.296  23.886  26.228  1.00  0.00     0.164 HD
BRANCH   8  11
ATOM     11  C   UNL A   1      38.943  21.786  25.969  1.00  0.00     0.044 A 
ATOM     12  C   UNL A   1      37.928  19.838  24.710  1.00  0.00     0.045 C 
ATOM     13  C   UNL A   1      38.832  20.403  25.739  1.00  0.00    -0.038 A 
ATOM     14  C   UNL A   1      39.903  19.509  25.986  1.00  0.00     0.005 A 
ATOM     15  C   UNL A   1      41.184  19.990  26.146  1.00  0.00     0.022 A 
ATOM     16  C   UNL A   1      40.268  22.232  26.132  1.00  0.00     0.035 A 
ATOM     17  C   UNL A   1      41.369  21.361  26.135  1.00  0.00     0.083 A 
BRANCH  17  18
ATOM     18  S   UNL A   1      43.016  21.942  25.803  1.00  0.00     0.243 S 
ATOM     19  O   UNL A   1      42.909  22.989  24.808  1.00  0.00    -0.207 OA
ATOM     20  O   UNL A   1      43.612  22.168  27.100  1.00  0.00    -0.207 OA
BRANCH  18  21
ATOM     21  N   UNL A   1      43.772  20.620  25.118  1.00  0.00    -0.198 NA
ATOM     22  C   UNL A   1      44.772  20.808  24.059  1.00  0.00     0.102 C 
ATOM     23  C   UNL A   1      44.194  19.497  25.974  1.00  0.00     0.102 C 
ATOM     24  C   UNL A   1      45.125  19.366  23.740  1.00  0.00     0.018 C 
ATOM     25  C   UNL A   1      45.217  18.738  25.124  1.00  0.00     0.018 C 
ENDBRANCH  18  21
ENDBRANCH  17  18
ENDBRANCH   8  11
ENDBRANCH   6   7
BRANCH   6  26
ATOM     26  C   UNL A   1      35.091  21.374  24.819  1.00  0.00     0.070 C 
BRANCH  26  27
ATOM     27  C   UNL A   1      34.047  20.297  24.752  1.00  0.00    -0.037 C 
ATOM     28  C   UNL A   1      34.179  18.974  24.676  1.00  0.00     0.001 A 
ATOM     29  C   UNL A   1      32.586  20.663  24.735  1.00  0.00     0.174 C 
ATOM     30  C   UNL A   1      35.266  18.057  24.576  1.00  0.00     0.010 A 
ATOM     31  C   UNL A   1      32.786  18.499  24.770  1.00  0.00     0.065 A 
ATOM     32  N   UNL A   1      31.842  19.388  24.808  1.00  0.00    -0.280 NA
ATOM     33  C   UNL A   1      35.010  16.740  24.651  1.00  0.00     0.001 A 
ATOM     34  C   UNL A   1      32.585  17.038  24.878  1.00  0.00     0.028 A 
ATOM     35  C   UNL A   1      33.660  16.235  24.838  1.00  0.00     0.002 A 
ENDBRANCH  26  27
ENDBRANCH   6  26
ENDBRANCH   4   6
ENDBRANCH   3   4
ENDBRANCH   2   3
ENDBRANCH   1   2
BRANCH   1  36
ATOM     36  O   UNL A   1      33.358  26.461  26.342  1.00  0.00    -0.374 OA
BRANCH  36  37
ATOM     37  C   UNL A   1      33.438  27.820  25.962  1.00  0.00     0.202 C 
BRANCH  37  38
ATOM     38  C   UNL A   1      33.058  28.799  27.077  1.00  0.00     0.261 C 
BRANCH  38  39
ATOM     39  O   UNL A   1      33.495  30.137  26.749  1.00  0.00    -0.460 OA
BRANCH  39  40
ATOM     40  C   UNL A   1      34.132  30.808  27.752  1.00  0.00     0.338 C 
ATOM     41  O   UNL A   1      33.598  31.593  28.517  1.00  0.00    -0.246 OA
BRANCH  40  42
ATOM     42  C   UNL A   1      35.615  30.687  27.577  1.00  0.00     0.060 A 
ATOM     43  C   UNL A   1      36.205  29.413  27.456  1.00  0.00     0.016 A 
ATOM     44  C   UNL A   1      36.396  31.773  27.949  1.00  0.00     0.016 A 
ATOM     45  C   UNL A   1      37.538  29.209  27.862  1.00  0.00     0.010 A 
ATOM     46  C   UNL A   1      37.632  31.522  28.511  1.00  0.00     0.010 A 
ATOM     47  C   UNL A   1      38.233  30.257  28.468  1.00  0.00    -0.014 A 
BRANCH  47  48
ATOM     48  C   UNL A   1      39.551  30.176  29.121  1.00  0.00     0.031 A 
ATOM     49  C   UNL A   1      40.493  29.165  28.579  1.00  0.00     0.074 A 
ATOM     50  C   UNL A   1      40.003  30.934  30.154  1.00  0.00     0.049 A 
ATOM     51  N   UNL A   1      41.193  28.380  29.332  1.00  0.00    -0.248 NA
ATOM     52  C   UNL A   1      40.681  28.913  27.149  1.00  0.00     0.031 C 
ATOM     53  C   UNL A   1      41.391  31.035  30.612  1.00  0.00     0.029 A 
ATOM     54  N   UNL A   1      39.312  31.735  31.069  1.00  0.00    -0.354 N 
ATOM     55  C   UNL A   1      42.107  27.773  28.504  1.00  0.00     0.074 A 
ATOM     56  C   UNL A   1      41.648  27.998  27.158  1.00  0.00     0.031 C 
ATOM     57  C   UNL A   1      41.423  31.623  31.821  1.00  0.00     0.029 A 
ATOM     58  C   UNL A   1      40.051  31.830  32.253  1.00  0.00     0.049 A 
ATOM     59  H   UNL A   1      38.442  32.166  30.905  1.00  0.00     0.167 HD
ATOM     60  C   UNL A   1      43.309  27.353  28.974  1.00  0.00     0.031 A 
ATOM     61  C   UNL A   1      39.517  31.587  33.480  1.00  0.00     0.031 A 
ATOM     62  C   UNL A   1      43.545  27.801  30.339  1.00  0.00     0.049 A 
ATOM     63  C   UNL A   1      40.257  30.467  34.149  1.00  0.00     0.074 A 
ATOM     64  C   UNL A   1      44.300  28.852  30.838  1.00  0.00     0.029 A 
ATOM     65  N   UNL A   1      42.728  27.376  31.378  1.00  0.00    -0.354 N 
ATOM     66  N   UNL A   1      41.013  29.653  33.471  1.00  0.00    -0.248 NA
ATOM     67  C   UNL A   1      40.216  30.135  35.569  1.00  0.00     0.031 C 
ATOM     68  C   UNL A   1      43.961  29.034  32.197  1.00  0.00     0.029 A 
ATOM     69  C   UNL A   1      43.004  28.090  32.528  1.00  0.00     0.049 A 
ATOM     70  H   UNL A   1      42.048  26.668  31.306  1.00  0.00     0.167 HD
ATOM     71  C   UNL A   1      41.549  28.720  34.300  1.00  0.00     0.074 A 
ATOM     72  C   UNL A   1      41.012  29.047  35.607  1.00  0.00     0.031 C 
ATOM     73  C   UNL A   1      42.366  27.757  33.794  1.00  0.00     0.031 A 
BRANCH  60  74
ATOM     74  C   UNL A   1      44.395  26.890  28.036  1.00  0.00    -0.014 A 
ATOM     75  C   UNL A   1      45.250  27.825  27.433  1.00  0.00     0.009 A 
ATOM     76  C   UNL A   1      44.609  25.539  27.704  1.00  0.00     0.009 A 
ATOM     77  C   UNL A   1      46.189  27.450  26.466  1.00  0.00     0.001 A 
ATOM     78  C   UNL A   1      45.512  25.161  26.703  1.00  0.00     0.001 A 
ATOM     79  C   UNL A   1      46.297  26.122  26.077  1.00  0.00     0.000 A 
ENDBRANCH  60  74
BRANCH  61  80
ATOM     80  C   UNL A   1      38.057  31.857  33.589  1.00  0.00    -0.014 A 
ATOM     81  C   UNL A   1      37.629  33.113  34.062  1.00  0.00     0.009 A 
ATOM     82  C   UNL A   1      37.132  31.057  32.897  1.00  0.00     0.009 A 
ATOM     83  C   UNL A   1      36.336  33.581  33.791  1.00  0.00     0.001 A 
ATOM     84  C   UNL A   1      35.847  31.536  32.610  1.00  0.00     0.001 A 
ATOM     85  C   UNL A   1      35.454  32.803  33.043  1.00  0.00     0.000 A 
ENDBRANCH  61  80
BRANCH  73  86
ATOM     86  C   UNL A   1      42.702  26.453  34.452  1.00  0.00    -0.014 A 
ATOM     87  C   UNL A   1      41.858  25.794  35.351  1.00  0.00     0.009 A 
ATOM     88  C   UNL A   1      43.850  25.750  34.019  1.00  0.00     0.009 A 
ATOM     89  C   UNL A   1      42.155  24.505  35.809  1.00  0.00     0.001 A 
ATOM     90  C   UNL A   1      44.122  24.448  34.431  1.00  0.00     0.001 A 
ATOM     91  C   UNL A   1      43.275  23.828  35.337  1.00  0.00     0.000 A 
ENDBRANCH  73  86
ENDBRANCH  47  48
ENDBRANCH  40  42
ENDBRANCH  39  40
ENDBRANCH  38  39
ENDBRANCH  37  38
ENDBRANCH  36  37
ENDBRANCH   1  36
TORSDOF 20
ENDMDL
MODEL 3
REMARK VINA RESULT:     -11.0      4.034      9.542
REMARK SMILES Cc1ccc(S(=O)(=O)N2CCCC2)cc1C(=O)N[C@H](CC1=c2ccccc2=NC1)C(=O)OCCOCCOC(=O)c1ccc(-c2c3nc(c(-c4ccccc4)c4ccc([nH]4)c(-c4ccccc4)c4nc(c(-c5ccccc5)c5ccc2[nH]5)C=C4)C=C3)cc1
REMARK SMILES IDX 34 1 33 2 32 3 30 4 31 5 19 6 18 7 16 8 17 9 15 11 1 12 2 13
REMARK SMILES IDX 3 14 4 15 14 16 5 17 6 18 7 19 8 20 9 21 10 22 13 23 11 24
REMARK SMILES IDX 12 25 20 26 21 27 22 28 29 29 23 30 27 31 28 32 24 33 26 34
REMARK SMILES IDX 25 35 35 36 36 37 37 38 38 39 39 40 40 41 41 42 42 43 88 44
REMARK SMILES IDX 43 45 87 46 44 47 45 48 46 49 81 50 47 51 86 52 80 53 82 54
REMARK SMILES IDX 48 55 85 56 79 57 78 58 49 60 71 61 56 62 70 63 57 64 60 65
REMARK SMILES IDX 69 66 83 67 58 68 59 69 68 71 84 72 61 73 50 74 51 75 55 76
REMARK SMILES IDX 52 77 54 78 53 79 72 80 73 81 77 82 74 83 76 84 75 85 62 86
REMARK SMILES IDX 63 87 67 88 64 89 66 90 65 91
REMARK H PARENT 18 10 82 59 60 70
REMARK Flexibility Score: inf
ROOT
ATOM      1  C   UNL A   1      36.952  23.642  24.616  1.00  0.00     0.202 C 
ENDROOT
BRANCH   1   2
ATOM      2  C   UNL A   1      35.591  23.551  25.265  1.00  0.00     0.261 C 
BRANCH   2   3
ATOM      3  O   UNL A   1      35.032  24.789  25.765  1.00  0.00    -0.462 OA
BRANCH   3   4
ATOM      4  C   UNL A   1      33.913  25.365  25.238  1.00  0.00     0.329 C 
ATOM      5  O   UNL A   1      32.959  24.760  24.774  1.00  0.00    -0.250 OA
BRANCH   4   6
ATOM      6  C   UNL A   1      33.999  26.913  25.326  1.00  0.00     0.196 C 
BRANCH   6   7
ATOM      7  N   UNL A   1      33.246  27.406  26.501  1.00  0.00    -0.338 N 
ATOM      8  C   UNL A   1      33.167  28.476  27.344  1.00  0.00     0.252 C 
ATOM      9  O   UNL A   1      32.153  28.411  28.059  1.00  0.00    -0.269 OA
ATOM     10  H   UNL A   1      32.574  26.736  26.761  1.00  0.00     0.164 HD
BRANCH   8  11
ATOM     11  C   UNL A   1      34.100  29.647  27.585  1.00  0.00     0.044 A 
ATOM     12  C   UNL A   1      32.734  31.767  27.370  1.00  0.00     0.045 C 
ATOM     13  C   UNL A   1      34.011  31.019  27.295  1.00  0.00    -0.038 A 
ATOM     14  C   UNL A   1      35.102  31.904  27.490  1.00  0.00     0.005 A 
ATOM     15  C   UNL A   1      36.172  31.523  28.269  1.00  0.00     0.022 A 
ATOM     16  C   UNL A   1      35.212  29.302  28.378  1.00  0.00     0.035 A 
ATOM     17  C   UNL A   1      36.178  30.237  28.780  1.00  0.00     0.083 A 
BRANCH  17  18
ATOM     18  S   UNL A   1      37.239  29.937  30.174  1.00  0.00     0.243 S 
ATOM     19  O   UNL A   1      37.770  31.218  30.593  1.00  0.00    -0.207 OA
ATOM     20  O   UNL A   1      36.476  29.089  31.062  1.00  0.00    -0.207 OA
BRANCH  18  21
ATOM     21  N   UNL A   1      38.480  29.019  29.536  1.00  0.00    -0.198 NA
ATOM     22  C   UNL A   1      38.733  27.664  30.044  1.00  0.00     0.102 C 
ATOM     23  C   UNL A   1      38.725  29.033  28.084  1.00  0.00     0.102 C 
ATOM     24  C   UNL A   1      39.942  27.270  29.215  1.00  0.00     0.018 C 
ATOM     25  C   UNL A   1      39.571  27.782  27.830  1.00  0.00     0.018 C 
ENDBRANCH  18  21
ENDBRANCH  17  18
ENDBRANCH   8  11
ENDBRANCH   6   7
BRANCH   6  26
ATOM     26  C   UNL A   1      33.803  27.788  24.064  1.00  0.00     0.070 C 
BRANCH  26  27
ATOM     27  C   UNL A   1      32.440  27.927  23.449  1.00  0.00    -0.037 C 
ATOM     28  C   UNL A   1      31.471  28.807  23.694  1.00  0.00     0.001 A 
ATOM     29  C   UNL A   1      31.984  26.951  22.397  1.00  0.00     0.174 C 
ATOM     30  C   UNL A   1      31.274  29.887  24.604  1.00  0.00     0.010 A 
ATOM     31  C   UNL A   1      30.459  28.474  22.674  1.00  0.00     0.065 A 
ATOM     32  N   UNL A   1      30.680  27.448  21.911  1.00  0.00    -0.280 NA
ATOM     33  C   UNL A   1      30.181  30.656  24.468  1.00  0.00     0.001 A 
ATOM     34  C   UNL A   1      29.299  29.383  22.564  1.00  0.00     0.028 A 
ATOM     35  C   UNL A   1      29.207  30.417  23.416  1.00  0.00     0.002 A 
ENDBRANCH  26  27
ENDBRANCH   6  26
ENDBRANCH   4   6
ENDBRANCH   3   4
ENDBRANCH   2   3
ENDBRANCH   1   2
BRANCH   1  36
ATOM     36  O   UNL A   1      37.898  23.187  25.558  1.00  0.00    -0.374 OA
BRANCH  36  37
ATOM     37  C   UNL A   1      38.076  21.786  25.622  1.00  0.00     0.202 C 
BRANCH  37  38
ATOM     38  C   UNL A   1      39.516  21.357  25.921  1.00  0.00     0.261 C 
BRANCH  38  39
ATOM     39  O   UNL A   1      40.268  22.455  26.482  1.00  0.00    -0.460 OA
BRANCH  39  40
ATOM     40  C   UNL A   1      41.618  22.400  26.291  1.00  0.00     0.338 C 
ATOM     41  O   UNL A   1      42.188  21.602  25.566  1.00  0.00    -0.246 OA
BRANCH  40  42
ATOM     42  C   UNL A   1      42.309  23.237  27.323  1.00  0.00     0.060 A 
ATOM     43  C   UNL A   1      42.294  24.642  27.211  1.00  0.00     0.016 A 
ATOM     44  C   UNL A   1      43.274  22.621  28.108  1.00  0.00     0.016 A 
ATOM     45  C   UNL A   1      43.341  25.407  27.759  1.00  0.00     0.010 A 
ATOM     46  C   UNL A   1      44.379  23.360  28.478  1.00  0.00     0.010 A 
ATOM     47  C   UNL A   1      44.435  24.753  28.331  1.00  0.00    -0.014 A 
BRANCH  47  48
ATOM     48  C   UNL A   1      45.694  25.372  28.777  1.00  0.00     0.031 A 
ATOM     49  C   UNL A   1      46.863  25.210  27.876  1.00  0.00     0.074 A 
ATOM     50  C   UNL A   1      45.898  26.089  29.914  1.00  0.00     0.049 A 
ATOM     51  N   UNL A   1      48.042  24.893  28.305  1.00  0.00    -0.248 NA
ATOM     52  C   UNL A   1      46.791  25.333  26.419  1.00  0.00     0.031 C 
ATOM     53  C   UNL A   1      47.064  26.924  30.214  1.00  0.00     0.029 A 
ATOM     54  N   UNL A   1      45.139  26.179  31.084  1.00  0.00    -0.354 N 
ATOM     55  C   UNL A   1      48.894  25.076  27.243  1.00  0.00     0.074 A 
ATOM     56  C   UNL A   1      48.066  25.181  26.070  1.00  0.00     0.031 C 
ATOM     57  C   UNL A   1      47.071  27.230  31.523  1.00  0.00     0.029 A 
ATOM     58  C   UNL A   1      45.974  26.517  32.155  1.00  0.00     0.049 A 
ATOM     59  H   UNL A   1      44.167  26.029  31.146  1.00  0.00     0.167 HD
ATOM     60  C   UNL A   1      50.202  25.386  27.436  1.00  0.00     0.031 A 
ATOM     61  C   UNL A   1      45.991  25.826  33.326  1.00  0.00     0.031 A 
ATOM     62  C   UNL A   1      50.488  25.680  28.834  1.00  0.00     0.049 A 
ATOM     63  C   UNL A   1      47.364  25.280  33.579  1.00  0.00     0.074 A 
ATOM     64  C   UNL A   1      50.638  26.885  29.502  1.00  0.00     0.029 A 
ATOM     65  N   UNL A   1      50.332  24.706  29.811  1.00  0.00    -0.354 N 
ATOM     66  N   UNL A   1      48.243  25.183  32.624  1.00  0.00    -0.248 NA
ATOM     67  C   UNL A   1      47.872  24.783  34.854  1.00  0.00     0.031 C 
ATOM     68  C   UNL A   1      50.610  26.628  30.891  1.00  0.00     0.029 A 
ATOM     69  C   UNL A   1      50.451  25.265  31.069  1.00  0.00     0.049 A 
ATOM     70  H   UNL A   1      50.161  23.752  29.634  1.00  0.00     0.167 HD
ATOM     71  C   UNL A   1      49.392  24.640  33.105  1.00  0.00     0.074 A 
ATOM     72  C   UNL A   1      49.113  24.387  34.505  1.00  0.00     0.031 C 
ATOM     73  C   UNL A   1      50.444  24.437  32.267  1.00  0.00     0.031 A 
BRANCH  60  74
ATOM     74  C   UNL A   1      51.085  25.802  26.288  1.00  0.00    -0.014 A 
ATOM     75  C   UNL A   1      52.192  25.017  25.930  1.00  0.00     0.009 A 
ATOM     76  C   UNL A   1      50.876  26.971  25.532  1.00  0.00     0.009 A 
ATOM     77  C   UNL A   1      53.103  25.429  24.953  1.00  0.00     0.001 A 
ATOM     78  C   UNL A   1      51.809  27.414  24.587  1.00  0.00     0.001 A 
ATOM     79  C   UNL A   1      52.930  26.644  24.304  1.00  0.00     0.000 A 
ENDBRANCH  60  74
BRANCH  61  80
ATOM     80  C   UNL A   1      44.707  25.159  33.676  1.00  0.00    -0.014 A 
ATOM     81  C   UNL A   1      44.642  23.752  33.658  1.00  0.00     0.009 A 
ATOM     82  C   UNL A   1      43.705  25.862  34.366  1.00  0.00     0.009 A 
ATOM     83  C   UNL A   1      43.645  23.069  34.367  1.00  0.00     0.001 A 
ATOM     84  C   UNL A   1      42.721  25.176  35.090  1.00  0.00     0.001 A 
ATOM     85  C   UNL A   1      42.700  23.782  35.104  1.00  0.00     0.000 A 
ENDBRANCH  61  80
BRANCH  73  86
ATOM     86  C   UNL A   1      51.593  23.506  32.507  1.00  0.00    -0.014 A 
ATOM     87  C   UNL A   1      52.903  23.932  32.750  1.00  0.00     0.009 A 
ATOM     88  C   UNL A   1      51.327  22.127  32.675  1.00  0.00     0.009 A 
ATOM     89  C   UNL A   1      53.901  23.024  33.124  1.00  0.00     0.001 A 
ATOM     90  C   UNL A   1      52.304  21.229  33.097  1.00  0.00     0.001 A 
ATOM     91  C   UNL A   1      53.598  21.679  33.313  1.00  0.00     0.000 A 
ENDBRANCH  73  86
ENDBRANCH  47  48
ENDBRANCH  40  42
ENDBRANCH  39  40
ENDBRANCH  38  39
ENDBRANCH  37  38
ENDBRANCH  36  37
ENDBRANCH   1  36
TORSDOF 20
ENDMDL
