MODEL 1
REMARK VINA RESULT:     -11.1      0.000      0.000
REMARK SMILES COc1ccc2c(c1)c(CC(=O)OCCOCCOC(=O)c1ccc(-c3c4nc(c(-c5ccccc5)c5ccc([nH]5)c(-c5ccccc5)c5nc(c(-c6ccccc6)c6ccc3[nH]6)C=C5)C=C4)cc1)c(C)n2Cc1ccc(Br)cc1
REMARK SMILES IDX 15 1 14 2 13 3 11 4 12 5 10 6 9 7 3 8 4 9 8 10 5 11 7 12
REMARK SMILES IDX 6 13 72 14 70 15 71 16 2 17 1 18 73 19 74 20 75 21 80 22
REMARK SMILES IDX 76 23 79 24 77 25 78 26 16 27 17 28 18 29 19 30 20 31 21 32
REMARK SMILES IDX 22 33 23 34 69 35 24 36 68 37 25 38 26 39 27 40 62 41 28 42
REMARK SMILES IDX 67 43 61 44 63 45 29 46 66 47 60 48 59 49 30 51 52 52 37 53
REMARK SMILES IDX 51 54 38 55 41 56 50 57 64 58 39 59 40 60 49 62 65 63 42 64
REMARK SMILES IDX 31 65 32 66 36 67 33 68 35 69 34 70 53 71 54 72 58 73 55 74
REMARK SMILES IDX 57 75 56 76 43 77 44 78 48 79 45 80 47 81 46 82
REMARK H PARENT 63 50 41 61
REMARK Flexibility Score: inf
ROOT
ATOM      1  C   UNL A   1      33.730  28.322  24.157  1.00  0.00     0.202 C 
ENDROOT
BRANCH   1   2
ATOM      2  C   UNL A   1      33.082  26.948  23.917  1.00  0.00     0.261 C 
BRANCH   2   3
ATOM      3  O   UNL A   1      34.001  25.915  23.527  1.00  0.00    -0.463 OA
BRANCH   3   4
ATOM      4  C   UNL A   1      33.625  25.207  22.430  1.00  0.00     0.310 C 
ATOM      5  O   UNL A   1      33.419  25.715  21.328  1.00  0.00    -0.252 OA
BRANCH   4   6
ATOM      6  C   UNL A   1      33.509  23.708  22.612  1.00  0.00     0.160 C 
BRANCH   6   7
ATOM      7  C   UNL A   1      34.263  23.042  23.729  1.00  0.00    -0.008 A 
ATOM      8  C   UNL A   1      32.464  22.973  27.109  1.00  0.00     0.119 A 
ATOM      9  C   UNL A   1      33.412  22.202  27.768  1.00  0.00     0.048 A 
ATOM     10  C   UNL A   1      32.701  23.356  25.785  1.00  0.00     0.057 A 
ATOM     11  C   UNL A   1      34.601  21.805  27.121  1.00  0.00     0.031 A 
ATOM     12  C   UNL A   1      33.839  22.904  25.083  1.00  0.00     0.007 A 
ATOM     13  C   UNL A   1      34.807  22.169  25.773  1.00  0.00     0.049 A 
ATOM     14  N   UNL A   1      35.872  21.975  24.891  1.00  0.00    -0.340 N 
ATOM     15  C   UNL A   1      35.600  22.664  23.714  1.00  0.00     0.020 A 
ATOM     16  C   UNL A   1      36.589  22.995  22.650  1.00  0.00     0.065 C 
BRANCH   8  17
ATOM     17  O   UNL A   1      31.221  23.329  27.552  1.00  0.00    -0.497 OA
ATOM     18  C   UNL A   1      30.074  22.946  26.813  1.00  0.00     0.278 C 
ENDBRANCH   8  17
BRANCH  14  19
ATOM     19  C   UNL A   1      37.173  21.395  25.277  1.00  0.00     0.157 C 
BRANCH  19  20
ATOM     20  C   UNL A   1      38.107  22.310  26.054  1.00  0.00    -0.028 A 
ATOM     21  C   UNL A   1      39.362  21.880  26.511  1.00  0.00     0.007 A 
ATOM     22  C   UNL A   1      37.788  23.664  26.246  1.00  0.00     0.007 A 
ATOM     23  C   UNL A   1      40.237  22.727  27.194  1.00  0.00     0.016 A 
ATOM     24  C   UNL A   1      38.673  24.531  26.907  1.00  0.00     0.016 A 
ATOM     25  C   UNL A   1      39.886  24.052  27.395  1.00  0.00     0.017 A 
ATOM     26  Br  UNL A   1      41.072  25.199  28.315  1.00  0.00    -0.051 Br
ENDBRANCH  19  20
ENDBRANCH  14  19
ENDBRANCH   6   7
ENDBRANCH   4   6
ENDBRANCH   3   4
ENDBRANCH   2   3
ENDBRANCH   1   2
BRANCH   1  27
ATOM     27  O   UNL A   1      33.048  29.324  24.893  1.00  0.00    -0.374 OA
BRANCH  27  28
ATOM     28  C   UNL A   1      33.189  29.291  26.311  1.00  0.00     0.202 C 
BRANCH  28  29
ATOM     29  C   UNL A   1      33.559  30.585  27.061  1.00  0.00     0.261 C 
BRANCH  29  30
ATOM     30  O   UNL A   1      34.665  30.426  27.945  1.00  0.00    -0.460 OA
BRANCH  30  31
ATOM     31  C   UNL A   1      35.624  31.389  27.822  1.00  0.00     0.338 C 
ATOM     32  O   UNL A   1      35.485  32.580  27.680  1.00  0.00    -0.246 OA
BRANCH  31  33
ATOM     33  C   UNL A   1      36.817  30.728  28.376  1.00  0.00     0.060 A 
ATOM     34  C   UNL A   1      37.805  31.486  29.010  1.00  0.00     0.016 A 
ATOM     35  C   UNL A   1      37.080  29.457  27.843  1.00  0.00     0.016 A 
ATOM     36  C   UNL A   1      39.106  31.005  29.014  1.00  0.00     0.010 A 
ATOM     37  C   UNL A   1      38.390  29.009  27.799  1.00  0.00     0.010 A 
ATOM     38  C   UNL A   1      39.402  29.803  28.350  1.00  0.00    -0.014 A 
BRANCH  38  39
ATOM     39  C   UNL A   1      40.745  29.249  28.497  1.00  0.00     0.031 A 
ATOM     40  C   UNL A   1      41.008  28.884  29.917  1.00  0.00     0.074 A 
ATOM     41  C   UNL A   1      41.585  28.928  27.493  1.00  0.00     0.049 A 
ATOM     42  N   UNL A   1      41.901  29.374  30.711  1.00  0.00    -0.248 NA
ATOM     43  C   UNL A   1      40.025  28.007  30.583  1.00  0.00     0.031 C 
ATOM     44  C   UNL A   1      41.336  28.938  26.054  1.00  0.00     0.029 A 
ATOM     45  N   UNL A   1      42.833  28.384  27.562  1.00  0.00    -0.354 N 
ATOM     46  C   UNL A   1      41.692  28.746  31.935  1.00  0.00     0.074 A 
ATOM     47  C   UNL A   1      40.412  28.097  31.852  1.00  0.00     0.031 C 
ATOM     48  C   UNL A   1      42.259  28.172  25.427  1.00  0.00     0.029 A 
ATOM     49  C   UNL A   1      43.232  27.721  26.405  1.00  0.00     0.049 A 
ATOM     50  H   UNL A   1      43.404  28.454  28.362  1.00  0.00     0.167 HD
ATOM     51  C   UNL A   1      42.691  28.583  32.842  1.00  0.00     0.031 A 
ATOM     52  C   UNL A   1      44.214  26.784  26.301  1.00  0.00     0.031 A 
ATOM     53  C   UNL A   1      43.796  29.461  32.574  1.00  0.00     0.049 A 
ATOM     54  C   UNL A   1      45.066  26.906  27.509  1.00  0.00     0.074 A 
ATOM     55  C   UNL A   1      43.932  30.834  32.500  1.00  0.00     0.029 A 
ATOM     56  N   UNL A   1      44.882  28.933  31.915  1.00  0.00    -0.354 N 
ATOM     57  N   UNL A   1      45.826  27.932  27.759  1.00  0.00    -0.248 NA
ATOM     58  C   UNL A   1      44.693  26.099  28.663  1.00  0.00     0.031 C 
ATOM     59  C   UNL A   1      44.795  31.053  31.391  1.00  0.00     0.029 A 
ATOM     60  C   UNL A   1      45.215  29.809  30.915  1.00  0.00     0.049 A 
ATOM     61  H   UNL A   1      45.334  28.084  32.122  1.00  0.00     0.167 HD
ATOM     62  C   UNL A   1      45.661  28.164  29.117  1.00  0.00     0.074 A 
ATOM     63  C   UNL A   1      44.997  26.965  29.633  1.00  0.00     0.031 C 
ATOM     64  C   UNL A   1      45.796  29.412  29.652  1.00  0.00     0.031 A 
BRANCH  51  65
ATOM     65  C   UNL A   1      42.811  27.363  33.719  1.00  0.00    -0.014 A 
ATOM     66  C   UNL A   1      41.867  27.012  34.705  1.00  0.00     0.009 A 
ATOM     67  C   UNL A   1      43.763  26.385  33.388  1.00  0.00     0.009 A 
ATOM     68  C   UNL A   1      41.862  25.760  35.324  1.00  0.00     0.001 A 
ATOM     69  C   UNL A   1      43.733  25.112  33.971  1.00  0.00     0.001 A 
ATOM     70  C   UNL A   1      42.783  24.800  34.938  1.00  0.00     0.000 A 
ENDBRANCH  51  65
BRANCH  52  71
ATOM     71  C   UNL A   1      44.178  25.519  25.515  1.00  0.00    -0.014 A 
ATOM     72  C   UNL A   1      43.003  24.747  25.451  1.00  0.00     0.009 A 
ATOM     73  C   UNL A   1      45.374  24.908  25.096  1.00  0.00     0.009 A 
ATOM     74  C   UNL A   1      43.028  23.407  25.050  1.00  0.00     0.001 A 
ATOM     75  C   UNL A   1      45.401  23.561  24.700  1.00  0.00     0.001 A 
ATOM     76  C   UNL A   1      44.231  22.807  24.697  1.00  0.00     0.000 A 
ENDBRANCH  52  71
BRANCH  64  77
ATOM     77  C   UNL A   1      46.347  30.532  28.802  1.00  0.00    -0.014 A 
ATOM     78  C   UNL A   1      45.483  31.103  27.852  1.00  0.00     0.009 A 
ATOM     79  C   UNL A   1      47.708  30.879  28.750  1.00  0.00     0.009 A 
ATOM     80  C   UNL A   1      45.962  31.961  26.862  1.00  0.00     0.001 A 
ATOM     81  C   UNL A   1      48.184  31.764  27.774  1.00  0.00     0.001 A 
ATOM     82  C   UNL A   1      47.313  32.291  26.823  1.00  0.00     0.000 A 
ENDBRANCH  64  77
ENDBRANCH  38  39
ENDBRANCH  31  33
ENDBRANCH  30  31
ENDBRANCH  29  30
ENDBRANCH  28  29
ENDBRANCH  27  28
ENDBRANCH   1  27
TORSDOF 18
ENDMDL
MODEL 2
REMARK VINA RESULT:     -10.1      5.631     11.482
REMARK SMILES COc1ccc2c(c1)c(CC(=O)OCCOCCOC(=O)c1ccc(-c3c4nc(c(-c5ccccc5)c5ccc([nH]5)c(-c5ccccc5)c5nc(c(-c6ccccc6)c6ccc3[nH]6)C=C5)C=C4)cc1)c(C)n2Cc1ccc(Br)cc1
REMARK SMILES IDX 15 1 14 2 13 3 11 4 12 5 10 6 9 7 3 8 4 9 8 10 5 11 7 12
REMARK SMILES IDX 6 13 72 14 70 15 71 16 2 17 1 18 73 19 74 20 75 21 80 22
REMARK SMILES IDX 76 23 79 24 77 25 78 26 16 27 17 28 18 29 19 30 20 31 21 32
REMARK SMILES IDX 22 33 23 34 69 35 24 36 68 37 25 38 26 39 27 40 62 41 28 42
REMARK SMILES IDX 67 43 61 44 63 45 29 46 66 47 60 48 59 49 30 51 52 52 37 53
REMARK SMILES IDX 51 54 38 55 41 56 50 57 64 58 39 59 40 60 49 62 65 63 42 64
REMARK SMILES IDX 31 65 32 66 36 67 33 68 35 69 34 70 53 71 54 72 58 73 55 74
REMARK SMILES IDX 57 75 56 76 43 77 44 78 48 79 45 80 47 81 46 82
REMARK H PARENT 63 50 41 61
REMARK Flexibility Score: inf
ROOT
ATOM      1  C   UNL A   1      46.143  22.163  24.376  1.00  0.00     0.202 C 
ENDROOT
BRANCH   1   2
ATOM      2  C   UNL A   1      45.988  23.586  24.939  1.00  0.00     0.261 C 
BRANCH   2   3
ATOM      3  O   UNL A   1      46.820  24.571  24.305  1.00  0.00    -0.463 OA
BRANCH   3   4
ATOM      4  C   UNL A   1      47.285  25.540  25.136  1.00  0.00     0.310 C 
ATOM      5  O   UNL A   1      47.503  25.364  26.334  1.00  0.00    -0.252 OA
BRANCH   4   6
ATOM      6  C   UNL A   1      47.575  26.882  24.497  1.00  0.00     0.160 C 
BRANCH   6   7
ATOM      7  C   UNL A   1      48.801  27.040  23.640  1.00  0.00    -0.008 A 
ATOM      8  C   UNL A   1      52.139  26.507  25.441  1.00  0.00     0.119 A 
ATOM      9  C   UNL A   1      52.938  26.619  24.311  1.00  0.00     0.048 A 
ATOM     10  C   UNL A   1      50.759  26.701  25.319  1.00  0.00     0.057 A 
ATOM     11  C   UNL A   1      52.377  26.924  23.053  1.00  0.00     0.031 A 
ATOM     12  C   UNL A   1      50.158  26.924  24.062  1.00  0.00     0.007 A 
ATOM     13  C   UNL A   1      50.979  27.081  22.942  1.00  0.00     0.049 A 
ATOM     14  N   UNL A   1      50.147  27.423  21.874  1.00  0.00    -0.340 N 
ATOM     15  C   UNL A   1      48.849  27.567  22.357  1.00  0.00     0.020 A 
ATOM     16  C   UNL A   1      47.724  28.231  21.642  1.00  0.00     0.065 C 
BRANCH   8  17
ATOM     17  O   UNL A   1      52.510  26.100  26.691  1.00  0.00    -0.497 OA
ATOM     18  C   UNL A   1      51.641  26.319  27.790  1.00  0.00     0.278 C 
ENDBRANCH   8  17
BRANCH  14  19
ATOM     19  C   UNL A   1      50.631  27.847  20.547  1.00  0.00     0.157 C 
BRANCH  19  20
ATOM     20  C   UNL A   1      50.919  26.732  19.554  1.00  0.00    -0.028 A 
ATOM     21  C   UNL A   1      50.473  25.418  19.760  1.00  0.00     0.007 A 
ATOM     22  C   UNL A   1      51.552  27.007  18.331  1.00  0.00     0.007 A 
ATOM     23  C   UNL A   1      50.705  24.398  18.834  1.00  0.00     0.016 A 
ATOM     24  C   UNL A   1      51.765  25.994  17.382  1.00  0.00     0.016 A 
ATOM     25  C   UNL A   1      51.356  24.690  17.647  1.00  0.00     0.017 A 
ATOM     26  Br  UNL A   1      51.666  23.312  16.393  1.00  0.00    -0.051 Br
ENDBRANCH  19  20
ENDBRANCH  14  19
ENDBRANCH   6   7
ENDBRANCH   4   6
ENDBRANCH   3   4
ENDBRANCH   2   3
ENDBRANCH   1   2
BRANCH   1  27
ATOM     27  O   UNL A   1      46.256  21.050  25.248  1.00  0.00    -0.374 OA
BRANCH  27  28
ATOM     28  C   UNL A   1      45.929  19.772  24.707  1.00  0.00     0.202 C 
BRANCH  28  29
ATOM     29  C   UNL A   1      44.599  19.104  25.104  1.00  0.00     0.261 C 
BRANCH  29  30
ATOM     30  O   UNL A   1      43.457  19.906  24.815  1.00  0.00    -0.460 OA
BRANCH  30  31
ATOM     31  C   UNL A   1      42.373  19.643  25.601  1.00  0.00     0.338 C 
ATOM     32  O   UNL A   1      41.985  18.580  26.020  1.00  0.00    -0.246 OA
BRANCH  31  33
ATOM     33  C   UNL A   1      42.084  20.956  26.200  1.00  0.00     0.060 A 
ATOM     34  C   UNL A   1      42.533  22.123  25.575  1.00  0.00     0.016 A 
ATOM     35  C   UNL A   1      41.764  20.917  27.566  1.00  0.00     0.016 A 
ATOM     36  C   UNL A   1      42.768  23.242  26.360  1.00  0.00     0.010 A 
ATOM     37  C   UNL A   1      42.055  22.019  28.352  1.00  0.00     0.010 A 
ATOM     38  C   UNL A   1      42.592  23.163  27.752  1.00  0.00    -0.014 A 
BRANCH  38  39
ATOM     39  C   UNL A   1      42.703  24.394  28.530  1.00  0.00     0.031 A 
ATOM     40  C   UNL A   1      41.564  25.306  28.232  1.00  0.00     0.074 A 
ATOM     41  C   UNL A   1      43.589  24.629  29.518  1.00  0.00     0.049 A 
ATOM     42  N   UNL A   1      41.606  26.484  27.706  1.00  0.00    -0.248 NA
ATOM     43  C   UNL A   1      40.202  24.751  28.358  1.00  0.00     0.031 C 
ATOM     44  C   UNL A   1      44.549  23.712  30.124  1.00  0.00     0.029 A 
ATOM     45  N   UNL A   1      43.725  25.739  30.298  1.00  0.00    -0.354 N 
ATOM     46  C   UNL A   1      40.279  26.883  27.583  1.00  0.00     0.074 A 
ATOM     47  C   UNL A   1      39.475  25.709  27.791  1.00  0.00     0.031 C 
ATOM     48  C   UNL A   1      44.944  24.193  31.326  1.00  0.00     0.029 A 
ATOM     49  C   UNL A   1      44.360  25.507  31.515  1.00  0.00     0.049 A 
ATOM     50  H   UNL A   1      43.404  26.629  30.024  1.00  0.00     0.167 HD
ATOM     51  C   UNL A   1      39.916  28.193  27.576  1.00  0.00     0.031 A 
ATOM     52  C   UNL A   1      44.300  26.291  32.627  1.00  0.00     0.031 A 
ATOM     53  C   UNL A   1      41.036  29.048  27.294  1.00  0.00     0.049 A 
ATOM     54  C   UNL A   1      43.818  27.627  32.196  1.00  0.00     0.074 A 
ATOM     55  C   UNL A   1      41.908  29.166  26.229  1.00  0.00     0.029 A 
ATOM     56  N   UNL A   1      41.650  29.663  28.361  1.00  0.00    -0.354 N 
ATOM     57  N   UNL A   1      44.505  28.437  31.445  1.00  0.00    -0.248 NA
ATOM     58  C   UNL A   1      42.378  27.843  32.209  1.00  0.00     0.031 C 
ATOM     59  C   UNL A   1      43.180  29.383  26.825  1.00  0.00     0.029 A 
ATOM     60  C   UNL A   1      43.001  29.488  28.206  1.00  0.00     0.049 A 
ATOM     61  H   UNL A   1      41.203  30.137  29.098  1.00  0.00     0.167 HD
ATOM     62  C   UNL A   1      43.575  28.960  30.558  1.00  0.00     0.074 A 
ATOM     63  C   UNL A   1      42.270  28.603  31.116  1.00  0.00     0.031 C 
ATOM     64  C   UNL A   1      43.932  29.369  29.306  1.00  0.00     0.031 A 
BRANCH  51  65
ATOM     65  C   UNL A   1      38.642  28.694  28.206  1.00  0.00    -0.014 A 
ATOM     66  C   UNL A   1      38.315  28.508  29.564  1.00  0.00     0.009 A 
ATOM     67  C   UNL A   1      37.849  29.605  27.489  1.00  0.00     0.009 A 
ATOM     68  C   UNL A   1      37.265  29.192  30.181  1.00  0.00     0.001 A 
ATOM     69  C   UNL A   1      36.825  30.328  28.115  1.00  0.00     0.001 A 
ATOM     70  C   UNL A   1      36.534  30.122  29.459  1.00  0.00     0.000 A 
ENDBRANCH  51  65
BRANCH  52  71
ATOM     71  C   UNL A   1      44.156  25.846  34.041  1.00  0.00    -0.014 A 
ATOM     72  C   UNL A   1      43.179  24.898  34.399  1.00  0.00     0.009 A 
ATOM     73  C   UNL A   1      44.755  26.579  35.082  1.00  0.00     0.009 A 
ATOM     74  C   UNL A   1      42.769  24.735  35.727  1.00  0.00     0.001 A 
ATOM     75  C   UNL A   1      44.340  26.419  36.413  1.00  0.00     0.001 A 
ATOM     76  C   UNL A   1      43.333  25.512  36.732  1.00  0.00     0.000 A 
ENDBRANCH  52  71
BRANCH  64  77
ATOM     77  C   UNL A   1      45.395  29.464  28.940  1.00  0.00    -0.014 A 
ATOM     78  C   UNL A   1      45.947  30.750  28.827  1.00  0.00     0.009 A 
ATOM     79  C   UNL A   1      46.162  28.373  28.497  1.00  0.00     0.009 A 
ATOM     80  C   UNL A   1      47.205  30.951  28.258  1.00  0.00     0.001 A 
ATOM     81  C   UNL A   1      47.438  28.571  27.953  1.00  0.00     0.001 A 
ATOM     82  C   UNL A   1      47.951  29.860  27.821  1.00  0.00     0.000 A 
ENDBRANCH  64  77
ENDBRANCH  38  39
ENDBRANCH  31  33
ENDBRANCH  30  31
ENDBRANCH  29  30
ENDBRANCH  28  29
ENDBRANCH  27  28
ENDBRANCH   1  27
TORSDOF 18
ENDMDL
MODEL 3
REMARK VINA RESULT:     -10.0      5.163     11.150
REMARK SMILES COc1ccc2c(c1)c(CC(=O)OCCOCCOC(=O)c1ccc(-c3c4nc(c(-c5ccccc5)c5ccc([nH]5)c(-c5ccccc5)c5nc(c(-c6ccccc6)c6ccc3[nH]6)C=C5)C=C4)cc1)c(C)n2Cc1ccc(Br)cc1
REMARK SMILES IDX 15 1 14 2 13 3 11 4 12 5 10 6 9 7 3 8 4 9 8 10 5 11 7 12
REMARK SMILES IDX 6 13 72 14 70 15 71 16 2 17 1 18 73 19 74 20 75 21 80 22
REMARK SMILES IDX 76 23 79 24 77 25 78 26 16 27 17 28 18 29 19 30 20 31 21 32
REMARK SMILES IDX 22 33 23 34 69 35 24 36 68 37 25 38 26 39 27 40 62 41 28 42
REMARK SMILES IDX 67 43 61 44 63 45 29 46 66 47 60 48 59 49 30 51 52 52 37 53
REMARK SMILES IDX 51 54 38 55 41 56 50 57 64 58 39 59 40 60 49 62 65 63 42 64
REMARK SMILES IDX 31 65 32 66 36 67 33 68 35 69 34 70 53 71 54 72 58 73 55 74
REMARK SMILES IDX 57 75 56 76 43 77 44 78 48 79 45 80 47 81 46 82
REMARK H PARENT 63 50 41 61
REMARK Flexibility Score: inf
ROOT
ATOM      1  C   UNL A   1      45.922  22.813  25.703  1.00  0.00     0.202 C 
ENDROOT
BRANCH   1   2
ATOM      2  C   UNL A   1      46.728  23.861  24.918  1.00  0.00     0.261 C 
BRANCH   2   3
ATOM      3  O   UNL A   1      45.942  24.938  24.382  1.00  0.00    -0.463 OA
BRANCH   3   4
ATOM      4  C   UNL A   1      45.872  26.038  25.177  1.00  0.00     0.310 C 
ATOM      5  O   UNL A   1      45.320  26.050  26.277  1.00  0.00    -0.252 OA
BRANCH   4   6
ATOM      6  C   UNL A   1      46.562  27.281  24.656  1.00  0.00     0.160 C 
BRANCH   6   7
ATOM      7  C   UNL A   1      47.945  27.167  24.077  1.00  0.00    -0.008 A 
ATOM      8  C   UNL A   1      50.675  26.114  26.549  1.00  0.00     0.119 A 
ATOM      9  C   UNL A   1      51.696  26.021  25.614  1.00  0.00     0.048 A 
ATOM     10  C   UNL A   1      49.413  26.554  26.136  1.00  0.00     0.057 A 
ATOM     11  C   UNL A   1      51.476  26.364  24.263  1.00  0.00     0.031 A 
ATOM     12  C   UNL A   1      49.138  26.823  24.778  1.00  0.00     0.007 A 
ATOM     13  C   UNL A   1      50.188  26.771  23.856  1.00  0.00     0.049 A 
ATOM     14  N   UNL A   1      49.675  27.209  22.634  1.00  0.00    -0.340 N 
ATOM     15  C   UNL A   1      48.358  27.614  22.829  1.00  0.00     0.020 A 
ATOM     16  C   UNL A   1      47.553  28.440  21.886  1.00  0.00     0.065 C 
BRANCH   8  17
ATOM     17  O   UNL A   1      50.695  25.706  27.853  1.00  0.00    -0.497 OA
ATOM     18  C   UNL A   1      49.595  24.983  28.382  1.00  0.00     0.278 C 
ENDBRANCH   8  17
BRANCH  14  19
ATOM     19  C   UNL A   1      50.495  27.472  21.436  1.00  0.00     0.157 C 
BRANCH  19  20
ATOM     20  C   UNL A   1      51.159  28.838  21.369  1.00  0.00    -0.028 A 
ATOM     21  C   UNL A   1      50.813  29.788  20.396  1.00  0.00     0.007 A 
ATOM     22  C   UNL A   1      52.070  29.242  22.358  1.00  0.00     0.007 A 
ATOM     23  C   UNL A   1      51.395  31.057  20.352  1.00  0.00     0.016 A 
ATOM     24  C   UNL A   1      52.639  30.526  22.339  1.00  0.00     0.016 A 
ATOM     25  C   UNL A   1      52.312  31.420  21.324  1.00  0.00     0.017 A 
ATOM     26  Br  UNL A   1      53.095  33.138  21.268  1.00  0.00    -0.051 Br
ENDBRANCH  19  20
ENDBRANCH  14  19
ENDBRANCH   6   7
ENDBRANCH   4   6
ENDBRANCH   3   4
ENDBRANCH   2   3
ENDBRANCH   1   2
BRANCH   1  27
ATOM     27  O   UNL A   1      46.321  21.452  25.711  1.00  0.00    -0.374 OA
BRANCH  27  28
ATOM     28  C   UNL A   1      45.763  20.611  24.704  1.00  0.00     0.202 C 
BRANCH  28  29
ATOM     29  C   UNL A   1      44.653  19.613  25.086  1.00  0.00     0.261 C 
BRANCH  29  30
ATOM     30  O   UNL A   1      43.345  20.069  24.750  1.00  0.00    -0.460 OA
BRANCH  30  31
ATOM     31  C   UNL A   1      42.380  19.719  25.648  1.00  0.00     0.338 C 
ATOM     32  O   UNL A   1      42.128  18.628  26.097  1.00  0.00    -0.246 OA
BRANCH  31  33
ATOM     33  C   UNL A   1      42.056  21.004  26.290  1.00  0.00     0.060 A 
ATOM     34  C   UNL A   1      42.325  22.203  25.625  1.00  0.00     0.016 A 
ATOM     35  C   UNL A   1      41.911  20.940  27.684  1.00  0.00     0.016 A 
ATOM     36  C   UNL A   1      42.559  23.341  26.384  1.00  0.00     0.010 A 
ATOM     37  C   UNL A   1      42.202  22.065  28.437  1.00  0.00     0.010 A 
ATOM     38  C   UNL A   1      42.562  23.250  27.786  1.00  0.00    -0.014 A 
BRANCH  38  39
ATOM     39  C   UNL A   1      42.664  24.487  28.555  1.00  0.00     0.031 A 
ATOM     40  C   UNL A   1      41.505  25.377  28.269  1.00  0.00     0.074 A 
ATOM     41  C   UNL A   1      43.560  24.744  29.529  1.00  0.00     0.049 A 
ATOM     42  N   UNL A   1      41.518  26.552  27.735  1.00  0.00    -0.248 NA
ATOM     43  C   UNL A   1      40.154  24.799  28.419  1.00  0.00     0.031 C 
ATOM     44  C   UNL A   1      44.545  23.847  30.125  1.00  0.00     0.029 A 
ATOM     45  N   UNL A   1      43.688  25.861  30.300  1.00  0.00    -0.354 N 
ATOM     46  C   UNL A   1      40.182  26.927  27.630  1.00  0.00     0.074 A 
ATOM     47  C   UNL A   1      39.402  25.741  27.857  1.00  0.00     0.031 C 
ATOM     48  C   UNL A   1      44.950  24.343  31.318  1.00  0.00     0.029 A 
ATOM     49  C   UNL A   1      44.345  25.648  31.508  1.00  0.00     0.049 A 
ATOM     50  H   UNL A   1      43.347  26.743  30.025  1.00  0.00     0.167 HD
ATOM     51  C   UNL A   1      39.796  28.230  27.620  1.00  0.00     0.031 A 
ATOM     52  C   UNL A   1      44.288  26.437  32.616  1.00  0.00     0.031 A 
ATOM     53  C   UNL A   1      40.897  29.104  27.317  1.00  0.00     0.049 A 
ATOM     54  C   UNL A   1      43.776  27.762  32.185  1.00  0.00     0.074 A 
ATOM     55  C   UNL A   1      41.750  29.229  26.238  1.00  0.00     0.029 A 
ATOM     56  N   UNL A   1      41.515  29.735  28.370  1.00  0.00    -0.354 N 
ATOM     57  N   UNL A   1      44.438  28.579  31.419  1.00  0.00    -0.248 NA
ATOM     58  C   UNL A   1      42.332  27.953  32.217  1.00  0.00     0.031 C 
ATOM     59  C   UNL A   1      43.027  29.473  26.814  1.00  0.00     0.029 A 
ATOM     60  C   UNL A   1      42.867  29.583  28.196  1.00  0.00     0.049 A 
ATOM     61  H   UNL A   1      41.072  30.207  29.111  1.00  0.00     0.167 HD
ATOM     62  C   UNL A   1      43.485  29.080  30.542  1.00  0.00     0.074 A 
ATOM     63  C   UNL A   1      42.195  28.703  31.121  1.00  0.00     0.031 C 
ATOM     64  C   UNL A   1      43.816  29.488  29.283  1.00  0.00     0.031 A 
BRANCH  51  65
ATOM     65  C   UNL A   1      38.523  28.714  28.266  1.00  0.00    -0.014 A 
ATOM     66  C   UNL A   1      38.316  28.744  29.660  1.00  0.00     0.009 A 
ATOM     67  C   UNL A   1      37.586  29.401  27.478  1.00  0.00     0.009 A 
ATOM     68  C   UNL A   1      37.244  29.424  30.242  1.00  0.00     0.001 A 
ATOM     69  C   UNL A   1      36.536  30.124  28.059  1.00  0.00     0.001 A 
ATOM     70  C   UNL A   1      36.367  30.136  29.440  1.00  0.00     0.000 A 
ENDBRANCH  51  65
BRANCH  52  71
ATOM     71  C   UNL A   1      44.173  25.998  34.035  1.00  0.00    -0.014 A 
ATOM     72  C   UNL A   1      45.314  25.911  34.854  1.00  0.00     0.009 A 
ATOM     73  C   UNL A   1      43.003  25.362  34.489  1.00  0.00     0.009 A 
ATOM     74  C   UNL A   1      45.308  25.170  36.041  1.00  0.00     0.001 A 
ATOM     75  C   UNL A   1      42.999  24.614  35.677  1.00  0.00     0.001 A 
ATOM     76  C   UNL A   1      44.158  24.501  36.440  1.00  0.00     0.000 A 
ENDBRANCH  52  71
BRANCH  64  77
ATOM     77  C   UNL A   1      45.271  29.605  28.894  1.00  0.00    -0.014 A 
ATOM     78  C   UNL A   1      45.764  30.894  28.633  1.00  0.00     0.009 A 
ATOM     79  C   UNL A   1      46.085  28.507  28.567  1.00  0.00     0.009 A 
ATOM     80  C   UNL A   1      47.009  31.085  28.033  1.00  0.00     0.001 A 
ATOM     81  C   UNL A   1      47.348  28.699  27.993  1.00  0.00     0.001 A 
ATOM     82  C   UNL A   1      47.801  29.987  27.713  1.00  0.00     0.000 A 
ENDBRANCH  64  77
ENDBRANCH  38  39
ENDBRANCH  31  33
ENDBRANCH  30  31
ENDBRANCH  29  30
ENDBRANCH  28  29
ENDBRANCH  27  28
ENDBRANCH   1  27
TORSDOF 18
ENDMDL
