MODEL 1
REMARK VINA RESULT:     -11.9      0.000      0.000
REMARK SMILES CCOc1ccc(NC(=O)[C@@H]2[C@@H](C(=O)OCCOCCOC(=O)c3ccc(-c4c5nc(c(-c6ccccc6)c6ccc([nH]6)c(-c6ccccc6)c6nc(c(-c7ccccc7)c7ccc4[nH]7)C=C6)C=C5)cc3)[C@H]3C=C[C@@H]2C3)cc1
REMARK SMILES IDX 17 1 16 2 15 3 13 4 14 5 12 6 11 7 75 8 72 9 74 10 76 11
REMARK SMILES IDX 73 12 9 13 8 14 10 16 7 17 4 18 5 19 78 20 6 21 77 22 3 23
REMARK SMILES IDX 2 24 1 25 18 26 19 27 20 28 21 29 22 30 23 31 24 32 25 33
REMARK SMILES IDX 71 34 26 35 70 36 27 37 28 38 29 39 64 40 30 41 69 42 63 43
REMARK SMILES IDX 65 44 31 45 68 46 62 47 61 48 32 50 54 51 39 52 53 53 40 54
REMARK SMILES IDX 43 55 52 56 66 57 41 58 42 59 51 61 67 62 44 63 33 64 34 65
REMARK SMILES IDX 38 66 35 67 37 68 36 69 55 70 56 71 60 72 57 73 59 74 58 75
REMARK SMILES IDX 45 76 46 77 50 78 47 79 49 80 48 81
REMARK H PARENT 8 15 65 49 43 60
REMARK Flexibility Score: inf
ROOT
ATOM      1  C   UNL A   1      33.463  27.282  25.990  1.00  0.00     0.202 C 
ENDROOT
BRANCH   1   2
ATOM      2  C   UNL A   1      33.744  26.524  24.638  1.00  0.00     0.261 C 
BRANCH   2   3
ATOM      3  O   UNL A   1      34.421  25.257  24.777  1.00  0.00    -0.463 OA
BRANCH   3   4
ATOM      4  C   UNL A   1      34.505  24.476  23.690  1.00  0.00     0.310 C 
ATOM      5  O   UNL A   1      34.447  24.930  22.555  1.00  0.00    -0.252 OA
BRANCH   4   6
ATOM      6  C   UNL A   1      34.628  22.995  24.073  1.00  0.00     0.119 C 
ATOM      7  C   UNL A   1      34.481  22.637  25.604  1.00  0.00     0.100 C 
ATOM      8  C   UNL A   1      35.863  21.988  25.924  1.00  0.00     0.025 C 
ATOM      9  C   UNL A   1      36.089  22.549  23.778  1.00  0.00     0.027 C 
ATOM     10  C   UNL A   1      36.895  23.094  25.870  1.00  0.00    -0.027 C 
ATOM     11  C   UNL A   1      36.213  21.280  24.611  1.00  0.00     0.017 C 
ATOM     12  C   UNL A   1      37.043  23.420  24.578  1.00  0.00    -0.027 C 
BRANCH   7  13
ATOM     13  C   UNL A   1      33.371  21.642  25.966  1.00  0.00     0.228 C 
ATOM     14  N   UNL A   1      32.060  22.041  26.053  1.00  0.00    -0.326 N 
ATOM     15  H   UNL A   1      31.483  21.450  26.590  1.00  0.00     0.169 HD
ATOM     16  O   UNL A   1      33.639  20.502  26.359  1.00  0.00    -0.274 OA
BRANCH  14  17
ATOM     17  C   UNL A   1      31.410  23.151  25.503  1.00  0.00     0.041 A 
ATOM     18  C   UNL A   1      29.620  26.019  24.188  1.00  0.00     0.119 A 
ATOM     19  C   UNL A   1      30.155  24.729  23.058  1.00  0.00     0.048 A 
ATOM     20  C   UNL A   1      29.985  25.875  25.933  1.00  0.00     0.048 A 
ATOM     21  C   UNL A   1      31.081  23.285  23.750  1.00  0.00     0.030 A 
ATOM     22  C   UNL A   1      30.851  24.456  26.578  1.00  0.00     0.030 A 
BRANCH  18  23
ATOM     23  O   UNL A   1      28.848  27.008  23.651  1.00  0.00    -0.494 OA
BRANCH  23  24
ATOM     24  C   UNL A   1      29.538  28.088  23.014  1.00  0.00     0.226 C 
ATOM     25  C   UNL A   1      30.645  28.671  23.877  1.00  0.00     0.049 C 
ENDBRANCH  23  24
ENDBRANCH  18  23
ENDBRANCH  14  17
ENDBRANCH   7  13
ENDBRANCH   4   6
ENDBRANCH   3   4
ENDBRANCH   2   3
ENDBRANCH   1   2
BRANCH   1  26
ATOM     26  O   UNL A   1      33.763  28.699  26.017  1.00  0.00    -0.374 OA
BRANCH  26  27
ATOM     27  C   UNL A   1      33.342  29.511  27.152  1.00  0.00     0.202 C 
BRANCH  27  28
ATOM     28  C   UNL A   1      32.409  31.026  26.952  1.00  0.00     0.261 C 
BRANCH  28  29
ATOM     29  O   UNL A   1      33.023  32.900  27.412  1.00  0.00    -0.460 OA
BRANCH  29  30
ATOM     30  C   UNL A   1      33.194  33.973  28.370  1.00  0.00     0.338 C 
ATOM     31  O   UNL A   1      32.629  35.067  28.456  1.00  0.00    -0.246 OA
BRANCH  30  32
ATOM     32  C   UNL A   1      34.356  33.868  29.195  1.00  0.00     0.060 A 
ATOM     33  C   UNL A   1      34.202  33.078  30.349  1.00  0.00     0.016 A 
ATOM     34  C   UNL A   1      35.576  34.184  28.619  1.00  0.00     0.016 A 
ATOM     35  C   UNL A   1      35.323  32.571  30.947  1.00  0.00     0.010 A 
ATOM     36  C   UNL A   1      36.695  33.635  29.196  1.00  0.00     0.010 A 
ATOM     37  C   UNL A   1      36.551  32.818  30.331  1.00  0.00    -0.014 A 
BRANCH  37  38
ATOM     38  C   UNL A   1      37.721  32.149  30.870  1.00  0.00     0.031 A 
ATOM     39  C   UNL A   1      38.324  32.718  32.099  1.00  0.00     0.074 A 
ATOM     40  C   UNL A   1      38.145  31.052  30.223  1.00  0.00     0.049 A 
ATOM     41  N   UNL A   1      39.372  32.316  32.749  1.00  0.00    -0.248 NA
ATOM     42  C   UNL A   1      37.655  33.900  32.679  1.00  0.00     0.031 C 
ATOM     43  C   UNL A   1      37.501  30.469  29.035  1.00  0.00     0.029 A 
ATOM     44  N   UNL A   1      39.196  30.225  30.469  1.00  0.00    -0.354 N 
ATOM     45  C   UNL A   1      39.502  33.200  33.808  1.00  0.00     0.074 A 
ATOM     46  C   UNL A   1      38.433  34.165  33.716  1.00  0.00     0.031 C 
ATOM     47  C   UNL A   1      38.172  29.365  28.670  1.00  0.00     0.029 A 
ATOM     48  C   UNL A   1      39.316  29.210  29.553  1.00  0.00     0.049 A 
ATOM     49  H   UNL A   1      39.810  30.343  31.229  1.00  0.00     0.167 HD
ATOM     50  C   UNL A   1      40.464  33.189  34.752  1.00  0.00     0.031 A 
ATOM     51  C   UNL A   1      40.282  28.286  29.442  1.00  0.00     0.031 A 
ATOM     52  C   UNL A   1      41.530  32.227  34.735  1.00  0.00     0.049 A 
ATOM     53  C   UNL A   1      41.374  28.348  30.470  1.00  0.00     0.074 A 
ATOM     54  C   UNL A   1      42.604  32.106  35.591  1.00  0.00     0.029 A 
ATOM     55  N   UNL A   1      41.653  31.222  33.778  1.00  0.00    -0.354 N 
ATOM     56  N   UNL A   1      41.500  29.180  31.482  1.00  0.00    -0.248 NA
ATOM     57  C   UNL A   1      42.452  27.367  30.349  1.00  0.00     0.031 C 
ATOM     58  C   UNL A   1      43.409  31.064  35.114  1.00  0.00     0.029 A 
ATOM     59  C   UNL A   1      42.804  30.495  34.000  1.00  0.00     0.049 A 
ATOM     60  H   UNL A   1      41.012  31.054  33.049  1.00  0.00     0.167 HD
ATOM     61  C   UNL A   1      42.666  28.817  32.131  1.00  0.00     0.074 A 
ATOM     62  C   UNL A   1      43.193  27.671  31.406  1.00  0.00     0.031 C 
ATOM     63  C   UNL A   1      43.260  29.371  33.218  1.00  0.00     0.031 A 
BRANCH  50  64
ATOM     64  C   UNL A   1      40.434  34.279  35.780  1.00  0.00    -0.014 A 
ATOM     65  C   UNL A   1      39.720  34.141  36.981  1.00  0.00     0.009 A 
ATOM     66  C   UNL A   1      41.113  35.481  35.531  1.00  0.00     0.009 A 
ATOM     67  C   UNL A   1      39.679  35.189  37.906  1.00  0.00     0.001 A 
ATOM     68  C   UNL A   1      41.087  36.519  36.463  1.00  0.00     0.001 A 
ATOM     69  C   UNL A   1      40.367  36.374  37.648  1.00  0.00     0.000 A 
ENDBRANCH  50  64
BRANCH  51  70
ATOM     70  C   UNL A   1      40.261  27.301  28.331  1.00  0.00    -0.014 A 
ATOM     71  C   UNL A   1      40.923  27.556  27.122  1.00  0.00     0.009 A 
ATOM     72  C   UNL A   1      39.611  26.064  28.491  1.00  0.00     0.009 A 
ATOM     73  C   UNL A   1      40.925  26.604  26.097  1.00  0.00     0.001 A 
ATOM     74  C   UNL A   1      39.639  25.102  27.478  1.00  0.00     0.001 A 
ATOM     75  C   UNL A   1      40.289  25.376  26.279  1.00  0.00     0.000 A 
ENDBRANCH  51  70
BRANCH  63  76
ATOM     76  C   UNL A   1      44.522  28.707  33.671  1.00  0.00    -0.014 A 
ATOM     77  C   UNL A   1      44.492  27.657  34.601  1.00  0.00     0.009 A 
ATOM     78  C   UNL A   1      45.748  29.125  33.133  1.00  0.00     0.009 A 
ATOM     79  C   UNL A   1      45.683  27.064  35.017  1.00  0.00     0.001 A 
ATOM     80  C   UNL A   1      46.930  28.507  33.525  1.00  0.00     0.001 A 
ATOM     81  C   UNL A   1      46.897  27.486  34.477  1.00  0.00     0.000 A 
ENDBRANCH  63  76
ENDBRANCH  37  38
ENDBRANCH  30  32
ENDBRANCH  29  30
ENDBRANCH  28  29
ENDBRANCH  27  28
ENDBRANCH  26  27
ENDBRANCH   1  26
TORSDOF 18
ENDMDL
MODEL 2
REMARK VINA RESULT:     -11.8      4.122      9.213
REMARK SMILES CCOc1ccc(NC(=O)[C@@H]2[C@@H](C(=O)OCCOCCOC(=O)c3ccc(-c4c5nc(c(-c6ccccc6)c6ccc([nH]6)c(-c6ccccc6)c6nc(c(-c7ccccc7)c7ccc4[nH]7)C=C6)C=C5)cc3)[C@H]3C=C[C@@H]2C3)cc1
REMARK SMILES IDX 17 1 16 2 15 3 13 4 14 5 12 6 11 7 75 8 72 9 74 10 76 11
REMARK SMILES IDX 73 12 9 13 8 14 10 16 7 17 4 18 5 19 78 20 6 21 77 22 3 23
REMARK SMILES IDX 2 24 1 25 18 26 19 27 20 28 21 29 22 30 23 31 24 32 25 33
REMARK SMILES IDX 71 34 26 35 70 36 27 37 28 38 29 39 64 40 30 41 69 42 63 43
REMARK SMILES IDX 65 44 31 45 68 46 62 47 61 48 32 50 54 51 39 52 53 53 40 54
REMARK SMILES IDX 43 55 52 56 66 57 41 58 42 59 51 61 67 62 44 63 33 64 34 65
REMARK SMILES IDX 38 66 35 67 37 68 36 69 55 70 56 71 60 72 57 73 59 74 58 75
REMARK SMILES IDX 45 76 46 77 50 78 47 79 49 80 48 81
REMARK H PARENT 8 15 65 49 43 60
REMARK Flexibility Score: inf
ROOT
ATOM      1  C   UNL A   1      36.694  23.716  25.369  1.00  0.00     0.202 C 
ENDROOT
BRANCH   1   2
ATOM      2  C   UNL A   1      35.185  23.988  25.010  1.00  0.00     0.261 C 
BRANCH   2   3
ATOM      3  O   UNL A   1      34.970  24.718  23.783  1.00  0.00    -0.463 OA
BRANCH   3   4
ATOM      4  C   UNL A   1      33.746  25.219  23.564  1.00  0.00     0.310 C 
ATOM      5  O   UNL A   1      33.105  24.957  22.556  1.00  0.00    -0.252 OA
BRANCH   4   6
ATOM      6  C   UNL A   1      33.318  26.164  24.696  1.00  0.00     0.119 C 
ATOM      7  C   UNL A   1      31.768  26.342  24.933  1.00  0.00     0.100 C 
ATOM      8  C   UNL A   1      31.570  27.870  24.688  1.00  0.00     0.025 C 
ATOM      9  C   UNL A   1      33.749  27.605  24.296  1.00  0.00     0.027 C 
ATOM     10  C   UNL A   1      31.778  28.113  23.210  1.00  0.00    -0.027 C 
ATOM     11  C   UNL A   1      32.884  28.464  25.208  1.00  0.00     0.017 C 
ATOM     12  C   UNL A   1      33.091  27.970  22.976  1.00  0.00    -0.027 C 
BRANCH   7  13
ATOM     13  C   UNL A   1      31.249  25.993  26.334  1.00  0.00     0.228 C 
ATOM     14  N   UNL A   1      31.120  24.687  26.739  1.00  0.00    -0.326 N 
ATOM     15  H   UNL A   1      30.497  24.547  27.489  1.00  0.00     0.169 HD
ATOM     16  O   UNL A   1      30.770  26.860  27.071  1.00  0.00    -0.274 OA
BRANCH  14  17
ATOM     17  C   UNL A   1      31.730  23.523  26.259  1.00  0.00     0.041 A 
ATOM     18  C   UNL A   1      33.450  20.559  25.068  1.00  0.00     0.119 A 
ATOM     19  C   UNL A   1      32.278  21.385  23.986  1.00  0.00     0.048 A 
ATOM     20  C   UNL A   1      33.742  21.202  26.712  1.00  0.00     0.048 A 
ATOM     21  C   UNL A   1      31.401  22.884  24.621  1.00  0.00     0.030 A 
ATOM     22  C   UNL A   1      32.906  22.669  27.288  1.00  0.00     0.030 A 
BRANCH  18  23
ATOM     23  O   UNL A   1      34.151  19.525  24.520  1.00  0.00    -0.494 OA
BRANCH  23  24
ATOM     24  C   UNL A   1      33.625  18.210  24.725  1.00  0.00     0.226 C 
ATOM     25  C   UNL A   1      34.036  17.233  23.635  1.00  0.00     0.049 C 
ENDBRANCH  23  24
ENDBRANCH  18  23
ENDBRANCH  14  17
ENDBRANCH   7  13
ENDBRANCH   4   6
ENDBRANCH   3   4
ENDBRANCH   2   3
ENDBRANCH   1   2
BRANCH   1  26
ATOM     26  O   UNL A   1      37.032  22.368  25.782  1.00  0.00    -0.374 OA
BRANCH  26  27
ATOM     27  C   UNL A   1      37.230  21.329  24.779  1.00  0.00     0.202 C 
BRANCH  27  28
ATOM     28  C   UNL A   1      38.161  19.837  25.117  1.00  0.00     0.261 C 
BRANCH  28  29
ATOM     29  O   UNL A   1      40.037  19.721  25.871  1.00  0.00    -0.460 OA
BRANCH  29  30
ATOM     30  C   UNL A   1      41.054  20.170  26.799  1.00  0.00     0.338 C 
ATOM     31  O   UNL A   1      41.886  19.529  27.447  1.00  0.00    -0.246 OA
BRANCH  30  32
ATOM     32  C   UNL A   1      40.925  21.527  27.228  1.00  0.00     0.060 A 
ATOM     33  C   UNL A   1      41.692  21.873  28.356  1.00  0.00     0.016 A 
ATOM     34  C   UNL A   1      40.417  22.438  26.317  1.00  0.00     0.016 A 
ATOM     35  C   UNL A   1      41.974  23.194  28.573  1.00  0.00     0.010 A 
ATOM     36  C   UNL A   1      40.741  23.758  26.512  1.00  0.00     0.010 A 
ATOM     37  C   UNL A   1      41.534  24.113  27.618  1.00  0.00    -0.014 A 
BRANCH  37  38
ATOM     38  C   UNL A   1      41.968  25.492  27.760  1.00  0.00     0.031 A 
ATOM     39  C   UNL A   1      43.274  25.857  27.164  1.00  0.00     0.074 A 
ATOM     40  C   UNL A   1      41.134  26.327  28.399  1.00  0.00     0.049 A 
ATOM     41  N   UNL A   1      43.879  27.006  27.178  1.00  0.00    -0.248 NA
ATOM     42  C   UNL A   1      44.001  24.788  26.451  1.00  0.00     0.031 C 
ATOM     43  C   UNL A   1      39.815  25.958  28.938  1.00  0.00     0.029 A 
ATOM     44  N   UNL A   1      41.255  27.649  28.695  1.00  0.00    -0.354 N 
ATOM     45  C   UNL A   1      45.064  26.799  26.491  1.00  0.00     0.074 A 
ATOM     46  C   UNL A   1      45.102  25.417  26.075  1.00  0.00     0.031 C 
ATOM     47  C   UNL A   1      39.245  27.043  29.485  1.00  0.00     0.029 A 
ATOM     48  C   UNL A   1      40.184  28.150  29.392  1.00  0.00     0.049 A 
ATOM     49  H   UNL A   1      42.033  28.192  28.435  1.00  0.00     0.167 HD
ATOM     50  C   UNL A   1      46.031  27.710  26.262  1.00  0.00     0.031 A 
ATOM     51  C   UNL A   1      40.021  29.373  29.920  1.00  0.00     0.031 A 
ATOM     52  C   UNL A   1      45.941  29.052  26.766  1.00  0.00     0.049 A 
ATOM     53  C   UNL A   1      41.149  30.339  29.705  1.00  0.00     0.074 A 
ATOM     54  C   UNL A   1      46.851  30.082  26.659  1.00  0.00     0.029 A 
ATOM     55  N   UNL A   1      44.859  29.535  27.498  1.00  0.00    -0.354 N 
ATOM     56  N   UNL A   1      42.273  30.152  29.047  1.00  0.00    -0.248 NA
ATOM     57  C   UNL A   1      41.003  31.668  30.298  1.00  0.00     0.031 C 
ATOM     58  C   UNL A   1      46.345  31.169  27.380  1.00  0.00     0.029 A 
ATOM     59  C   UNL A   1      45.091  30.839  27.882  1.00  0.00     0.049 A 
ATOM     60  H   UNL A   1      44.047  29.020  27.711  1.00  0.00     0.167 HD
ATOM     61  C   UNL A   1      42.969  31.344  29.133  1.00  0.00     0.074 A 
ATOM     62  C   UNL A   1      42.120  32.253  29.888  1.00  0.00     0.031 C 
ATOM     63  C   UNL A   1      44.192  31.670  28.646  1.00  0.00     0.031 A 
BRANCH  50  64
ATOM     64  C   UNL A   1      47.256  27.246  25.533  1.00  0.00    -0.014 A 
ATOM     65  C   UNL A   1      48.324  26.629  26.205  1.00  0.00     0.009 A 
ATOM     66  C   UNL A   1      47.354  27.450  24.149  1.00  0.00     0.009 A 
ATOM     67  C   UNL A   1      49.470  26.240  25.505  1.00  0.00     0.001 A 
ATOM     68  C   UNL A   1      48.490  27.042  23.449  1.00  0.00     0.001 A 
ATOM     69  C   UNL A   1      49.549  26.441  24.128  1.00  0.00     0.000 A 
ENDBRANCH  50  64
BRANCH  51  70
ATOM     70  C   UNL A   1      38.800  29.702  30.700  1.00  0.00    -0.014 A 
ATOM     71  C   UNL A   1      37.660  30.228  30.075  1.00  0.00     0.009 A 
ATOM     72  C   UNL A   1      38.749  29.443  32.081  1.00  0.00     0.009 A 
ATOM     73  C   UNL A   1      36.506  30.499  30.816  1.00  0.00     0.001 A 
ATOM     74  C   UNL A   1      37.584  29.685  32.814  1.00  0.00     0.001 A 
ATOM     75  C   UNL A   1      36.466  30.221  32.182  1.00  0.00     0.000 A 
ENDBRANCH  51  70
BRANCH  63  76
ATOM     76  C   UNL A   1      44.638  33.073  28.911  1.00  0.00    -0.014 A 
ATOM     77  C   UNL A   1      44.317  34.113  28.026  1.00  0.00     0.009 A 
ATOM     78  C   UNL A   1      45.365  33.352  30.078  1.00  0.00     0.009 A 
ATOM     79  C   UNL A   1      44.756  35.409  28.289  1.00  0.00     0.001 A 
ATOM     80  C   UNL A   1      45.771  34.654  30.353  1.00  0.00     0.001 A 
ATOM     81  C   UNL A   1      45.478  35.678  29.451  1.00  0.00     0.000 A 
ENDBRANCH  63  76
ENDBRANCH  37  38
ENDBRANCH  30  32
ENDBRANCH  29  30
ENDBRANCH  28  29
ENDBRANCH  27  28
ENDBRANCH  26  27
ENDBRANCH   1  26
TORSDOF 18
ENDMDL
MODEL 3
REMARK VINA RESULT:     -11.7      4.162      8.596
REMARK SMILES CCOc1ccc(NC(=O)[C@@H]2[C@@H](C(=O)OCCOCCOC(=O)c3ccc(-c4c5nc(c(-c6ccccc6)c6ccc([nH]6)c(-c6ccccc6)c6nc(c(-c7ccccc7)c7ccc4[nH]7)C=C6)C=C5)cc3)[C@H]3C=C[C@@H]2C3)cc1
REMARK SMILES IDX 17 1 16 2 15 3 13 4 14 5 12 6 11 7 75 8 72 9 74 10 76 11
REMARK SMILES IDX 73 12 9 13 8 14 10 16 7 17 4 18 5 19 78 20 6 21 77 22 3 23
REMARK SMILES IDX 2 24 1 25 18 26 19 27 20 28 21 29 22 30 23 31 24 32 25 33
REMARK SMILES IDX 71 34 26 35 70 36 27 37 28 38 29 39 64 40 30 41 69 42 63 43
REMARK SMILES IDX 65 44 31 45 68 46 62 47 61 48 32 50 54 51 39 52 53 53 40 54
REMARK SMILES IDX 43 55 52 56 66 57 41 58 42 59 51 61 67 62 44 63 33 64 34 65
REMARK SMILES IDX 38 66 35 67 37 68 36 69 55 70 56 71 60 72 57 73 59 74 58 75
REMARK SMILES IDX 45 76 46 77 50 78 47 79 49 80 48 81
REMARK H PARENT 8 15 65 49 43 60
REMARK Flexibility Score: inf
ROOT
ATOM      1  C   UNL A   1      37.051  23.501  25.985  1.00  0.00     0.202 C 
ENDROOT
BRANCH   1   2
ATOM      2  C   UNL A   1      35.730  23.615  25.135  1.00  0.00     0.261 C 
BRANCH   2   3
ATOM      3  O   UNL A   1      35.251  24.961  24.929  1.00  0.00    -0.463 OA
BRANCH   3   4
ATOM      4  C   UNL A   1      34.008  25.110  24.447  1.00  0.00     0.310 C 
ATOM      5  O   UNL A   1      33.720  24.836  23.290  1.00  0.00    -0.252 OA
BRANCH   4   6
ATOM      6  C   UNL A   1      33.064  25.697  25.505  1.00  0.00     0.119 C 
ATOM      7  C   UNL A   1      31.569  25.953  25.068  1.00  0.00     0.100 C 
ATOM      8  C   UNL A   1      31.426  27.494  25.269  1.00  0.00     0.025 C 
ATOM      9  C   UNL A   1      33.555  27.138  25.829  1.00  0.00     0.027 C 
ATOM     10  C   UNL A   1      32.272  28.160  24.207  1.00  0.00    -0.027 C 
ATOM     11  C   UNL A   1      32.326  27.758  26.481  1.00  0.00     0.017 C 
ATOM     12  C   UNL A   1      33.552  27.960  24.552  1.00  0.00    -0.027 C 
BRANCH   7  13
ATOM     13  C   UNL A   1      30.488  25.243  25.894  1.00  0.00     0.228 C 
ATOM     14  N   UNL A   1      30.395  23.873  25.914  1.00  0.00    -0.326 N 
ATOM     15  H   UNL A   1      29.515  23.523  26.184  1.00  0.00     0.169 HD
ATOM     16  O   UNL A   1      29.568  25.878  26.419  1.00  0.00    -0.274 OA
BRANCH  14  17
ATOM     17  C   UNL A   1      31.349  22.894  25.615  1.00  0.00     0.041 A 
ATOM     18  C   UNL A   1      33.711  20.277  24.761  1.00  0.00     0.119 A 
ATOM     19  C   UNL A   1      33.659  20.893  26.448  1.00  0.00     0.048 A 
ATOM     20  C   UNL A   1      32.609  20.966  23.533  1.00  0.00     0.048 A 
ATOM     21  C   UNL A   1      32.459  22.239  26.855  1.00  0.00     0.030 A 
ATOM     22  C   UNL A   1      31.438  22.243  23.960  1.00  0.00     0.030 A 
BRANCH  18  23
ATOM     23  O   UNL A   1      34.533  19.212  24.534  1.00  0.00    -0.494 OA
BRANCH  23  24
ATOM     24  C   UNL A   1      33.927  17.916  24.556  1.00  0.00     0.226 C 
ATOM     25  C   UNL A   1      32.502  17.940  25.085  1.00  0.00     0.049 C 
ENDBRANCH  23  24
ENDBRANCH  18  23
ENDBRANCH  14  17
ENDBRANCH   7  13
ENDBRANCH   4   6
ENDBRANCH   3   4
ENDBRANCH   2   3
ENDBRANCH   1   2
BRANCH   1  26
ATOM     26  O   UNL A   1      37.691  22.201  26.022  1.00  0.00    -0.374 OA
BRANCH  26  27
ATOM     27  C   UNL A   1      37.325  21.183  25.045  1.00  0.00     0.202 C 
BRANCH  27  28
ATOM     28  C   UNL A   1      38.215  19.636  24.894  1.00  0.00     0.261 C 
BRANCH  28  29
ATOM     29  O   UNL A   1      40.078  19.236  25.579  1.00  0.00    -0.460 OA
BRANCH  29  30
ATOM     30  C   UNL A   1      41.294  19.652  26.246  1.00  0.00     0.338 C 
ATOM     31  O   UNL A   1      42.278  18.996  26.601  1.00  0.00    -0.246 OA
BRANCH  30  32
ATOM     32  C   UNL A   1      41.257  20.967  26.806  1.00  0.00     0.060 A 
ATOM     33  C   UNL A   1      41.936  21.115  28.029  1.00  0.00     0.016 A 
ATOM     34  C   UNL A   1      40.938  22.012  25.955  1.00  0.00     0.016 A 
ATOM     35  C   UNL A   1      42.324  22.369  28.412  1.00  0.00     0.010 A 
ATOM     36  C   UNL A   1      41.370  23.263  26.321  1.00  0.00     0.010 A 
ATOM     37  C   UNL A   1      42.077  23.420  27.526  1.00  0.00    -0.014 A 
BRANCH  37  38
ATOM     38  C   UNL A   1      42.630  24.722  27.855  1.00  0.00     0.031 A 
ATOM     39  C   UNL A   1      41.688  25.755  28.347  1.00  0.00     0.074 A 
ATOM     40  C   UNL A   1      43.956  24.872  27.709  1.00  0.00     0.049 A 
ATOM     41  N   UNL A   1      41.935  26.984  28.681  1.00  0.00    -0.248 NA
ATOM     42  C   UNL A   1      40.275  25.351  28.487  1.00  0.00     0.031 C 
ATOM     43  C   UNL A   1      44.884  23.818  27.271  1.00  0.00     0.029 A 
ATOM     44  N   UNL A   1      44.756  25.950  27.923  1.00  0.00    -0.354 N 
ATOM     45  C   UNL A   1      40.710  27.510  29.058  1.00  0.00     0.074 A 
ATOM     46  C   UNL A   1      39.716  26.474  28.909  1.00  0.00     0.031 C 
ATOM     47  C   UNL A   1      46.134  24.308  27.265  1.00  0.00     0.029 A 
ATOM     48  C   UNL A   1      46.076  25.713  27.633  1.00  0.00     0.049 A 
ATOM     49  H   UNL A   1      44.422  26.816  28.252  1.00  0.00     0.167 HD
ATOM     50  C   UNL A   1      40.468  28.770  29.471  1.00  0.00     0.031 A 
ATOM     51  C   UNL A   1      47.107  26.573  27.637  1.00  0.00     0.031 A 
ATOM     52  C   UNL A   1      41.507  29.759  29.532  1.00  0.00     0.049 A 
ATOM     53  C   UNL A   1      46.786  27.984  28.035  1.00  0.00     0.074 A 
ATOM     54  C   UNL A   1      41.421  31.089  29.886  1.00  0.00     0.029 A 
ATOM     55  N   UNL A   1      42.837  29.508  29.204  1.00  0.00    -0.354 N 
ATOM     56  N   UNL A   1      45.627  28.488  28.400  1.00  0.00    -0.248 NA
ATOM     57  C   UNL A   1      47.890  28.943  28.018  1.00  0.00     0.031 C 
ATOM     58  C   UNL A   1      42.688  31.656  29.713  1.00  0.00     0.029 A 
ATOM     59  C   UNL A   1      43.579  30.666  29.313  1.00  0.00     0.049 A 
ATOM     60  H   UNL A   1      43.197  28.632  28.933  1.00  0.00     0.167 HD
ATOM     61  C   UNL A   1      45.861  29.824  28.672  1.00  0.00     0.074 A 
ATOM     62  C   UNL A   1      47.282  30.039  28.450  1.00  0.00     0.031 C 
ATOM     63  C   UNL A   1      44.994  30.793  29.062  1.00  0.00     0.031 A 
BRANCH  50  64
ATOM     64  C   UNL A   1      39.047  29.132  29.781  1.00  0.00    -0.014 A 
ATOM     65  C   UNL A   1      38.172  29.602  28.788  1.00  0.00     0.009 A 
ATOM     66  C   UNL A   1      38.579  29.023  31.099  1.00  0.00     0.009 A 
ATOM     67  C   UNL A   1      36.862  29.968  29.114  1.00  0.00     0.001 A 
ATOM     68  C   UNL A   1      37.266  29.368  31.418  1.00  0.00     0.001 A 
ATOM     69  C   UNL A   1      36.409  29.844  30.428  1.00  0.00     0.000 A 
ENDBRANCH  50  64
BRANCH  51  70
ATOM     70  C   UNL A   1      48.463  26.127  27.228  1.00  0.00    -0.014 A 
ATOM     71  C   UNL A   1      48.921  26.307  25.914  1.00  0.00     0.009 A 
ATOM     72  C   UNL A   1      49.338  25.556  28.170  1.00  0.00     0.009 A 
ATOM     73  C   UNL A   1      50.213  25.915  25.552  1.00  0.00     0.001 A 
ATOM     74  C   UNL A   1      50.639  25.194  27.814  1.00  0.00     0.001 A 
ATOM     75  C   UNL A   1      51.073  25.366  26.503  1.00  0.00     0.000 A 
ENDBRANCH  51  70
BRANCH  63  76
ATOM     76  C   UNL A   1      45.597  32.144  29.285  1.00  0.00    -0.014 A 
ATOM     77  C   UNL A   1      45.652  33.090  28.252  1.00  0.00     0.009 A 
ATOM     78  C   UNL A   1      46.088  32.473  30.557  1.00  0.00     0.009 A 
ATOM     79  C   UNL A   1      46.231  34.337  28.481  1.00  0.00     0.001 A 
ATOM     80  C   UNL A   1      46.634  33.731  30.791  1.00  0.00     0.001 A 
ATOM     81  C   UNL A   1      46.717  34.656  29.749  1.00  0.00     0.000 A 
ENDBRANCH  63  76
ENDBRANCH  37  38
ENDBRANCH  30  32
ENDBRANCH  29  30
ENDBRANCH  28  29
ENDBRANCH  27  28
ENDBRANCH  26  27
ENDBRANCH   1  26
TORSDOF 18
ENDMDL
