MODEL 1
REMARK VINA RESULT:     -10.5      0.000      0.000
REMARK SMILES C[C@](NC(=O)C[C@@H]1CCCCO1)(C(=O)OCCOCCOC(=O)c1ccc(-c2c3nc(c(-c4ccccc4)c4ccc([nH]4)c(-c4ccccc4)c4nc(c(-c5ccccc5)c5ccc2[nH]5)C=C4)C=C3)cc1)c1ccccc1
REMARK SMILES IDX 17 1 16 2 15 3 13 4 14 5 2 6 1 7 72 8 73 9 77 10 74 11 76 12
REMARK SMILES IDX 75 13 3 14 4 15 5 17 6 18 7 19 8 20 12 21 9 22 11 23 10 24
REMARK SMILES IDX 18 25 19 26 20 27 21 28 22 29 23 30 24 31 25 32 71 33 26 34
REMARK SMILES IDX 70 35 27 36 28 37 29 38 64 39 30 40 69 41 63 42 65 43 31 44
REMARK SMILES IDX 68 45 62 46 61 47 32 49 54 50 39 51 53 52 40 53 43 54 52 55
REMARK SMILES IDX 66 56 41 57 42 58 51 60 67 61 44 62 33 63 34 64 38 65 35 66
REMARK SMILES IDX 37 67 36 68 55 69 56 70 60 71 57 72 59 73 58 74 45 75 46 76
REMARK SMILES IDX 50 77 47 78 49 79 48 80
REMARK H PARENT 3 16 65 48 43 59
REMARK Flexibility Score: inf
ROOT
ATOM      1  C   UNL A   1      35.299  21.905  26.459  1.00  0.00     0.202 C 
ENDROOT
BRANCH   1   2
ATOM      2  C   UNL A   1      33.822  22.273  26.274  1.00  0.00     0.261 C 
BRANCH   2   3
ATOM      3  O   UNL A   1      33.421  23.575  26.730  1.00  0.00    -0.461 OA
BRANCH   3   4
ATOM      4  C   UNL A   1      32.218  23.919  26.194  1.00  0.00     0.336 C 
ATOM      5  O   UNL A   1      31.181  23.290  26.434  1.00  0.00    -0.249 OA
BRANCH   4   6
ATOM      6  C   UNL A   1      32.298  24.928  24.987  1.00  0.00     0.161 C 
ATOM      7  C   UNL A   1      31.223  24.093  24.247  1.00  0.00     0.053 C 
BRANCH   6   8
ATOM      8  C   UNL A   1      32.396  26.251  25.775  1.00  0.00    -0.012 A 
ATOM      9  C   UNL A   1      33.662  26.903  25.753  1.00  0.00     0.007 A 
ATOM     10  C   UNL A   1      31.434  26.801  26.619  1.00  0.00     0.007 A 
ATOM     11  C   UNL A   1      33.942  28.021  26.541  1.00  0.00     0.000 A 
ATOM     12  C   UNL A   1      31.701  27.943  27.389  1.00  0.00     0.000 A 
ATOM     13  C   UNL A   1      32.955  28.544  27.361  1.00  0.00     0.000 A 
ENDBRANCH   6   8
BRANCH   6  14
ATOM     14  N   UNL A   1      33.199  25.167  23.845  1.00  0.00    -0.337 N 
ATOM     15  C   UNL A   1      32.831  25.767  22.645  1.00  0.00     0.223 C 
ATOM     16  H   UNL A   1      34.136  24.881  23.939  1.00  0.00     0.164 HD
ATOM     17  O   UNL A   1      33.697  25.808  21.762  1.00  0.00    -0.275 OA
BRANCH  15  18
ATOM     18  C   UNL A   1      31.459  26.491  22.414  1.00  0.00     0.132 C 
BRANCH  18  19
ATOM     19  C   UNL A   1      31.177  28.034  22.224  1.00  0.00     0.127 C 
ATOM     20  C   UNL A   1      31.827  28.932  23.302  1.00  0.00     0.033 C 
ATOM     21  O   UNL A   1      29.820  28.369  21.965  1.00  0.00    -0.378 OA
ATOM     22  C   UNL A   1      30.853  29.530  24.303  1.00  0.00     0.005 C 
ATOM     23  C   UNL A   1      29.404  29.708  22.217  1.00  0.00     0.160 C 
ATOM     24  C   UNL A   1      29.691  30.225  23.625  1.00  0.00     0.029 C 
ENDBRANCH  18  19
ENDBRANCH  15  18
ENDBRANCH   6  14
ENDBRANCH   4   6
ENDBRANCH   3   4
ENDBRANCH   2   3
ENDBRANCH   1   2
BRANCH   1  25
ATOM     25  O   UNL A   1      36.161  21.724  25.351  1.00  0.00    -0.374 OA
BRANCH  25  26
ATOM     26  C   UNL A   1      36.547  20.426  24.932  1.00  0.00     0.202 C 
BRANCH  26  27
ATOM     27  C   UNL A   1      37.991  19.920  25.094  1.00  0.00     0.261 C 
BRANCH  27  28
ATOM     28  O   UNL A   1      38.914  20.810  25.742  1.00  0.00    -0.460 OA
BRANCH  28  29
ATOM     29  C   UNL A   1      40.123  20.280  25.999  1.00  0.00     0.338 C 
ATOM     30  O   UNL A   1      40.510  19.140  25.716  1.00  0.00    -0.246 OA
BRANCH  29  31
ATOM     31  C   UNL A   1      41.036  21.282  26.562  1.00  0.00     0.060 A 
ATOM     32  C   UNL A   1      41.020  21.494  27.948  1.00  0.00     0.016 A 
ATOM     33  C   UNL A   1      41.775  22.120  25.724  1.00  0.00     0.016 A 
ATOM     34  C   UNL A   1      41.693  22.582  28.498  1.00  0.00     0.010 A 
ATOM     35  C   UNL A   1      42.435  23.222  26.275  1.00  0.00     0.010 A 
ATOM     36  C   UNL A   1      42.355  23.481  27.656  1.00  0.00    -0.014 A 
BRANCH  36  37
ATOM     37  C   UNL A   1      42.797  24.791  28.187  1.00  0.00     0.031 A 
ATOM     38  C   UNL A   1      41.764  25.853  28.443  1.00  0.00     0.074 A 
ATOM     39  C   UNL A   1      44.094  25.033  28.436  1.00  0.00     0.049 A 
ATOM     40  N   UNL A   1      41.927  27.095  28.817  1.00  0.00    -0.248 NA
ATOM     41  C   UNL A   1      40.359  25.460  28.247  1.00  0.00     0.031 C 
ATOM     42  C   UNL A   1      45.180  24.069  28.275  1.00  0.00     0.029 A 
ATOM     43  N   UNL A   1      44.715  26.180  28.859  1.00  0.00    -0.354 N 
ATOM     44  C   UNL A   1      40.649  27.639  28.879  1.00  0.00     0.074 A 
ATOM     45  C   UNL A   1      39.724  26.596  28.493  1.00  0.00     0.031 C 
ATOM     46  C   UNL A   1      46.343  24.676  28.567  1.00  0.00     0.029 A 
ATOM     47  C   UNL A   1      46.083  26.076  28.898  1.00  0.00     0.049 A 
ATOM     48  H   UNL A   1      44.228  26.998  29.110  1.00  0.00     0.167 HD
ATOM     49  C   UNL A   1      40.280  28.895  29.222  1.00  0.00     0.031 A 
ATOM     50  C   UNL A   1      47.019  27.014  29.135  1.00  0.00     0.031 A 
ATOM     51  C   UNL A   1      41.203  29.933  29.593  1.00  0.00     0.049 A 
ATOM     52  C   UNL A   1      46.595  28.423  29.445  1.00  0.00     0.074 A 
ATOM     53  C   UNL A   1      40.929  31.231  29.985  1.00  0.00     0.029 A 
ATOM     54  N   UNL A   1      42.582  29.792  29.604  1.00  0.00    -0.354 N 
ATOM     55  N   UNL A   1      45.384  28.920  29.530  1.00  0.00    -0.248 NA
ATOM     56  C   UNL A   1      47.665  29.400  29.694  1.00  0.00     0.031 C 
ATOM     57  C   UNL A   1      42.147  31.892  30.179  1.00  0.00     0.029 A 
ATOM     58  C   UNL A   1      43.176  30.989  29.962  1.00  0.00     0.049 A 
ATOM     59  H   UNL A   1      43.068  28.962  29.388  1.00  0.00     0.167 HD
ATOM     60  C   UNL A   1      45.544  30.259  29.864  1.00  0.00     0.074 A 
ATOM     61  C   UNL A   1      46.969  30.495  29.974  1.00  0.00     0.031 C 
ATOM     62  C   UNL A   1      44.596  31.206  30.066  1.00  0.00     0.031 A 
BRANCH  49  63
ATOM     63  C   UNL A   1      38.816  29.224  29.156  1.00  0.00    -0.014 A 
ATOM     64  C   UNL A   1      37.979  29.079  30.273  1.00  0.00     0.009 A 
ATOM     65  C   UNL A   1      38.268  29.698  27.954  1.00  0.00     0.009 A 
ATOM     66  C   UNL A   1      36.615  29.364  30.175  1.00  0.00     0.001 A 
ATOM     67  C   UNL A   1      36.909  30.008  27.866  1.00  0.00     0.001 A 
ATOM     68  C   UNL A   1      36.082  29.829  28.973  1.00  0.00     0.000 A 
ENDBRANCH  49  63
BRANCH  50  69
ATOM     69  C   UNL A   1      48.457  26.650  29.042  1.00  0.00    -0.014 A 
ATOM     70  C   UNL A   1      49.151  26.166  30.160  1.00  0.00     0.009 A 
ATOM     71  C   UNL A   1      49.135  26.769  27.818  1.00  0.00     0.009 A 
ATOM     72  C   UNL A   1      50.500  25.817  30.055  1.00  0.00     0.001 A 
ATOM     73  C   UNL A   1      50.476  26.396  27.711  1.00  0.00     0.001 A 
ATOM     74  C   UNL A   1      51.159  25.925  28.831  1.00  0.00     0.000 A 
ENDBRANCH  50  69
BRANCH  62  75
ATOM     75  C   UNL A   1      45.060  32.580  30.458  1.00  0.00    -0.014 A 
ATOM     76  C   UNL A   1      45.283  33.575  29.494  1.00  0.00     0.009 A 
ATOM     77  C   UNL A   1      45.205  32.900  31.817  1.00  0.00     0.009 A 
ATOM     78  C   UNL A   1      45.662  34.860  29.887  1.00  0.00     0.001 A 
ATOM     79  C   UNL A   1      45.559  34.193  32.206  1.00  0.00     0.001 A 
ATOM     80  C   UNL A   1      45.793  35.170  31.241  1.00  0.00     0.000 A 
ENDBRANCH  62  75
ENDBRANCH  36  37
ENDBRANCH  29  31
ENDBRANCH  28  29
ENDBRANCH  27  28
ENDBRANCH  26  27
ENDBRANCH  25  26
ENDBRANCH   1  25
TORSDOF 18
ENDMDL
MODEL 2
REMARK VINA RESULT:     -10.2      2.060      7.531
REMARK SMILES C[C@](NC(=O)C[C@@H]1CCCCO1)(C(=O)OCCOCCOC(=O)c1ccc(-c2c3nc(c(-c4ccccc4)c4ccc([nH]4)c(-c4ccccc4)c4nc(c(-c5ccccc5)c5ccc2[nH]5)C=C4)C=C3)cc1)c1ccccc1
REMARK SMILES IDX 17 1 16 2 15 3 13 4 14 5 2 6 1 7 72 8 73 9 77 10 74 11 76 12
REMARK SMILES IDX 75 13 3 14 4 15 5 17 6 18 7 19 8 20 12 21 9 22 11 23 10 24
REMARK SMILES IDX 18 25 19 26 20 27 21 28 22 29 23 30 24 31 25 32 71 33 26 34
REMARK SMILES IDX 70 35 27 36 28 37 29 38 64 39 30 40 69 41 63 42 65 43 31 44
REMARK SMILES IDX 68 45 62 46 61 47 32 49 54 50 39 51 53 52 40 53 43 54 52 55
REMARK SMILES IDX 66 56 41 57 42 58 51 60 67 61 44 62 33 63 34 64 38 65 35 66
REMARK SMILES IDX 37 67 36 68 55 69 56 70 60 71 57 72 59 73 58 74 45 75 46 76
REMARK SMILES IDX 50 77 47 78 49 79 48 80
REMARK H PARENT 3 16 65 48 43 59
REMARK Flexibility Score: inf
ROOT
ATOM      1  C   UNL A   1      31.152  28.762  24.382  1.00  0.00     0.202 C 
ENDROOT
BRANCH   1   2
ATOM      2  C   UNL A   1      31.694  28.132  23.093  1.00  0.00     0.261 C 
BRANCH   2   3
ATOM      3  O   UNL A   1      31.897  26.710  23.106  1.00  0.00    -0.461 OA
BRANCH   3   4
ATOM      4  C   UNL A   1      32.942  26.384  23.914  1.00  0.00     0.336 C 
ATOM      5  O   UNL A   1      34.052  26.916  23.810  1.00  0.00    -0.249 OA
BRANCH   4   6
ATOM      6  C   UNL A   1      32.751  25.053  24.734  1.00  0.00     0.161 C 
ATOM      7  C   UNL A   1      31.412  24.813  23.991  1.00  0.00     0.053 C 
BRANCH   6   8
ATOM      8  C   UNL A   1      34.202  24.530  24.701  1.00  0.00    -0.012 A 
ATOM      9  C   UNL A   1      34.630  23.941  23.476  1.00  0.00     0.007 A 
ATOM     10  C   UNL A   1      35.089  24.439  25.771  1.00  0.00     0.007 A 
ATOM     11  C   UNL A   1      35.858  23.290  23.348  1.00  0.00     0.000 A 
ATOM     12  C   UNL A   1      36.338  23.814  25.637  1.00  0.00     0.000 A 
ATOM     13  C   UNL A   1      36.717  23.229  24.433  1.00  0.00     0.000 A 
ENDBRANCH   6   8
BRANCH   6  14
ATOM     14  N   UNL A   1      32.307  24.680  26.090  1.00  0.00    -0.337 N 
ATOM     15  C   UNL A   1      31.816  23.433  26.459  1.00  0.00     0.223 C 
ATOM     16  H   UNL A   1      32.362  25.370  26.791  1.00  0.00     0.164 HD
ATOM     17  O   UNL A   1      31.408  23.323  27.621  1.00  0.00    -0.275 OA
BRANCH  15  18
ATOM     18  C   UNL A   1      31.882  22.161  25.542  1.00  0.00     0.132 C 
BRANCH  18  19
ATOM     19  C   UNL A   1      32.534  20.756  25.848  1.00  0.00     0.127 C 
ATOM     20  C   UNL A   1      34.080  20.777  25.909  1.00  0.00     0.033 C 
ATOM     21  O   UNL A   1      32.022  19.675  25.080  1.00  0.00    -0.378 OA
ATOM     22  C   UNL A   1      34.771  20.123  24.723  1.00  0.00     0.005 C 
ATOM     23  C   UNL A   1      32.822  18.502  24.963  1.00  0.00     0.160 C 
ATOM     24  C   UNL A   1      34.243  18.730  24.450  1.00  0.00     0.029 C 
ENDBRANCH  18  19
ENDBRANCH  15  18
ENDBRANCH   6  14
ENDBRANCH   4   6
ENDBRANCH   3   4
ENDBRANCH   2   3
ENDBRANCH   1   2
BRANCH   1  25
ATOM     25  O   UNL A   1      31.821  29.833  25.020  1.00  0.00    -0.374 OA
BRANCH  25  26
ATOM     26  C   UNL A   1      32.901  29.594  25.907  1.00  0.00     0.202 C 
BRANCH  26  27
ATOM     27  C   UNL A   1      33.093  30.423  27.188  1.00  0.00     0.261 C 
BRANCH  27  28
ATOM     28  O   UNL A   1      34.254  31.268  27.238  1.00  0.00    -0.460 OA
BRANCH  28  29
ATOM     29  C   UNL A   1      34.860  31.324  28.438  1.00  0.00     0.338 C 
ATOM     30  O   UNL A   1      34.490  31.966  29.428  1.00  0.00    -0.246 OA
BRANCH  29  31
ATOM     31  C   UNL A   1      35.996  30.396  28.505  1.00  0.00     0.060 A 
ATOM     32  C   UNL A   1      36.274  29.772  29.729  1.00  0.00     0.016 A 
ATOM     33  C   UNL A   1      36.874  30.270  27.427  1.00  0.00     0.016 A 
ATOM     34  C   UNL A   1      37.463  29.068  29.901  1.00  0.00     0.010 A 
ATOM     35  C   UNL A   1      38.076  29.580  27.607  1.00  0.00     0.010 A 
ATOM     36  C   UNL A   1      38.393  29.019  28.859  1.00  0.00    -0.014 A 
BRANCH  36  37
ATOM     37  C   UNL A   1      39.773  28.554  29.130  1.00  0.00     0.031 A 
ATOM     38  C   UNL A   1      40.749  29.513  29.755  1.00  0.00     0.074 A 
ATOM     39  C   UNL A   1      40.153  27.303  28.826  1.00  0.00     0.049 A 
ATOM     40  N   UNL A   1      42.024  29.357  29.997  1.00  0.00    -0.248 NA
ATOM     41  C   UNL A   1      40.212  30.824  30.155  1.00  0.00     0.031 C 
ATOM     42  C   UNL A   1      39.286  26.269  28.265  1.00  0.00     0.029 A 
ATOM     43  N   UNL A   1      41.380  26.700  28.931  1.00  0.00    -0.354 N 
ATOM     44  C   UNL A   1      42.448  30.557  30.557  1.00  0.00     0.074 A 
ATOM     45  C   UNL A   1      41.298  31.433  30.607  1.00  0.00     0.031 C 
ATOM     46  C   UNL A   1      40.019  25.164  28.044  1.00  0.00     0.029 A 
ATOM     47  C   UNL A   1      41.408  25.429  28.415  1.00  0.00     0.049 A 
ATOM     48  H   UNL A   1      42.164  27.137  29.336  1.00  0.00     0.167 HD
ATOM     49  C   UNL A   1      43.685  30.899  30.986  1.00  0.00     0.031 A 
ATOM     50  C   UNL A   1      42.444  24.590  28.227  1.00  0.00     0.031 A 
ATOM     51  C   UNL A   1      44.829  30.031  30.924  1.00  0.00     0.049 A 
ATOM     52  C   UNL A   1      43.825  25.013  28.645  1.00  0.00     0.074 A 
ATOM     53  C   UNL A   1      46.120  30.271  31.359  1.00  0.00     0.029 A 
ATOM     54  N   UNL A   1      44.819  28.755  30.379  1.00  0.00    -0.354 N 
ATOM     55  N   UNL A   1      44.211  26.137  29.199  1.00  0.00    -0.248 NA
ATOM     56  C   UNL A   1      44.914  24.052  28.413  1.00  0.00     0.031 C 
ATOM     57  C   UNL A   1      46.905  29.161  31.026  1.00  0.00     0.029 A 
ATOM     58  C   UNL A   1      46.089  28.209  30.434  1.00  0.00     0.049 A 
ATOM     59  H   UNL A   1      44.026  28.306  30.007  1.00  0.00     0.167 HD
ATOM     60  C   UNL A   1      45.579  26.011  29.405  1.00  0.00     0.074 A 
ATOM     61  C   UNL A   1      45.956  24.698  28.922  1.00  0.00     0.031 C 
ATOM     62  C   UNL A   1      46.445  26.901  29.948  1.00  0.00     0.031 A 
BRANCH  49  63
ATOM     63  C   UNL A   1      43.870  32.295  31.511  1.00  0.00    -0.014 A 
ATOM     64  C   UNL A   1      43.532  32.635  32.830  1.00  0.00     0.009 A 
ATOM     65  C   UNL A   1      44.402  33.284  30.669  1.00  0.00     0.009 A 
ATOM     66  C   UNL A   1      43.686  33.948  33.282  1.00  0.00     0.001 A 
ATOM     67  C   UNL A   1      44.580  34.589  31.131  1.00  0.00     0.001 A 
ATOM     68  C   UNL A   1      44.211  34.923  32.433  1.00  0.00     0.000 A 
ENDBRANCH  49  63
BRANCH  50  69
ATOM     69  C   UNL A   1      42.211  23.279  27.569  1.00  0.00    -0.014 A 
ATOM     70  C   UNL A   1      41.722  22.185  28.297  1.00  0.00     0.009 A 
ATOM     71  C   UNL A   1      42.461  23.125  26.195  1.00  0.00     0.009 A 
ATOM     72  C   UNL A   1      41.497  20.960  27.663  1.00  0.00     0.001 A 
ATOM     73  C   UNL A   1      42.211  21.908  25.560  1.00  0.00     0.001 A 
ATOM     74  C   UNL A   1      41.734  20.824  26.295  1.00  0.00     0.000 A 
ENDBRANCH  50  69
BRANCH  62  75
ATOM     75  C   UNL A   1      47.881  26.480  30.082  1.00  0.00    -0.014 A 
ATOM     76  C   UNL A   1      48.350  25.857  31.249  1.00  0.00     0.009 A 
ATOM     77  C   UNL A   1      48.755  26.644  28.996  1.00  0.00     0.009 A 
ATOM     78  C   UNL A   1      49.675  25.425  31.330  1.00  0.00     0.001 A 
ATOM     79  C   UNL A   1      50.072  26.188  29.073  1.00  0.00     0.001 A 
ATOM     80  C   UNL A   1      50.533  25.584  30.241  1.00  0.00     0.000 A 
ENDBRANCH  62  75
ENDBRANCH  36  37
ENDBRANCH  29  31
ENDBRANCH  28  29
ENDBRANCH  27  28
ENDBRANCH  26  27
ENDBRANCH  25  26
ENDBRANCH   1  25
TORSDOF 18
ENDMDL
MODEL 3
REMARK VINA RESULT:     -10.2      1.600      3.294
REMARK SMILES C[C@](NC(=O)C[C@@H]1CCCCO1)(C(=O)OCCOCCOC(=O)c1ccc(-c2c3nc(c(-c4ccccc4)c4ccc([nH]4)c(-c4ccccc4)c4nc(c(-c5ccccc5)c5ccc2[nH]5)C=C4)C=C3)cc1)c1ccccc1
REMARK SMILES IDX 17 1 16 2 15 3 13 4 14 5 2 6 1 7 72 8 73 9 77 10 74 11 76 12
REMARK SMILES IDX 75 13 3 14 4 15 5 17 6 18 7 19 8 20 12 21 9 22 11 23 10 24
REMARK SMILES IDX 18 25 19 26 20 27 21 28 22 29 23 30 24 31 25 32 71 33 26 34
REMARK SMILES IDX 70 35 27 36 28 37 29 38 64 39 30 40 69 41 63 42 65 43 31 44
REMARK SMILES IDX 68 45 62 46 61 47 32 49 54 50 39 51 53 52 40 53 43 54 52 55
REMARK SMILES IDX 66 56 41 57 42 58 51 60 67 61 44 62 33 63 34 64 38 65 35 66
REMARK SMILES IDX 37 67 36 68 55 69 56 70 60 71 57 72 59 73 58 74 45 75 46 76
REMARK SMILES IDX 50 77 47 78 49 79 48 80
REMARK H PARENT 3 16 65 48 43 59
REMARK Flexibility Score: inf
ROOT
ATOM      1  C   UNL A   1      36.554  21.584  25.039  1.00  0.00     0.202 C 
ENDROOT
BRANCH   1   2
ATOM      2  C   UNL A   1      35.806  22.532  24.093  1.00  0.00     0.261 C 
BRANCH   2   3
ATOM      3  O   UNL A   1      34.568  23.078  24.575  1.00  0.00    -0.461 OA
BRANCH   3   4
ATOM      4  C   UNL A   1      33.589  22.937  23.641  1.00  0.00     0.336 C 
ATOM      5  O   UNL A   1      33.668  23.442  22.516  1.00  0.00    -0.249 OA
BRANCH   4   6
ATOM      6  C   UNL A   1      32.215  22.406  24.200  1.00  0.00     0.161 C 
ATOM      7  C   UNL A   1      31.478  23.435  23.307  1.00  0.00     0.053 C 
BRANCH   6   8
ATOM      8  C   UNL A   1      32.521  20.893  24.213  1.00  0.00    -0.012 A 
ATOM      9  C   UNL A   1      32.235  20.185  23.010  1.00  0.00     0.007 A 
ATOM     10  C   UNL A   1      32.906  20.121  25.306  1.00  0.00     0.007 A 
ATOM     11  C   UNL A   1      32.314  18.794  22.924  1.00  0.00     0.000 A 
ATOM     12  C   UNL A   1      33.019  18.726  25.215  1.00  0.00     0.000 A 
ATOM     13  C   UNL A   1      32.711  18.061  24.032  1.00  0.00     0.000 A 
ENDBRANCH   6   8
BRANCH   6  14
ATOM     14  N   UNL A   1      31.414  22.581  25.426  1.00  0.00    -0.337 N 
ATOM     15  C   UNL A   1      31.596  23.590  26.365  1.00  0.00     0.223 C 
ATOM     16  H   UNL A   1      30.692  21.933  25.592  1.00  0.00     0.164 HD
ATOM     17  O   UNL A   1      30.888  23.533  27.378  1.00  0.00    -0.275 OA
BRANCH  15  18
ATOM     18  C   UNL A   1      32.528  24.833  26.145  1.00  0.00     0.132 C 
BRANCH  18  19
ATOM     19  C   UNL A   1      32.136  26.361  26.074  1.00  0.00     0.127 C 
ATOM     20  C   UNL A   1      33.236  27.268  25.473  1.00  0.00     0.033 C 
ATOM     21  O   UNL A   1      31.566  26.891  27.262  1.00  0.00    -0.378 OA
ATOM     22  C   UNL A   1      33.947  28.156  26.481  1.00  0.00     0.005 C 
ATOM     23  C   UNL A   1      31.595  28.304  27.444  1.00  0.00     0.160 C 
ATOM     24  C   UNL A   1      32.976  28.947  27.332  1.00  0.00     0.029 C 
ENDBRANCH  18  19
ENDBRANCH  15  18
ENDBRANCH   6  14
ENDBRANCH   4   6
ENDBRANCH   3   4
ENDBRANCH   2   3
ENDBRANCH   1   2
BRANCH   1  25
ATOM     25  O   UNL A   1      37.824  21.056  24.705  1.00  0.00    -0.374 OA
BRANCH  25  26
ATOM     26  C   UNL A   1      38.119  19.684  24.907  1.00  0.00     0.202 C 
BRANCH  26  27
ATOM     27  C   UNL A   1      39.267  19.230  25.825  1.00  0.00     0.261 C 
BRANCH  27  28
ATOM     28  O   UNL A   1      40.592  19.296  25.276  1.00  0.00    -0.460 OA
BRANCH  28  29
ATOM     29  C   UNL A   1      41.566  19.522  26.177  1.00  0.00     0.338 C 
ATOM     30  O   UNL A   1      42.479  18.749  26.493  1.00  0.00    -0.246 OA
BRANCH  29  31
ATOM     31  C   UNL A   1      41.517  20.899  26.681  1.00  0.00     0.060 A 
ATOM     32  C   UNL A   1      41.820  21.944  25.796  1.00  0.00     0.016 A 
ATOM     33  C   UNL A   1      41.341  21.151  28.044  1.00  0.00     0.016 A 
ATOM     34  C   UNL A   1      42.008  23.236  26.277  1.00  0.00     0.010 A 
ATOM     35  C   UNL A   1      41.551  22.445  28.528  1.00  0.00     0.010 A 
ATOM     36  C   UNL A   1      41.931  23.479  27.652  1.00  0.00    -0.014 A 
BRANCH  36  37
ATOM     37  C   UNL A   1      42.435  24.760  28.199  1.00  0.00     0.031 A 
ATOM     38  C   UNL A   1      41.456  25.873  28.451  1.00  0.00     0.074 A 
ATOM     39  C   UNL A   1      43.739  24.931  28.467  1.00  0.00     0.049 A 
ATOM     40  N   UNL A   1      41.680  27.102  28.837  1.00  0.00    -0.248 NA
ATOM     41  C   UNL A   1      40.035  25.556  28.234  1.00  0.00     0.031 C 
ATOM     42  C   UNL A   1      44.775  23.912  28.312  1.00  0.00     0.029 A 
ATOM     43  N   UNL A   1      44.415  26.040  28.907  1.00  0.00    -0.354 N 
ATOM     44  C   UNL A   1      40.431  27.712  28.887  1.00  0.00     0.074 A 
ATOM     45  C   UNL A   1      39.458  26.722  28.481  1.00  0.00     0.031 C 
ATOM     46  C   UNL A   1      45.965  24.455  28.623  1.00  0.00     0.029 A 
ATOM     47  C   UNL A   1      45.774  25.864  28.963  1.00  0.00     0.049 A 
ATOM     48  H   UNL A   1      43.968  26.881  29.159  1.00  0.00     0.167 HD
ATOM     49  C   UNL A   1      40.125  28.983  29.236  1.00  0.00     0.031 A 
ATOM     50  C   UNL A   1      46.756  26.749  29.218  1.00  0.00     0.031 A 
ATOM     51  C   UNL A   1      41.096  29.968  29.627  1.00  0.00     0.049 A 
ATOM     52  C   UNL A   1      46.402  28.176  29.535  1.00  0.00     0.074 A 
ATOM     53  C   UNL A   1      40.886  31.276  30.026  1.00  0.00     0.029 A 
ATOM     54  N   UNL A   1      42.466  29.754  29.654  1.00  0.00    -0.354 N 
ATOM     55  N   UNL A   1      45.219  28.736  29.608  1.00  0.00    -0.248 NA
ATOM     56  C   UNL A   1      47.519  29.094  29.805  1.00  0.00     0.031 C 
ATOM     57  C   UNL A   1      42.135  31.871  30.241  1.00  0.00     0.029 A 
ATOM     58  C   UNL A   1      43.117  30.916  30.029  1.00  0.00     0.049 A 
ATOM     59  H   UNL A   1      42.909  28.902  29.437  1.00  0.00     0.167 HD
ATOM     60  C   UNL A   1      45.445  30.062  29.955  1.00  0.00     0.074 A 
ATOM     61  C   UNL A   1      46.878  30.222  30.085  1.00  0.00     0.031 C 
ATOM     62  C   UNL A   1      44.545  31.057  30.152  1.00  0.00     0.031 A 
BRANCH  49  63
ATOM     63  C   UNL A   1      38.681  29.390  29.154  1.00  0.00    -0.014 A 
ATOM     64  C   UNL A   1      38.106  29.823  27.949  1.00  0.00     0.009 A 
ATOM     65  C   UNL A   1      37.880  29.327  30.305  1.00  0.00     0.009 A 
ATOM     66  C   UNL A   1      36.768  30.224  27.909  1.00  0.00     0.001 A 
ATOM     67  C   UNL A   1      36.536  29.703  30.256  1.00  0.00     0.001 A 
ATOM     68  C   UNL A   1      35.985  30.162  29.062  1.00  0.00     0.000 A 
ENDBRANCH  49  63
BRANCH  50  69
ATOM     69  C   UNL A   1      48.173  26.311  29.140  1.00  0.00    -0.014 A 
ATOM     70  C   UNL A   1      48.887  26.396  27.937  1.00  0.00     0.009 A 
ATOM     71  C   UNL A   1      48.824  25.824  30.286  1.00  0.00     0.009 A 
ATOM     72  C   UNL A   1      50.224  25.991  27.880  1.00  0.00     0.001 A 
ATOM     73  C   UNL A   1      50.166  25.444  30.231  1.00  0.00     0.001 A 
ATOM     74  C   UNL A   1      50.863  25.523  29.028  1.00  0.00     0.000 A 
ENDBRANCH  50  69
BRANCH  62  75
ATOM     75  C   UNL A   1      45.076  32.401  30.562  1.00  0.00    -0.014 A 
ATOM     76  C   UNL A   1      45.369  33.388  29.608  1.00  0.00     0.009 A 
ATOM     77  C   UNL A   1      45.214  32.706  31.925  1.00  0.00     0.009 A 
ATOM     78  C   UNL A   1      45.809  34.649  30.015  1.00  0.00     0.001 A 
ATOM     79  C   UNL A   1      45.631  33.975  32.328  1.00  0.00     0.001 A 
ATOM     80  C   UNL A   1      45.934  34.944  31.373  1.00  0.00     0.000 A 
ENDBRANCH  62  75
ENDBRANCH  36  37
ENDBRANCH  29  31
ENDBRANCH  28  29
ENDBRANCH  27  28
ENDBRANCH  26  27
ENDBRANCH  25  26
ENDBRANCH   1  25
TORSDOF 18
ENDMDL
