MODEL 1
REMARK VINA RESULT:      -9.6      0.000      0.000
REMARK SMILES C[C@]([NH3+])(Cc1ccc(I)cc1)C(=O)OCCOCCOC(=O)c1ccc(-c2c3nc(c(-c4ccccc4)c4ccc([nH]4)c(-c4ccccc4)c4nc(c(-c5ccccc5)c5ccc2[nH]5)C=C4)C=C3)cc1
REMARK SMILES IDX 17 1 16 2 15 3 14 4 12 5 13 6 2 7 1 8 4 9 5 10 6 11 11 12
REMARK SMILES IDX 7 13 10 14 8 15 9 16 3 17 18 21 19 22 20 23 21 24 22 25
REMARK SMILES IDX 23 26 24 27 70 28 25 29 69 30 26 31 27 32 28 33 63 34 29 35
REMARK SMILES IDX 68 36 62 37 64 38 30 39 67 40 61 41 60 42 31 44 53 45 38 46
REMARK SMILES IDX 52 47 39 48 42 49 51 50 65 51 40 52 41 53 50 55 66 56 43 57
REMARK SMILES IDX 32 58 33 59 37 60 34 61 36 62 35 63 54 64 55 65 59 66 56 67
REMARK SMILES IDX 58 68 57 69 44 70 45 71 49 72 46 73 48 74 47 75
REMARK H PARENT 3 18 3 19 3 20 64 43 42 54
REMARK Flexibility Score: inf
ROOT
ATOM      1  O   UNL A   1      32.936  34.425  32.866  1.00  0.00    -0.374 OA
ENDROOT
BRANCH   1   2
ATOM      2  C   UNL A   1      33.589  35.503  32.206  1.00  0.00     0.202 C 
BRANCH   2   3
ATOM      3  C   UNL A   1      33.246  35.749  30.730  1.00  0.00     0.261 C 
BRANCH   3   4
ATOM      4  O   UNL A   1      33.044  34.577  29.923  1.00  0.00    -0.459 OA
BRANCH   4   5
ATOM      5  C   UNL A   1      33.959  34.421  28.927  1.00  0.00     0.368 C 
ATOM      6  O   UNL A   1      33.985  35.102  27.900  1.00  0.00    -0.245 OA
BRANCH   5   7
ATOM      7  C   UNL A   1      34.906  33.206  29.111  1.00  0.00     0.194 C 
ATOM      8  C   UNL A   1      36.257  33.821  29.545  1.00  0.00     0.092 C 
BRANCH   7   9
ATOM      9  C   UNL A   1      35.169  32.336  27.849  1.00  0.00     0.116 C 
BRANCH   9  10
ATOM     10  C   UNL A   1      34.344  31.093  27.566  1.00  0.00    -0.041 A 
ATOM     11  C   UNL A   1      32.983  31.217  27.249  1.00  0.00     0.005 A 
ATOM     12  C   UNL A   1      34.927  29.821  27.470  1.00  0.00     0.005 A 
ATOM     13  C   UNL A   1      32.218  30.100  26.891  1.00  0.00     0.015 A 
ATOM     14  C   UNL A   1      34.167  28.700  27.121  1.00  0.00     0.015 A 
ATOM     15  C   UNL A   1      32.814  28.843  26.837  1.00  0.00     0.013 A 
ATOM     16  I   UNL A   1      31.682  27.179  26.323  1.00  0.00    -0.044 I 
ENDBRANCH   9  10
ENDBRANCH   7   9
BRANCH   7  17
ATOM     17  N   UNL A   1      34.405  32.410  30.266  1.00  0.00    -0.343 N 
ATOM     18  H   UNL A   1      33.816  31.651  29.925  1.00  0.00     0.345 HD
ATOM     19  H   UNL A   1      33.860  33.013  30.883  1.00  0.00     0.345 HD
ATOM     20  H   UNL A   1      35.196  32.024  30.781  1.00  0.00     0.345 HD
ENDBRANCH   7  17
ENDBRANCH   5   7
ENDBRANCH   4   5
ENDBRANCH   3   4
ENDBRANCH   2   3
ENDBRANCH   1   2
BRANCH   1  21
ATOM     21  C   UNL A   1      33.757  33.455  33.527  1.00  0.00     0.202 C 
BRANCH  21  22
ATOM     22  C   UNL A   1      35.262  33.578  33.278  1.00  0.00     0.261 C 
BRANCH  22  23
ATOM     23  O   UNL A   1      35.798  32.296  32.901  1.00  0.00    -0.460 OA
BRANCH  23  24
ATOM     24  C   UNL A   1      36.884  31.916  33.604  1.00  0.00     0.338 C 
ATOM     25  O   UNL A   1      37.046  31.956  34.808  1.00  0.00    -0.246 OA
BRANCH  24  26
ATOM     26  C   UNL A   1      37.840  31.308  32.666  1.00  0.00     0.060 A 
ATOM     27  C   UNL A   1      39.024  30.761  33.174  1.00  0.00     0.016 A 
ATOM     28  C   UNL A   1      37.607  31.351  31.291  1.00  0.00     0.016 A 
ATOM     29  C   UNL A   1      40.000  30.283  32.297  1.00  0.00     0.010 A 
ATOM     30  C   UNL A   1      38.581  30.860  30.416  1.00  0.00     0.010 A 
ATOM     31  C   UNL A   1      39.795  30.351  30.911  1.00  0.00    -0.014 A 
BRANCH  31  32
ATOM     32  C   UNL A   1      40.888  29.984  29.976  1.00  0.00     0.031 A 
ATOM     33  C   UNL A   1      40.889  28.627  29.327  1.00  0.00     0.074 A 
ATOM     34  C   UNL A   1      41.871  30.857  29.691  1.00  0.00     0.049 A 
ATOM     35  N   UNL A   1      41.759  28.108  28.497  1.00  0.00    -0.248 NA
ATOM     36  C   UNL A   1      39.760  27.741  29.650  1.00  0.00     0.031 C 
ATOM     37  C   UNL A   1      41.973  32.219  30.212  1.00  0.00     0.029 A 
ATOM     38  N   UNL A   1      42.977  30.718  28.889  1.00  0.00    -0.354 N 
ATOM     39  C   UNL A   1      41.281  26.840  28.194  1.00  0.00     0.074 A 
ATOM     40  C   UNL A   1      40.061  26.655  28.953  1.00  0.00     0.031 C 
ATOM     41  C   UNL A   1      43.081  32.793  29.712  1.00  0.00     0.029 A 
ATOM     42  C   UNL A   1      43.782  31.830  28.867  1.00  0.00     0.049 A 
ATOM     43  H   UNL A   1      43.173  29.900  28.378  1.00  0.00     0.167 HD
ATOM     44  C   UNL A   1      41.800  25.914  27.353  1.00  0.00     0.031 A 
ATOM     45  C   UNL A   1      44.961  32.041  28.251  1.00  0.00     0.031 A 
ATOM     46  C   UNL A   1      43.020  26.075  26.610  1.00  0.00     0.049 A 
ATOM     47  C   UNL A   1      45.582  30.950  27.423  1.00  0.00     0.074 A 
ATOM     48  C   UNL A   1      43.608  25.196  25.715  1.00  0.00     0.029 A 
ATOM     49  N   UNL A   1      43.849  27.181  26.686  1.00  0.00    -0.354 N 
ATOM     50  N   UNL A   1      45.105  29.767  27.124  1.00  0.00    -0.248 NA
ATOM     51  C   UNL A   1      46.910  31.225  26.853  1.00  0.00     0.031 C 
ATOM     52  C   UNL A   1      44.821  25.749  25.291  1.00  0.00     0.029 A 
ATOM     53  C   UNL A   1      44.964  26.991  25.886  1.00  0.00     0.049 A 
ATOM     54  H   UNL A   1      43.673  27.984  27.228  1.00  0.00     0.167 HD
ATOM     55  C   UNL A   1      46.063  29.165  26.319  1.00  0.00     0.074 A 
ATOM     56  C   UNL A   1      47.145  30.115  26.167  1.00  0.00     0.031 C 
ATOM     57  C   UNL A   1      46.043  27.934  25.752  1.00  0.00     0.031 A 
BRANCH  44  58
ATOM     58  C   UNL A   1      41.054  24.619  27.214  1.00  0.00    -0.014 A 
ATOM     59  C   UNL A   1      41.528  23.443  27.817  1.00  0.00     0.009 A 
ATOM     60  C   UNL A   1      39.846  24.582  26.500  1.00  0.00     0.009 A 
ATOM     61  C   UNL A   1      40.819  22.248  27.683  1.00  0.00     0.001 A 
ATOM     62  C   UNL A   1      39.130  23.389  26.387  1.00  0.00     0.001 A 
ATOM     63  C   UNL A   1      39.620  22.223  26.970  1.00  0.00     0.000 A 
ENDBRANCH  44  58
BRANCH  45  64
ATOM     64  C   UNL A   1      45.656  33.343  28.412  1.00  0.00    -0.014 A 
ATOM     65  C   UNL A   1      45.284  34.449  27.635  1.00  0.00     0.009 A 
ATOM     66  C   UNL A   1      46.706  33.479  29.334  1.00  0.00     0.009 A 
ATOM     67  C   UNL A   1      45.960  35.665  27.768  1.00  0.00     0.001 A 
ATOM     68  C   UNL A   1      47.366  34.700  29.479  1.00  0.00     0.001 A 
ATOM     69  C   UNL A   1      46.996  35.790  28.693  1.00  0.00     0.000 A 
ENDBRANCH  45  64
BRANCH  57  70
ATOM     70  C   UNL A   1      47.219  27.545  24.903  1.00  0.00    -0.014 A 
ATOM     71  C   UNL A   1      47.231  27.804  23.524  1.00  0.00     0.009 A 
ATOM     72  C   UNL A   1      48.347  26.958  25.498  1.00  0.00     0.009 A 
ATOM     73  C   UNL A   1      48.344  27.459  22.753  1.00  0.00     0.001 A 
ATOM     74  C   UNL A   1      49.465  26.635  24.728  1.00  0.00     0.001 A 
ATOM     75  C   UNL A   1      49.460  26.879  23.355  1.00  0.00     0.000 A 
ENDBRANCH  57  70
ENDBRANCH  31  32
ENDBRANCH  24  26
ENDBRANCH  23  24
ENDBRANCH  22  23
ENDBRANCH  21  22
ENDBRANCH   1  21
TORSDOF 17
ENDMDL
MODEL 2
REMARK VINA RESULT:      -9.2      4.049      7.923
REMARK SMILES C[C@]([NH3+])(Cc1ccc(I)cc1)C(=O)OCCOCCOC(=O)c1ccc(-c2c3nc(c(-c4ccccc4)c4ccc([nH]4)c(-c4ccccc4)c4nc(c(-c5ccccc5)c5ccc2[nH]5)C=C4)C=C3)cc1
REMARK SMILES IDX 17 1 16 2 15 3 14 4 12 5 13 6 2 7 1 8 4 9 5 10 6 11 11 12
REMARK SMILES IDX 7 13 10 14 8 15 9 16 3 17 18 21 19 22 20 23 21 24 22 25
REMARK SMILES IDX 23 26 24 27 70 28 25 29 69 30 26 31 27 32 28 33 63 34 29 35
REMARK SMILES IDX 68 36 62 37 64 38 30 39 67 40 61 41 60 42 31 44 53 45 38 46
REMARK SMILES IDX 52 47 39 48 42 49 51 50 65 51 40 52 41 53 50 55 66 56 43 57
REMARK SMILES IDX 32 58 33 59 37 60 34 61 36 62 35 63 54 64 55 65 59 66 56 67
REMARK SMILES IDX 58 68 57 69 44 70 45 71 49 72 46 73 48 74 47 75
REMARK H PARENT 3 18 3 19 3 20 64 43 42 54
REMARK Flexibility Score: inf
ROOT
ATOM      1  O   UNL A   1      32.525  34.945  28.858  1.00  0.00    -0.374 OA
ENDROOT
BRANCH   1   2
ATOM      2  C   UNL A   1      33.312  35.718  29.757  1.00  0.00     0.202 C 
BRANCH   2   3
ATOM      3  C   UNL A   1      33.324  35.300  31.234  1.00  0.00     0.261 C 
BRANCH   3   4
ATOM      4  O   UNL A   1      34.620  35.101  31.825  1.00  0.00    -0.459 OA
BRANCH   4   5
ATOM      5  C   UNL A   1      34.898  33.805  32.135  1.00  0.00     0.368 C 
ATOM      6  O   UNL A   1      34.156  32.857  31.875  1.00  0.00    -0.245 OA
BRANCH   5   7
ATOM      7  C   UNL A   1      36.183  33.611  32.984  1.00  0.00     0.194 C 
ATOM      8  C   UNL A   1      35.687  33.553  34.446  1.00  0.00     0.092 C 
BRANCH   7   9
ATOM      9  C   UNL A   1      37.249  34.741  32.893  1.00  0.00     0.116 C 
BRANCH   9  10
ATOM     10  C   UNL A   1      38.548  34.536  32.133  1.00  0.00    -0.041 A 
ATOM     11  C   UNL A   1      38.538  34.502  30.730  1.00  0.00     0.005 A 
ATOM     12  C   UNL A   1      39.792  34.520  32.781  1.00  0.00     0.005 A 
ATOM     13  C   UNL A   1      39.728  34.410  30.000  1.00  0.00     0.015 A 
ATOM     14  C   UNL A   1      40.985  34.421  32.057  1.00  0.00     0.015 A 
ATOM     15  C   UNL A   1      40.948  34.361  30.668  1.00  0.00     0.013 A 
ATOM     16  I   UNL A   1      42.718  34.208  29.592  1.00  0.00    -0.044 I 
ENDBRANCH   9  10
ENDBRANCH   7   9
BRANCH   7  17
ATOM     17  N   UNL A   1      36.740  32.267  32.665  1.00  0.00    -0.343 N 
ATOM     18  H   UNL A   1      37.754  32.285  32.771  1.00  0.00     0.345 HD
ATOM     19  H   UNL A   1      36.502  32.020  31.704  1.00  0.00     0.345 HD
ATOM     20  H   UNL A   1      36.342  31.575  33.301  1.00  0.00     0.345 HD
ENDBRANCH   7  17
ENDBRANCH   5   7
ENDBRANCH   4   5
ENDBRANCH   3   4
ENDBRANCH   2   3
ENDBRANCH   1   2
BRANCH   1  21
ATOM     21  C   UNL A   1      33.213  34.066  27.960  1.00  0.00     0.202 C 
BRANCH  21  22
ATOM     22  C   UNL A   1      34.606  33.617  28.407  1.00  0.00     0.261 C 
BRANCH  22  23
ATOM     23  O   UNL A   1      35.068  32.552  27.555  1.00  0.00    -0.460 OA
BRANCH  23  24
ATOM     24  C   UNL A   1      34.687  31.318  27.946  1.00  0.00     0.338 C 
ATOM     25  O   UNL A   1      33.566  30.850  27.951  1.00  0.00    -0.246 OA
BRANCH  24  26
ATOM     26  C   UNL A   1      35.901  30.551  28.267  1.00  0.00     0.060 A 
ATOM     27  C   UNL A   1      35.912  29.767  29.427  1.00  0.00     0.016 A 
ATOM     28  C   UNL A   1      37.043  30.669  27.475  1.00  0.00     0.016 A 
ATOM     29  C   UNL A   1      37.087  29.121  29.816  1.00  0.00     0.010 A 
ATOM     30  C   UNL A   1      38.215  30.012  27.862  1.00  0.00     0.010 A 
ATOM     31  C   UNL A   1      38.254  29.258  29.049  1.00  0.00    -0.014 A 
BRANCH  31  32
ATOM     32  C   UNL A   1      39.539  28.700  29.538  1.00  0.00     0.031 A 
ATOM     33  C   UNL A   1      40.320  29.439  30.590  1.00  0.00     0.074 A 
ATOM     34  C   UNL A   1      40.007  27.533  29.060  1.00  0.00     0.049 A 
ATOM     35  N   UNL A   1      41.469  29.129  31.136  1.00  0.00    -0.248 NA
ATOM     36  C   UNL A   1      39.725  30.685  31.098  1.00  0.00     0.031 C 
ATOM     37  C   UNL A   1      39.336  26.690  28.073  1.00  0.00     0.029 A 
ATOM     38  N   UNL A   1      41.168  26.857  29.348  1.00  0.00    -0.354 N 
ATOM     39  C   UNL A   1      41.732  30.136  32.055  1.00  0.00     0.074 A 
ATOM     40  C   UNL A   1      40.640  31.083  31.970  1.00  0.00     0.031 C 
ATOM     41  C   UNL A   1      40.096  25.605  27.839  1.00  0.00     0.029 A 
ATOM     42  C   UNL A   1      41.320  25.697  28.631  1.00  0.00     0.049 A 
ATOM     43  H   UNL A   1      41.828  27.175  30.005  1.00  0.00     0.167 HD
ATOM     44  C   UNL A   1      42.782  30.262  32.902  1.00  0.00     0.031 A 
ATOM     45  C   UNL A   1      42.338  24.816  28.602  1.00  0.00     0.031 A 
ATOM     46  C   UNL A   1      43.884  29.342  32.983  1.00  0.00     0.049 A 
ATOM     47  C   UNL A   1      43.553  25.043  29.460  1.00  0.00     0.074 A 
ATOM     48  C   UNL A   1      44.979  29.379  33.830  1.00  0.00     0.029 A 
ATOM     49  N   UNL A   1      44.040  28.227  32.176  1.00  0.00    -0.354 N 
ATOM     50  N   UNL A   1      43.776  25.986  30.343  1.00  0.00    -0.248 NA
ATOM     51  C   UNL A   1      44.659  24.086  29.310  1.00  0.00     0.031 C 
ATOM     52  C   UNL A   1      45.825  28.315  33.499  1.00  0.00     0.029 A 
ATOM     53  C   UNL A   1      45.233  27.590  32.477  1.00  0.00     0.049 A 
ATOM     54  H   UNL A   1      43.399  27.930  31.490  1.00  0.00     0.167 HD
ATOM     55  C   UNL A   1      45.036  25.725  30.865  1.00  0.00     0.074 A 
ATOM     56  C   UNL A   1      45.527  24.531  30.208  1.00  0.00     0.031 C 
ATOM     57  C   UNL A   1      45.721  26.413  31.809  1.00  0.00     0.031 A 
BRANCH  44  58
ATOM     58  C   UNL A   1      42.799  31.465  33.799  1.00  0.00    -0.014 A 
ATOM     59  C   UNL A   1      42.087  31.474  35.009  1.00  0.00     0.009 A 
ATOM     60  C   UNL A   1      43.563  32.588  33.448  1.00  0.00     0.009 A 
ATOM     61  C   UNL A   1      42.117  32.598  35.836  1.00  0.00     0.001 A 
ATOM     62  C   UNL A   1      43.607  33.702  34.288  1.00  0.00     0.001 A 
ATOM     63  C   UNL A   1      42.879  33.710  35.476  1.00  0.00     0.000 A 
ENDBRANCH  44  58
BRANCH  45  64
ATOM     64  C   UNL A   1      42.270  23.635  27.704  1.00  0.00    -0.014 A 
ATOM     65  C   UNL A   1      42.705  23.727  26.375  1.00  0.00     0.009 A 
ATOM     66  C   UNL A   1      41.755  22.416  28.171  1.00  0.00     0.009 A 
ATOM     67  C   UNL A   1      42.612  22.622  25.524  1.00  0.00     0.001 A 
ATOM     68  C   UNL A   1      41.683  21.309  27.325  1.00  0.00     0.001 A 
ATOM     69  C   UNL A   1      42.106  21.414  26.002  1.00  0.00     0.000 A 
ENDBRANCH  45  64
BRANCH  57  70
ATOM     70  C   UNL A   1      47.073  25.888  32.202  1.00  0.00    -0.014 A 
ATOM     71  C   UNL A   1      48.224  26.254  31.488  1.00  0.00     0.009 A 
ATOM     72  C   UNL A   1      47.201  25.057  33.325  1.00  0.00     0.009 A 
ATOM     73  C   UNL A   1      49.477  25.777  31.882  1.00  0.00     0.001 A 
ATOM     74  C   UNL A   1      48.457  24.600  33.728  1.00  0.00     0.001 A 
ATOM     75  C   UNL A   1      49.593  24.955  33.002  1.00  0.00     0.000 A 
ENDBRANCH  57  70
ENDBRANCH  31  32
ENDBRANCH  24  26
ENDBRANCH  23  24
ENDBRANCH  22  23
ENDBRANCH  21  22
ENDBRANCH   1  21
TORSDOF 17
ENDMDL
MODEL 3
REMARK VINA RESULT:      -9.1      5.256     11.294
REMARK SMILES C[C@]([NH3+])(Cc1ccc(I)cc1)C(=O)OCCOCCOC(=O)c1ccc(-c2c3nc(c(-c4ccccc4)c4ccc([nH]4)c(-c4ccccc4)c4nc(c(-c5ccccc5)c5ccc2[nH]5)C=C4)C=C3)cc1
REMARK SMILES IDX 17 1 16 2 15 3 14 4 12 5 13 6 2 7 1 8 4 9 5 10 6 11 11 12
REMARK SMILES IDX 7 13 10 14 8 15 9 16 3 17 18 21 19 22 20 23 21 24 22 25
REMARK SMILES IDX 23 26 24 27 70 28 25 29 69 30 26 31 27 32 28 33 63 34 29 35
REMARK SMILES IDX 68 36 62 37 64 38 30 39 67 40 61 41 60 42 31 44 53 45 38 46
REMARK SMILES IDX 52 47 39 48 42 49 51 50 65 51 40 52 41 53 50 55 66 56 43 57
REMARK SMILES IDX 32 58 33 59 37 60 34 61 36 62 35 63 54 64 55 65 59 66 56 67
REMARK SMILES IDX 58 68 57 69 44 70 45 71 49 72 46 73 48 74 47 75
REMARK H PARENT 3 18 3 19 3 20 64 43 42 54
REMARK Flexibility Score: inf
ROOT
ATOM      1  O   UNL A   1      41.920  19.746  27.327  1.00  0.00    -0.374 OA
ENDROOT
BRANCH   1   2
ATOM      2  C   UNL A   1      42.155  19.318  25.991  1.00  0.00     0.202 C 
BRANCH   2   3
ATOM      3  C   UNL A   1      43.608  19.286  25.496  1.00  0.00     0.261 C 
BRANCH   3   4
ATOM      4  O   UNL A   1      44.002  20.357  24.621  1.00  0.00    -0.459 OA
BRANCH   4   5
ATOM      5  C   UNL A   1      44.928  21.201  25.154  1.00  0.00     0.368 C 
ATOM      6  O   UNL A   1      45.934  20.830  25.759  1.00  0.00    -0.245 OA
BRANCH   5   7
ATOM      7  C   UNL A   1      44.550  22.703  25.065  1.00  0.00     0.194 C 
ATOM      8  C   UNL A   1      45.690  23.350  24.245  1.00  0.00     0.092 C 
BRANCH   7   9
ATOM      9  C   UNL A   1      44.447  23.472  26.414  1.00  0.00     0.116 C 
BRANCH   9  10
ATOM     10  C   UNL A   1      44.760  24.955  26.499  1.00  0.00    -0.041 A 
ATOM     11  C   UNL A   1      45.936  25.383  27.136  1.00  0.00     0.005 A 
ATOM     12  C   UNL A   1      43.985  25.917  25.837  1.00  0.00     0.005 A 
ATOM     13  C   UNL A   1      46.301  26.734  27.148  1.00  0.00     0.015 A 
ATOM     14  C   UNL A   1      44.340  27.270  25.851  1.00  0.00     0.015 A 
ATOM     15  C   UNL A   1      45.495  27.674  26.511  1.00  0.00     0.013 A 
ATOM     16  I   UNL A   1      46.021  29.683  26.539  1.00  0.00    -0.044 I 
ENDBRANCH   9  10
ENDBRANCH   7   9
BRANCH   7  17
ATOM     17  N   UNL A   1      43.313  22.813  24.243  1.00  0.00    -0.343 N 
ATOM     18  H   UNL A   1      43.550  23.174  23.319  1.00  0.00     0.345 HD
ATOM     19  H   UNL A   1      42.657  23.448  24.698  1.00  0.00     0.345 HD
ATOM     20  H   UNL A   1      42.884  21.892  24.149  1.00  0.00     0.345 HD
ENDBRANCH   7  17
ENDBRANCH   5   7
ENDBRANCH   4   5
ENDBRANCH   3   4
ENDBRANCH   2   3
ENDBRANCH   1   2
BRANCH   1  21
ATOM     21  C   UNL A   1      41.321  21.034  27.516  1.00  0.00     0.202 C 
BRANCH  21  22
ATOM     22  C   UNL A   1      40.561  21.596  26.313  1.00  0.00     0.261 C 
BRANCH  22  23
ATOM     23  O   UNL A   1      39.271  22.075  26.736  1.00  0.00    -0.460 OA
BRANCH  23  24
ATOM     24  C   UNL A   1      38.860  23.199  26.112  1.00  0.00     0.338 C 
ATOM     25  O   UNL A   1      38.084  23.295  25.182  1.00  0.00    -0.246 OA
BRANCH  24  26
ATOM     26  C   UNL A   1      39.425  24.349  26.835  1.00  0.00     0.060 A 
ATOM     27  C   UNL A   1      39.100  24.519  28.185  1.00  0.00     0.016 A 
ATOM     28  C   UNL A   1      40.201  25.295  26.163  1.00  0.00     0.016 A 
ATOM     29  C   UNL A   1      39.527  25.663  28.863  1.00  0.00     0.010 A 
ATOM     30  C   UNL A   1      40.636  26.434  26.848  1.00  0.00     0.010 A 
ATOM     31  C   UNL A   1      40.279  26.639  28.193  1.00  0.00    -0.014 A 
BRANCH  31  32
ATOM     32  C   UNL A   1      40.604  27.922  28.865  1.00  0.00     0.031 A 
ATOM     33  C   UNL A   1      41.974  28.128  29.453  1.00  0.00     0.074 A 
ATOM     34  C   UNL A   1      39.693  28.909  28.942  1.00  0.00     0.049 A 
ATOM     35  N   UNL A   1      42.450  29.166  30.094  1.00  0.00    -0.248 NA
ATOM     36  C   UNL A   1      42.933  27.024  29.292  1.00  0.00     0.031 C 
ATOM     37  C   UNL A   1      38.345  28.863  28.380  1.00  0.00     0.029 A 
ATOM     38  N   UNL A   1      39.772  30.146  29.533  1.00  0.00    -0.354 N 
ATOM     39  C   UNL A   1      43.764  28.844  30.407  1.00  0.00     0.074 A 
ATOM     40  C   UNL A   1      44.001  27.503  29.914  1.00  0.00     0.031 C 
ATOM     41  C   UNL A   1      37.722  30.024  28.650  1.00  0.00     0.029 A 
ATOM     42  C   UNL A   1      38.614  30.877  29.433  1.00  0.00     0.049 A 
ATOM     43  H   UNL A   1      40.581  30.477  29.985  1.00  0.00     0.167 HD
ATOM     44  C   UNL A   1      44.697  29.596  31.039  1.00  0.00     0.031 A 
ATOM     45  C   UNL A   1      38.301  32.088  29.931  1.00  0.00     0.031 A 
ATOM     46  C   UNL A   1      44.471  30.920  31.552  1.00  0.00     0.049 A 
ATOM     47  C   UNL A   1      39.314  32.852  30.739  1.00  0.00     0.074 A 
ATOM     48  C   UNL A   1      45.368  31.765  32.185  1.00  0.00     0.029 A 
ATOM     49  N   UNL A   1      43.258  31.586  31.506  1.00  0.00    -0.354 N 
ATOM     50  N   UNL A   1      40.560  32.546  31.005  1.00  0.00    -0.248 NA
ATOM     51  C   UNL A   1      38.870  34.128  31.322  1.00  0.00     0.031 C 
ATOM     52  C   UNL A   1      44.682  32.922  32.570  1.00  0.00     0.029 A 
ATOM     53  C   UNL A   1      43.371  32.815  32.135  1.00  0.00     0.049 A 
ATOM     54  H   UNL A   1      42.437  31.239  31.089  1.00  0.00     0.167 HD
ATOM     55  C   UNL A   1      41.054  33.597  31.767  1.00  0.00     0.074 A 
ATOM     56  C   UNL A   1      39.977  34.554  31.916  1.00  0.00     0.031 C 
ATOM     57  C   UNL A   1      42.292  33.755  32.292  1.00  0.00     0.031 A 
BRANCH  44  58
ATOM     58  C   UNL A   1      46.054  28.985  31.234  1.00  0.00    -0.014 A 
ATOM     59  C   UNL A   1      46.354  28.248  32.391  1.00  0.00     0.009 A 
ATOM     60  C   UNL A   1      47.031  29.118  30.236  1.00  0.00     0.009 A 
ATOM     61  C   UNL A   1      47.619  27.680  32.556  1.00  0.00     0.001 A 
ATOM     62  C   UNL A   1      48.287  28.532  30.396  1.00  0.00     0.001 A 
ATOM     63  C   UNL A   1      48.583  27.820  31.557  1.00  0.00     0.000 A 
ENDBRANCH  44  58
BRANCH  45  64
ATOM     64  C   UNL A   1      36.948  32.655  29.702  1.00  0.00    -0.014 A 
ATOM     65  C   UNL A   1      36.739  33.617  28.705  1.00  0.00     0.009 A 
ATOM     66  C   UNL A   1      35.863  32.244  30.492  1.00  0.00     0.009 A 
ATOM     67  C   UNL A   1      35.471  34.170  28.512  1.00  0.00     0.001 A 
ATOM     68  C   UNL A   1      34.592  32.783  30.283  1.00  0.00     0.001 A 
ATOM     69  C   UNL A   1      34.399  33.749  29.297  1.00  0.00     0.000 A 
ENDBRANCH  45  64
BRANCH  57  70
ATOM     70  C   UNL A   1      42.559  35.013  33.068  1.00  0.00    -0.014 A 
ATOM     71  C   UNL A   1      43.212  36.103  32.473  1.00  0.00     0.009 A 
ATOM     72  C   UNL A   1      42.109  35.126  34.393  1.00  0.00     0.009 A 
ATOM     73  C   UNL A   1      43.429  37.275  33.200  1.00  0.00     0.001 A 
ATOM     74  C   UNL A   1      42.309  36.307  35.109  1.00  0.00     0.001 A 
ATOM     75  C   UNL A   1      42.974  37.379  34.515  1.00  0.00     0.000 A 
ENDBRANCH  57  70
ENDBRANCH  31  32
ENDBRANCH  24  26
ENDBRANCH  23  24
ENDBRANCH  22  23
ENDBRANCH  21  22
ENDBRANCH   1  21
TORSDOF 17
ENDMDL
