MODEL 1
REMARK VINA RESULT:     -12.0      0.000      0.000
REMARK SMILES O=C(OCCOCCOC(=O)c1nnn(-c2cccc(C(F)(F)F)c2)c1[C@H]1COc2ccccc2O1)c1ccc(-c2c3nc(c(-c4ccccc4)c4ccc([nH]4)c(-c4ccccc4)c4nc(c(-c5ccccc5)c5ccc2[nH]5)C=C4)C=C3)cc1
REMARK SMILES IDX 6 1 5 2 4 3 3 4 2 5 1 6 37 7 38 8 84 9 39 10 83 11 40 12
REMARK SMILES IDX 41 13 42 14 77 15 43 16 82 17 76 18 78 19 44 20 81 21 75 22
REMARK SMILES IDX 74 23 45 25 67 26 52 27 66 28 53 29 56 30 65 31 79 32 54 33
REMARK SMILES IDX 55 34 64 36 80 37 57 38 46 39 47 40 51 41 48 42 50 43 49 44
REMARK SMILES IDX 68 45 69 46 73 47 70 48 72 49 71 50 58 51 59 52 63 53 60 54
REMARK SMILES IDX 62 55 61 56 7 57 8 58 9 59 10 60 11 61 12 62 13 63 26 64
REMARK SMILES IDX 14 65 15 66 27 67 28 68 36 69 29 70 35 71 30 72 34 73 31 74
REMARK SMILES IDX 33 75 32 76 16 77 17 78 25 79 18 80 20 81 19 82 21 83 22 84
REMARK SMILES IDX 23 85 24 86
REMARK H PARENT 78 24 56 35
REMARK Flexibility Score: inf
ROOT
ATOM      1  O   UNL A   1      32.847  29.113  27.244  1.00  0.00    -0.374 OA
ENDROOT
BRANCH   1   2
ATOM      2  C   UNL A   1      32.521  30.492  27.085  1.00  0.00     0.202 C 
BRANCH   2   3
ATOM      3  C   UNL A   1      33.555  31.541  27.502  1.00  0.00     0.261 C 
BRANCH   3   4
ATOM      4  O   UNL A   1      34.869  30.985  27.670  1.00  0.00    -0.460 OA
BRANCH   4   5
ATOM      5  C   UNL A   1      35.994  31.574  28.123  1.00  0.00     0.338 C 
ATOM      6  O   UNL A   1      36.112  32.791  27.989  1.00  0.00    -0.246 OA
BRANCH   5   7
ATOM      7  C   UNL A   1      37.078  30.841  28.845  1.00  0.00     0.060 A 
ATOM      8  C   UNL A   1      38.351  31.331  29.137  1.00  0.00     0.016 A 
ATOM      9  C   UNL A   1      36.778  29.516  29.211  1.00  0.00     0.016 A 
ATOM     10  C   UNL A   1      39.365  30.473  29.520  1.00  0.00     0.010 A 
ATOM     11  C   UNL A   1      37.771  28.665  29.670  1.00  0.00     0.010 A 
ATOM     12  C   UNL A   1      39.083  29.126  29.707  1.00  0.00    -0.014 A 
BRANCH  12  13
ATOM     13  C   UNL A   1      40.220  28.240  29.908  1.00  0.00     0.031 A 
ATOM     14  C   UNL A   1      40.861  28.274  31.250  1.00  0.00     0.074 A 
ATOM     15  C   UNL A   1      40.625  27.405  28.932  1.00  0.00     0.049 A 
ATOM     16  N   UNL A   1      42.110  28.451  31.544  1.00  0.00    -0.248 NA
ATOM     17  C   UNL A   1      39.975  28.164  32.420  1.00  0.00     0.031 C 
ATOM     18  C   UNL A   1      39.945  27.107  27.666  1.00  0.00     0.029 A 
ATOM     19  N   UNL A   1      41.673  26.537  28.934  1.00  0.00    -0.354 N 
ATOM     20  C   UNL A   1      42.198  28.316  32.928  1.00  0.00     0.074 A 
ATOM     21  C   UNL A   1      40.846  28.250  33.423  1.00  0.00     0.031 C 
ATOM     22  C   UNL A   1      40.434  25.952  27.168  1.00  0.00     0.029 A 
ATOM     23  C   UNL A   1      41.542  25.521  28.000  1.00  0.00     0.049 A 
ATOM     24  H   UNL A   1      42.446  26.621  29.538  1.00  0.00     0.167 HD
ATOM     25  C   UNL A   1      43.373  28.056  33.564  1.00  0.00     0.031 A 
ATOM     26  C   UNL A   1      42.223  24.354  27.976  1.00  0.00     0.031 A 
ATOM     27  C   UNL A   1      44.518  28.439  32.787  1.00  0.00     0.049 A 
ATOM     28  C   UNL A   1      43.438  24.511  28.803  1.00  0.00     0.074 A 
ATOM     29  C   UNL A   1      44.997  29.627  32.273  1.00  0.00     0.029 A 
ATOM     30  N   UNL A   1      45.232  27.449  32.161  1.00  0.00    -0.354 N 
ATOM     31  N   UNL A   1      44.442  25.274  28.476  1.00  0.00    -0.248 NA
ATOM     32  C   UNL A   1      43.377  24.133  30.206  1.00  0.00     0.031 C 
ATOM     33  C   UNL A   1      45.617  29.274  31.039  1.00  0.00     0.029 A 
ATOM     34  C   UNL A   1      45.500  27.890  30.892  1.00  0.00     0.049 A 
ATOM     35  H   UNL A   1      45.500  26.585  32.548  1.00  0.00     0.167 HD
ATOM     36  C   UNL A   1      44.886  25.813  29.675  1.00  0.00     0.074 A 
ATOM     37  C   UNL A   1      44.277  24.982  30.709  1.00  0.00     0.031 C 
ATOM     38  C   UNL A   1      45.474  27.044  29.721  1.00  0.00     0.031 A 
BRANCH  25  39
ATOM     39  C   UNL A   1      43.469  27.089  34.720  1.00  0.00    -0.014 A 
ATOM     40  C   UNL A   1      43.401  25.707  34.462  1.00  0.00     0.009 A 
ATOM     41  C   UNL A   1      43.326  27.487  36.065  1.00  0.00     0.009 A 
ATOM     42  C   UNL A   1      43.119  24.789  35.482  1.00  0.00     0.001 A 
ATOM     43  C   UNL A   1      43.089  26.570  37.090  1.00  0.00     0.001 A 
ATOM     44  C   UNL A   1      42.953  25.222  36.793  1.00  0.00     0.000 A 
ENDBRANCH  25  39
BRANCH  26  45
ATOM     45  C   UNL A   1      41.709  23.042  27.533  1.00  0.00    -0.014 A 
ATOM     46  C   UNL A   1      40.339  22.833  27.335  1.00  0.00     0.009 A 
ATOM     47  C   UNL A   1      42.599  22.047  27.080  1.00  0.00     0.009 A 
ATOM     48  C   UNL A   1      39.879  21.678  26.689  1.00  0.00     0.001 A 
ATOM     49  C   UNL A   1      42.141  20.891  26.445  1.00  0.00     0.001 A 
ATOM     50  C   UNL A   1      40.778  20.712  26.240  1.00  0.00     0.000 A 
ENDBRANCH  26  45
BRANCH  38  51
ATOM     51  C   UNL A   1      45.832  27.705  28.412  1.00  0.00    -0.014 A 
ATOM     52  C   UNL A   1      44.900  28.446  27.665  1.00  0.00     0.009 A 
ATOM     53  C   UNL A   1      47.174  27.719  28.005  1.00  0.00     0.009 A 
ATOM     54  C   UNL A   1      45.292  29.152  26.524  1.00  0.00     0.001 A 
ATOM     55  C   UNL A   1      47.570  28.442  26.876  1.00  0.00     0.001 A 
ATOM     56  C   UNL A   1      46.630  29.153  26.133  1.00  0.00     0.000 A 
ENDBRANCH  38  51
ENDBRANCH  12  13
ENDBRANCH   5   7
ENDBRANCH   4   5
ENDBRANCH   3   4
ENDBRANCH   2   3
ENDBRANCH   1   2
BRANCH   1  57
ATOM     57  C   UNL A   1      31.822  28.188  27.622  1.00  0.00     0.202 C 
BRANCH  57  58
ATOM     58  C   UNL A   1      31.073  27.416  26.532  1.00  0.00     0.261 C 
BRANCH  58  59
ATOM     59  O   UNL A   1      31.046  26.011  26.812  1.00  0.00    -0.458 OA
BRANCH  59  60
ATOM     60  C   UNL A   1      30.176  25.272  26.058  1.00  0.00     0.361 C 
ATOM     61  O   UNL A   1      29.176  25.710  25.514  1.00  0.00    -0.244 OA
BRANCH  60  62
ATOM     62  C   UNL A   1      30.672  23.921  25.844  1.00  0.00     0.198 A 
ATOM     63  N   UNL A   1      30.091  22.825  26.439  1.00  0.00    -0.122 NA
ATOM     64  C   UNL A   1      31.684  23.493  25.005  1.00  0.00     0.123 A 
ATOM     65  N   UNL A   1      30.720  21.740  26.005  1.00  0.00    -0.061 NA
ATOM     66  N   UNL A   1      31.805  22.155  25.321  1.00  0.00    -0.213 N 
BRANCH  64  67
ATOM     67  C   UNL A   1      32.481  24.181  23.947  1.00  0.00     0.262 C 
ATOM     68  C   UNL A   1      31.577  24.661  22.803  1.00  0.00     0.281 C 
ATOM     69  O   UNL A   1      33.161  25.254  24.604  1.00  0.00    -0.477 OA
ATOM     70  O   UNL A   1      32.338  25.394  21.836  1.00  0.00    -0.485 OA
ATOM     71  C   UNL A   1      33.392  26.338  23.806  1.00  0.00     0.162 A 
ATOM     72  C   UNL A   1      33.014  26.407  22.463  1.00  0.00     0.161 A 
ATOM     73  C   UNL A   1      34.015  27.424  24.413  1.00  0.00     0.050 A 
ATOM     74  C   UNL A   1      33.308  27.540  21.713  1.00  0.00     0.050 A 
ATOM     75  C   UNL A   1      34.271  28.579  23.675  1.00  0.00     0.004 A 
ATOM     76  C   UNL A   1      33.927  28.632  22.323  1.00  0.00     0.004 A 
ENDBRANCH  64  67
BRANCH  66  77
ATOM     77  C   UNL A   1      32.924  21.323  25.141  1.00  0.00     0.067 A 
ATOM     78  C   UNL A   1      34.208  21.775  25.444  1.00  0.00     0.028 A 
ATOM     79  C   UNL A   1      32.720  20.037  24.628  1.00  0.00     0.041 A 
ATOM     80  C   UNL A   1      35.277  20.886  25.325  1.00  0.00     0.003 A 
ATOM     81  C   UNL A   1      33.789  19.151  24.480  1.00  0.00     0.058 A 
ATOM     82  C   UNL A   1      35.068  19.581  24.859  1.00  0.00     0.013 A 
BRANCH  81  83
ATOM     83  C   UNL A   1      33.552  17.762  23.942  1.00  0.00     0.416 C 
ATOM     84  F   UNL A   1      34.648  17.237  23.333  1.00  0.00    -0.166 F 
ATOM     85  F   UNL A   1      33.196  16.884  24.917  1.00  0.00    -0.166 F 
ATOM     86  F   UNL A   1      32.551  17.712  23.015  1.00  0.00    -0.166 F 
ENDBRANCH  81  83
ENDBRANCH  66  77
ENDBRANCH  60  62
ENDBRANCH  59  60
ENDBRANCH  58  59
ENDBRANCH  57  58
ENDBRANCH   1  57
TORSDOF 17
ENDMDL
MODEL 2
REMARK VINA RESULT:     -11.6      2.300      3.172
REMARK SMILES O=C(OCCOCCOC(=O)c1nnn(-c2cccc(C(F)(F)F)c2)c1[C@H]1COc2ccccc2O1)c1ccc(-c2c3nc(c(-c4ccccc4)c4ccc([nH]4)c(-c4ccccc4)c4nc(c(-c5ccccc5)c5ccc2[nH]5)C=C4)C=C3)cc1
REMARK SMILES IDX 6 1 5 2 4 3 3 4 2 5 1 6 37 7 38 8 84 9 39 10 83 11 40 12
REMARK SMILES IDX 41 13 42 14 77 15 43 16 82 17 76 18 78 19 44 20 81 21 75 22
REMARK SMILES IDX 74 23 45 25 67 26 52 27 66 28 53 29 56 30 65 31 79 32 54 33
REMARK SMILES IDX 55 34 64 36 80 37 57 38 46 39 47 40 51 41 48 42 50 43 49 44
REMARK SMILES IDX 68 45 69 46 73 47 70 48 72 49 71 50 58 51 59 52 63 53 60 54
REMARK SMILES IDX 62 55 61 56 7 57 8 58 9 59 10 60 11 61 12 62 13 63 26 64
REMARK SMILES IDX 14 65 15 66 27 67 28 68 36 69 29 70 35 71 30 72 34 73 31 74
REMARK SMILES IDX 33 75 32 76 16 77 17 78 25 79 18 80 20 81 19 82 21 83 22 84
REMARK SMILES IDX 23 85 24 86
REMARK H PARENT 78 24 56 35
REMARK Flexibility Score: inf
ROOT
ATOM      1  O   UNL A   1      36.043  30.823  28.484  1.00  0.00    -0.374 OA
ENDROOT
BRANCH   1   2
ATOM      2  C   UNL A   1      36.179  32.235  28.332  1.00  0.00     0.202 C 
BRANCH   2   3
ATOM      3  C   UNL A   1      35.936  33.129  29.550  1.00  0.00     0.261 C 
BRANCH   3   4
ATOM      4  O   UNL A   1      37.112  33.291  30.360  1.00  0.00    -0.460 OA
BRANCH   4   5
ATOM      5  C   UNL A   1      38.410  33.255  29.999  1.00  0.00     0.338 C 
ATOM      6  O   UNL A   1      38.899  34.254  29.472  1.00  0.00    -0.246 OA
BRANCH   5   7
ATOM      7  C   UNL A   1      39.312  32.094  30.268  1.00  0.00     0.060 A 
ATOM      8  C   UNL A   1      40.682  32.039  30.019  1.00  0.00     0.016 A 
ATOM      9  C   UNL A   1      38.684  30.941  30.775  1.00  0.00     0.016 A 
ATOM     10  C   UNL A   1      41.349  30.829  30.009  1.00  0.00     0.010 A 
ATOM     11  C   UNL A   1      39.365  29.735  30.843  1.00  0.00     0.010 A 
ATOM     12  C   UNL A   1      40.662  29.670  30.345  1.00  0.00    -0.014 A 
BRANCH  12  13
ATOM     13  C   UNL A   1      41.353  28.409  30.120  1.00  0.00     0.031 A 
ATOM     14  C   UNL A   1      42.241  27.933  31.214  1.00  0.00     0.074 A 
ATOM     15  C   UNL A   1      41.147  27.700  28.993  1.00  0.00     0.049 A 
ATOM     16  N   UNL A   1      43.485  27.578  31.147  1.00  0.00    -0.248 NA
ATOM     17  C   UNL A   1      41.682  27.920  32.575  1.00  0.00     0.031 C 
ATOM     18  C   UNL A   1      40.134  27.935  27.958  1.00  0.00     0.029 A 
ATOM     19  N   UNL A   1      41.721  26.528  28.607  1.00  0.00    -0.354 N 
ATOM     20  C   UNL A   1      43.826  27.143  32.426  1.00  0.00     0.074 A 
ATOM     21  C   UNL A   1      42.717  27.476  33.285  1.00  0.00     0.031 C 
ATOM     22  C   UNL A   1      39.982  26.809  27.231  1.00  0.00     0.029 A 
ATOM     23  C   UNL A   1      40.978  25.843  27.659  1.00  0.00     0.049 A 
ATOM     24  H   UNL A   1      42.577  26.201  28.965  1.00  0.00     0.167 HD
ATOM     25  C   UNL A   1      44.906  26.348  32.665  1.00  0.00     0.031 A 
ATOM     26  C   UNL A   1      41.100  24.539  27.326  1.00  0.00     0.031 A 
ATOM     27  C   UNL A   1      45.895  26.436  31.629  1.00  0.00     0.049 A 
ATOM     28  C   UNL A   1      42.428  24.070  27.775  1.00  0.00     0.074 A 
ATOM     29  C   UNL A   1      46.684  27.445  31.113  1.00  0.00     0.029 A 
ATOM     30  N   UNL A   1      45.980  25.402  30.730  1.00  0.00    -0.354 N 
ATOM     31  N   UNL A   1      43.551  24.464  27.244  1.00  0.00    -0.248 NA
ATOM     32  C   UNL A   1      42.543  23.464  29.092  1.00  0.00     0.031 C 
ATOM     33  C   UNL A   1      46.805  27.148  29.724  1.00  0.00     0.029 A 
ATOM     34  C   UNL A   1      46.105  25.963  29.486  1.00  0.00     0.049 A 
ATOM     35  H   UNL A   1      45.955  24.441  30.938  1.00  0.00     0.167 HD
ATOM     36  C   UNL A   1      44.438  24.547  28.307  1.00  0.00     0.074 A 
ATOM     37  C   UNL A   1      43.799  23.805  29.390  1.00  0.00     0.031 C 
ATOM     38  C   UNL A   1      45.469  25.442  28.298  1.00  0.00     0.031 A 
BRANCH  25  39
ATOM     39  C   UNL A   1      44.862  25.200  33.645  1.00  0.00    -0.014 A 
ATOM     40  C   UNL A   1      44.156  24.033  33.299  1.00  0.00     0.009 A 
ATOM     41  C   UNL A   1      45.234  25.333  34.997  1.00  0.00     0.009 A 
ATOM     42  C   UNL A   1      43.771  23.100  34.270  1.00  0.00     0.001 A 
ATOM     43  C   UNL A   1      44.889  24.384  35.961  1.00  0.00     0.001 A 
ATOM     44  C   UNL A   1      44.129  23.281  35.602  1.00  0.00     0.000 A 
ENDBRANCH  25  39
BRANCH  26  45
ATOM     45  C   UNL A   1      40.010  23.625  26.929  1.00  0.00    -0.014 A 
ATOM     46  C   UNL A   1      38.750  24.117  26.566  1.00  0.00     0.009 A 
ATOM     47  C   UNL A   1      40.280  22.263  26.684  1.00  0.00     0.009 A 
ATOM     48  C   UNL A   1      37.803  23.280  25.963  1.00  0.00     0.001 A 
ATOM     49  C   UNL A   1      39.333  21.426  26.092  1.00  0.00     0.001 A 
ATOM     50  C   UNL A   1      38.096  21.938  25.721  1.00  0.00     0.000 A 
ENDBRANCH  26  45
BRANCH  38  51
ATOM     51  C   UNL A   1      45.754  26.177  27.011  1.00  0.00    -0.014 A 
ATOM     52  C   UNL A   1      45.119  27.387  26.682  1.00  0.00     0.009 A 
ATOM     53  C   UNL A   1      46.799  25.728  26.192  1.00  0.00     0.009 A 
ATOM     54  C   UNL A   1      45.496  28.110  25.545  1.00  0.00     0.001 A 
ATOM     55  C   UNL A   1      47.191  26.461  25.068  1.00  0.00     0.001 A 
ATOM     56  C   UNL A   1      46.536  27.647  24.741  1.00  0.00     0.000 A 
ENDBRANCH  38  51
ENDBRANCH  12  13
ENDBRANCH   5   7
ENDBRANCH   4   5
ENDBRANCH   3   4
ENDBRANCH   2   3
ENDBRANCH   1   2
BRANCH   1  57
ATOM     57  C   UNL A   1      35.525  30.047  27.399  1.00  0.00     0.202 C 
BRANCH  57  58
ATOM     58  C   UNL A   1      34.049  30.190  27.017  1.00  0.00     0.261 C 
BRANCH  58  59
ATOM     59  O   UNL A   1      33.746  29.458  25.822  1.00  0.00    -0.458 OA
BRANCH  59  60
ATOM     60  C   UNL A   1      32.527  28.836  25.800  1.00  0.00     0.361 C 
ATOM     61  O   UNL A   1      31.451  29.407  25.808  1.00  0.00    -0.244 OA
BRANCH  60  62
ATOM     62  C   UNL A   1      32.665  27.401  25.604  1.00  0.00     0.198 A 
ATOM     63  N   UNL A   1      33.466  26.625  26.410  1.00  0.00    -0.122 NA
ATOM     64  C   UNL A   1      32.012  26.585  24.700  1.00  0.00     0.123 A 
ATOM     65  N   UNL A   1      33.336  25.362  26.025  1.00  0.00    -0.061 NA
ATOM     66  N   UNL A   1      32.639  25.367  24.871  1.00  0.00    -0.213 N 
BRANCH  64  67
ATOM     67  C   UNL A   1      30.870  26.816  23.767  1.00  0.00     0.262 C 
ATOM     68  C   UNL A   1      29.537  26.853  24.526  1.00  0.00     0.281 C 
ATOM     69  O   UNL A   1      31.159  28.045  23.094  1.00  0.00    -0.477 OA
ATOM     70  O   UNL A   1      28.459  27.162  23.635  1.00  0.00    -0.485 OA
ATOM     71  C   UNL A   1      30.049  28.752  22.726  1.00  0.00     0.162 A 
ATOM     72  C   UNL A   1      28.742  28.323  22.967  1.00  0.00     0.161 A 
ATOM     73  C   UNL A   1      30.281  29.975  22.103  1.00  0.00     0.050 A 
ATOM     74  C   UNL A   1      27.666  29.092  22.537  1.00  0.00     0.050 A 
ATOM     75  C   UNL A   1      29.204  30.769  21.712  1.00  0.00     0.004 A 
ATOM     76  C   UNL A   1      27.897  30.322  21.919  1.00  0.00     0.004 A 
ENDBRANCH  64  67
BRANCH  66  77
ATOM     77  C   UNL A   1      32.726  24.304  23.955  1.00  0.00     0.067 A 
ATOM     78  C   UNL A   1      32.888  24.546  22.591  1.00  0.00     0.028 A 
ATOM     79  C   UNL A   1      32.619  22.996  24.443  1.00  0.00     0.041 A 
ATOM     80  C   UNL A   1      33.050  23.458  21.732  1.00  0.00     0.003 A 
ATOM     81  C   UNL A   1      32.753  21.903  23.584  1.00  0.00     0.058 A 
ATOM     82  C   UNL A   1      32.995  22.148  22.226  1.00  0.00     0.013 A 
BRANCH  81  83
ATOM     83  C   UNL A   1      32.654  20.499  24.127  1.00  0.00     0.416 C 
ATOM     84  F   UNL A   1      33.849  20.011  24.553  1.00  0.00    -0.166 F 
ATOM     85  F   UNL A   1      31.804  20.414  25.185  1.00  0.00    -0.166 F 
ATOM     86  F   UNL A   1      32.191  19.603  23.208  1.00  0.00    -0.166 F 
ENDBRANCH  81  83
ENDBRANCH  66  77
ENDBRANCH  60  62
ENDBRANCH  59  60
ENDBRANCH  58  59
ENDBRANCH  57  58
ENDBRANCH   1  57
TORSDOF 17
ENDMDL
MODEL 3
REMARK VINA RESULT:     -11.4      2.686      3.349
REMARK SMILES O=C(OCCOCCOC(=O)c1nnn(-c2cccc(C(F)(F)F)c2)c1[C@H]1COc2ccccc2O1)c1ccc(-c2c3nc(c(-c4ccccc4)c4ccc([nH]4)c(-c4ccccc4)c4nc(c(-c5ccccc5)c5ccc2[nH]5)C=C4)C=C3)cc1
REMARK SMILES IDX 6 1 5 2 4 3 3 4 2 5 1 6 37 7 38 8 84 9 39 10 83 11 40 12
REMARK SMILES IDX 41 13 42 14 77 15 43 16 82 17 76 18 78 19 44 20 81 21 75 22
REMARK SMILES IDX 74 23 45 25 67 26 52 27 66 28 53 29 56 30 65 31 79 32 54 33
REMARK SMILES IDX 55 34 64 36 80 37 57 38 46 39 47 40 51 41 48 42 50 43 49 44
REMARK SMILES IDX 68 45 69 46 73 47 70 48 72 49 71 50 58 51 59 52 63 53 60 54
REMARK SMILES IDX 62 55 61 56 7 57 8 58 9 59 10 60 11 61 12 62 13 63 26 64
REMARK SMILES IDX 14 65 15 66 27 67 28 68 36 69 29 70 35 71 30 72 34 73 31 74
REMARK SMILES IDX 33 75 32 76 16 77 17 78 25 79 18 80 20 81 19 82 21 83 22 84
REMARK SMILES IDX 23 85 24 86
REMARK H PARENT 78 24 56 35
REMARK Flexibility Score: inf
ROOT
ATOM      1  O   UNL A   1      32.008  28.441  26.084  1.00  0.00    -0.374 OA
ENDROOT
BRANCH   1   2
ATOM      2  C   UNL A   1      31.823  29.829  25.816  1.00  0.00     0.202 C 
BRANCH   2   3
ATOM      3  C   UNL A   1      32.239  30.843  26.883  1.00  0.00     0.261 C 
BRANCH   3   4
ATOM      4  O   UNL A   1      33.407  30.430  27.613  1.00  0.00    -0.460 OA
BRANCH   4   5
ATOM      5  C   UNL A   1      34.437  31.171  28.067  1.00  0.00     0.338 C 
ATOM      6  O   UNL A   1      34.191  32.262  28.580  1.00  0.00    -0.246 OA
BRANCH   5   7
ATOM      7  C   UNL A   1      35.859  30.711  28.047  1.00  0.00     0.060 A 
ATOM      8  C   UNL A   1      36.321  29.480  27.586  1.00  0.00     0.016 A 
ATOM      9  C   UNL A   1      36.795  31.606  28.600  1.00  0.00     0.016 A 
ATOM     10  C   UNL A   1      37.593  29.041  27.902  1.00  0.00     0.010 A 
ATOM     11  C   UNL A   1      38.097  31.202  28.852  1.00  0.00     0.010 A 
ATOM     12  C   UNL A   1      38.447  29.879  28.606  1.00  0.00    -0.014 A 
BRANCH  12  13
ATOM     13  C   UNL A   1      39.690  29.294  29.088  1.00  0.00     0.031 A 
ATOM     14  C   UNL A   1      39.868  29.234  30.563  1.00  0.00     0.074 A 
ATOM     15  C   UNL A   1      40.598  28.797  28.227  1.00  0.00     0.049 A 
ATOM     16  N   UNL A   1      40.860  29.667  31.275  1.00  0.00    -0.248 NA
ATOM     17  C   UNL A   1      38.758  28.676  31.351  1.00  0.00     0.031 C 
ATOM     18  C   UNL A   1      40.443  28.583  26.783  1.00  0.00     0.029 A 
ATOM     19  N   UNL A   1      41.813  28.245  28.494  1.00  0.00    -0.354 N 
ATOM     20  C   UNL A   1      40.577  29.296  32.589  1.00  0.00     0.074 A 
ATOM     21  C   UNL A   1      39.227  28.789  32.592  1.00  0.00     0.031 C 
ATOM     22  C   UNL A   1      41.385  27.712  26.366  1.00  0.00     0.029 A 
ATOM     23  C   UNL A   1      42.278  27.429  27.475  1.00  0.00     0.049 A 
ATOM     24  H   UNL A   1      42.310  28.408  29.328  1.00  0.00     0.167 HD
ATOM     25  C   UNL A   1      41.535  29.231  33.553  1.00  0.00     0.031 A 
ATOM     26  C   UNL A   1      43.260  26.505  27.565  1.00  0.00     0.031 A 
ATOM     27  C   UNL A   1      42.682  30.039  33.247  1.00  0.00     0.049 A 
ATOM     28  C   UNL A   1      44.071  26.809  28.763  1.00  0.00     0.074 A 
ATOM     29  C   UNL A   1      42.901  31.386  33.044  1.00  0.00     0.029 A 
ATOM     30  N   UNL A   1      43.815  29.406  32.801  1.00  0.00    -0.354 N 
ATOM     31  N   UNL A   1      44.842  27.854  28.869  1.00  0.00    -0.248 NA
ATOM     32  C   UNL A   1      43.722  26.165  30.020  1.00  0.00     0.031 C 
ATOM     33  C   UNL A   1      43.932  31.449  32.060  1.00  0.00     0.029 A 
ATOM     34  C   UNL A   1      44.293  30.138  31.747  1.00  0.00     0.049 A 
ATOM     35  H   UNL A   1      44.210  28.583  33.169  1.00  0.00     0.167 HD
ATOM     36  C   UNL A   1      44.730  28.247  30.194  1.00  0.00     0.074 A 
ATOM     37  C   UNL A   1      44.130  27.104  30.877  1.00  0.00     0.031 C 
ATOM     38  C   UNL A   1      44.871  29.556  30.556  1.00  0.00     0.031 A 
BRANCH  25  39
ATOM     39  C   UNL A   1      41.581  28.117  34.572  1.00  0.00    -0.014 A 
ATOM     40  C   UNL A   1      41.790  28.438  35.926  1.00  0.00     0.009 A 
ATOM     41  C   UNL A   1      41.722  26.761  34.216  1.00  0.00     0.009 A 
ATOM     42  C   UNL A   1      42.201  27.467  36.848  1.00  0.00     0.001 A 
ATOM     43  C   UNL A   1      42.089  25.783  35.143  1.00  0.00     0.001 A 
ATOM     44  C   UNL A   1      42.360  26.143  36.454  1.00  0.00     0.000 A 
ENDBRANCH  25  39
BRANCH  26  45
ATOM     45  C   UNL A   1      43.326  25.216  26.848  1.00  0.00    -0.014 A 
ATOM     46  C   UNL A   1      42.770  24.054  27.397  1.00  0.00     0.009 A 
ATOM     47  C   UNL A   1      43.741  25.174  25.501  1.00  0.00     0.009 A 
ATOM     48  C   UNL A   1      42.618  22.898  26.620  1.00  0.00     0.001 A 
ATOM     49  C   UNL A   1      43.599  24.019  24.729  1.00  0.00     0.001 A 
ATOM     50  C   UNL A   1      43.026  22.883  25.287  1.00  0.00     0.000 A 
ENDBRANCH  26  45
BRANCH  38  51
ATOM     51  C   UNL A   1      45.375  30.526  29.516  1.00  0.00    -0.014 A 
ATOM     52  C   UNL A   1      44.540  31.058  28.519  1.00  0.00     0.009 A 
ATOM     53  C   UNL A   1      46.674  31.039  29.641  1.00  0.00     0.009 A 
ATOM     54  C   UNL A   1      45.001  32.050  27.649  1.00  0.00     0.001 A 
ATOM     55  C   UNL A   1      47.129  32.046  28.785  1.00  0.00     0.001 A 
ATOM     56  C   UNL A   1      46.297  32.546  27.786  1.00  0.00     0.000 A 
ENDBRANCH  38  51
ENDBRANCH  12  13
ENDBRANCH   5   7
ENDBRANCH   4   5
ENDBRANCH   3   4
ENDBRANCH   2   3
ENDBRANCH   1   2
BRANCH   1  57
ATOM     57  C   UNL A   1      31.156  27.789  27.033  1.00  0.00     0.202 C 
BRANCH  57  58
ATOM     58  C   UNL A   1      30.718  26.345  26.775  1.00  0.00     0.261 C 
BRANCH  58  59
ATOM     59  O   UNL A   1      31.833  25.445  26.822  1.00  0.00    -0.458 OA
BRANCH  59  60
ATOM     60  C   UNL A   1      31.531  24.118  26.680  1.00  0.00     0.361 C 
ATOM     61  O   UNL A   1      30.421  23.676  26.441  1.00  0.00    -0.244 OA
BRANCH  60  62
ATOM     62  C   UNL A   1      32.731  23.296  26.687  1.00  0.00     0.198 A 
ATOM     63  N   UNL A   1      32.951  22.330  27.643  1.00  0.00    -0.122 NA
ATOM     64  C   UNL A   1      33.762  23.261  25.768  1.00  0.00     0.123 A 
ATOM     65  N   UNL A   1      34.088  21.712  27.349  1.00  0.00    -0.061 NA
ATOM     66  N   UNL A   1      34.676  22.411  26.359  1.00  0.00    -0.213 N 
BRANCH  64  67
ATOM     67  C   UNL A   1      33.943  23.884  24.424  1.00  0.00     0.262 C 
ATOM     68  C   UNL A   1      32.699  23.676  23.549  1.00  0.00     0.281 C 
ATOM     69  O   UNL A   1      34.224  25.265  24.668  1.00  0.00    -0.477 OA
ATOM     70  O   UNL A   1      32.847  24.350  22.295  1.00  0.00    -0.485 OA
ATOM     71  C   UNL A   1      33.794  26.103  23.679  1.00  0.00     0.162 A 
ATOM     72  C   UNL A   1      33.144  25.668  22.522  1.00  0.00     0.161 A 
ATOM     73  C   UNL A   1      34.009  27.462  23.890  1.00  0.00     0.050 A 
ATOM     74  C   UNL A   1      32.759  26.586  21.551  1.00  0.00     0.050 A 
ATOM     75  C   UNL A   1      33.583  28.388  22.940  1.00  0.00     0.004 A 
ATOM     76  C   UNL A   1      32.968  27.949  21.765  1.00  0.00     0.004 A 
ENDBRANCH  64  67
BRANCH  66  77
ATOM     77  C   UNL A   1      36.063  22.344  26.133  1.00  0.00     0.067 A 
ATOM     78  C   UNL A   1      36.630  21.252  25.477  1.00  0.00     0.028 A 
ATOM     79  C   UNL A   1      36.864  23.390  26.606  1.00  0.00     0.041 A 
ATOM     80  C   UNL A   1      37.999  21.269  25.206  1.00  0.00     0.003 A 
ATOM     81  C   UNL A   1      38.239  23.401  26.362  1.00  0.00     0.058 A 
ATOM     82  C   UNL A   1      38.795  22.340  25.634  1.00  0.00     0.013 A 
BRANCH  81  83
ATOM     83  C   UNL A   1      39.087  24.543  26.863  1.00  0.00     0.416 C 
ATOM     84  F   UNL A   1      38.362  25.660  27.138  1.00  0.00    -0.166 F 
ATOM     85  F   UNL A   1      39.755  24.228  28.005  1.00  0.00    -0.166 F 
ATOM     86  F   UNL A   1      40.043  24.930  25.969  1.00  0.00    -0.166 F 
ENDBRANCH  81  83
ENDBRANCH  66  77
ENDBRANCH  60  62
ENDBRANCH  59  60
ENDBRANCH  58  59
ENDBRANCH  57  58
ENDBRANCH   1  57
TORSDOF 17
ENDMDL
