MODEL 1
REMARK VINA RESULT:     -11.0      0.000      0.000
REMARK SMILES CSc1ccc(/C=C2\C(C)=C(CC(=O)OCCOCCOC(=O)c3ccc(-c4c5nc(c(-c6ccccc6)c6ccc([nH]6)c(-c6ccccc6)c6nc(c(-c7ccccc7)c7ccc4[nH]7)C=C6)C=C5)cc3)c3cc(F)ccc32)cc1
REMARK SMILES IDX 17 1 16 2 15 3 13 4 14 5 12 6 11 7 7 8 8 9 9 10 78 11 10 12
REMARK SMILES IDX 72 13 77 14 73 15 76 16 74 17 75 18 6 19 3 20 4 21 80 22
REMARK SMILES IDX 5 23 79 24 2 25 1 26 18 27 19 28 20 29 21 30 22 31 23 32
REMARK SMILES IDX 24 33 25 34 71 35 26 36 70 37 27 38 28 39 29 40 64 41 30 42
REMARK SMILES IDX 69 43 63 44 65 45 31 46 68 47 62 48 61 49 32 51 54 52 39 53
REMARK SMILES IDX 53 54 40 55 43 56 52 57 66 58 41 59 42 60 51 62 67 63 44 64
REMARK SMILES IDX 33 65 34 66 38 67 35 68 37 69 36 70 55 71 56 72 60 73 57 74
REMARK SMILES IDX 59 75 58 76 45 77 46 78 50 79 47 80 49 81 48 82
REMARK H PARENT 65 50 43 61
REMARK Flexibility Score: inf
ROOT
ATOM      1  C   UNL A   1      40.328  20.459  26.128  1.00  0.00     0.202 C 
ENDROOT
BRANCH   1   2
ATOM      2  C   UNL A   1      39.612  21.763  26.491  1.00  0.00     0.261 C 
BRANCH   2   3
ATOM      3  O   UNL A   1      38.381  21.911  25.762  1.00  0.00    -0.463 OA
BRANCH   3   4
ATOM      4  C   UNL A   1      37.833  23.158  25.761  1.00  0.00     0.310 C 
ATOM      5  O   UNL A   1      38.111  24.050  26.553  1.00  0.00    -0.252 OA
BRANCH   4   6
ATOM      6  C   UNL A   1      36.790  23.323  24.677  1.00  0.00     0.159 C 
BRANCH   6   7
ATOM      7  C   UNL A   1      35.389  23.021  25.155  1.00  0.00    -0.025 C 
ATOM      8  C   UNL A   1      33.416  24.582  22.870  1.00  0.00     0.017 C 
ATOM      9  C   UNL A   1      33.740  23.726  23.847  1.00  0.00    -0.014 C 
ATOM     10  C   UNL A   1      34.410  23.976  25.136  1.00  0.00    -0.039 C 
ATOM     11  C   UNL A   1      33.681  22.269  23.731  1.00  0.00    -0.010 A 
ATOM     12  C   UNL A   1      33.385  23.939  26.271  1.00  0.00     0.045 C 
ATOM     13  C   UNL A   1      34.741  21.822  24.530  1.00  0.00    -0.011 A 
ATOM     14  C   UNL A   1      32.557  21.482  23.505  1.00  0.00     0.012 A 
ATOM     15  C   UNL A   1      34.785  20.515  24.982  1.00  0.00     0.048 A 
ATOM     16  C   UNL A   1      32.538  20.206  24.071  1.00  0.00     0.040 A 
ATOM     17  C   UNL A   1      33.653  19.730  24.776  1.00  0.00     0.123 A 
ATOM     18  F   UNL A   1      33.576  18.537  25.381  1.00  0.00    -0.207 F 
BRANCH   8  19
ATOM     19  C   UNL A   1      32.932  25.979  22.990  1.00  0.00    -0.025 A 
ATOM     20  C   UNL A   1      32.382  27.909  24.922  1.00  0.00     0.007 A 
ATOM     21  C   UNL A   1      33.613  27.911  24.277  1.00  0.00     0.015 A 
ATOM     22  C   UNL A   1      31.349  27.110  24.427  1.00  0.00     0.015 A 
ATOM     23  C   UNL A   1      33.867  26.979  23.275  1.00  0.00     0.009 A 
ATOM     24  C   UNL A   1      31.620  26.149  23.446  1.00  0.00     0.009 A 
BRANCH  20  25
ATOM     25  S   UNL A   1      32.250  28.659  26.535  1.00  0.00    -0.130 SA
ATOM     26  C   UNL A   1      31.786  30.331  26.068  1.00  0.00     0.091 C 
ENDBRANCH  20  25
ENDBRANCH   8  19
ENDBRANCH   6   7
ENDBRANCH   4   6
ENDBRANCH   3   4
ENDBRANCH   2   3
ENDBRANCH   1   2
BRANCH   1  27
ATOM     27  O   UNL A   1      41.753  20.458  26.193  1.00  0.00    -0.374 OA
BRANCH  27  28
ATOM     28  C   UNL A   1      42.407  21.706  26.397  1.00  0.00     0.202 C 
BRANCH  28  29
ATOM     29  C   UNL A   1      43.161  22.303  25.203  1.00  0.00     0.261 C 
BRANCH  29  30
ATOM     30  O   UNL A   1      42.884  23.698  25.018  1.00  0.00    -0.460 OA
BRANCH  30  31
ATOM     31  C   UNL A   1      43.737  24.527  25.651  1.00  0.00     0.338 C 
ATOM     32  O   UNL A   1      44.944  24.652  25.458  1.00  0.00    -0.246 OA
BRANCH  31  33
ATOM     33  C   UNL A   1      42.991  25.431  26.532  1.00  0.00     0.060 A 
ATOM     34  C   UNL A   1      43.432  26.757  26.603  1.00  0.00     0.016 A 
ATOM     35  C   UNL A   1      41.946  24.975  27.340  1.00  0.00     0.016 A 
ATOM     36  C   UNL A   1      42.876  27.619  27.537  1.00  0.00     0.010 A 
ATOM     37  C   UNL A   1      41.382  25.844  28.274  1.00  0.00     0.010 A 
ATOM     38  C   UNL A   1      41.886  27.149  28.410  1.00  0.00    -0.014 A 
BRANCH  38  39
ATOM     39  C   UNL A   1      41.530  27.981  29.579  1.00  0.00     0.031 A 
ATOM     40  C   UNL A   1      40.335  28.886  29.483  1.00  0.00     0.074 A 
ATOM     41  C   UNL A   1      42.219  27.867  30.725  1.00  0.00     0.049 A 
ATOM     42  N   UNL A   1      39.799  29.653  30.397  1.00  0.00    -0.248 NA
ATOM     43  C   UNL A   1      39.656  28.938  28.178  1.00  0.00     0.031 C 
ATOM     44  C   UNL A   1      43.375  26.996  30.930  1.00  0.00     0.029 A 
ATOM     45  N   UNL A   1      42.039  28.485  31.934  1.00  0.00    -0.354 N 
ATOM     46  C   UNL A   1      38.726  30.281  29.776  1.00  0.00     0.074 A 
ATOM     47  C   UNL A   1      38.714  29.841  28.399  1.00  0.00     0.031 C 
ATOM     48  C   UNL A   1      43.802  27.131  32.196  1.00  0.00     0.029 A 
ATOM     49  C   UNL A   1      42.964  28.116  32.877  1.00  0.00     0.049 A 
ATOM     50  H   UNL A   1      41.317  29.129  32.109  1.00  0.00     0.167 HD
ATOM     51  C   UNL A   1      37.826  31.141  30.309  1.00  0.00     0.031 A 
ATOM     52  C   UNL A   1      43.122  28.538  34.145  1.00  0.00     0.031 A 
ATOM     53  C   UNL A   1      37.865  31.588  31.676  1.00  0.00     0.049 A 
ATOM     54  C   UNL A   1      42.141  29.527  34.709  1.00  0.00     0.074 A 
ATOM     55  C   UNL A   1      37.001  32.445  32.332  1.00  0.00     0.029 A 
ATOM     56  N   UNL A   1      38.838  31.216  32.595  1.00  0.00    -0.354 N 
ATOM     57  N   UNL A   1      41.108  30.088  34.126  1.00  0.00    -0.248 NA
ATOM     58  C   UNL A   1      42.336  29.928  36.108  1.00  0.00     0.031 C 
ATOM     59  C   UNL A   1      37.487  32.641  33.630  1.00  0.00     0.029 A 
ATOM     60  C   UNL A   1      38.614  31.852  33.804  1.00  0.00     0.049 A 
ATOM     61  H   UNL A   1      39.578  30.593  32.413  1.00  0.00     0.167 HD
ATOM     62  C   UNL A   1      40.515  30.892  35.090  1.00  0.00     0.074 A 
ATOM     63  C   UNL A   1      41.299  30.730  36.301  1.00  0.00     0.031 C 
ATOM     64  C   UNL A   1      39.422  31.688  34.989  1.00  0.00     0.031 A 
BRANCH  51  65
ATOM     65  C   UNL A   1      36.768  31.685  29.385  1.00  0.00    -0.014 A 
ATOM     66  C   UNL A   1      36.906  32.937  28.761  1.00  0.00     0.009 A 
ATOM     67  C   UNL A   1      35.600  30.943  29.157  1.00  0.00     0.009 A 
ATOM     68  C   UNL A   1      35.872  33.458  27.979  1.00  0.00     0.001 A 
ATOM     69  C   UNL A   1      34.582  31.450  28.346  1.00  0.00     0.001 A 
ATOM     70  C   UNL A   1      34.712  32.714  27.771  1.00  0.00     0.000 A 
ENDBRANCH  51  65
BRANCH  52  71
ATOM     71  C   UNL A   1      44.258  28.016  34.949  1.00  0.00    -0.014 A 
ATOM     72  C   UNL A   1      44.135  26.833  35.692  1.00  0.00     0.009 A 
ATOM     73  C   UNL A   1      45.496  28.680  34.929  1.00  0.00     0.009 A 
ATOM     74  C   UNL A   1      45.228  26.331  36.405  1.00  0.00     0.001 A 
ATOM     75  C   UNL A   1      46.592  28.160  35.619  1.00  0.00     0.001 A 
ATOM     76  C   UNL A   1      46.456  26.988  36.361  1.00  0.00     0.000 A 
ENDBRANCH  52  71
BRANCH  64  77
ATOM     77  C   UNL A   1      38.998  32.427  36.228  1.00  0.00    -0.014 A 
ATOM     78  C   UNL A   1      39.445  33.731  36.491  1.00  0.00     0.009 A 
ATOM     79  C   UNL A   1      38.110  31.818  37.128  1.00  0.00     0.009 A 
ATOM     80  C   UNL A   1      39.038  34.396  37.649  1.00  0.00     0.001 A 
ATOM     81  C   UNL A   1      37.678  32.497  38.268  1.00  0.00     0.001 A 
ATOM     82  C   UNL A   1      38.153  33.781  38.534  1.00  0.00     0.000 A 
ENDBRANCH  64  77
ENDBRANCH  38  39
ENDBRANCH  31  33
ENDBRANCH  30  31
ENDBRANCH  29  30
ENDBRANCH  28  29
ENDBRANCH  27  28
ENDBRANCH   1  27
TORSDOF 17
ENDMDL
MODEL 2
REMARK VINA RESULT:     -10.9      3.680      9.317
REMARK SMILES CSc1ccc(/C=C2\C(C)=C(CC(=O)OCCOCCOC(=O)c3ccc(-c4c5nc(c(-c6ccccc6)c6ccc([nH]6)c(-c6ccccc6)c6nc(c(-c7ccccc7)c7ccc4[nH]7)C=C6)C=C5)cc3)c3cc(F)ccc32)cc1
REMARK SMILES IDX 17 1 16 2 15 3 13 4 14 5 12 6 11 7 7 8 8 9 9 10 78 11 10 12
REMARK SMILES IDX 72 13 77 14 73 15 76 16 74 17 75 18 6 19 3 20 4 21 80 22
REMARK SMILES IDX 5 23 79 24 2 25 1 26 18 27 19 28 20 29 21 30 22 31 23 32
REMARK SMILES IDX 24 33 25 34 71 35 26 36 70 37 27 38 28 39 29 40 64 41 30 42
REMARK SMILES IDX 69 43 63 44 65 45 31 46 68 47 62 48 61 49 32 51 54 52 39 53
REMARK SMILES IDX 53 54 40 55 43 56 52 57 66 58 41 59 42 60 51 62 67 63 44 64
REMARK SMILES IDX 33 65 34 66 38 67 35 68 37 69 36 70 55 71 56 72 60 73 57 74
REMARK SMILES IDX 59 75 58 76 45 77 46 78 50 79 47 80 49 81 48 82
REMARK H PARENT 65 50 43 61
REMARK Flexibility Score: inf
ROOT
ATOM      1  C   UNL A   1      34.821  32.720  28.272  1.00  0.00     0.202 C 
ENDROOT
BRANCH   1   2
ATOM      2  C   UNL A   1      34.661  31.221  28.537  1.00  0.00     0.261 C 
BRANCH   2   3
ATOM      3  O   UNL A   1      33.890  30.581  27.504  1.00  0.00    -0.463 OA
BRANCH   3   4
ATOM      4  C   UNL A   1      34.296  29.332  27.143  1.00  0.00     0.310 C 
ATOM      5  O   UNL A   1      35.453  29.010  26.898  1.00  0.00    -0.252 OA
BRANCH   4   6
ATOM      6  C   UNL A   1      33.139  28.365  27.035  1.00  0.00     0.159 C 
BRANCH   6   7
ATOM      7  C   UNL A   1      32.858  27.936  25.614  1.00  0.00    -0.025 C 
ATOM      8  C   UNL A   1      31.587  24.803  25.964  1.00  0.00     0.017 C 
ATOM      9  C   UNL A   1      31.852  25.972  25.369  1.00  0.00    -0.014 C 
ATOM     10  C   UNL A   1      33.138  26.668  25.185  1.00  0.00    -0.039 C 
ATOM     11  C   UNL A   1      30.838  26.940  24.948  1.00  0.00    -0.010 A 
ATOM     12  C   UNL A   1      33.610  26.515  23.737  1.00  0.00     0.045 C 
ATOM     13  C   UNL A   1      31.460  28.182  25.132  1.00  0.00    -0.011 A 
ATOM     14  C   UNL A   1      29.836  26.761  24.001  1.00  0.00     0.012 A 
ATOM     15  C   UNL A   1      30.979  29.315  24.500  1.00  0.00     0.048 A 
ATOM     16  C   UNL A   1      29.437  27.877  23.264  1.00  0.00     0.040 A 
ATOM     17  C   UNL A   1      29.989  29.137  23.536  1.00  0.00     0.123 A 
ATOM     18  F   UNL A   1      29.653  30.174  22.757  1.00  0.00    -0.207 F 
BRANCH   8  19
ATOM     19  C   UNL A   1      32.396  23.560  25.958  1.00  0.00    -0.025 A 
ATOM     20  C   UNL A   1      34.778  22.547  24.927  1.00  0.00     0.007 A 
ATOM     21  C   UNL A   1      34.749  23.062  26.219  1.00  0.00     0.015 A 
ATOM     22  C   UNL A   1      33.577  22.311  24.256  1.00  0.00     0.015 A 
ATOM     23  C   UNL A   1      33.548  23.519  26.751  1.00  0.00     0.009 A 
ATOM     24  C   UNL A   1      32.377  22.807  24.779  1.00  0.00     0.009 A 
BRANCH  20  25
ATOM     25  S   UNL A   1      36.328  22.511  24.045  1.00  0.00    -0.130 SA
ATOM     26  C   UNL A   1      37.477  22.633  25.422  1.00  0.00     0.091 C 
ENDBRANCH  20  25
ENDBRANCH   8  19
ENDBRANCH   6   7
ENDBRANCH   4   6
ENDBRANCH   3   4
ENDBRANCH   2   3
ENDBRANCH   1   2
BRANCH   1  27
ATOM     27  O   UNL A   1      33.659  33.536  28.419  1.00  0.00    -0.374 OA
BRANCH  27  28
ATOM     28  C   UNL A   1      33.841  34.949  28.437  1.00  0.00     0.202 C 
BRANCH  28  29
ATOM     29  C   UNL A   1      33.053  35.741  29.486  1.00  0.00     0.261 C 
BRANCH  29  30
ATOM     30  O   UNL A   1      32.620  34.924  30.583  1.00  0.00    -0.460 OA
BRANCH  30  31
ATOM     31  C   UNL A   1      32.811  35.472  31.799  1.00  0.00     0.338 C 
ATOM     32  O   UNL A   1      32.086  36.275  32.382  1.00  0.00    -0.246 OA
BRANCH  31  33
ATOM     33  C   UNL A   1      33.962  34.842  32.454  1.00  0.00     0.060 A 
ATOM     34  C   UNL A   1      35.173  35.540  32.417  1.00  0.00     0.016 A 
ATOM     35  C   UNL A   1      33.884  33.562  33.008  1.00  0.00     0.016 A 
ATOM     36  C   UNL A   1      36.333  34.931  32.872  1.00  0.00     0.010 A 
ATOM     37  C   UNL A   1      35.050  32.951  33.471  1.00  0.00     0.010 A 
ATOM     38  C   UNL A   1      36.283  33.616  33.351  1.00  0.00    -0.014 A 
BRANCH  38  39
ATOM     39  C   UNL A   1      37.555  32.888  33.542  1.00  0.00     0.031 A 
ATOM     40  C   UNL A   1      38.326  33.104  34.814  1.00  0.00     0.074 A 
ATOM     41  C   UNL A   1      37.970  31.998  32.627  1.00  0.00     0.049 A 
ATOM     42  N   UNL A   1      39.426  32.530  35.225  1.00  0.00    -0.248 NA
ATOM     43  C   UNL A   1      37.785  34.107  35.745  1.00  0.00     0.031 C 
ATOM     44  C   UNL A   1      37.279  31.694  31.375  1.00  0.00     0.029 A 
ATOM     45  N   UNL A   1      39.069  31.182  32.617  1.00  0.00    -0.354 N 
ATOM     46  C   UNL A   1      39.712  33.105  36.457  1.00  0.00     0.074 A 
ATOM     47  C   UNL A   1      38.696  34.104  36.705  1.00  0.00     0.031 C 
ATOM     48  C   UNL A   1      37.971  30.751  30.715  1.00  0.00     0.029 A 
ATOM     49  C   UNL A   1      39.162  30.408  31.488  1.00  0.00     0.049 A 
ATOM     50  H   UNL A   1      39.727  31.152  33.348  1.00  0.00     0.167 HD
ATOM     51  C   UNL A   1      40.725  32.822  37.308  1.00  0.00     0.031 A 
ATOM     52  C   UNL A   1      40.111  29.528  31.118  1.00  0.00     0.031 A 
ATOM     53  C   UNL A   1      41.743  31.841  37.037  1.00  0.00     0.049 A 
ATOM     54  C   UNL A   1      41.255  29.257  32.056  1.00  0.00     0.074 A 
ATOM     55  C   UNL A   1      42.809  31.457  37.829  1.00  0.00     0.029 A 
ATOM     56  N   UNL A   1      41.822  31.098  35.866  1.00  0.00    -0.354 N 
ATOM     57  N   UNL A   1      41.496  29.779  33.235  1.00  0.00    -0.248 NA
ATOM     58  C   UNL A   1      42.244  28.264  31.620  1.00  0.00     0.031 C 
ATOM     59  C   UNL A   1      43.569  30.527  37.111  1.00  0.00     0.029 A 
ATOM     60  C   UNL A   1      42.937  30.279  35.901  1.00  0.00     0.049 A 
ATOM     61  H   UNL A   1      41.179  31.146  35.122  1.00  0.00     0.167 HD
ATOM     62  C   UNL A   1      42.654  29.164  33.695  1.00  0.00     0.074 A 
ATOM     63  C   UNL A   1      43.053  28.217  32.670  1.00  0.00     0.031 C 
ATOM     64  C   UNL A   1      43.324  29.360  34.858  1.00  0.00     0.031 A 
BRANCH  51  65
ATOM     65  C   UNL A   1      40.798  33.627  38.579  1.00  0.00    -0.014 A 
ATOM     66  C   UNL A   1      41.503  34.841  38.645  1.00  0.00     0.009 A 
ATOM     67  C   UNL A   1      40.172  33.148  39.740  1.00  0.00     0.009 A 
ATOM     68  C   UNL A   1      41.629  35.524  39.857  1.00  0.00     0.001 A 
ATOM     69  C   UNL A   1      40.270  33.850  40.943  1.00  0.00     0.001 A 
ATOM     70  C   UNL A   1      41.012  35.029  41.005  1.00  0.00     0.000 A 
ENDBRANCH  51  65
BRANCH  52  71
ATOM     71  C   UNL A   1      40.004  28.855  29.798  1.00  0.00    -0.014 A 
ATOM     72  C   UNL A   1      40.466  29.477  28.629  1.00  0.00     0.009 A 
ATOM     73  C   UNL A   1      39.481  27.554  29.714  1.00  0.00     0.009 A 
ATOM     74  C   UNL A   1      40.400  28.810  27.402  1.00  0.00     0.001 A 
ATOM     75  C   UNL A   1      39.443  26.881  28.491  1.00  0.00     0.001 A 
ATOM     76  C   UNL A   1      39.899  27.511  27.335  1.00  0.00     0.000 A 
ENDBRANCH  52  71
BRANCH  64  77
ATOM     77  C   UNL A   1      44.546  28.515  35.090  1.00  0.00    -0.014 A 
ATOM     78  C   UNL A   1      45.823  28.956  34.709  1.00  0.00     0.009 A 
ATOM     79  C   UNL A   1      44.419  27.275  35.735  1.00  0.00     0.009 A 
ATOM     80  C   UNL A   1      46.942  28.153  34.935  1.00  0.00     0.001 A 
ATOM     81  C   UNL A   1      45.543  26.490  35.989  1.00  0.00     0.001 A 
ATOM     82  C   UNL A   1      46.802  26.924  35.578  1.00  0.00     0.000 A 
ENDBRANCH  64  77
ENDBRANCH  38  39
ENDBRANCH  31  33
ENDBRANCH  30  31
ENDBRANCH  29  30
ENDBRANCH  28  29
ENDBRANCH  27  28
ENDBRANCH   1  27
TORSDOF 17
ENDMDL
MODEL 3
REMARK VINA RESULT:     -10.8      4.426      9.692
REMARK SMILES CSc1ccc(/C=C2\C(C)=C(CC(=O)OCCOCCOC(=O)c3ccc(-c4c5nc(c(-c6ccccc6)c6ccc([nH]6)c(-c6ccccc6)c6nc(c(-c7ccccc7)c7ccc4[nH]7)C=C6)C=C5)cc3)c3cc(F)ccc32)cc1
REMARK SMILES IDX 17 1 16 2 15 3 13 4 14 5 12 6 11 7 7 8 8 9 9 10 78 11 10 12
REMARK SMILES IDX 72 13 77 14 73 15 76 16 74 17 75 18 6 19 3 20 4 21 80 22
REMARK SMILES IDX 5 23 79 24 2 25 1 26 18 27 19 28 20 29 21 30 22 31 23 32
REMARK SMILES IDX 24 33 25 34 71 35 26 36 70 37 27 38 28 39 29 40 64 41 30 42
REMARK SMILES IDX 69 43 63 44 65 45 31 46 68 47 62 48 61 49 32 51 54 52 39 53
REMARK SMILES IDX 53 54 40 55 43 56 52 57 66 58 41 59 42 60 51 62 67 63 44 64
REMARK SMILES IDX 33 65 34 66 38 67 35 68 37 69 36 70 55 71 56 72 60 73 57 74
REMARK SMILES IDX 59 75 58 76 45 77 46 78 50 79 47 80 49 81 48 82
REMARK H PARENT 65 50 43 61
REMARK Flexibility Score: inf
ROOT
ATOM      1  C   UNL A   1      33.796  32.833  28.182  1.00  0.00     0.202 C 
ENDROOT
BRANCH   1   2
ATOM      2  C   UNL A   1      34.502  31.491  27.968  1.00  0.00     0.261 C 
BRANCH   2   3
ATOM      3  O   UNL A   1      33.641  30.539  27.318  1.00  0.00    -0.463 OA
BRANCH   3   4
ATOM      4  C   UNL A   1      34.116  29.266  27.233  1.00  0.00     0.310 C 
ATOM      5  O   UNL A   1      35.301  28.953  27.244  1.00  0.00    -0.252 OA
BRANCH   4   6
ATOM      6  C   UNL A   1      33.004  28.251  27.080  1.00  0.00     0.159 C 
BRANCH   6   7
ATOM      7  C   UNL A   1      32.771  27.842  25.645  1.00  0.00    -0.025 C 
ATOM      8  C   UNL A   1      31.315  24.783  25.918  1.00  0.00     0.017 C 
ATOM      9  C   UNL A   1      31.672  25.937  25.341  1.00  0.00    -0.014 C 
ATOM     10  C   UNL A   1      33.003  26.561  25.225  1.00  0.00    -0.039 C 
ATOM     11  C   UNL A   1      30.736  26.960  24.876  1.00  0.00    -0.010 A 
ATOM     12  C   UNL A   1      33.536  26.385  23.801  1.00  0.00     0.045 C 
ATOM     13  C   UNL A   1      31.414  28.165  25.096  1.00  0.00    -0.011 A 
ATOM     14  C   UNL A   1      29.773  26.838  23.880  1.00  0.00     0.012 A 
ATOM     15  C   UNL A   1      31.028  29.324  24.446  1.00  0.00     0.048 A 
ATOM     16  C   UNL A   1      29.473  27.976  23.129  1.00  0.00     0.040 A 
ATOM     17  C   UNL A   1      30.079  29.202  23.434  1.00  0.00     0.123 A 
ATOM     18  F   UNL A   1      29.839  30.258  22.644  1.00  0.00    -0.207 F 
BRANCH   8  19
ATOM     19  C   UNL A   1      32.054  23.497  25.946  1.00  0.00    -0.025 A 
ATOM     20  C   UNL A   1      34.506  22.407  25.197  1.00  0.00     0.007 A 
ATOM     21  C   UNL A   1      34.317  22.849  26.502  1.00  0.00     0.015 A 
ATOM     22  C   UNL A   1      33.403  22.280  24.349  1.00  0.00     0.015 A 
ATOM     23  C   UNL A   1      33.076  23.344  26.888  1.00  0.00     0.009 A 
ATOM     24  C   UNL A   1      32.167  22.814  24.729  1.00  0.00     0.009 A 
BRANCH  20  25
ATOM     25  S   UNL A   1      36.163  22.331  24.541  1.00  0.00    -0.130 SA
ATOM     26  C   UNL A   1      36.607  20.652  25.001  1.00  0.00     0.091 C 
ENDBRANCH  20  25
ENDBRANCH   8  19
ENDBRANCH   6   7
ENDBRANCH   4   6
ENDBRANCH   3   4
ENDBRANCH   2   3
ENDBRANCH   1   2
BRANCH   1  27
ATOM     27  O   UNL A   1      34.539  33.865  28.830  1.00  0.00    -0.374 OA
BRANCH  27  28
ATOM     28  C   UNL A   1      34.025  34.380  30.055  1.00  0.00     0.202 C 
BRANCH  28  29
ATOM     29  C   UNL A   1      34.636  33.838  31.351  1.00  0.00     0.261 C 
BRANCH  29  30
ATOM     30  O   UNL A   1      34.980  32.448  31.260  1.00  0.00    -0.460 OA
BRANCH  30  31
ATOM     31  C   UNL A   1      35.951  32.054  32.106  1.00  0.00     0.338 C 
ATOM     32  O   UNL A   1      36.004  32.228  33.322  1.00  0.00    -0.246 OA
BRANCH  31  33
ATOM     33  C   UNL A   1      36.915  31.206  31.397  1.00  0.00     0.060 A 
ATOM     34  C   UNL A   1      37.771  30.426  32.182  1.00  0.00     0.016 A 
ATOM     35  C   UNL A   1      37.042  31.240  30.006  1.00  0.00     0.016 A 
ATOM     36  C   UNL A   1      38.810  29.729  31.582  1.00  0.00     0.010 A 
ATOM     37  C   UNL A   1      38.083  30.534  29.403  1.00  0.00     0.010 A 
ATOM     38  C   UNL A   1      39.000  29.823  30.198  1.00  0.00    -0.014 A 
BRANCH  38  39
ATOM     39  C   UNL A   1      40.271  29.329  29.628  1.00  0.00     0.031 A 
ATOM     40  C   UNL A   1      41.457  30.252  29.602  1.00  0.00     0.074 A 
ATOM     41  C   UNL A   1      40.378  28.057  29.213  1.00  0.00     0.049 A 
ATOM     42  N   UNL A   1      42.683  30.017  29.212  1.00  0.00    -0.248 NA
ATOM     43  C   UNL A   1      41.227  31.626  30.074  1.00  0.00     0.031 C 
ATOM     44  C   UNL A   1      39.296  27.075  29.225  1.00  0.00     0.029 A 
ATOM     45  N   UNL A   1      41.453  27.375  28.709  1.00  0.00    -0.354 N 
ATOM     46  C   UNL A   1      43.367  31.214  29.386  1.00  0.00     0.074 A 
ATOM     47  C   UNL A   1      42.411  32.183  29.874  1.00  0.00     0.031 C 
ATOM     48  C   UNL A   1      39.763  25.908  28.751  1.00  0.00     0.029 A 
ATOM     49  C   UNL A   1      41.167  26.074  28.382  1.00  0.00     0.049 A 
ATOM     50  H   UNL A   1      42.343  27.778  28.594  1.00  0.00     0.167 HD
ATOM     51  C   UNL A   1      44.676  31.479  29.168  1.00  0.00     0.031 A 
ATOM     52  C   UNL A   1      41.952  25.127  27.834  1.00  0.00     0.031 A 
ATOM     53  C   UNL A   1      45.611  30.510  28.660  1.00  0.00     0.049 A 
ATOM     54  C   UNL A   1      43.393  25.451  27.556  1.00  0.00     0.074 A 
ATOM     55  C   UNL A   1      46.963  30.658  28.412  1.00  0.00     0.029 A 
ATOM     56  N   UNL A   1      45.277  29.208  28.310  1.00  0.00    -0.354 N 
ATOM     57  N   UNL A   1      44.041  26.575  27.758  1.00  0.00    -0.248 NA
ATOM     58  C   UNL A   1      44.215  24.373  26.991  1.00  0.00     0.031 C 
ATOM     59  C   UNL A   1      47.434  29.464  27.852  1.00  0.00     0.029 A 
ATOM     60  C   UNL A   1      46.391  28.550  27.817  1.00  0.00     0.049 A 
ATOM     61  H   UNL A   1      44.380  28.812  28.398  1.00  0.00     0.167 HD
ATOM     62  C   UNL A   1      45.351  26.336  27.367  1.00  0.00     0.074 A 
ATOM     63  C   UNL A   1      45.406  24.952  26.931  1.00  0.00     0.031 C 
ATOM     64  C   UNL A   1      46.414  27.179  27.370  1.00  0.00     0.031 A 
BRANCH  51  65
ATOM     65  C   UNL A   1      45.143  32.887  29.429  1.00  0.00    -0.014 A 
ATOM     66  C   UNL A   1      45.625  33.284  30.688  1.00  0.00     0.009 A 
ATOM     67  C   UNL A   1      45.072  33.842  28.403  1.00  0.00     0.009 A 
ATOM     68  C   UNL A   1      45.969  34.617  30.929  1.00  0.00     0.001 A 
ATOM     69  C   UNL A   1      45.450  35.166  28.636  1.00  0.00     0.001 A 
ATOM     70  C   UNL A   1      45.882  35.556  29.904  1.00  0.00     0.000 A 
ENDBRANCH  51  65
BRANCH  52  71
ATOM     71  C   UNL A   1      41.373  23.796  27.521  1.00  0.00    -0.014 A 
ATOM     72  C   UNL A   1      41.725  22.660  28.265  1.00  0.00     0.009 A 
ATOM     73  C   UNL A   1      40.417  23.668  26.500  1.00  0.00     0.009 A 
ATOM     74  C   UNL A   1      41.136  21.424  27.987  1.00  0.00     0.001 A 
ATOM     75  C   UNL A   1      39.810  22.437  26.244  1.00  0.00     0.001 A 
ATOM     76  C   UNL A   1      40.173  21.314  26.985  1.00  0.00     0.000 A 
ENDBRANCH  52  71
BRANCH  64  77
ATOM     77  C   UNL A   1      47.731  26.618  26.908  1.00  0.00    -0.014 A 
ATOM     78  C   UNL A   1      48.163  26.766  25.581  1.00  0.00     0.009 A 
ATOM     79  C   UNL A   1      48.566  25.963  27.826  1.00  0.00     0.009 A 
ATOM     80  C   UNL A   1      49.389  26.236  25.176  1.00  0.00     0.001 A 
ATOM     81  C   UNL A   1      49.805  25.464  27.427  1.00  0.00     0.001 A 
ATOM     82  C   UNL A   1      50.210  25.589  26.099  1.00  0.00     0.000 A 
ENDBRANCH  64  77
ENDBRANCH  38  39
ENDBRANCH  31  33
ENDBRANCH  30  31
ENDBRANCH  29  30
ENDBRANCH  28  29
ENDBRANCH  27  28
ENDBRANCH   1  27
TORSDOF 17
ENDMDL
