MODEL 1
REMARK VINA RESULT:     -10.7      0.000      0.000
REMARK SMILES O=C(Cn1cccc1C(=O)NCCC1CCCCC1)OCCOCCOC(=O)c1ccc(-c2c3nc(c(-c4ccccc4)c4ccc([nH]4)c(-c4ccccc4)c4nc(c(-c5ccccc5)c5ccc2[nH]5)C=C4)C=C3)cc1
REMARK SMILES IDX 21 1 20 2 2 3 1 4 3 5 4 6 5 7 8 8 6 9 7 10 9 11 10 12 11 13
REMARK SMILES IDX 12 15 13 16 14 17 15 18 19 19 16 20 18 21 17 22 22 23 23 24
REMARK SMILES IDX 24 25 25 26 26 27 27 28 28 29 29 30 30 31 76 32 31 33 75 34
REMARK SMILES IDX 32 35 33 36 34 37 69 38 35 39 74 40 68 41 70 42 36 43 73 44
REMARK SMILES IDX 67 45 66 46 37 48 59 49 44 50 58 51 45 52 48 53 57 54 71 55
REMARK SMILES IDX 46 56 47 57 56 59 72 60 49 61 38 62 39 63 43 64 40 65 42 66
REMARK SMILES IDX 41 67 60 68 61 69 65 70 62 71 64 72 63 73 50 74 51 75 55 76
REMARK SMILES IDX 52 77 54 78 53 79
REMARK H PARENT 11 14 70 47 48 58
REMARK Flexibility Score: inf
ROOT
ATOM      1  C   UNL A   1      32.800  28.799  26.941  1.00  0.00     0.261 C 
ENDROOT
BRANCH   1   2
ATOM      2  O   UNL A   1      31.579  28.163  26.557  1.00  0.00    -0.462 OA
BRANCH   2   3
ATOM      3  C   UNL A   1      31.327  27.882  25.251  1.00  0.00     0.326 C 
ATOM      4  O   UNL A   1      31.212  28.812  24.456  1.00  0.00    -0.250 OA
BRANCH   3   5
ATOM      5  C   UNL A   1      31.038  26.434  24.884  1.00  0.00     0.244 C 
BRANCH   5   6
ATOM      6  N   UNL A   1      32.253  25.660  24.798  1.00  0.00    -0.332 N 
ATOM      7  C   UNL A   1      33.276  26.138  23.998  1.00  0.00     0.087 A 
ATOM      8  C   UNL A   1      32.638  24.526  25.485  1.00  0.00     0.107 A 
ATOM      9  C   UNL A   1      34.351  25.311  24.135  1.00  0.00     0.020 A 
ATOM     10  C   UNL A   1      33.956  24.313  25.046  1.00  0.00     0.033 A 
BRANCH   8  11
ATOM     11  C   UNL A   1      32.035  23.628  26.476  1.00  0.00     0.267 C 
ATOM     12  O   UNL A   1      31.190  24.084  27.261  1.00  0.00    -0.268 OA
ATOM     13  N   UNL A   1      32.238  22.296  26.710  1.00  0.00    -0.351 N 
ATOM     14  H   UNL A   1      31.675  22.001  27.463  1.00  0.00     0.163 HD
BRANCH  13  15
ATOM     15  C   UNL A   1      33.010  21.179  26.208  1.00  0.00     0.116 C 
BRANCH  15  16
ATOM     16  C   UNL A   1      32.463  20.568  24.911  1.00  0.00     0.025 C 
BRANCH  16  17
ATOM     17  C   UNL A   1      32.894  19.137  24.531  1.00  0.00    -0.009 C 
ATOM     18  C   UNL A   1      32.447  18.704  23.131  1.00  0.00     0.003 C 
ATOM     19  C   UNL A   1      34.404  18.897  24.705  1.00  0.00     0.003 C 
ATOM     20  C   UNL A   1      32.800  17.243  22.859  1.00  0.00     0.000 C 
ATOM     21  C   UNL A   1      34.768  17.435  24.430  1.00  0.00     0.000 C 
ATOM     22  C   UNL A   1      34.290  16.979  23.054  1.00  0.00     0.000 C 
ENDBRANCH  16  17
ENDBRANCH  15  16
ENDBRANCH  13  15
ENDBRANCH   8  11
ENDBRANCH   5   6
ENDBRANCH   3   5
ENDBRANCH   2   3
ENDBRANCH   1   2
BRANCH   1  23
ATOM     23  C   UNL A   1      32.648  30.297  27.210  1.00  0.00     0.202 C 
BRANCH  23  24
ATOM     24  O   UNL A   1      33.835  31.092  27.172  1.00  0.00    -0.374 OA
BRANCH  24  25
ATOM     25  C   UNL A   1      33.992  32.135  28.140  1.00  0.00     0.202 C 
BRANCH  25  26
ATOM     26  C   UNL A   1      35.320  32.243  28.870  1.00  0.00     0.261 C 
BRANCH  26  27
ATOM     27  O   UNL A   1      36.203  31.216  28.461  1.00  0.00    -0.460 OA
BRANCH  27  28
ATOM     28  C   UNL A   1      36.798  30.613  29.501  1.00  0.00     0.338 C 
ATOM     29  O   UNL A   1      36.350  30.409  30.627  1.00  0.00    -0.246 OA
BRANCH  28  30
ATOM     30  C   UNL A   1      38.120  30.183  29.098  1.00  0.00     0.060 A 
ATOM     31  C   UNL A   1      38.370  30.079  27.725  1.00  0.00     0.016 A 
ATOM     32  C   UNL A   1      38.966  29.656  30.077  1.00  0.00     0.016 A 
ATOM     33  C   UNL A   1      39.415  29.288  27.316  1.00  0.00     0.010 A 
ATOM     34  C   UNL A   1      39.975  28.823  29.668  1.00  0.00     0.010 A 
ATOM     35  C   UNL A   1      40.151  28.613  28.294  1.00  0.00    -0.014 A 
BRANCH  35  36
ATOM     36  C   UNL A   1      41.165  27.659  27.860  1.00  0.00     0.031 A 
ATOM     37  C   UNL A   1      42.528  28.305  27.735  1.00  0.00     0.074 A 
ATOM     38  C   UNL A   1      40.707  26.393  27.650  1.00  0.00     0.049 A 
ATOM     39  N   UNL A   1      43.580  27.868  27.125  1.00  0.00    -0.248 NA
ATOM     40  C   UNL A   1      42.755  29.647  28.338  1.00  0.00     0.031 C 
ATOM     41  C   UNL A   1      39.297  25.974  27.825  1.00  0.00     0.029 A 
ATOM     42  N   UNL A   1      41.299  25.218  27.252  1.00  0.00    -0.354 N 
ATOM     43  C   UNL A   1      44.619  28.767  27.408  1.00  0.00     0.074 A 
ATOM     44  C   UNL A   1      44.037  29.889  28.079  1.00  0.00     0.031 C 
ATOM     45  C   UNL A   1      39.135  24.684  27.477  1.00  0.00     0.029 A 
ATOM     46  C   UNL A   1      40.413  24.130  27.080  1.00  0.00     0.049 A 
ATOM     47  H   UNL A   1      42.269  25.139  27.100  1.00  0.00     0.167 HD
ATOM     48  C   UNL A   1      45.928  28.478  27.188  1.00  0.00     0.031 A 
ATOM     49  C   UNL A   1      40.678  22.872  26.622  1.00  0.00     0.031 A 
ATOM     50  C   UNL A   1      46.076  27.243  26.495  1.00  0.00     0.049 A 
ATOM     51  C   UNL A   1      42.142  22.778  26.472  1.00  0.00     0.074 A 
ATOM     52  C   UNL A   1      45.801  26.866  25.204  1.00  0.00     0.029 A 
ATOM     53  N   UNL A   1      46.215  26.113  27.262  1.00  0.00    -0.354 N 
ATOM     54  N   UNL A   1      42.985  22.718  27.458  1.00  0.00    -0.248 NA
ATOM     55  C   UNL A   1      42.732  22.848  25.132  1.00  0.00     0.031 C 
ATOM     56  C   UNL A   1      45.364  25.525  25.317  1.00  0.00     0.029 A 
ATOM     57  C   UNL A   1      45.497  25.113  26.645  1.00  0.00     0.049 A 
ATOM     58  H   UNL A   1      46.730  26.033  28.097  1.00  0.00     0.167 HD
ATOM     59  C   UNL A   1      44.161  23.134  26.877  1.00  0.00     0.074 A 
ATOM     60  C   UNL A   1      44.022  22.894  25.459  1.00  0.00     0.031 C 
ATOM     61  C   UNL A   1      44.913  24.088  27.483  1.00  0.00     0.031 A 
BRANCH  48  62
ATOM     62  C   UNL A   1      47.133  29.151  27.760  1.00  0.00    -0.014 A 
ATOM     63  C   UNL A   1      47.978  29.847  26.873  1.00  0.00     0.009 A 
ATOM     64  C   UNL A   1      47.612  28.894  29.052  1.00  0.00     0.009 A 
ATOM     65  C   UNL A   1      49.276  30.207  27.238  1.00  0.00     0.001 A 
ATOM     66  C   UNL A   1      48.902  29.285  29.429  1.00  0.00     0.001 A 
ATOM     67  C   UNL A   1      49.742  29.915  28.515  1.00  0.00     0.000 A 
ENDBRANCH  48  62
BRANCH  49  68
ATOM     68  C   UNL A   1      39.866  21.676  26.211  1.00  0.00    -0.014 A 
ATOM     69  C   UNL A   1      38.570  21.711  25.685  1.00  0.00     0.009 A 
ATOM     70  C   UNL A   1      40.452  20.388  26.305  1.00  0.00     0.009 A 
ATOM     71  C   UNL A   1      37.937  20.544  25.216  1.00  0.00     0.001 A 
ATOM     72  C   UNL A   1      39.843  19.230  25.815  1.00  0.00     0.001 A 
ATOM     73  C   UNL A   1      38.581  19.311  25.256  1.00  0.00     0.000 A 
ENDBRANCH  49  68
BRANCH  61  74
ATOM     74  C   UNL A   1      44.660  24.239  28.974  1.00  0.00    -0.014 A 
ATOM     75  C   UNL A   1      44.642  23.116  29.812  1.00  0.00     0.009 A 
ATOM     76  C   UNL A   1      44.311  25.475  29.549  1.00  0.00     0.009 A 
ATOM     77  C   UNL A   1      44.269  23.221  31.159  1.00  0.00     0.001 A 
ATOM     78  C   UNL A   1      43.940  25.587  30.895  1.00  0.00     0.001 A 
ATOM     79  C   UNL A   1      43.914  24.455  31.700  1.00  0.00     0.000 A 
ENDBRANCH  61  74
ENDBRANCH  35  36
ENDBRANCH  28  30
ENDBRANCH  27  28
ENDBRANCH  26  27
ENDBRANCH  25  26
ENDBRANCH  24  25
ENDBRANCH  23  24
ENDBRANCH   1  23
TORSDOF 19
ENDMDL
MODEL 2
REMARK VINA RESULT:     -10.6      3.213      5.343
REMARK SMILES O=C(Cn1cccc1C(=O)NCCC1CCCCC1)OCCOCCOC(=O)c1ccc(-c2c3nc(c(-c4ccccc4)c4ccc([nH]4)c(-c4ccccc4)c4nc(c(-c5ccccc5)c5ccc2[nH]5)C=C4)C=C3)cc1
REMARK SMILES IDX 21 1 20 2 2 3 1 4 3 5 4 6 5 7 8 8 6 9 7 10 9 11 10 12 11 13
REMARK SMILES IDX 12 15 13 16 14 17 15 18 19 19 16 20 18 21 17 22 22 23 23 24
REMARK SMILES IDX 24 25 25 26 26 27 27 28 28 29 29 30 30 31 76 32 31 33 75 34
REMARK SMILES IDX 32 35 33 36 34 37 69 38 35 39 74 40 68 41 70 42 36 43 73 44
REMARK SMILES IDX 67 45 66 46 37 48 59 49 44 50 58 51 45 52 48 53 57 54 71 55
REMARK SMILES IDX 46 56 47 57 56 59 72 60 49 61 38 62 39 63 43 64 40 65 42 66
REMARK SMILES IDX 41 67 60 68 61 69 65 70 62 71 64 72 63 73 50 74 51 75 55 76
REMARK SMILES IDX 52 77 54 78 53 79
REMARK H PARENT 11 14 70 47 48 58
REMARK Flexibility Score: inf
ROOT
ATOM      1  C   UNL A   1      33.395  35.666  29.707  1.00  0.00     0.261 C 
ENDROOT
BRANCH   1   2
ATOM      2  O   UNL A   1      33.011  34.359  29.272  1.00  0.00    -0.462 OA
BRANCH   2   3
ATOM      3  C   UNL A   1      33.921  33.349  29.231  1.00  0.00     0.326 C 
ATOM      4  O   UNL A   1      34.145  32.713  30.258  1.00  0.00    -0.250 OA
BRANCH   3   5
ATOM      5  C   UNL A   1      34.725  33.176  27.952  1.00  0.00     0.244 C 
BRANCH   5   6
ATOM      6  N   UNL A   1      34.999  31.785  27.686  1.00  0.00    -0.332 N 
ATOM      7  C   UNL A   1      36.291  31.327  27.871  1.00  0.00     0.087 A 
ATOM      8  C   UNL A   1      34.139  30.753  27.363  1.00  0.00     0.107 A 
ATOM      9  C   UNL A   1      36.304  29.980  27.657  1.00  0.00     0.020 A 
ATOM     10  C   UNL A   1      34.980  29.627  27.336  1.00  0.00     0.033 A 
BRANCH   8  11
ATOM     11  C   UNL A   1      32.702  30.610  27.103  1.00  0.00     0.267 C 
ATOM     12  O   UNL A   1      32.068  31.591  26.688  1.00  0.00    -0.268 OA
ATOM     13  N   UNL A   1      31.878  29.527  27.236  1.00  0.00    -0.351 N 
ATOM     14  H   UNL A   1      30.959  29.776  26.985  1.00  0.00     0.163 HD
BRANCH  13  15
ATOM     15  C   UNL A   1      31.920  28.133  27.625  1.00  0.00     0.116 C 
BRANCH  15  16
ATOM     16  C   UNL A   1      31.264  27.179  26.618  1.00  0.00     0.025 C 
BRANCH  16  17
ATOM     17  C   UNL A   1      32.134  26.087  25.961  1.00  0.00    -0.009 C 
ATOM     18  C   UNL A   1      33.639  26.359  26.044  1.00  0.00     0.003 C 
ATOM     19  C   UNL A   1      31.819  24.673  26.481  1.00  0.00     0.003 C 
ATOM     20  C   UNL A   1      34.439  25.308  25.276  1.00  0.00     0.000 C 
ATOM     21  C   UNL A   1      32.621  23.613  25.720  1.00  0.00     0.000 C 
ATOM     22  C   UNL A   1      34.120  23.896  25.758  1.00  0.00     0.000 C 
ENDBRANCH  16  17
ENDBRANCH  15  16
ENDBRANCH  13  15
ENDBRANCH   8  11
ENDBRANCH   5   6
ENDBRANCH   3   5
ENDBRANCH   2   3
ENDBRANCH   1   2
BRANCH   1  23
ATOM     23  C   UNL A   1      32.805  36.054  31.064  1.00  0.00     0.202 C 
BRANCH  23  24
ATOM     24  O   UNL A   1      33.232  35.301  32.202  1.00  0.00    -0.374 OA
BRANCH  24  25
ATOM     25  C   UNL A   1      34.631  35.247  32.501  1.00  0.00     0.202 C 
BRANCH  25  26
ATOM     26  C   UNL A   1      35.077  34.436  33.706  1.00  0.00     0.261 C 
BRANCH  26  27
ATOM     27  O   UNL A   1      35.338  33.094  33.338  1.00  0.00    -0.460 OA
BRANCH  27  28
ATOM     28  C   UNL A   1      36.442  32.611  33.926  1.00  0.00     0.338 C 
ATOM     29  O   UNL A   1      36.882  32.857  35.048  1.00  0.00    -0.246 OA
BRANCH  28  30
ATOM     30  C   UNL A   1      37.086  31.684  33.022  1.00  0.00     0.060 A 
ATOM     31  C   UNL A   1      37.930  30.720  33.584  1.00  0.00     0.016 A 
ATOM     32  C   UNL A   1      37.040  31.962  31.653  1.00  0.00     0.016 A 
ATOM     33  C   UNL A   1      38.866  30.127  32.774  1.00  0.00     0.010 A 
ATOM     34  C   UNL A   1      38.010  31.411  30.856  1.00  0.00     0.010 A 
ATOM     35  C   UNL A   1      38.939  30.542  31.441  1.00  0.00    -0.014 A 
BRANCH  35  36
ATOM     36  C   UNL A   1      40.025  30.025  30.615  1.00  0.00     0.031 A 
ATOM     37  C   UNL A   1      41.168  31.010  30.507  1.00  0.00     0.074 A 
ATOM     38  C   UNL A   1      39.813  28.779  30.106  1.00  0.00     0.049 A 
ATOM     39  N   UNL A   1      42.146  31.029  29.662  1.00  0.00    -0.248 NA
ATOM     40  C   UNL A   1      41.222  32.168  31.443  1.00  0.00     0.031 C 
ATOM     41  C   UNL A   1      38.586  27.980  30.335  1.00  0.00     0.029 A 
ATOM     42  N   UNL A   1      40.548  27.937  29.306  1.00  0.00    -0.354 N 
ATOM     43  C   UNL A   1      43.006  32.065  30.057  1.00  0.00     0.074 A 
ATOM     44  C   UNL A   1      42.346  32.791  31.099  1.00  0.00     0.031 C 
ATOM     45  C   UNL A   1      38.635  26.823  29.647  1.00  0.00     0.029 A 
ATOM     46  C   UNL A   1      39.896  26.737  28.941  1.00  0.00     0.049 A 
ATOM     47  H   UNL A   1      41.463  28.153  29.010  1.00  0.00     0.167 HD
ATOM     48  C   UNL A   1      44.276  32.189  29.592  1.00  0.00     0.031 A 
ATOM     49  C   UNL A   1      40.324  25.749  28.103  1.00  0.00     0.031 A 
ATOM     50  C   UNL A   1      44.541  31.251  28.553  1.00  0.00     0.049 A 
ATOM     51  C   UNL A   1      41.715  26.077  27.740  1.00  0.00     0.074 A 
ATOM     52  C   UNL A   1      44.101  31.155  27.257  1.00  0.00     0.029 A 
ATOM     53  N   UNL A   1      45.066  30.039  28.930  1.00  0.00    -0.354 N 
ATOM     54  N   UNL A   1      42.731  25.990  28.544  1.00  0.00    -0.248 NA
ATOM     55  C   UNL A   1      41.998  26.634  26.413  1.00  0.00     0.031 C 
ATOM     56  C   UNL A   1      43.989  29.764  27.027  1.00  0.00     0.029 A 
ATOM     57  C   UNL A   1      44.467  29.078  28.146  1.00  0.00     0.049 A 
ATOM     58  H   UNL A   1      45.742  29.887  29.629  1.00  0.00     0.167 HD
ATOM     59  C   UNL A   1      43.652  26.829  27.962  1.00  0.00     0.074 A 
ATOM     60  C   UNL A   1      43.288  26.928  26.566  1.00  0.00     0.031 C 
ATOM     61  C   UNL A   1      44.291  27.760  28.716  1.00  0.00     0.031 A 
BRANCH  48  62
ATOM     62  C   UNL A   1      45.401  32.983  30.171  1.00  0.00    -0.014 A 
ATOM     63  C   UNL A   1      45.746  32.748  31.518  1.00  0.00     0.009 A 
ATOM     64  C   UNL A   1      45.932  34.123  29.552  1.00  0.00     0.009 A 
ATOM     65  C   UNL A   1      46.527  33.652  32.237  1.00  0.00     0.001 A 
ATOM     66  C   UNL A   1      46.745  35.012  30.264  1.00  0.00     0.001 A 
ATOM     67  C   UNL A   1      47.018  34.792  31.611  1.00  0.00     0.000 A 
ENDBRANCH  48  62
BRANCH  49  68
ATOM     68  C   UNL A   1      39.718  24.529  27.469  1.00  0.00    -0.014 A 
ATOM     69  C   UNL A   1      38.514  24.491  26.758  1.00  0.00     0.009 A 
ATOM     70  C   UNL A   1      40.425  23.301  27.539  1.00  0.00     0.009 A 
ATOM     71  C   UNL A   1      38.089  23.322  26.096  1.00  0.00     0.001 A 
ATOM     72  C   UNL A   1      40.025  22.146  26.862  1.00  0.00     0.001 A 
ATOM     73  C   UNL A   1      38.854  22.160  26.127  1.00  0.00     0.000 A 
ENDBRANCH  49  68
BRANCH  61  74
ATOM     74  C   UNL A   1      44.314  27.457  30.206  1.00  0.00    -0.014 A 
ATOM     75  C   UNL A   1      45.244  26.553  30.736  1.00  0.00     0.009 A 
ATOM     76  C   UNL A   1      43.337  27.963  31.082  1.00  0.00     0.009 A 
ATOM     77  C   UNL A   1      45.185  26.156  32.080  1.00  0.00     0.001 A 
ATOM     78  C   UNL A   1      43.275  27.572  32.426  1.00  0.00     0.001 A 
ATOM     79  C   UNL A   1      44.198  26.661  32.924  1.00  0.00     0.000 A 
ENDBRANCH  61  74
ENDBRANCH  35  36
ENDBRANCH  28  30
ENDBRANCH  27  28
ENDBRANCH  26  27
ENDBRANCH  25  26
ENDBRANCH  24  25
ENDBRANCH  23  24
ENDBRANCH   1  23
TORSDOF 19
ENDMDL
MODEL 3
REMARK VINA RESULT:     -10.4      2.162      2.842
REMARK SMILES O=C(Cn1cccc1C(=O)NCCC1CCCCC1)OCCOCCOC(=O)c1ccc(-c2c3nc(c(-c4ccccc4)c4ccc([nH]4)c(-c4ccccc4)c4nc(c(-c5ccccc5)c5ccc2[nH]5)C=C4)C=C3)cc1
REMARK SMILES IDX 21 1 20 2 2 3 1 4 3 5 4 6 5 7 8 8 6 9 7 10 9 11 10 12 11 13
REMARK SMILES IDX 12 15 13 16 14 17 15 18 19 19 16 20 18 21 17 22 22 23 23 24
REMARK SMILES IDX 24 25 25 26 26 27 27 28 28 29 29 30 30 31 76 32 31 33 75 34
REMARK SMILES IDX 32 35 33 36 34 37 69 38 35 39 74 40 68 41 70 42 36 43 73 44
REMARK SMILES IDX 67 45 66 46 37 48 59 49 44 50 58 51 45 52 48 53 57 54 71 55
REMARK SMILES IDX 46 56 47 57 56 59 72 60 49 61 38 62 39 63 43 64 40 65 42 66
REMARK SMILES IDX 41 67 60 68 61 69 65 70 62 71 64 72 63 73 50 74 51 75 55 76
REMARK SMILES IDX 52 77 54 78 53 79
REMARK H PARENT 11 14 70 47 48 58
REMARK Flexibility Score: inf
ROOT
ATOM      1  C   UNL A   1      32.743  30.178  26.774  1.00  0.00     0.261 C 
ENDROOT
BRANCH   1   2
ATOM      2  O   UNL A   1      33.344  29.798  25.534  1.00  0.00    -0.462 OA
BRANCH   2   3
ATOM      3  C   UNL A   1      33.669  28.500  25.292  1.00  0.00     0.326 C 
ATOM      4  O   UNL A   1      34.408  27.917  26.082  1.00  0.00    -0.250 OA
BRANCH   3   5
ATOM      5  C   UNL A   1      33.228  27.898  23.966  1.00  0.00     0.244 C 
BRANCH   5   6
ATOM      6  N   UNL A   1      31.817  27.596  23.969  1.00  0.00    -0.332 N 
ATOM      7  C   UNL A   1      31.089  27.872  22.826  1.00  0.00     0.087 A 
ATOM      8  C   UNL A   1      31.045  26.953  24.916  1.00  0.00     0.107 A 
ATOM      9  C   UNL A   1      29.813  27.426  23.011  1.00  0.00     0.020 A 
ATOM     10  C   UNL A   1      29.784  26.867  24.302  1.00  0.00     0.033 A 
BRANCH   8  11
ATOM     11  C   UNL A   1      31.256  26.389  26.254  1.00  0.00     0.267 C 
ATOM     12  O   UNL A   1      30.822  27.005  27.239  1.00  0.00    -0.268 OA
ATOM     13  N   UNL A   1      31.878  25.235  26.645  1.00  0.00    -0.351 N 
ATOM     14  H   UNL A   1      31.853  25.162  27.627  1.00  0.00     0.163 HD
BRANCH  13  15
ATOM     15  C   UNL A   1      32.558  24.088  26.083  1.00  0.00     0.116 C 
BRANCH  15  16
ATOM     16  C   UNL A   1      33.211  24.350  24.720  1.00  0.00     0.025 C 
BRANCH  16  17
ATOM     17  C   UNL A   1      34.721  24.074  24.560  1.00  0.00    -0.009 C 
ATOM     18  C   UNL A   1      35.423  23.687  25.865  1.00  0.00     0.003 C 
ATOM     19  C   UNL A   1      35.030  23.042  23.461  1.00  0.00     0.003 C 
ATOM     20  C   UNL A   1      36.931  23.543  25.665  1.00  0.00     0.000 C 
ATOM     21  C   UNL A   1      36.541  22.887  23.258  1.00  0.00     0.000 C 
ATOM     22  C   UNL A   1      37.258  22.543  24.560  1.00  0.00     0.000 C 
ENDBRANCH  16  17
ENDBRANCH  15  16
ENDBRANCH  13  15
ENDBRANCH   8  11
ENDBRANCH   5   6
ENDBRANCH   3   5
ENDBRANCH   2   3
ENDBRANCH   1   2
BRANCH   1  23
ATOM     23  C   UNL A   1      33.728  30.810  27.759  1.00  0.00     0.202 C 
BRANCH  23  24
ATOM     24  O   UNL A   1      34.461  31.952  27.309  1.00  0.00    -0.374 OA
BRANCH  24  25
ATOM     25  C   UNL A   1      35.567  32.408  28.095  1.00  0.00     0.202 C 
BRANCH  25  26
ATOM     26  C   UNL A   1      35.639  31.983  29.551  1.00  0.00     0.261 C 
BRANCH  26  27
ATOM     27  O   UNL A   1      36.942  31.540  29.881  1.00  0.00    -0.460 OA
BRANCH  27  28
ATOM     28  C   UNL A   1      37.136  30.251  29.564  1.00  0.00     0.338 C 
ATOM     29  O   UNL A   1      36.367  29.303  29.709  1.00  0.00    -0.246 OA
BRANCH  28  30
ATOM     30  C   UNL A   1      38.447  30.109  28.968  1.00  0.00     0.060 A 
ATOM     31  C   UNL A   1      38.503  29.754  27.616  1.00  0.00     0.016 A 
ATOM     32  C   UNL A   1      39.555  30.075  29.820  1.00  0.00     0.016 A 
ATOM     33  C   UNL A   1      39.664  29.199  27.140  1.00  0.00     0.010 A 
ATOM     34  C   UNL A   1      40.696  29.472  29.359  1.00  0.00     0.010 A 
ATOM     35  C   UNL A   1      40.715  28.997  28.041  1.00  0.00    -0.014 A 
BRANCH  35  36
ATOM     36  C   UNL A   1      41.894  28.276  27.577  1.00  0.00     0.031 A 
ATOM     37  C   UNL A   1      43.052  29.209  27.302  1.00  0.00     0.074 A 
ATOM     38  C   UNL A   1      41.737  26.926  27.477  1.00  0.00     0.049 A 
ATOM     39  N   UNL A   1      44.134  28.985  26.631  1.00  0.00    -0.248 NA
ATOM     40  C   UNL A   1      42.995  30.608  27.809  1.00  0.00     0.031 C 
ATOM     41  C   UNL A   1      40.481  26.205  27.794  1.00  0.00     0.029 A 
ATOM     42  N   UNL A   1      42.562  25.894  27.098  1.00  0.00    -0.354 N 
ATOM     43  C   UNL A   1      44.946  30.119  26.776  1.00  0.00     0.074 A 
ATOM     44  C   UNL A   1      44.163  31.122  27.429  1.00  0.00     0.031 C 
ATOM     45  C   UNL A   1      40.607  24.890  27.533  1.00  0.00     0.029 A 
ATOM     46  C   UNL A   1      41.950  24.621  27.062  1.00  0.00     0.049 A 
ATOM     47  H   UNL A   1      43.510  26.032  26.869  1.00  0.00     0.167 HD
ATOM     48  C   UNL A   1      46.268  30.127  26.464  1.00  0.00     0.031 A 
ATOM     49  C   UNL A   1      42.474  23.428  26.654  1.00  0.00     0.031 A 
ATOM     50  C   UNL A   1      46.658  28.912  25.830  1.00  0.00     0.049 A 
ATOM     51  C   UNL A   1      43.904  23.666  26.388  1.00  0.00     0.074 A 
ATOM     52  C   UNL A   1      46.393  28.387  24.591  1.00  0.00     0.029 A 
ATOM     53  N   UNL A   1      47.114  27.905  26.645  1.00  0.00    -0.354 N 
ATOM     54  N   UNL A   1      44.803  23.877  27.300  1.00  0.00    -0.248 NA
ATOM     55  C   UNL A   1      44.368  23.772  25.000  1.00  0.00     0.031 C 
ATOM     56  C   UNL A   1      46.295  26.994  24.814  1.00  0.00     0.029 A 
ATOM     57  C   UNL A   1      46.613  26.723  26.147  1.00  0.00     0.049 A 
ATOM     58  H   UNL A   1      47.689  28.009  27.437  1.00  0.00     0.167 HD
ATOM     59  C   UNL A   1      45.804  24.511  26.601  1.00  0.00     0.074 A 
ATOM     60  C   UNL A   1      45.629  24.140  25.215  1.00  0.00     0.031 C 
ATOM     61  C   UNL A   1      46.348  25.656  27.087  1.00  0.00     0.031 A 
BRANCH  48  62
ATOM     62  C   UNL A   1      47.315  31.101  26.894  1.00  0.00    -0.014 A 
ATOM     63  C   UNL A   1      47.138  32.454  26.541  1.00  0.00     0.009 A 
ATOM     64  C   UNL A   1      48.575  30.711  27.369  1.00  0.00     0.009 A 
ATOM     65  C   UNL A   1      48.196  33.363  26.590  1.00  0.00     0.001 A 
ATOM     66  C   UNL A   1      49.627  31.631  27.451  1.00  0.00     0.001 A 
ATOM     67  C   UNL A   1      49.445  32.947  27.035  1.00  0.00     0.000 A 
ENDBRANCH  48  62
BRANCH  49  68
ATOM     68  C   UNL A   1      41.943  22.050  26.379  1.00  0.00    -0.014 A 
ATOM     69  C   UNL A   1      42.712  20.887  26.264  1.00  0.00     0.009 A 
ATOM     70  C   UNL A   1      40.540  21.867  26.269  1.00  0.00     0.009 A 
ATOM     71  C   UNL A   1      42.112  19.620  26.126  1.00  0.00     0.001 A 
ATOM     72  C   UNL A   1      39.936  20.612  26.161  1.00  0.00     0.001 A 
ATOM     73  C   UNL A   1      40.727  19.480  26.101  1.00  0.00     0.000 A 
ENDBRANCH  49  68
BRANCH  61  74
ATOM     74  C   UNL A   1      46.169  25.854  28.584  1.00  0.00    -0.014 A 
ATOM     75  C   UNL A   1      47.203  25.536  29.474  1.00  0.00     0.009 A 
ATOM     76  C   UNL A   1      44.935  26.235  29.142  1.00  0.00     0.009 A 
ATOM     77  C   UNL A   1      47.005  25.577  30.861  1.00  0.00     0.001 A 
ATOM     78  C   UNL A   1      44.731  26.280  30.527  1.00  0.00     0.001 A 
ATOM     79  C   UNL A   1      45.768  25.943  31.388  1.00  0.00     0.000 A 
ENDBRANCH  61  74
ENDBRANCH  35  36
ENDBRANCH  28  30
ENDBRANCH  27  28
ENDBRANCH  26  27
ENDBRANCH  25  26
ENDBRANCH  24  25
ENDBRANCH  23  24
ENDBRANCH   1  23
TORSDOF 19
ENDMDL
