MODEL 1
REMARK VINA RESULT:     -11.0      0.000      0.000
REMARK SMILES O=C(OCCOCCOC(=O)[C@@H](Cc1c[nH]c2ccccc12)NC(=O)c1ccc(F)cc1F)c1ccc(-c2c3nc(c(-c4ccccc4)c4ccc([nH]4)c(-c4ccccc4)c4nc(c(-c5ccccc5)c5ccc2[nH]5)C=C4)C=C3)cc1
REMARK SMILES IDX 6 1 5 2 4 3 3 4 2 5 1 6 34 7 35 8 81 9 36 10 80 11 37 12
REMARK SMILES IDX 38 13 39 14 74 15 40 16 79 17 73 18 75 19 41 20 78 21 72 22
REMARK SMILES IDX 71 23 42 25 64 26 49 27 63 28 50 29 53 30 62 31 76 32 51 33
REMARK SMILES IDX 52 34 61 36 77 37 54 38 43 39 44 40 48 41 45 42 47 43 46 44
REMARK SMILES IDX 65 45 66 46 70 47 67 48 69 49 68 50 55 51 56 52 60 53 57 54
REMARK SMILES IDX 59 55 58 56 7 57 8 58 9 59 10 60 11 61 12 62 13 63 14 64
REMARK SMILES IDX 15 65 22 66 16 67 17 68 21 69 18 71 20 72 19 73 23 74 24 75
REMARK SMILES IDX 25 77 26 78 27 79 32 80 28 81 31 82 33 83 29 84 30 85
REMARK H PARENT 75 24 53 35 16 70 23 76
REMARK Flexibility Score: inf
ROOT
ATOM      1  O   UNL A   1      33.096  30.562  26.111  1.00  0.00    -0.374 OA
ENDROOT
BRANCH   1   2
ATOM      2  C   UNL A   1      32.077  30.875  27.062  1.00  0.00     0.202 C 
BRANCH   2   3
ATOM      3  C   UNL A   1      31.451  32.277  26.985  1.00  0.00     0.261 C 
BRANCH   3   4
ATOM      4  O   UNL A   1      32.456  33.311  26.985  1.00  0.00    -0.460 OA
BRANCH   4   5
ATOM      5  C   UNL A   1      33.055  33.890  28.055  1.00  0.00     0.338 C 
ATOM      6  O   UNL A   1      32.496  34.827  28.621  1.00  0.00    -0.246 OA
BRANCH   5   7
ATOM      7  C   UNL A   1      34.367  33.421  28.585  1.00  0.00     0.060 A 
ATOM      8  C   UNL A   1      35.588  33.883  28.110  1.00  0.00     0.016 A 
ATOM      9  C   UNL A   1      34.384  32.510  29.652  1.00  0.00     0.016 A 
ATOM     10  C   UNL A   1      36.786  33.398  28.568  1.00  0.00     0.010 A 
ATOM     11  C   UNL A   1      35.602  32.059  30.184  1.00  0.00     0.010 A 
ATOM     12  C   UNL A   1      36.805  32.496  29.621  1.00  0.00    -0.014 A 
BRANCH  12  13
ATOM     13  C   UNL A   1      38.140  31.998  29.974  1.00  0.00     0.031 A 
ATOM     14  C   UNL A   1      38.836  32.620  31.141  1.00  0.00     0.074 A 
ATOM     15  C   UNL A   1      38.538  30.824  29.446  1.00  0.00     0.049 A 
ATOM     16  N   UNL A   1      39.961  32.278  31.704  1.00  0.00    -0.248 NA
ATOM     17  C   UNL A   1      38.156  33.760  31.786  1.00  0.00     0.031 C 
ATOM     18  C   UNL A   1      37.793  30.060  28.434  1.00  0.00     0.029 A 
ATOM     19  N   UNL A   1      39.601  30.021  29.749  1.00  0.00    -0.354 N 
ATOM     20  C   UNL A   1      40.142  33.178  32.744  1.00  0.00     0.074 A 
ATOM     21  C   UNL A   1      39.011  34.075  32.747  1.00  0.00     0.031 C 
ATOM     22  C   UNL A   1      38.387  28.871  28.256  1.00  0.00     0.029 A 
ATOM     23  C   UNL A   1      39.599  28.829  29.063  1.00  0.00     0.049 A 
ATOM     24  H   UNL A   1      40.300  30.271  30.395  1.00  0.00     0.167 HD
ATOM     25  C   UNL A   1      41.180  33.248  33.607  1.00  0.00     0.031 A 
ATOM     26  C   UNL A   1      40.501  27.833  29.069  1.00  0.00     0.031 A 
ATOM     27  C   UNL A   1      42.296  32.346  33.560  1.00  0.00     0.049 A 
ATOM     28  C   UNL A   1      41.703  28.000  29.953  1.00  0.00     0.074 A 
ATOM     29  C   UNL A   1      43.480  32.387  34.269  1.00  0.00     0.029 A 
ATOM     30  N   UNL A   1      42.347  31.219  32.749  1.00  0.00    -0.354 N 
ATOM     31  N   UNL A   1      41.950  28.941  30.836  1.00  0.00    -0.248 NA
ATOM     32  C   UNL A   1      42.761  26.994  29.827  1.00  0.00     0.031 C 
ATOM     33  C   UNL A   1      44.265  31.303  33.857  1.00  0.00     0.029 A 
ATOM     34  C   UNL A   1      43.546  30.560  32.931  1.00  0.00     0.049 A 
ATOM     35  H   UNL A   1      41.633  30.933  32.134  1.00  0.00     0.167 HD
ATOM     36  C   UNL A   1      43.197  28.649  31.363  1.00  0.00     0.074 A 
ATOM     37  C   UNL A   1      43.632  27.415  30.733  1.00  0.00     0.031 C 
ATOM     38  C   UNL A   1      43.932  29.339  32.270  1.00  0.00     0.031 A 
BRANCH  25  39
ATOM     39  C   UNL A   1      41.176  34.394  34.574  1.00  0.00    -0.014 A 
ATOM     40  C   UNL A   1      41.759  35.630  34.255  1.00  0.00     0.009 A 
ATOM     41  C   UNL A   1      40.631  34.210  35.854  1.00  0.00     0.009 A 
ATOM     42  C   UNL A   1      41.824  36.648  35.212  1.00  0.00     0.001 A 
ATOM     43  C   UNL A   1      40.679  35.235  36.801  1.00  0.00     0.001 A 
ATOM     44  C   UNL A   1      41.284  36.448  36.482  1.00  0.00     0.000 A 
ENDBRANCH  25  39
BRANCH  26  45
ATOM     45  C   UNL A   1      40.359  26.674  28.145  1.00  0.00    -0.014 A 
ATOM     46  C   UNL A   1      40.931  26.680  26.865  1.00  0.00     0.009 A 
ATOM     47  C   UNL A   1      39.617  25.547  28.544  1.00  0.00     0.009 A 
ATOM     48  C   UNL A   1      40.745  25.595  26.001  1.00  0.00     0.001 A 
ATOM     49  C   UNL A   1      39.464  24.451  27.693  1.00  0.00     0.001 A 
ATOM     50  C   UNL A   1      40.018  24.481  26.417  1.00  0.00     0.000 A 
ENDBRANCH  26  45
BRANCH  38  51
ATOM     51  C   UNL A   1      45.265  28.755  32.623  1.00  0.00    -0.014 A 
ATOM     52  C   UNL A   1      45.387  27.807  33.650  1.00  0.00     0.009 A 
ATOM     53  C   UNL A   1      46.404  29.143  31.902  1.00  0.00     0.009 A 
ATOM     54  C   UNL A   1      46.638  27.282  33.973  1.00  0.00     0.001 A 
ATOM     55  C   UNL A   1      47.649  28.595  32.211  1.00  0.00     0.001 A 
ATOM     56  C   UNL A   1      47.765  27.674  33.251  1.00  0.00     0.000 A 
ENDBRANCH  38  51
ENDBRANCH  12  13
ENDBRANCH   5   7
ENDBRANCH   4   5
ENDBRANCH   3   4
ENDBRANCH   2   3
ENDBRANCH   1   2
BRANCH   1  57
ATOM     57  C   UNL A   1      32.811  29.497  25.195  1.00  0.00     0.202 C 
BRANCH  57  58
ATOM     58  C   UNL A   1      31.305  29.276  25.086  1.00  0.00     0.261 C 
BRANCH  58  59
ATOM     59  O   UNL A   1      31.070  27.862  25.054  1.00  0.00    -0.462 OA
BRANCH  59  60
ATOM     60  C   UNL A   1      31.333  27.200  26.203  1.00  0.00     0.329 C 
ATOM     61  O   UNL A   1      31.084  27.627  27.328  1.00  0.00    -0.250 OA
BRANCH  60  62
ATOM     62  C   UNL A   1      32.077  25.881  25.973  1.00  0.00     0.197 C 
BRANCH  62  63
ATOM     63  C   UNL A   1      33.617  25.834  25.825  1.00  0.00     0.074 C 
BRANCH  63  64
ATOM     64  C   UNL A   1      34.212  24.961  24.762  1.00  0.00    -0.020 A 
ATOM     65  C   UNL A   1      33.883  24.951  23.417  1.00  0.00     0.087 A 
ATOM     66  C   UNL A   1      35.222  23.965  24.931  1.00  0.00     0.003 A 
ATOM     67  N   UNL A   1      34.765  24.139  22.757  1.00  0.00    -0.361 N 
ATOM     68  C   UNL A   1      35.598  23.528  23.660  1.00  0.00     0.046 A 
ATOM     69  C   UNL A   1      35.875  23.416  26.050  1.00  0.00     0.010 A 
ATOM     70  H   UNL A   1      34.797  24.014  21.781  1.00  0.00     0.166 HD
ATOM     71  C   UNL A   1      36.644  22.624  23.449  1.00  0.00     0.026 A 
ATOM     72  C   UNL A   1      36.916  22.505  25.859  1.00  0.00     0.001 A 
ATOM     73  C   UNL A   1      37.303  22.128  24.576  1.00  0.00     0.002 A 
ENDBRANCH  63  64
ENDBRANCH  62  63
BRANCH  62  74
ATOM     74  N   UNL A   1      31.557  24.909  26.937  1.00  0.00    -0.338 N 
ATOM     75  C   UNL A   1      31.159  23.615  26.730  1.00  0.00     0.254 C 
ATOM     76  H   UNL A   1      31.485  25.230  27.864  1.00  0.00     0.164 HD
ATOM     77  O   UNL A   1      30.575  23.009  27.627  1.00  0.00    -0.269 OA
BRANCH  75  78
ATOM     78  C   UNL A   1      31.449  22.938  25.455  1.00  0.00     0.075 A 
ATOM     79  C   UNL A   1      30.837  23.352  24.261  1.00  0.00     0.020 A 
ATOM     80  C   UNL A   1      32.379  21.897  25.433  1.00  0.00     0.138 A 
ATOM     81  C   UNL A   1      31.121  22.680  23.071  1.00  0.00     0.040 A 
ATOM     82  C   UNL A   1      32.680  21.241  24.243  1.00  0.00     0.079 A 
ATOM     83  F   UNL A   1      32.988  21.491  26.555  1.00  0.00    -0.206 F 
ATOM     84  C   UNL A   1      32.040  21.634  23.075  1.00  0.00     0.126 A 
ATOM     85  F   UNL A   1      32.312  20.998  21.928  1.00  0.00    -0.207 F 
ENDBRANCH  75  78
ENDBRANCH  62  74
ENDBRANCH  60  62
ENDBRANCH  59  60
ENDBRANCH  58  59
ENDBRANCH  57  58
ENDBRANCH   1  57
TORSDOF 18
ENDMDL
MODEL 2
REMARK VINA RESULT:     -10.9      3.730      8.786
REMARK SMILES O=C(OCCOCCOC(=O)[C@@H](Cc1c[nH]c2ccccc12)NC(=O)c1ccc(F)cc1F)c1ccc(-c2c3nc(c(-c4ccccc4)c4ccc([nH]4)c(-c4ccccc4)c4nc(c(-c5ccccc5)c5ccc2[nH]5)C=C4)C=C3)cc1
REMARK SMILES IDX 6 1 5 2 4 3 3 4 2 5 1 6 34 7 35 8 81 9 36 10 80 11 37 12
REMARK SMILES IDX 38 13 39 14 74 15 40 16 79 17 73 18 75 19 41 20 78 21 72 22
REMARK SMILES IDX 71 23 42 25 64 26 49 27 63 28 50 29 53 30 62 31 76 32 51 33
REMARK SMILES IDX 52 34 61 36 77 37 54 38 43 39 44 40 48 41 45 42 47 43 46 44
REMARK SMILES IDX 65 45 66 46 70 47 67 48 69 49 68 50 55 51 56 52 60 53 57 54
REMARK SMILES IDX 59 55 58 56 7 57 8 58 9 59 10 60 11 61 12 62 13 63 14 64
REMARK SMILES IDX 15 65 22 66 16 67 17 68 21 69 18 71 20 72 19 73 23 74 24 75
REMARK SMILES IDX 25 77 26 78 27 79 32 80 28 81 31 82 33 83 29 84 30 85
REMARK H PARENT 75 24 53 35 16 70 23 76
REMARK Flexibility Score: inf
ROOT
ATOM      1  O   UNL A   1      37.360  22.044  24.950  1.00  0.00    -0.374 OA
ENDROOT
BRANCH   1   2
ATOM      2  C   UNL A   1      38.333  21.318  25.702  1.00  0.00     0.202 C 
BRANCH   2   3
ATOM      3  C   UNL A   1      38.769  19.949  25.151  1.00  0.00     0.261 C 
BRANCH   3   4
ATOM      4  O   UNL A   1      39.785  19.341  25.973  1.00  0.00    -0.460 OA
BRANCH   4   5
ATOM      5  C   UNL A   1      41.099  19.672  26.055  1.00  0.00     0.338 C 
ATOM      6  O   UNL A   1      41.943  18.874  25.654  1.00  0.00    -0.246 OA
BRANCH   5   7
ATOM      7  C   UNL A   1      41.559  20.979  26.602  1.00  0.00     0.060 A 
ATOM      8  C   UNL A   1      41.642  21.247  27.963  1.00  0.00     0.016 A 
ATOM      9  C   UNL A   1      41.986  21.977  25.713  1.00  0.00     0.016 A 
ATOM     10  C   UNL A   1      42.013  22.474  28.449  1.00  0.00     0.010 A 
ATOM     11  C   UNL A   1      42.440  23.215  26.196  1.00  0.00     0.010 A 
ATOM     12  C   UNL A   1      42.432  23.463  27.572  1.00  0.00    -0.014 A 
BRANCH  12  13
ATOM     13  C   UNL A   1      42.736  24.753  28.205  1.00  0.00     0.031 A 
ATOM     14  C   UNL A   1      44.169  25.162  28.313  1.00  0.00     0.074 A 
ATOM     15  C   UNL A   1      41.726  25.629  28.372  1.00  0.00     0.049 A 
ATOM     16  N   UNL A   1      44.671  26.290  28.729  1.00  0.00    -0.248 NA
ATOM     17  C   UNL A   1      45.173  24.181  27.857  1.00  0.00     0.031 C 
ATOM     18  C   UNL A   1      40.311  25.347  28.090  1.00  0.00     0.029 A 
ATOM     19  N   UNL A   1      41.737  26.951  28.717  1.00  0.00    -0.354 N 
ATOM     20  C   UNL A   1      46.047  26.146  28.619  1.00  0.00     0.074 A 
ATOM     21  C   UNL A   1      46.305  24.828  28.087  1.00  0.00     0.031 C 
ATOM     22  C   UNL A   1      39.606  26.481  28.207  1.00  0.00     0.029 A 
ATOM     23  C   UNL A   1      40.496  27.540  28.663  1.00  0.00     0.049 A 
ATOM     24  H   UNL A   1      42.554  27.434  28.980  1.00  0.00     0.167 HD
ATOM     25  C   UNL A   1      47.003  27.041  28.953  1.00  0.00     0.031 A 
ATOM     26  C   UNL A   1      40.125  28.792  28.981  1.00  0.00     0.031 A 
ATOM     27  C   UNL A   1      46.704  28.335  29.495  1.00  0.00     0.049 A 
ATOM     28  C   UNL A   1      41.199  29.725  29.462  1.00  0.00     0.074 A 
ATOM     29  C   UNL A   1      47.564  29.283  30.014  1.00  0.00     0.029 A 
ATOM     30  N   UNL A   1      45.422  28.865  29.573  1.00  0.00    -0.354 N 
ATOM     31  N   UNL A   1      42.497  29.533  29.503  1.00  0.00    -0.248 NA
ATOM     32  C   UNL A   1      40.762  31.031  29.967  1.00  0.00     0.031 C 
ATOM     33  C   UNL A   1      46.795  30.373  30.441  1.00  0.00     0.029 A 
ATOM     34  C   UNL A   1      45.464  30.124  30.140  1.00  0.00     0.049 A 
ATOM     35  H   UNL A   1      44.603  28.410  29.269  1.00  0.00     0.167 HD
ATOM     36  C   UNL A   1      43.034  30.688  30.049  1.00  0.00     0.074 A 
ATOM     37  C   UNL A   1      41.921  31.592  30.278  1.00  0.00     0.031 C 
ATOM     38  C   UNL A   1      44.323  30.977  30.354  1.00  0.00     0.031 A 
BRANCH  25  39
ATOM     39  C   UNL A   1      48.426  26.583  28.832  1.00  0.00    -0.014 A 
ATOM     40  C   UNL A   1      49.177  26.812  27.669  1.00  0.00     0.009 A 
ATOM     41  C   UNL A   1      49.004  25.852  29.882  1.00  0.00     0.009 A 
ATOM     42  C   UNL A   1      50.469  26.289  27.549  1.00  0.00     0.001 A 
ATOM     43  C   UNL A   1      50.300  25.350  29.768  1.00  0.00     0.001 A 
ATOM     44  C   UNL A   1      51.028  25.559  28.598  1.00  0.00     0.000 A 
ENDBRANCH  25  39
BRANCH  26  45
ATOM     45  C   UNL A   1      38.689  29.186  28.963  1.00  0.00    -0.014 A 
ATOM     46  C   UNL A   1      37.867  29.019  30.087  1.00  0.00     0.009 A 
ATOM     47  C   UNL A   1      38.124  29.722  27.792  1.00  0.00     0.009 A 
ATOM     48  C   UNL A   1      36.510  29.357  30.029  1.00  0.00     0.001 A 
ATOM     49  C   UNL A   1      36.779  30.093  27.748  1.00  0.00     0.001 A 
ATOM     50  C   UNL A   1      35.969  29.898  28.864  1.00  0.00     0.000 A 
ENDBRANCH  26  45
BRANCH  38  51
ATOM     51  C   UNL A   1      44.574  32.326  30.955  1.00  0.00    -0.014 A 
ATOM     52  C   UNL A   1      44.623  32.497  32.347  1.00  0.00     0.009 A 
ATOM     53  C   UNL A   1      44.787  33.430  30.116  1.00  0.00     0.009 A 
ATOM     54  C   UNL A   1      44.846  33.761  32.890  1.00  0.00     0.001 A 
ATOM     55  C   UNL A   1      45.036  34.688  30.663  1.00  0.00     0.001 A 
ATOM     56  C   UNL A   1      45.056  34.853  32.047  1.00  0.00     0.000 A 
ENDBRANCH  38  51
ENDBRANCH  12  13
ENDBRANCH   5   7
ENDBRANCH   4   5
ENDBRANCH   3   4
ENDBRANCH   2   3
ENDBRANCH   1   2
BRANCH   1  57
ATOM     57  C   UNL A   1      35.991  21.868  25.336  1.00  0.00     0.202 C 
BRANCH  57  58
ATOM     58  C   UNL A   1      35.076  21.962  24.117  1.00  0.00     0.261 C 
BRANCH  58  59
ATOM     59  O   UNL A   1      34.044  22.910  24.416  1.00  0.00    -0.462 OA
BRANCH  59  60
ATOM     60  C   UNL A   1      33.530  23.569  23.353  1.00  0.00     0.329 C 
ATOM     61  O   UNL A   1      33.819  23.338  22.182  1.00  0.00    -0.250 OA
BRANCH  60  62
ATOM     62  C   UNL A   1      32.609  24.723  23.758  1.00  0.00     0.197 C 
BRANCH  62  63
ATOM     63  C   UNL A   1      31.633  25.375  22.749  1.00  0.00     0.074 C 
BRANCH  63  64
ATOM     64  C   UNL A   1      31.511  26.868  22.727  1.00  0.00    -0.020 A 
ATOM     65  C   UNL A   1      32.533  27.781  22.526  1.00  0.00     0.087 A 
ATOM     66  C   UNL A   1      30.323  27.638  22.920  1.00  0.00     0.003 A 
ATOM     67  N   UNL A   1      31.986  29.030  22.409  1.00  0.00    -0.361 N 
ATOM     68  C   UNL A   1      30.635  28.969  22.641  1.00  0.00     0.046 A 
ATOM     69  C   UNL A   1      28.999  27.319  23.277  1.00  0.00     0.010 A 
ATOM     70  H   UNL A   1      32.487  29.849  22.191  1.00  0.00     0.166 HD
ATOM     71  C   UNL A   1      29.675  29.986  22.630  1.00  0.00     0.026 A 
ATOM     72  C   UNL A   1      28.028  28.323  23.279  1.00  0.00     0.001 A 
ATOM     73  C   UNL A   1      28.361  29.633  22.946  1.00  0.00     0.002 A 
ENDBRANCH  63  64
ENDBRANCH  62  63
BRANCH  62  74
ATOM     74  N   UNL A   1      31.971  24.354  25.024  1.00  0.00    -0.338 N 
ATOM     75  C   UNL A   1      31.889  25.068  26.190  1.00  0.00     0.254 C 
ATOM     76  H   UNL A   1      31.541  23.469  25.039  1.00  0.00     0.164 HD
ATOM     77  O   UNL A   1      31.474  24.519  27.210  1.00  0.00    -0.269 OA
BRANCH  75  78
ATOM     78  C   UNL A   1      32.266  26.492  26.224  1.00  0.00     0.075 A 
ATOM     79  C   UNL A   1      31.298  27.490  26.418  1.00  0.00     0.020 A 
ATOM     80  C   UNL A   1      33.612  26.843  26.104  1.00  0.00     0.138 A 
ATOM     81  C   UNL A   1      31.684  28.832  26.431  1.00  0.00     0.040 A 
ATOM     82  C   UNL A   1      34.000  28.179  26.139  1.00  0.00     0.079 A 
ATOM     83  F   UNL A   1      34.556  25.909  25.932  1.00  0.00    -0.206 F 
ATOM     84  C   UNL A   1      33.030  29.161  26.293  1.00  0.00     0.126 A 
ATOM     85  F   UNL A   1      33.394  30.449  26.312  1.00  0.00    -0.207 F 
ENDBRANCH  75  78
ENDBRANCH  62  74
ENDBRANCH  60  62
ENDBRANCH  59  60
ENDBRANCH  58  59
ENDBRANCH  57  58
ENDBRANCH   1  57
TORSDOF 18
ENDMDL
MODEL 3
REMARK VINA RESULT:     -10.9      1.746      3.086
REMARK SMILES O=C(OCCOCCOC(=O)[C@@H](Cc1c[nH]c2ccccc12)NC(=O)c1ccc(F)cc1F)c1ccc(-c2c3nc(c(-c4ccccc4)c4ccc([nH]4)c(-c4ccccc4)c4nc(c(-c5ccccc5)c5ccc2[nH]5)C=C4)C=C3)cc1
REMARK SMILES IDX 6 1 5 2 4 3 3 4 2 5 1 6 34 7 35 8 81 9 36 10 80 11 37 12
REMARK SMILES IDX 38 13 39 14 74 15 40 16 79 17 73 18 75 19 41 20 78 21 72 22
REMARK SMILES IDX 71 23 42 25 64 26 49 27 63 28 50 29 53 30 62 31 76 32 51 33
REMARK SMILES IDX 52 34 61 36 77 37 54 38 43 39 44 40 48 41 45 42 47 43 46 44
REMARK SMILES IDX 65 45 66 46 70 47 67 48 69 49 68 50 55 51 56 52 60 53 57 54
REMARK SMILES IDX 59 55 58 56 7 57 8 58 9 59 10 60 11 61 12 62 13 63 14 64
REMARK SMILES IDX 15 65 22 66 16 67 17 68 21 69 18 71 20 72 19 73 23 74 24 75
REMARK SMILES IDX 25 77 26 78 27 79 32 80 28 81 31 82 33 83 29 84 30 85
REMARK H PARENT 75 24 53 35 16 70 23 76
REMARK Flexibility Score: inf
ROOT
ATOM      1  O   UNL A   1      32.909  30.336  25.872  1.00  0.00    -0.374 OA
ENDROOT
BRANCH   1   2
ATOM      2  C   UNL A   1      31.905  30.688  26.826  1.00  0.00     0.202 C 
BRANCH   2   3
ATOM      3  C   UNL A   1      31.360  32.125  26.774  1.00  0.00     0.261 C 
BRANCH   3   4
ATOM      4  O   UNL A   1      32.421  33.100  26.811  1.00  0.00    -0.460 OA
BRANCH   4   5
ATOM      5  C   UNL A   1      33.045  33.612  27.902  1.00  0.00     0.338 C 
ATOM      6  O   UNL A   1      32.522  34.544  28.508  1.00  0.00    -0.246 OA
BRANCH   5   7
ATOM      7  C   UNL A   1      34.340  33.074  28.404  1.00  0.00     0.060 A 
ATOM      8  C   UNL A   1      34.459  31.839  29.030  1.00  0.00     0.016 A 
ATOM      9  C   UNL A   1      35.514  33.814  28.193  1.00  0.00     0.016 A 
ATOM     10  C   UNL A   1      35.649  31.384  29.538  1.00  0.00     0.010 A 
ATOM     11  C   UNL A   1      36.752  33.329  28.640  1.00  0.00     0.010 A 
ATOM     12  C   UNL A   1      36.808  32.115  29.333  1.00  0.00    -0.014 A 
BRANCH  12  13
ATOM     13  C   UNL A   1      38.003  31.562  29.983  1.00  0.00     0.031 A 
ATOM     14  C   UNL A   1      38.184  31.806  31.446  1.00  0.00     0.074 A 
ATOM     15  C   UNL A   1      38.704  30.619  29.322  1.00  0.00     0.049 A 
ATOM     16  N   UNL A   1      39.092  31.332  32.251  1.00  0.00    -0.248 NA
ATOM     17  C   UNL A   1      37.186  32.674  32.100  1.00  0.00     0.031 C 
ATOM     18  C   UNL A   1      38.443  30.191  27.940  1.00  0.00     0.029 A 
ATOM     19  N   UNL A   1      39.700  29.785  29.744  1.00  0.00    -0.354 N 
ATOM     20  C   UNL A   1      38.798  31.867  33.497  1.00  0.00     0.074 A 
ATOM     21  C   UNL A   1      37.623  32.694  33.349  1.00  0.00     0.031 C 
ATOM     22  C   UNL A   1      39.213  29.130  27.657  1.00  0.00     0.029 A 
ATOM     23  C   UNL A   1      40.082  28.866  28.796  1.00  0.00     0.049 A 
ATOM     24  H   UNL A   1      40.106  29.838  30.639  1.00  0.00     0.167 HD
ATOM     25  C   UNL A   1      39.472  31.689  34.655  1.00  0.00     0.031 A 
ATOM     26  C   UNL A   1      41.053  27.937  28.841  1.00  0.00     0.031 A 
ATOM     27  C   UNL A   1      40.647  30.872  34.755  1.00  0.00     0.049 A 
ATOM     28  C   UNL A   1      41.860  27.849  30.105  1.00  0.00     0.074 A 
ATOM     29  C   UNL A   1      41.512  30.717  35.821  1.00  0.00     0.029 A 
ATOM     30  N   UNL A   1      41.112  30.054  33.733  1.00  0.00    -0.354 N 
ATOM     31  N   UNL A   1      41.674  28.474  31.244  1.00  0.00    -0.248 NA
ATOM     32  C   UNL A   1      43.022  26.955  30.085  1.00  0.00     0.031 C 
ATOM     33  C   UNL A   1      42.524  29.832  35.427  1.00  0.00     0.029 A 
ATOM     34  C   UNL A   1      42.257  29.397  34.136  1.00  0.00     0.049 A 
ATOM     35  H   UNL A   1      40.686  29.957  32.850  1.00  0.00     0.167 HD
ATOM     36  C   UNL A   1      42.702  28.060  32.075  1.00  0.00     0.074 A 
ATOM     37  C   UNL A   1      43.479  27.094  31.321  1.00  0.00     0.031 C 
ATOM     38  C   UNL A   1      42.997  28.451  33.340  1.00  0.00     0.031 A 
BRANCH  25  39
ATOM     39  C   UNL A   1      38.996  32.478  35.839  1.00  0.00    -0.014 A 
ATOM     40  C   UNL A   1      39.450  33.783  36.085  1.00  0.00     0.009 A 
ATOM     41  C   UNL A   1      38.124  31.876  36.759  1.00  0.00     0.009 A 
ATOM     42  C   UNL A   1      39.063  34.457  37.247  1.00  0.00     0.001 A 
ATOM     43  C   UNL A   1      37.723  32.559  37.908  1.00  0.00     0.001 A 
ATOM     44  C   UNL A   1      38.201  33.844  38.156  1.00  0.00     0.000 A 
ENDBRANCH  25  39
BRANCH  26  45
ATOM     45  C   UNL A   1      41.379  27.120  27.640  1.00  0.00    -0.014 A 
ATOM     46  C   UNL A   1      40.810  25.854  27.436  1.00  0.00     0.009 A 
ATOM     47  C   UNL A   1      42.292  27.606  26.687  1.00  0.00     0.009 A 
ATOM     48  C   UNL A   1      41.166  25.088  26.321  1.00  0.00     0.001 A 
ATOM     49  C   UNL A   1      42.619  26.856  25.557  1.00  0.00     0.001 A 
ATOM     50  C   UNL A   1      42.064  25.591  25.380  1.00  0.00     0.000 A 
ENDBRANCH  26  45
BRANCH  38  51
ATOM     51  C   UNL A   1      44.201  27.817  33.965  1.00  0.00    -0.014 A 
ATOM     52  C   UNL A   1      45.460  28.432  33.891  1.00  0.00     0.009 A 
ATOM     53  C   UNL A   1      44.066  26.603  34.654  1.00  0.00     0.009 A 
ATOM     54  C   UNL A   1      46.572  27.821  34.468  1.00  0.00     0.001 A 
ATOM     55  C   UNL A   1      45.176  26.009  35.253  1.00  0.00     0.001 A 
ATOM     56  C   UNL A   1      46.428  26.613  35.151  1.00  0.00     0.000 A 
ENDBRANCH  38  51
ENDBRANCH  12  13
ENDBRANCH   5   7
ENDBRANCH   4   5
ENDBRANCH   3   4
ENDBRANCH   2   3
ENDBRANCH   1   2
BRANCH   1  57
ATOM     57  C   UNL A   1      32.855  29.003  25.349  1.00  0.00     0.202 C 
BRANCH  57  58
ATOM     58  C   UNL A   1      31.769  28.195  26.055  1.00  0.00     0.261 C 
BRANCH  58  59
ATOM     59  O   UNL A   1      31.180  27.314  25.090  1.00  0.00    -0.462 OA
BRANCH  59  60
ATOM     60  C   UNL A   1      30.832  26.091  25.550  1.00  0.00     0.329 C 
ATOM     61  O   UNL A   1      29.990  25.886  26.421  1.00  0.00    -0.250 OA
BRANCH  60  62
ATOM     62  C   UNL A   1      31.676  24.966  24.944  1.00  0.00     0.197 C 
BRANCH  62  63
ATOM     63  C   UNL A   1      31.122  23.528  24.794  1.00  0.00     0.074 C 
BRANCH  63  64
ATOM     64  C   UNL A   1      31.949  22.383  25.293  1.00  0.00    -0.020 A 
ATOM     65  C   UNL A   1      32.580  22.290  26.523  1.00  0.00     0.087 A 
ATOM     66  C   UNL A   1      32.257  21.174  24.597  1.00  0.00     0.003 A 
ATOM     67  N   UNL A   1      33.086  21.026  26.659  1.00  0.00    -0.361 N 
ATOM     68  C   UNL A   1      32.897  20.322  25.497  1.00  0.00     0.046 A 
ATOM     69  C   UNL A   1      32.020  20.714  23.288  1.00  0.00     0.010 A 
ATOM     70  H   UNL A   1      33.520  20.674  27.471  1.00  0.00     0.166 HD
ATOM     71  C   UNL A   1      33.247  19.006  25.176  1.00  0.00     0.026 A 
ATOM     72  C   UNL A   1      32.371  19.406  22.947  1.00  0.00     0.001 A 
ATOM     73  C   UNL A   1      32.962  18.562  23.883  1.00  0.00     0.002 A 
ENDBRANCH  63  64
ENDBRANCH  62  63
BRANCH  62  74
ATOM     74  N   UNL A   1      32.283  25.484  23.716  1.00  0.00    -0.338 N 
ATOM     75  C   UNL A   1      33.575  25.369  23.276  1.00  0.00     0.254 C 
ATOM     76  H   UNL A   1      31.677  25.985  23.123  1.00  0.00     0.164 HD
ATOM     77  O   UNL A   1      33.947  26.029  22.306  1.00  0.00    -0.269 OA
BRANCH  75  78
ATOM     78  C   UNL A   1      34.510  24.442  23.935  1.00  0.00     0.075 A 
ATOM     79  C   UNL A   1      35.070  24.749  25.185  1.00  0.00     0.020 A 
ATOM     80  C   UNL A   1      34.807  23.224  23.321  1.00  0.00     0.138 A 
ATOM     81  C   UNL A   1      35.965  23.857  25.778  1.00  0.00     0.040 A 
ATOM     82  C   UNL A   1      35.682  22.323  23.921  1.00  0.00     0.079 A 
ATOM     83  F   UNL A   1      34.276  22.901  22.135  1.00  0.00    -0.206 F 
ATOM     84  C   UNL A   1      36.260  22.654  25.140  1.00  0.00     0.126 A 
ATOM     85  F   UNL A   1      37.115  21.800  25.718  1.00  0.00    -0.207 F 
ENDBRANCH  75  78
ENDBRANCH  62  74
ENDBRANCH  60  62
ENDBRANCH  59  60
ENDBRANCH  58  59
ENDBRANCH  57  58
ENDBRANCH   1  57
TORSDOF 18
ENDMDL
