MODEL 1
REMARK VINA RESULT:     -11.6      0.000      0.000
REMARK SMILES O=C(OCCOCCOC(=O)[C@H]1[C@H]2CC[C@H](CC2)[C@H]1C(=O)Nc1ccc(C(=O)N2CCCC2)cc1)c1ccc(-c2c3nc(c(-c4ccccc4)c4ccc([nH]4)c(-c4ccccc4)c4nc(c(-c5ccccc5)c5ccc2[nH]5)C=C4)C=C3)cc1
REMARK SMILES IDX 7 1 6 2 5 3 4 4 3 5 2 6 1 7 36 8 37 9 83 10 38 11 82 12
REMARK SMILES IDX 39 13 40 14 41 15 76 16 42 17 81 18 75 19 77 20 43 21 80 22
REMARK SMILES IDX 74 23 73 24 44 26 66 27 51 28 65 29 52 30 55 31 64 32 78 33
REMARK SMILES IDX 53 34 54 35 63 37 79 38 56 39 45 40 46 41 50 42 47 43 49 44
REMARK SMILES IDX 48 45 67 46 68 47 72 48 69 49 71 50 70 51 57 52 58 53 62 54
REMARK SMILES IDX 59 55 61 56 60 57 8 58 9 59 10 60 11 61 12 62 13 63 19 64
REMARK SMILES IDX 18 65 14 66 16 67 17 68 15 69 20 70 21 71 22 72 23 74 24 75
REMARK SMILES IDX 35 76 25 77 34 78 26 79 27 80 28 81 29 82 30 83 33 84 31 85
REMARK SMILES IDX 32 86
REMARK H PARENT 77 25 55 36 22 73
REMARK Flexibility Score: inf
ROOT
ATOM      1  C   UNL A   1      32.262  29.012  27.149  1.00  0.00     0.202 C 
ENDROOT
BRANCH   1   2
ATOM      2  O   UNL A   1      31.599  30.280  27.251  1.00  0.00    -0.374 OA
BRANCH   2   3
ATOM      3  C   UNL A   1      31.843  31.210  26.195  1.00  0.00     0.202 C 
BRANCH   3   4
ATOM      4  C   UNL A   1      31.605  32.694  26.528  1.00  0.00     0.261 C 
BRANCH   4   5
ATOM      5  O   UNL A   1      32.033  33.048  27.884  1.00  0.00    -0.460 OA
BRANCH   5   6
ATOM      6  C   UNL A   1      32.982  33.974  28.234  1.00  0.00     0.338 C 
ATOM      7  O   UNL A   1      32.751  35.155  28.375  1.00  0.00    -0.246 OA
BRANCH   6   8
ATOM      8  C   UNL A   1      34.335  33.423  28.393  1.00  0.00     0.060 A 
ATOM      9  C   UNL A   1      34.402  32.051  28.418  1.00  0.00     0.016 A 
ATOM     10  C   UNL A   1      35.453  34.186  28.704  1.00  0.00     0.016 A 
ATOM     11  C   UNL A   1      35.348  31.462  29.204  1.00  0.00     0.010 A 
ATOM     12  C   UNL A   1      36.580  33.531  29.211  1.00  0.00     0.010 A 
ATOM     13  C   UNL A   1      36.498  32.168  29.542  1.00  0.00    -0.014 A 
BRANCH  13  14
ATOM     14  C   UNL A   1      37.543  31.412  30.263  1.00  0.00     0.031 A 
ATOM     15  C   UNL A   1      37.641  31.513  31.754  1.00  0.00     0.074 A 
ATOM     16  C   UNL A   1      38.286  30.524  29.569  1.00  0.00     0.049 A 
ATOM     17  N   UNL A   1      38.589  31.076  32.534  1.00  0.00    -0.248 NA
ATOM     18  C   UNL A   1      36.551  32.207  32.466  1.00  0.00     0.031 C 
ATOM     19  C   UNL A   1      38.177  30.269  28.122  1.00  0.00     0.029 A 
ATOM     20  N   UNL A   1      39.217  29.609  29.976  1.00  0.00    -0.354 N 
ATOM     21  C   UNL A   1      38.271  31.535  33.805  1.00  0.00     0.074 A 
ATOM     22  C   UNL A   1      37.012  32.235  33.709  1.00  0.00     0.031 C 
ATOM     23  C   UNL A   1      38.879  29.178  27.802  1.00  0.00     0.029 A 
ATOM     24  C   UNL A   1      39.673  28.806  28.956  1.00  0.00     0.049 A 
ATOM     25  H   UNL A   1      39.530  29.533  30.906  1.00  0.00     0.167 HD
ATOM     26  C   UNL A   1      39.014  31.410  34.929  1.00  0.00     0.031 A 
ATOM     27  C   UNL A   1      40.702  27.944  28.921  1.00  0.00     0.031 A 
ATOM     28  C   UNL A   1      40.244  30.667  34.962  1.00  0.00     0.049 A 
ATOM     29  C   UNL A   1      41.537  27.864  30.160  1.00  0.00     0.074 A 
ATOM     30  C   UNL A   1      41.140  30.507  36.000  1.00  0.00     0.029 A 
ATOM     31  N   UNL A   1      40.736  29.936  33.886  1.00  0.00    -0.354 N 
ATOM     32  N   UNL A   1      41.322  28.420  31.329  1.00  0.00    -0.248 NA
ATOM     33  C   UNL A   1      42.787  27.109  30.060  1.00  0.00     0.031 C 
ATOM     34  C   UNL A   1      42.197  29.713  35.537  1.00  0.00     0.029 A 
ATOM     35  C   UNL A   1      41.935  29.342  34.225  1.00  0.00     0.049 A 
ATOM     36  H   UNL A   1      40.293  29.853  33.011  1.00  0.00     0.167 HD
ATOM     37  C   UNL A   1      42.429  28.117  32.099  1.00  0.00     0.074 A 
ATOM     38  C   UNL A   1      43.284  27.276  31.278  1.00  0.00     0.031 C 
ATOM     39  C   UNL A   1      42.736  28.517  33.356  1.00  0.00     0.031 A 
BRANCH  26  40
ATOM     40  C   UNL A   1      38.580  32.189  36.137  1.00  0.00    -0.014 A 
ATOM     41  C   UNL A   1      38.923  33.534  36.330  1.00  0.00     0.009 A 
ATOM     42  C   UNL A   1      37.812  31.538  37.118  1.00  0.00     0.009 A 
ATOM     43  C   UNL A   1      38.529  34.203  37.494  1.00  0.00     0.001 A 
ATOM     44  C   UNL A   1      37.404  32.214  38.270  1.00  0.00     0.001 A 
ATOM     45  C   UNL A   1      37.769  33.544  38.461  1.00  0.00     0.000 A 
ENDBRANCH  26  40
BRANCH  27  46
ATOM     46  C   UNL A   1      41.088  27.280  27.644  1.00  0.00    -0.014 A 
ATOM     47  C   UNL A   1      41.926  27.915  26.718  1.00  0.00     0.009 A 
ATOM     48  C   UNL A   1      40.637  25.977  27.357  1.00  0.00     0.009 A 
ATOM     49  C   UNL A   1      42.299  27.261  25.538  1.00  0.00     0.001 A 
ATOM     50  C   UNL A   1      41.047  25.310  26.201  1.00  0.00     0.001 A 
ATOM     51  C   UNL A   1      41.870  25.957  25.286  1.00  0.00     0.000 A 
ENDBRANCH  27  46
BRANCH  39  52
ATOM     52  C   UNL A   1      44.046  28.032  33.888  1.00  0.00    -0.014 A 
ATOM     53  C   UNL A   1      44.134  26.802  34.554  1.00  0.00     0.009 A 
ATOM     54  C   UNL A   1      45.198  28.807  33.698  1.00  0.00     0.009 A 
ATOM     55  C   UNL A   1      45.361  26.366  35.048  1.00  0.00     0.001 A 
ATOM     56  C   UNL A   1      46.426  28.355  34.173  1.00  0.00     0.001 A 
ATOM     57  C   UNL A   1      46.505  27.140  34.854  1.00  0.00     0.000 A 
ENDBRANCH  39  52
ENDBRANCH  13  14
ENDBRANCH   6   8
ENDBRANCH   5   6
ENDBRANCH   4   5
ENDBRANCH   3   4
ENDBRANCH   2   3
ENDBRANCH   1   2
BRANCH   1  58
ATOM     58  C   UNL A   1      31.403  27.832  27.588  1.00  0.00     0.261 C 
BRANCH  58  59
ATOM     59  O   UNL A   1      31.904  26.608  27.037  1.00  0.00    -0.463 OA
BRANCH  59  60
ATOM     60  C   UNL A   1      31.102  25.942  26.180  1.00  0.00     0.310 C 
ATOM     61  O   UNL A   1      30.021  26.340  25.768  1.00  0.00    -0.252 OA
BRANCH  60  62
ATOM     62  C   UNL A   1      31.653  24.576  25.850  1.00  0.00     0.115 C 
ATOM     63  C   UNL A   1      30.789  23.587  24.991  1.00  0.00     0.004 C 
ATOM     64  C   UNL A   1      33.144  24.365  25.582  1.00  0.00     0.096 C 
ATOM     65  C   UNL A   1      31.328  23.182  23.590  1.00  0.00     0.005 C 
ATOM     66  C   UNL A   1      30.897  22.255  25.756  1.00  0.00     0.005 C 
ATOM     67  C   UNL A   1      33.307  22.906  25.060  1.00  0.00     0.002 C 
ATOM     68  C   UNL A   1      32.814  22.825  23.620  1.00  0.00     0.005 C 
ATOM     69  C   UNL A   1      32.407  21.923  25.898  1.00  0.00     0.005 C 
BRANCH  64  70
ATOM     70  C   UNL A   1      34.106  25.435  24.974  1.00  0.00     0.228 C 
ATOM     71  O   UNL A   1      35.314  25.305  25.245  1.00  0.00    -0.274 OA
ATOM     72  N   UNL A   1      33.861  26.428  24.074  1.00  0.00    -0.326 N 
ATOM     73  H   UNL A   1      34.695  26.790  23.698  1.00  0.00     0.169 HD
BRANCH  72  74
ATOM     74  C   UNL A   1      32.735  27.070  23.543  1.00  0.00     0.041 A 
ATOM     75  C   UNL A   1      31.915  26.390  22.637  1.00  0.00     0.027 A 
ATOM     76  C   UNL A   1      32.379  28.351  23.877  1.00  0.00     0.027 A 
ATOM     77  C   UNL A   1      30.653  26.913  22.277  1.00  0.00     0.016 A 
ATOM     78  C   UNL A   1      31.127  28.875  23.541  1.00  0.00     0.016 A 
ATOM     79  C   UNL A   1      30.220  28.141  22.790  1.00  0.00     0.040 A 
BRANCH  79  80
ATOM     80  C   UNL A   1      28.765  28.504  22.784  1.00  0.00     0.253 C 
ATOM     81  O   UNL A   1      27.954  27.699  23.236  1.00  0.00    -0.269 OA
ATOM     82  N   UNL A   1      28.425  29.824  22.545  1.00  0.00    -0.339 N 
ATOM     83  C   UNL A   1      28.695  30.609  21.361  1.00  0.00     0.120 C 
ATOM     84  C   UNL A   1      27.649  30.588  23.501  1.00  0.00     0.120 C 
ATOM     85  C   UNL A   1      28.805  32.019  21.917  1.00  0.00     0.023 C 
ATOM     86  C   UNL A   1      27.736  32.035  23.012  1.00  0.00     0.023 C 
ENDBRANCH  79  80
ENDBRANCH  72  74
ENDBRANCH  64  70
ENDBRANCH  60  62
ENDBRANCH  59  60
ENDBRANCH  58  59
ENDBRANCH   1  58
TORSDOF 17
ENDMDL
MODEL 2
REMARK VINA RESULT:     -11.6      4.018      8.973
REMARK SMILES O=C(OCCOCCOC(=O)[C@H]1[C@H]2CC[C@H](CC2)[C@H]1C(=O)Nc1ccc(C(=O)N2CCCC2)cc1)c1ccc(-c2c3nc(c(-c4ccccc4)c4ccc([nH]4)c(-c4ccccc4)c4nc(c(-c5ccccc5)c5ccc2[nH]5)C=C4)C=C3)cc1
REMARK SMILES IDX 7 1 6 2 5 3 4 4 3 5 2 6 1 7 36 8 37 9 83 10 38 11 82 12
REMARK SMILES IDX 39 13 40 14 41 15 76 16 42 17 81 18 75 19 77 20 43 21 80 22
REMARK SMILES IDX 74 23 73 24 44 26 66 27 51 28 65 29 52 30 55 31 64 32 78 33
REMARK SMILES IDX 53 34 54 35 63 37 79 38 56 39 45 40 46 41 50 42 47 43 49 44
REMARK SMILES IDX 48 45 67 46 68 47 72 48 69 49 71 50 70 51 57 52 58 53 62 54
REMARK SMILES IDX 59 55 61 56 60 57 8 58 9 59 10 60 11 61 12 62 13 63 19 64
REMARK SMILES IDX 18 65 14 66 16 67 17 68 15 69 20 70 21 71 22 72 23 74 24 75
REMARK SMILES IDX 35 76 25 77 34 78 26 79 27 80 28 81 29 82 30 83 33 84 31 85
REMARK SMILES IDX 32 86
REMARK H PARENT 77 25 55 36 22 73
REMARK Flexibility Score: inf
ROOT
ATOM      1  C   UNL A   1      37.465  22.114  25.522  1.00  0.00     0.202 C 
ENDROOT
BRANCH   1   2
ATOM      2  O   UNL A   1      37.004  20.836  25.061  1.00  0.00    -0.374 OA
BRANCH   2   3
ATOM      3  C   UNL A   1      38.012  19.896  24.688  1.00  0.00     0.202 C 
BRANCH   3   4
ATOM      4  C   UNL A   1      38.844  19.299  25.838  1.00  0.00     0.261 C 
BRANCH   4   5
ATOM      5  O   UNL A   1      40.213  18.966  25.435  1.00  0.00    -0.460 OA
BRANCH   5   6
ATOM      6  C   UNL A   1      41.374  19.392  26.026  1.00  0.00     0.338 C 
ATOM      7  O   UNL A   1      42.396  18.742  26.052  1.00  0.00    -0.246 OA
BRANCH   6   8
ATOM      8  C   UNL A   1      41.276  20.708  26.673  1.00  0.00     0.060 A 
ATOM      9  C   UNL A   1      41.077  21.762  25.813  1.00  0.00     0.016 A 
ATOM     10  C   UNL A   1      41.561  20.939  28.012  1.00  0.00     0.016 A 
ATOM     11  C   UNL A   1      41.637  22.966  26.122  1.00  0.00     0.010 A 
ATOM     12  C   UNL A   1      41.815  22.254  28.416  1.00  0.00     0.010 A 
ATOM     13  C   UNL A   1      41.936  23.265  27.448  1.00  0.00    -0.014 A 
BRANCH  13  14
ATOM     14  C   UNL A   1      42.394  24.643  27.721  1.00  0.00     0.031 A 
ATOM     15  C   UNL A   1      43.830  25.008  27.501  1.00  0.00     0.074 A 
ATOM     16  C   UNL A   1      41.468  25.580  28.015  1.00  0.00     0.049 A 
ATOM     17  N   UNL A   1      44.451  26.099  27.852  1.00  0.00    -0.248 NA
ATOM     18  C   UNL A   1      44.690  24.023  26.819  1.00  0.00     0.031 C 
ATOM     19  C   UNL A   1      40.020  25.337  28.134  1.00  0.00     0.029 A 
ATOM     20  N   UNL A   1      41.572  26.932  28.186  1.00  0.00    -0.354 N 
ATOM     21  C   UNL A   1      45.786  25.890  27.538  1.00  0.00     0.074 A 
ATOM     22  C   UNL A   1      45.884  24.592  26.913  1.00  0.00     0.031 C 
ATOM     23  C   UNL A   1      39.371  26.504  28.197  1.00  0.00     0.029 A 
ATOM     24  C   UNL A   1      40.358  27.553  28.369  1.00  0.00     0.049 A 
ATOM     25  H   UNL A   1      42.430  27.414  28.178  1.00  0.00     0.167 HD
ATOM     26  C   UNL A   1      46.828  26.709  27.808  1.00  0.00     0.031 A 
ATOM     27  C   UNL A   1      40.070  28.807  28.753  1.00  0.00     0.031 A 
ATOM     28  C   UNL A   1      46.654  28.007  28.401  1.00  0.00     0.049 A 
ATOM     29  C   UNL A   1      41.239  29.676  29.094  1.00  0.00     0.074 A 
ATOM     30  C   UNL A   1      47.611  28.921  28.797  1.00  0.00     0.029 A 
ATOM     31  N   UNL A   1      45.414  28.578  28.665  1.00  0.00    -0.354 N 
ATOM     32  N   UNL A   1      42.518  29.425  28.938  1.00  0.00    -0.248 NA
ATOM     33  C   UNL A   1      40.939  30.960  29.728  1.00  0.00     0.031 C 
ATOM     34  C   UNL A   1      46.948  30.029  29.341  1.00  0.00     0.029 A 
ATOM     35  C   UNL A   1      45.578  29.823  29.241  1.00  0.00     0.049 A 
ATOM     36  H   UNL A   1      44.546  28.157  28.469  1.00  0.00     0.167 HD
ATOM     37  C   UNL A   1      43.183  30.503  29.492  1.00  0.00     0.074 A 
ATOM     38  C   UNL A   1      42.160  31.436  29.932  1.00  0.00     0.031 C 
ATOM     39  C   UNL A   1      44.513  30.699  29.656  1.00  0.00     0.031 A 
BRANCH  26  40
ATOM     40  C   UNL A   1      48.211  26.169  27.584  1.00  0.00    -0.014 A 
ATOM     41  C   UNL A   1      48.891  25.415  28.551  1.00  0.00     0.009 A 
ATOM     42  C   UNL A   1      48.853  26.444  26.364  1.00  0.00     0.009 A 
ATOM     43  C   UNL A   1      50.195  24.971  28.310  1.00  0.00     0.001 A 
ATOM     44  C   UNL A   1      50.148  25.983  26.119  1.00  0.00     0.001 A 
ATOM     45  C   UNL A   1      50.822  25.253  27.096  1.00  0.00     0.000 A 
ENDBRANCH  26  40
BRANCH  27  46
ATOM     46  C   UNL A   1      38.660  29.213  29.014  1.00  0.00    -0.014 A 
ATOM     47  C   UNL A   1      38.077  29.044  30.276  1.00  0.00     0.009 A 
ATOM     48  C   UNL A   1      37.892  29.808  27.994  1.00  0.00     0.009 A 
ATOM     49  C   UNL A   1      36.760  29.458  30.508  1.00  0.00     0.001 A 
ATOM     50  C   UNL A   1      36.595  30.262  28.240  1.00  0.00     0.001 A 
ATOM     51  C   UNL A   1      36.026  30.077  29.495  1.00  0.00     0.000 A 
ENDBRANCH  27  46
BRANCH  39  52
ATOM     52  C   UNL A   1      44.900  31.973  30.335  1.00  0.00    -0.014 A 
ATOM     53  C   UNL A   1      45.068  32.019  31.726  1.00  0.00     0.009 A 
ATOM     54  C   UNL A   1      45.116  33.126  29.568  1.00  0.00     0.009 A 
ATOM     55  C   UNL A   1      45.425  33.215  32.344  1.00  0.00     0.001 A 
ATOM     56  C   UNL A   1      45.496  34.313  30.189  1.00  0.00     0.001 A 
ATOM     57  C   UNL A   1      45.642  34.358  31.576  1.00  0.00     0.000 A 
ENDBRANCH  39  52
ENDBRANCH  13  14
ENDBRANCH   6   8
ENDBRANCH   5   6
ENDBRANCH   4   5
ENDBRANCH   3   4
ENDBRANCH   2   3
ENDBRANCH   1   2
BRANCH   1  58
ATOM     58  C   UNL A   1      37.399  23.209  24.464  1.00  0.00     0.261 C 
BRANCH  58  59
ATOM     59  O   UNL A   1      36.190  23.968  24.596  1.00  0.00    -0.463 OA
BRANCH  59  60
ATOM     60  C   UNL A   1      35.078  23.464  24.019  1.00  0.00     0.310 C 
ATOM     61  O   UNL A   1      34.861  23.423  22.816  1.00  0.00    -0.252 OA
BRANCH  60  62
ATOM     62  C   UNL A   1      34.066  23.029  25.050  1.00  0.00     0.115 C 
ATOM     63  C   UNL A   1      33.700  24.002  26.226  1.00  0.00     0.004 C 
ATOM     64  C   UNL A   1      32.862  22.167  24.666  1.00  0.00     0.096 C 
ATOM     65  C   UNL A   1      32.242  24.540  26.294  1.00  0.00     0.005 C 
ATOM     66  C   UNL A   1      33.752  23.100  27.472  1.00  0.00     0.005 C 
ATOM     67  C   UNL A   1      31.931  22.108  25.915  1.00  0.00     0.002 C 
ATOM     68  C   UNL A   1      31.206  23.440  26.069  1.00  0.00     0.005 C 
ATOM     69  C   UNL A   1      32.786  21.909  27.223  1.00  0.00     0.005 C 
BRANCH  64  70
ATOM     70  C   UNL A   1      32.157  22.181  23.272  1.00  0.00     0.228 C 
ATOM     71  O   UNL A   1      32.084  21.086  22.683  1.00  0.00    -0.274 OA
ATOM     72  N   UNL A   1      31.481  23.179  22.638  1.00  0.00    -0.326 N 
ATOM     73  H   UNL A   1      30.947  22.834  21.887  1.00  0.00     0.169 HD
BRANCH  72  74
ATOM     74  C   UNL A   1      31.347  24.567  22.773  1.00  0.00     0.041 A 
ATOM     75  C   UNL A   1      30.191  25.096  23.356  1.00  0.00     0.027 A 
ATOM     76  C   UNL A   1      32.310  25.453  22.365  1.00  0.00     0.027 A 
ATOM     77  C   UNL A   1      30.132  26.458  23.725  1.00  0.00     0.016 A 
ATOM     78  C   UNL A   1      32.271  26.800  22.738  1.00  0.00     0.016 A 
ATOM     79  C   UNL A   1      31.214  27.310  23.477  1.00  0.00     0.040 A 
BRANCH  79  80
ATOM     80  C   UNL A   1      31.359  28.603  24.224  1.00  0.00     0.253 C 
ATOM     81  O   UNL A   1      30.496  29.466  24.081  1.00  0.00    -0.269 OA
ATOM     82  N   UNL A   1      32.285  28.660  25.251  1.00  0.00    -0.339 N 
ATOM     83  C   UNL A   1      33.716  28.470  25.166  1.00  0.00     0.120 C 
ATOM     84  C   UNL A   1      31.893  29.007  26.601  1.00  0.00     0.120 C 
ATOM     85  C   UNL A   1      34.057  27.909  26.537  1.00  0.00     0.023 C 
ATOM     86  C   UNL A   1      33.116  28.684  27.462  1.00  0.00     0.023 C 
ENDBRANCH  79  80
ENDBRANCH  72  74
ENDBRANCH  64  70
ENDBRANCH  60  62
ENDBRANCH  59  60
ENDBRANCH  58  59
ENDBRANCH   1  58
TORSDOF 17
ENDMDL
MODEL 3
REMARK VINA RESULT:     -11.5      2.461      6.974
REMARK SMILES O=C(OCCOCCOC(=O)[C@H]1[C@H]2CC[C@H](CC2)[C@H]1C(=O)Nc1ccc(C(=O)N2CCCC2)cc1)c1ccc(-c2c3nc(c(-c4ccccc4)c4ccc([nH]4)c(-c4ccccc4)c4nc(c(-c5ccccc5)c5ccc2[nH]5)C=C4)C=C3)cc1
REMARK SMILES IDX 7 1 6 2 5 3 4 4 3 5 2 6 1 7 36 8 37 9 83 10 38 11 82 12
REMARK SMILES IDX 39 13 40 14 41 15 76 16 42 17 81 18 75 19 77 20 43 21 80 22
REMARK SMILES IDX 74 23 73 24 44 26 66 27 51 28 65 29 52 30 55 31 64 32 78 33
REMARK SMILES IDX 53 34 54 35 63 37 79 38 56 39 45 40 46 41 50 42 47 43 49 44
REMARK SMILES IDX 48 45 67 46 68 47 72 48 69 49 71 50 70 51 57 52 58 53 62 54
REMARK SMILES IDX 59 55 61 56 60 57 8 58 9 59 10 60 11 61 12 62 13 63 19 64
REMARK SMILES IDX 18 65 14 66 16 67 17 68 15 69 20 70 21 71 22 72 23 74 24 75
REMARK SMILES IDX 35 76 25 77 34 78 26 79 27 80 28 81 29 82 30 83 33 84 31 85
REMARK SMILES IDX 32 86
REMARK H PARENT 77 25 55 36 22 73
REMARK Flexibility Score: inf
ROOT
ATOM      1  C   UNL A   1      31.341  29.307  27.066  1.00  0.00     0.202 C 
ENDROOT
BRANCH   1   2
ATOM      2  O   UNL A   1      32.042  30.510  26.718  1.00  0.00    -0.374 OA
BRANCH   2   3
ATOM      3  C   UNL A   1      33.468  30.452  26.778  1.00  0.00     0.202 C 
BRANCH   3   4
ATOM      4  C   UNL A   1      34.154  31.499  27.674  1.00  0.00     0.261 C 
BRANCH   4   5
ATOM      5  O   UNL A   1      33.365  32.724  27.821  1.00  0.00    -0.460 OA
BRANCH   5   6
ATOM      6  C   UNL A   1      33.580  33.742  28.715  1.00  0.00     0.338 C 
ATOM      7  O   UNL A   1      32.876  34.724  28.800  1.00  0.00    -0.246 OA
BRANCH   6   8
ATOM      8  C   UNL A   1      34.773  33.566  29.555  1.00  0.00     0.060 A 
ATOM      9  C   UNL A   1      35.931  34.088  29.031  1.00  0.00     0.016 A 
ATOM     10  C   UNL A   1      34.812  32.768  30.690  1.00  0.00     0.016 A 
ATOM     11  C   UNL A   1      37.106  33.445  29.287  1.00  0.00     0.010 A 
ATOM     12  C   UNL A   1      36.063  32.367  31.172  1.00  0.00     0.010 A 
ATOM     13  C   UNL A   1      37.216  32.638  30.416  1.00  0.00    -0.014 A 
BRANCH  13  14
ATOM     14  C   UNL A   1      38.561  32.102  30.709  1.00  0.00     0.031 A 
ATOM     15  C   UNL A   1      39.082  30.931  29.934  1.00  0.00     0.074 A 
ATOM     16  C   UNL A   1      39.351  32.785  31.566  1.00  0.00     0.049 A 
ATOM     17  N   UNL A   1      40.146  30.216  30.166  1.00  0.00    -0.248 NA
ATOM     18  C   UNL A   1      38.306  30.488  28.760  1.00  0.00     0.031 C 
ATOM     19  C   UNL A   1      38.967  34.014  32.282  1.00  0.00     0.029 A 
ATOM     20  N   UNL A   1      40.658  32.610  31.927  1.00  0.00    -0.354 N 
ATOM     21  C   UNL A   1      40.110  29.179  29.244  1.00  0.00     0.074 A 
ATOM     22  C   UNL A   1      38.952  29.385  28.407  1.00  0.00     0.031 C 
ATOM     23  C   UNL A   1      40.045  34.556  32.856  1.00  0.00     0.029 A 
ATOM     24  C   UNL A   1      41.130  33.599  32.758  1.00  0.00     0.049 A 
ATOM     25  H   UNL A   1      41.206  31.852  31.621  1.00  0.00     0.167 HD
ATOM     26  C   UNL A   1      40.959  28.129  29.162  1.00  0.00     0.031 A 
ATOM     27  C   UNL A   1      42.271  33.673  33.462  1.00  0.00     0.031 A 
ATOM     28  C   UNL A   1      42.117  28.004  30.005  1.00  0.00     0.049 A 
ATOM     29  C   UNL A   1      43.166  32.477  33.393  1.00  0.00     0.074 A 
ATOM     30  C   UNL A   1      43.029  26.971  30.089  1.00  0.00     0.029 A 
ATOM     31  N   UNL A   1      42.524  28.979  30.909  1.00  0.00    -0.354 N 
ATOM     32  N   UNL A   1      43.057  31.417  32.627  1.00  0.00    -0.248 NA
ATOM     33  C   UNL A   1      44.292  32.446  34.328  1.00  0.00     0.031 C 
ATOM     34  C   UNL A   1      43.965  27.304  31.076  1.00  0.00     0.029 A 
ATOM     35  C   UNL A   1      43.661  28.564  31.574  1.00  0.00     0.049 A 
ATOM     36  H   UNL A   1      42.069  29.840  31.053  1.00  0.00     0.167 HD
ATOM     37  C   UNL A   1      44.079  30.568  33.013  1.00  0.00     0.074 A 
ATOM     38  C   UNL A   1      44.830  31.269  34.040  1.00  0.00     0.031 C 
ATOM     39  C   UNL A   1      44.358  29.313  32.588  1.00  0.00     0.031 A 
BRANCH  26  40
ATOM     40  C   UNL A   1      40.588  27.008  28.234  1.00  0.00    -0.014 A 
ATOM     41  C   UNL A   1      41.095  26.909  26.931  1.00  0.00     0.009 A 
ATOM     42  C   UNL A   1      39.686  26.029  28.687  1.00  0.00     0.009 A 
ATOM     43  C   UNL A   1      40.684  25.868  26.091  1.00  0.00     0.001 A 
ATOM     44  C   UNL A   1      39.292  24.981  27.853  1.00  0.00     0.001 A 
ATOM     45  C   UNL A   1      39.786  24.905  26.552  1.00  0.00     0.000 A 
ENDBRANCH  26  40
BRANCH  27  46
ATOM     46  C   UNL A   1      42.502  34.801  34.410  1.00  0.00    -0.014 A 
ATOM     47  C   UNL A   1      43.267  35.914  34.041  1.00  0.00     0.009 A 
ATOM     48  C   UNL A   1      41.925  34.778  35.694  1.00  0.00     0.009 A 
ATOM     49  C   UNL A   1      43.449  36.975  34.936  1.00  0.00     0.001 A 
ATOM     50  C   UNL A   1      42.069  35.857  36.568  1.00  0.00     0.001 A 
ATOM     51  C   UNL A   1      42.841  36.951  36.192  1.00  0.00     0.000 A 
ENDBRANCH  27  46
BRANCH  39  52
ATOM     52  C   UNL A   1      45.526  28.653  33.245  1.00  0.00    -0.014 A 
ATOM     53  C   UNL A   1      46.821  28.815  32.731  1.00  0.00     0.009 A 
ATOM     54  C   UNL A   1      45.325  27.881  34.398  1.00  0.00     0.009 A 
ATOM     55  C   UNL A   1      47.899  28.190  33.353  1.00  0.00     0.001 A 
ATOM     56  C   UNL A   1      46.410  27.278  35.029  1.00  0.00     0.001 A 
ATOM     57  C   UNL A   1      47.693  27.426  34.502  1.00  0.00     0.000 A 
ENDBRANCH  39  52
ENDBRANCH  13  14
ENDBRANCH   6   8
ENDBRANCH   5   6
ENDBRANCH   4   5
ENDBRANCH   3   4
ENDBRANCH   2   3
ENDBRANCH   1   2
BRANCH   1  58
ATOM     58  C   UNL A   1      32.257  28.143  27.424  1.00  0.00     0.261 C 
BRANCH  58  59
ATOM     59  O   UNL A   1      31.639  26.893  27.095  1.00  0.00    -0.463 OA
BRANCH  59  60
ATOM     60  C   UNL A   1      32.289  26.092  26.224  1.00  0.00     0.310 C 
ATOM     61  O   UNL A   1      32.789  25.010  26.495  1.00  0.00    -0.252 OA
BRANCH  60  62
ATOM     62  C   UNL A   1      32.416  26.736  24.865  1.00  0.00     0.115 C 
ATOM     63  C   UNL A   1      33.720  26.503  24.024  1.00  0.00     0.004 C 
ATOM     64  C   UNL A   1      31.203  26.902  23.948  1.00  0.00     0.096 C 
ATOM     65  C   UNL A   1      33.588  25.731  22.680  1.00  0.00     0.005 C 
ATOM     66  C   UNL A   1      34.090  27.914  23.531  1.00  0.00     0.005 C 
ATOM     67  C   UNL A   1      31.742  27.386  22.568  1.00  0.00     0.002 C 
ATOM     68  C   UNL A   1      32.403  26.218  21.846  1.00  0.00     0.005 C 
ATOM     69  C   UNL A   1      32.859  28.477  22.771  1.00  0.00     0.005 C 
BRANCH  64  70
ATOM     70  C   UNL A   1      29.965  25.950  23.918  1.00  0.00     0.228 C 
ATOM     71  O   UNL A   1      28.852  26.500  23.815  1.00  0.00    -0.274 OA
ATOM     72  N   UNL A   1      29.902  24.591  23.852  1.00  0.00    -0.326 N 
ATOM     73  H   UNL A   1      28.999  24.282  23.609  1.00  0.00     0.169 HD
BRANCH  72  74
ATOM     74  C   UNL A   1      30.782  23.518  24.039  1.00  0.00     0.041 A 
ATOM     75  C   UNL A   1      31.592  23.096  22.980  1.00  0.00     0.027 A 
ATOM     76  C   UNL A   1      30.903  22.850  25.231  1.00  0.00     0.027 A 
ATOM     77  C   UNL A   1      32.652  22.189  23.204  1.00  0.00     0.016 A 
ATOM     78  C   UNL A   1      31.956  21.964  25.470  1.00  0.00     0.016 A 
ATOM     79  C   UNL A   1      32.884  21.667  24.482  1.00  0.00     0.040 A 
BRANCH  79  80
ATOM     80  C   UNL A   1      34.215  21.074  24.837  1.00  0.00     0.253 C 
ATOM     81  O   UNL A   1      34.401  19.877  24.629  1.00  0.00    -0.269 OA
ATOM     82  N   UNL A   1      35.260  21.939  25.108  1.00  0.00    -0.339 N 
ATOM     83  C   UNL A   1      35.343  22.927  26.161  1.00  0.00     0.120 C 
ATOM     84  C   UNL A   1      36.494  21.891  24.351  1.00  0.00     0.120 C 
ATOM     85  C   UNL A   1      36.242  23.988  25.547  1.00  0.00     0.023 C 
ATOM     86  C   UNL A   1      37.253  23.157  24.754  1.00  0.00     0.023 C 
ENDBRANCH  79  80
ENDBRANCH  72  74
ENDBRANCH  64  70
ENDBRANCH  60  62
ENDBRANCH  59  60
ENDBRANCH  58  59
ENDBRANCH   1  58
TORSDOF 17
ENDMDL
