MODEL 1
REMARK VINA RESULT:     -11.5      0.000      0.000
REMARK SMILES O=C(OCCOCCOC(=O)c1ccc(-c2c3nc(c(-c4ccccc4)c4ccc([nH]4)c(-c4ccccc4)c4nc(c(-c5ccccc5)c5ccc2[nH]5)C=C4)C=C3)cc1)C1=Cc2cc(S(F)(F)(F)(F)F)ccc2O[C@@H]1C(F)(F)F
REMARK SMILES IDX 7 1 6 2 5 3 4 4 3 5 2 6 1 7 60 8 61 9 75 10 62 11 74 12
REMARK SMILES IDX 63 13 73 14 64 15 72 16 71 17 76 18 77 19 78 20 79 21 65 22
REMARK SMILES IDX 66 23 67 24 68 25 69 26 70 27 8 28 9 29 10 30 11 31 12 32
REMARK SMILES IDX 13 33 59 34 14 35 58 36 15 37 16 38 17 39 52 40 18 41 57 42
REMARK SMILES IDX 51 43 53 44 19 45 56 46 50 47 49 48 20 50 42 51 27 52 41 53
REMARK SMILES IDX 28 54 31 55 40 56 54 57 29 58 30 59 39 61 55 62 32 63 21 64
REMARK SMILES IDX 22 65 26 66 23 67 25 68 24 69 43 70 44 71 48 72 45 73 47 74
REMARK SMILES IDX 46 75 33 76 34 77 38 78 35 79 37 80 36 81
REMARK H PARENT 53 49 31 60
REMARK Flexibility Score: inf
ROOT
ATOM      1  C   UNL A   1      31.328  32.029  26.629  1.00  0.00     0.202 C 
ENDROOT
BRANCH   1   2
ATOM      2  O   UNL A   1      31.680  30.668  26.427  1.00  0.00    -0.374 OA
BRANCH   2   3
ATOM      3  C   UNL A   1      32.838  30.361  27.188  1.00  0.00     0.202 C 
BRANCH   3   4
ATOM      4  C   UNL A   1      33.554  29.173  26.566  1.00  0.00     0.261 C 
BRANCH   4   5
ATOM      5  O   UNL A   1      32.968  27.968  27.036  1.00  0.00    -0.460 OA
BRANCH   5   6
ATOM      6  C   UNL A   1      31.768  27.486  26.449  1.00  0.00     0.338 C 
ATOM      7  O   UNL A   1      30.776  27.188  27.185  1.00  0.00    -0.246 OA
BRANCH   6   8
ATOM      8  C   UNL A   1      31.672  27.325  24.940  1.00  0.00     0.087 C 
ATOM      9  C   UNL A   1      32.273  26.269  24.329  1.00  0.00     0.027 C 
ATOM     10  C   UNL A   1      30.904  28.346  24.115  1.00  0.00     0.316 C 
ATOM     11  C   UNL A   1      33.041  25.249  25.154  1.00  0.00     0.019 A 
ATOM     12  O   UNL A   1      31.351  25.261  26.826  1.00  0.00    -0.475 OA
ATOM     13  C   UNL A   1      34.290  24.887  24.680  1.00  0.00     0.036 A 
ATOM     14  C   UNL A   1      32.562  24.749  26.287  1.00  0.00     0.128 A 
ATOM     15  C   UNL A   1      34.846  23.760  25.332  1.00  0.00     0.107 A 
ATOM     16  C   UNL A   1      33.227  23.742  26.944  1.00  0.00     0.048 A 
ATOM     17  C   UNL A   1      34.439  23.294  26.498  1.00  0.00     0.028 A 
BRANCH  10  18
ATOM     18  C   UNL A   1      29.769  27.652  23.381  1.00  0.00     0.430 C 
ATOM     19  F   UNL A   1      29.299  26.658  24.128  1.00  0.00    -0.167 F 
ATOM     20  F   UNL A   1      28.796  28.527  23.143  1.00  0.00    -0.167 F 
ATOM     21  F   UNL A   1      30.219  27.165  22.227  1.00  0.00    -0.167 F 
ENDBRANCH  10  18
BRANCH  15  22
ATOM     22  S   UNL A   1      36.208  22.898  24.509  1.00  0.00     0.310 S 
ATOM     23  F   UNL A   1      36.027  23.758  23.189  1.00  0.00    -0.094 F 
ATOM     24  F   UNL A   1      35.166  21.881  23.906  1.00  0.00    -0.094 F 
ATOM     25  F   UNL A   1      37.379  22.164  23.797  1.00  0.00    -0.094 F 
ATOM     26  F   UNL A   1      37.216  24.006  25.006  1.00  0.00    -0.094 F 
ATOM     27  F   UNL A   1      35.015  23.719  25.144  1.00  0.00    -0.094 F 
ENDBRANCH  15  22
ENDBRANCH   6   8
ENDBRANCH   5   6
ENDBRANCH   4   5
ENDBRANCH   3   4
ENDBRANCH   2   3
ENDBRANCH   1   2
BRANCH   1  28
ATOM     28  C   UNL A   1      32.565  32.818  27.029  1.00  0.00     0.261 C 
BRANCH  28  29
ATOM     29  O   UNL A   1      32.173  33.992  27.727  1.00  0.00    -0.460 OA
BRANCH  29  30
ATOM     30  C   UNL A   1      33.049  34.574  28.681  1.00  0.00     0.338 C 
ATOM     31  O   UNL A   1      32.780  35.712  29.179  1.00  0.00    -0.246 OA
BRANCH  30  32
ATOM     32  C   UNL A   1      34.307  33.837  29.107  1.00  0.00     0.060 A 
ATOM     33  C   UNL A   1      35.448  34.144  28.384  1.00  0.00     0.016 A 
ATOM     34  C   UNL A   1      34.349  32.995  30.134  1.00  0.00     0.016 A 
ATOM     35  C   UNL A   1      36.541  33.283  28.643  1.00  0.00     0.010 A 
ATOM     36  C   UNL A   1      35.493  32.287  30.413  1.00  0.00     0.010 A 
ATOM     37  C   UNL A   1      36.640  32.497  29.700  1.00  0.00    -0.014 A 
BRANCH  37  38
ATOM     38  C   UNL A   1      37.961  31.859  30.102  1.00  0.00     0.031 A 
ATOM     39  C   UNL A   1      38.365  30.640  29.556  1.00  0.00     0.074 A 
ATOM     40  C   UNL A   1      38.669  32.546  31.072  1.00  0.00     0.049 A 
ATOM     41  N   UNL A   1      39.477  29.956  29.828  1.00  0.00    -0.248 NA
ATOM     42  C   UNL A   1      37.596  29.893  28.549  1.00  0.00     0.031 C 
ATOM     43  C   UNL A   1      38.273  33.781  31.623  1.00  0.00     0.029 A 
ATOM     44  N   UNL A   1      39.854  32.178  31.673  1.00  0.00    -0.354 N 
ATOM     45  C   UNL A   1      39.524  28.843  29.092  1.00  0.00     0.074 A 
ATOM     46  C   UNL A   1      38.312  28.784  28.264  1.00  0.00     0.031 C 
ATOM     47  C   UNL A   1      39.198  34.146  32.548  1.00  0.00     0.029 A 
ATOM     48  C   UNL A   1      40.188  33.148  32.592  1.00  0.00     0.049 A 
ATOM     49  H   UNL A   1      40.372  31.364  31.478  1.00  0.00     0.167 HD
ATOM     50  C   UNL A   1      40.532  27.877  29.079  1.00  0.00     0.031 A 
ATOM     51  C   UNL A   1      41.290  33.175  33.433  1.00  0.00     0.031 A 
ATOM     52  C   UNL A   1      41.655  27.927  29.888  1.00  0.00     0.049 A 
ATOM     53  C   UNL A   1      42.269  32.179  33.461  1.00  0.00     0.074 A 
ATOM     54  C   UNL A   1      42.685  26.965  29.881  1.00  0.00     0.029 A 
ATOM     55  N   UNL A   1      41.978  28.883  30.825  1.00  0.00    -0.354 N 
ATOM     56  N   UNL A   1      42.337  31.087  32.697  1.00  0.00    -0.248 NA
ATOM     57  C   UNL A   1      43.423  32.181  34.369  1.00  0.00     0.031 C 
ATOM     58  C   UNL A   1      43.610  27.332  30.808  1.00  0.00     0.029 A 
ATOM     59  C   UNL A   1      43.174  28.527  31.409  1.00  0.00     0.049 A 
ATOM     60  H   UNL A   1      41.446  29.682  31.041  1.00  0.00     0.167 HD
ATOM     61  C   UNL A   1      43.428  30.382  33.000  1.00  0.00     0.074 A 
ATOM     62  C   UNL A   1      44.139  31.071  34.085  1.00  0.00     0.031 C 
ATOM     63  C   UNL A   1      43.862  29.192  32.412  1.00  0.00     0.031 A 
BRANCH  50  64
ATOM     64  C   UNL A   1      40.390  26.705  28.121  1.00  0.00    -0.014 A 
ATOM     65  C   UNL A   1      41.006  26.724  26.880  1.00  0.00     0.009 A 
ATOM     66  C   UNL A   1      39.742  25.629  28.552  1.00  0.00     0.009 A 
ATOM     67  C   UNL A   1      40.636  25.649  26.040  1.00  0.00     0.001 A 
ATOM     68  C   UNL A   1      39.534  24.558  27.717  1.00  0.00     0.001 A 
ATOM     69  C   UNL A   1      40.064  24.533  26.457  1.00  0.00     0.000 A 
ENDBRANCH  50  64
BRANCH  51  70
ATOM     70  C   UNL A   1      41.441  34.355  34.378  1.00  0.00    -0.014 A 
ATOM     71  C   UNL A   1      40.815  34.337  35.615  1.00  0.00     0.009 A 
ATOM     72  C   UNL A   1      42.092  35.431  33.953  1.00  0.00     0.009 A 
ATOM     73  C   UNL A   1      40.686  35.613  36.211  1.00  0.00     0.001 A 
ATOM     74  C   UNL A   1      42.033  36.609  34.658  1.00  0.00     0.001 A 
ATOM     75  C   UNL A   1      41.381  36.679  35.857  1.00  0.00     0.000 A 
ENDBRANCH  51  70
BRANCH  63  76
ATOM     76  C   UNL A   1      45.169  28.589  32.902  1.00  0.00    -0.014 A 
ATOM     77  C   UNL A   1      45.083  27.677  33.940  1.00  0.00     0.009 A 
ATOM     78  C   UNL A   1      46.337  28.899  32.351  1.00  0.00     0.009 A 
ATOM     79  C   UNL A   1      46.331  27.357  34.526  1.00  0.00     0.001 A 
ATOM     80  C   UNL A   1      47.511  28.441  32.898  1.00  0.00     0.001 A 
ATOM     81  C   UNL A   1      47.504  27.583  33.962  1.00  0.00     0.000 A 
ENDBRANCH  63  76
ENDBRANCH  37  38
ENDBRANCH  30  32
ENDBRANCH  29  30
ENDBRANCH  28  29
ENDBRANCH   1  28
TORSDOF 16
ENDMDL
MODEL 2
REMARK VINA RESULT:     -11.4      4.134      8.951
REMARK SMILES O=C(OCCOCCOC(=O)c1ccc(-c2c3nc(c(-c4ccccc4)c4ccc([nH]4)c(-c4ccccc4)c4nc(c(-c5ccccc5)c5ccc2[nH]5)C=C4)C=C3)cc1)C1=Cc2cc(S(F)(F)(F)(F)F)ccc2O[C@@H]1C(F)(F)F
REMARK SMILES IDX 7 1 6 2 5 3 4 4 3 5 2 6 1 7 60 8 61 9 75 10 62 11 74 12
REMARK SMILES IDX 63 13 73 14 64 15 72 16 71 17 76 18 77 19 78 20 79 21 65 22
REMARK SMILES IDX 66 23 67 24 68 25 69 26 70 27 8 28 9 29 10 30 11 31 12 32
REMARK SMILES IDX 13 33 59 34 14 35 58 36 15 37 16 38 17 39 52 40 18 41 57 42
REMARK SMILES IDX 51 43 53 44 19 45 56 46 50 47 49 48 20 50 42 51 27 52 41 53
REMARK SMILES IDX 28 54 31 55 40 56 54 57 29 58 30 59 39 61 55 62 32 63 21 64
REMARK SMILES IDX 22 65 26 66 23 67 25 68 24 69 43 70 44 71 48 72 45 73 47 74
REMARK SMILES IDX 46 75 33 76 34 77 38 78 35 79 37 80 36 81
REMARK H PARENT 53 49 31 60
REMARK Flexibility Score: inf
ROOT
ATOM      1  C   UNL A   1      37.985  19.669  24.968  1.00  0.00     0.202 C 
ENDROOT
BRANCH   1   2
ATOM      2  O   UNL A   1      37.065  20.750  24.983  1.00  0.00    -0.374 OA
BRANCH   2   3
ATOM      3  C   UNL A   1      37.778  21.976  25.060  1.00  0.00     0.202 C 
BRANCH   3   4
ATOM      4  C   UNL A   1      36.857  23.067  25.582  1.00  0.00     0.261 C 
BRANCH   4   5
ATOM      5  O   UNL A   1      36.293  23.774  24.488  1.00  0.00    -0.460 OA
BRANCH   5   6
ATOM      6  C   UNL A   1      35.195  23.223  23.775  1.00  0.00     0.338 C 
ATOM      7  O   UNL A   1      35.265  23.077  22.515  1.00  0.00    -0.246 OA
BRANCH   6   8
ATOM      8  C   UNL A   1      33.937  22.809  24.520  1.00  0.00     0.087 C 
ATOM      9  C   UNL A   1      33.069  23.756  24.969  1.00  0.00     0.027 C 
ATOM     10  C   UNL A   1      33.649  21.336  24.766  1.00  0.00     0.316 C 
ATOM     11  C   UNL A   1      33.357  25.228  24.724  1.00  0.00     0.019 A 
ATOM     12  O   UNL A   1      34.070  24.767  22.503  1.00  0.00    -0.475 OA
ATOM     13  C   UNL A   1      33.201  26.075  25.808  1.00  0.00     0.036 A 
ATOM     14  C   UNL A   1      33.767  25.683  23.546  1.00  0.00     0.128 A 
ATOM     15  C   UNL A   1      33.229  27.450  25.469  1.00  0.00     0.107 A 
ATOM     16  C   UNL A   1      33.903  27.033  23.326  1.00  0.00     0.048 A 
ATOM     17  C   UNL A   1      33.707  27.932  24.337  1.00  0.00     0.028 A 
BRANCH  10  18
ATOM     18  C   UNL A   1      32.329  20.963  24.113  1.00  0.00     0.430 C 
ATOM     19  F   UNL A   1      32.308  19.655  23.873  1.00  0.00    -0.167 F 
ATOM     20  F   UNL A   1      31.326  21.281  24.926  1.00  0.00    -0.167 F 
ATOM     21  F   UNL A   1      32.198  21.625  22.967  1.00  0.00    -0.167 F 
ENDBRANCH  10  18
BRANCH  15  22
ATOM     22  S   UNL A   1      32.562  28.627  26.672  1.00  0.00     0.310 S 
ATOM     23  F   UNL A   1      31.953  27.461  27.557  1.00  0.00    -0.094 F 
ATOM     24  F   UNL A   1      31.204  28.634  25.872  1.00  0.00    -0.094 F 
ATOM     25  F   UNL A   1      31.988  29.632  27.710  1.00  0.00    -0.094 F 
ATOM     26  F   UNL A   1      33.877  28.498  27.535  1.00  0.00    -0.094 F 
ATOM     27  F   UNL A   1      33.115  27.519  25.688  1.00  0.00    -0.094 F 
ENDBRANCH  15  22
ENDBRANCH   6   8
ENDBRANCH   5   6
ENDBRANCH   4   5
ENDBRANCH   3   4
ENDBRANCH   2   3
ENDBRANCH   1   2
BRANCH   1  28
ATOM     28  C   UNL A   1      39.211  20.035  25.788  1.00  0.00     0.261 C 
BRANCH  28  29
ATOM     29  O   UNL A   1      40.243  19.088  25.546  1.00  0.00    -0.460 OA
BRANCH  29  30
ATOM     30  C   UNL A   1      41.575  19.374  25.945  1.00  0.00     0.338 C 
ATOM     31  O   UNL A   1      42.486  18.502  25.793  1.00  0.00    -0.246 OA
BRANCH  30  32
ATOM     32  C   UNL A   1      41.913  20.727  26.552  1.00  0.00     0.060 A 
ATOM     33  C   UNL A   1      42.246  21.718  25.643  1.00  0.00     0.016 A 
ATOM     34  C   UNL A   1      41.845  20.980  27.854  1.00  0.00     0.016 A 
ATOM     35  C   UNL A   1      42.776  22.887  26.238  1.00  0.00     0.010 A 
ATOM     36  C   UNL A   1      42.253  22.194  28.352  1.00  0.00     0.010 A 
ATOM     37  C   UNL A   1      42.651  23.200  27.515  1.00  0.00    -0.014 A 
BRANCH  37  38
ATOM     38  C   UNL A   1      42.935  24.603  28.027  1.00  0.00     0.031 A 
ATOM     39  C   UNL A   1      41.901  25.524  28.205  1.00  0.00     0.074 A 
ATOM     40  C   UNL A   1      44.273  24.891  28.233  1.00  0.00     0.049 A 
ATOM     41  N   UNL A   1      42.001  26.787  28.622  1.00  0.00    -0.248 NA
ATOM     42  C   UNL A   1      40.483  25.230  27.954  1.00  0.00     0.031 C 
ATOM     43  C   UNL A   1      45.321  23.964  28.064  1.00  0.00     0.029 A 
ATOM     44  N   UNL A   1      44.829  26.088  28.627  1.00  0.00    -0.354 N 
ATOM     45  C   UNL A   1      40.791  27.348  28.686  1.00  0.00     0.074 A 
ATOM     46  C   UNL A   1      39.798  26.356  28.251  1.00  0.00     0.031 C 
ATOM     47  C   UNL A   1      46.491  24.597  28.341  1.00  0.00     0.029 A 
ATOM     48  C   UNL A   1      46.196  25.928  28.688  1.00  0.00     0.049 A 
ATOM     49  H   UNL A   1      44.335  26.915  28.831  1.00  0.00     0.167 HD
ATOM     50  C   UNL A   1      40.478  28.646  29.091  1.00  0.00     0.031 A 
ATOM     51  C   UNL A   1      47.147  26.878  29.023  1.00  0.00     0.031 A 
ATOM     52  C   UNL A   1      41.426  29.584  29.468  1.00  0.00     0.049 A 
ATOM     53  C   UNL A   1      46.838  28.195  29.373  1.00  0.00     0.074 A 
ATOM     54  C   UNL A   1      41.126  30.895  29.886  1.00  0.00     0.029 A 
ATOM     55  N   UNL A   1      42.794  29.431  29.505  1.00  0.00    -0.354 N 
ATOM     56  N   UNL A   1      45.625  28.744  29.475  1.00  0.00    -0.248 NA
ATOM     57  C   UNL A   1      47.838  29.219  29.699  1.00  0.00     0.031 C 
ATOM     58  C   UNL A   1      42.298  31.527  30.163  1.00  0.00     0.029 A 
ATOM     59  C   UNL A   1      43.348  30.622  29.921  1.00  0.00     0.049 A 
ATOM     60  H   UNL A   1      43.291  28.614  29.274  1.00  0.00     0.167 HD
ATOM     61  C   UNL A   1      45.729  30.020  29.851  1.00  0.00     0.074 A 
ATOM     62  C   UNL A   1      47.154  30.346  29.994  1.00  0.00     0.031 C 
ATOM     63  C   UNL A   1      44.691  30.924  30.086  1.00  0.00     0.031 A 
BRANCH  50  64
ATOM     64  C   UNL A   1      39.014  29.055  29.121  1.00  0.00    -0.014 A 
ATOM     65  C   UNL A   1      38.271  28.946  30.285  1.00  0.00     0.009 A 
ATOM     66  C   UNL A   1      38.503  29.609  28.027  1.00  0.00     0.009 A 
ATOM     67  C   UNL A   1      36.890  29.195  30.110  1.00  0.00     0.001 A 
ATOM     68  C   UNL A   1      37.174  29.951  27.973  1.00  0.00     0.001 A 
ATOM     69  C   UNL A   1      36.367  29.817  29.068  1.00  0.00     0.000 A 
ENDBRANCH  50  64
BRANCH  51  70
ATOM     70  C   UNL A   1      48.609  26.465  29.010  1.00  0.00    -0.014 A 
ATOM     71  C   UNL A   1      49.222  26.049  30.181  1.00  0.00     0.009 A 
ATOM     72  C   UNL A   1      49.301  26.612  27.886  1.00  0.00     0.009 A 
ATOM     73  C   UNL A   1      50.635  26.091  30.135  1.00  0.00     0.001 A 
ATOM     74  C   UNL A   1      50.671  26.504  27.888  1.00  0.00     0.001 A 
ATOM     75  C   UNL A   1      51.347  26.155  29.024  1.00  0.00     0.000 A 
ENDBRANCH  51  70
BRANCH  63  76
ATOM     76  C   UNL A   1      45.057  32.325  30.549  1.00  0.00    -0.014 A 
ATOM     77  C   UNL A   1      45.170  32.520  31.915  1.00  0.00     0.009 A 
ATOM     78  C   UNL A   1      45.282  33.313  29.691  1.00  0.00     0.009 A 
ATOM     79  C   UNL A   1      45.245  33.881  32.295  1.00  0.00     0.001 A 
ATOM     80  C   UNL A   1      45.482  34.596  30.139  1.00  0.00     0.001 A 
ATOM     81  C   UNL A   1      45.546  34.872  31.476  1.00  0.00     0.000 A 
ENDBRANCH  63  76
ENDBRANCH  37  38
ENDBRANCH  30  32
ENDBRANCH  29  30
ENDBRANCH  28  29
ENDBRANCH   1  28
TORSDOF 16
ENDMDL
MODEL 3
REMARK VINA RESULT:     -11.4      0.480      5.743
REMARK SMILES O=C(OCCOCCOC(=O)c1ccc(-c2c3nc(c(-c4ccccc4)c4ccc([nH]4)c(-c4ccccc4)c4nc(c(-c5ccccc5)c5ccc2[nH]5)C=C4)C=C3)cc1)C1=Cc2cc(S(F)(F)(F)(F)F)ccc2O[C@@H]1C(F)(F)F
REMARK SMILES IDX 7 1 6 2 5 3 4 4 3 5 2 6 1 7 60 8 61 9 75 10 62 11 74 12
REMARK SMILES IDX 63 13 73 14 64 15 72 16 71 17 76 18 77 19 78 20 79 21 65 22
REMARK SMILES IDX 66 23 67 24 68 25 69 26 70 27 8 28 9 29 10 30 11 31 12 32
REMARK SMILES IDX 13 33 59 34 14 35 58 36 15 37 16 38 17 39 52 40 18 41 57 42
REMARK SMILES IDX 51 43 53 44 19 45 56 46 50 47 49 48 20 50 42 51 27 52 41 53
REMARK SMILES IDX 28 54 31 55 40 56 54 57 29 58 30 59 39 61 55 62 32 63 21 64
REMARK SMILES IDX 22 65 26 66 23 67 25 68 24 69 43 70 44 71 48 72 45 73 47 74
REMARK SMILES IDX 46 75 33 76 34 77 38 78 35 79 37 80 36 81
REMARK H PARENT 53 49 31 60
REMARK Flexibility Score: inf
ROOT
ATOM      1  C   UNL A   1      31.431  32.139  26.524  1.00  0.00     0.202 C 
ENDROOT
BRANCH   1   2
ATOM      2  O   UNL A   1      31.788  30.814  26.159  1.00  0.00    -0.374 OA
BRANCH   2   3
ATOM      3  C   UNL A   1      32.518  30.212  27.219  1.00  0.00     0.202 C 
BRANCH   3   4
ATOM      4  C   UNL A   1      33.398  29.104  26.663  1.00  0.00     0.261 C 
BRANCH   4   5
ATOM      5  O   UNL A   1      32.853  27.843  27.022  1.00  0.00    -0.460 OA
BRANCH   5   6
ATOM      6  C   UNL A   1      31.621  27.415  26.461  1.00  0.00     0.338 C 
ATOM      7  O   UNL A   1      30.652  27.100  27.221  1.00  0.00    -0.246 OA
BRANCH   6   8
ATOM      8  C   UNL A   1      31.461  27.333  24.952  1.00  0.00     0.087 C 
ATOM      9  C   UNL A   1      32.093  26.351  24.253  1.00  0.00     0.027 C 
ATOM     10  C   UNL A   1      30.597  28.349  24.222  1.00  0.00     0.316 C 
ATOM     11  C   UNL A   1      32.957  25.335  24.982  1.00  0.00     0.019 A 
ATOM     12  O   UNL A   1      31.352  25.151  26.726  1.00  0.00    -0.475 OA
ATOM     13  C   UNL A   1      34.202  25.077  24.432  1.00  0.00     0.036 A 
ATOM     14  C   UNL A   1      32.563  24.745  26.104  1.00  0.00     0.128 A 
ATOM     15  C   UNL A   1      34.852  23.951  24.992  1.00  0.00     0.107 A 
ATOM     16  C   UNL A   1      33.317  23.745  26.671  1.00  0.00     0.048 A 
ATOM     17  C   UNL A   1      34.530  23.397  26.146  1.00  0.00     0.028 A 
BRANCH  10  18
ATOM     18  C   UNL A   1      29.470  27.631  23.500  1.00  0.00     0.430 C 
ATOM     19  F   UNL A   1      29.932  27.104  22.370  1.00  0.00    -0.167 F 
ATOM     20  F   UNL A   1      28.992  26.663  24.278  1.00  0.00    -0.167 F 
ATOM     21  F   UNL A   1      28.499  28.496  23.221  1.00  0.00    -0.167 F 
ENDBRANCH  10  18
BRANCH  15  22
ATOM     22  S   UNL A   1      36.221  23.221  24.060  1.00  0.00     0.310 S 
ATOM     23  F   UNL A   1      36.138  21.871  24.888  1.00  0.00    -0.094 F 
ATOM     24  F   UNL A   1      37.219  23.751  25.158  1.00  0.00    -0.094 F 
ATOM     25  F   UNL A   1      37.395  22.586  23.262  1.00  0.00    -0.094 F 
ATOM     26  F   UNL A   1      35.195  22.578  23.046  1.00  0.00    -0.094 F 
ATOM     27  F   UNL A   1      35.011  23.762  24.920  1.00  0.00    -0.094 F 
ENDBRANCH  15  22
ENDBRANCH   6   8
ENDBRANCH   5   6
ENDBRANCH   4   5
ENDBRANCH   3   4
ENDBRANCH   2   3
ENDBRANCH   1   2
BRANCH   1  28
ATOM     28  C   UNL A   1      32.593  32.795  27.253  1.00  0.00     0.261 C 
BRANCH  28  29
ATOM     29  O   UNL A   1      32.166  34.029  27.812  1.00  0.00    -0.460 OA
BRANCH  29  30
ATOM     30  C   UNL A   1      32.999  34.716  28.734  1.00  0.00     0.338 C 
ATOM     31  O   UNL A   1      32.699  35.891  29.110  1.00  0.00    -0.246 OA
BRANCH  30  32
ATOM     32  C   UNL A   1      34.252  34.043  29.273  1.00  0.00     0.060 A 
ATOM     33  C   UNL A   1      35.412  34.291  28.558  1.00  0.00     0.016 A 
ATOM     34  C   UNL A   1      34.268  33.311  30.382  1.00  0.00     0.016 A 
ATOM     35  C   UNL A   1      36.505  33.476  28.938  1.00  0.00     0.010 A 
ATOM     36  C   UNL A   1      35.410  32.651  30.767  1.00  0.00     0.010 A 
ATOM     37  C   UNL A   1      36.578  32.803  30.072  1.00  0.00    -0.014 A 
BRANCH  37  38
ATOM     38  C   UNL A   1      37.892  32.229  30.579  1.00  0.00     0.031 A 
ATOM     39  C   UNL A   1      38.643  32.900  31.545  1.00  0.00     0.074 A 
ATOM     40  C   UNL A   1      38.289  31.052  29.969  1.00  0.00     0.049 A 
ATOM     41  N   UNL A   1      39.816  32.532  32.064  1.00  0.00    -0.248 NA
ATOM     42  C   UNL A   1      38.238  34.168  32.170  1.00  0.00     0.031 C 
ATOM     43  C   UNL A   1      37.533  30.364  28.999  1.00  0.00     0.029 A 
ATOM     44  N   UNL A   1      39.454  30.345  30.175  1.00  0.00    -0.354 N 
ATOM     45  C   UNL A   1      40.214  33.421  32.977  1.00  0.00     0.074 A 
ATOM     46  C   UNL A   1      39.208  34.489  33.053  1.00  0.00     0.031 C 
ATOM     47  C   UNL A   1      38.236  29.266  28.619  1.00  0.00     0.029 A 
ATOM     48  C   UNL A   1      39.442  29.247  29.343  1.00  0.00     0.049 A 
ATOM     49  H   UNL A   1      40.169  30.583  30.807  1.00  0.00     0.167 HD
ATOM     50  C   UNL A   1      41.377  33.381  33.749  1.00  0.00     0.031 A 
ATOM     51  C   UNL A   1      40.421  28.275  29.208  1.00  0.00     0.031 A 
ATOM     52  C   UNL A   1      42.334  32.386  33.645  1.00  0.00     0.049 A 
ATOM     53  C   UNL A   1      41.611  28.266  29.939  1.00  0.00     0.074 A 
ATOM     54  C   UNL A   1      43.508  32.326  34.422  1.00  0.00     0.029 A 
ATOM     55  N   UNL A   1      42.335  31.300  32.797  1.00  0.00    -0.354 N 
ATOM     56  N   UNL A   1      41.991  29.133  30.881  1.00  0.00    -0.248 NA
ATOM     57  C   UNL A   1      42.669  27.259  29.783  1.00  0.00     0.031 C 
ATOM     58  C   UNL A   1      44.211  31.226  34.040  1.00  0.00     0.029 A 
ATOM     59  C   UNL A   1      43.489  30.581  33.019  1.00  0.00     0.049 A 
ATOM     60  H   UNL A   1      41.633  31.079  32.143  1.00  0.00     0.167 HD
ATOM     61  C   UNL A   1      43.184  28.787  31.369  1.00  0.00     0.074 A 
ATOM     62  C   UNL A   1      43.640  27.581  30.665  1.00  0.00     0.031 C 
ATOM     63  C   UNL A   1      43.907  29.426  32.377  1.00  0.00     0.031 A 
BRANCH  50  64
ATOM     64  C   UNL A   1      41.604  34.491  34.762  1.00  0.00    -0.014 A 
ATOM     65  C   UNL A   1      42.210  35.680  34.387  1.00  0.00     0.009 A 
ATOM     66  C   UNL A   1      41.114  34.324  35.985  1.00  0.00     0.009 A 
ATOM     67  C   UNL A   1      42.510  36.537  35.471  1.00  0.00     0.001 A 
ATOM     68  C   UNL A   1      41.331  35.268  36.960  1.00  0.00     0.001 A 
ATOM     69  C   UNL A   1      41.974  36.440  36.675  1.00  0.00     0.000 A 
ENDBRANCH  50  64
BRANCH  51  70
ATOM     70  C   UNL A   1      40.186  27.155  28.208  1.00  0.00    -0.014 A 
ATOM     71  C   UNL A   1      39.502  26.013  28.595  1.00  0.00     0.009 A 
ATOM     72  C   UNL A   1      40.736  27.252  27.004  1.00  0.00     0.009 A 
ATOM     73  C   UNL A   1      39.703  24.907  27.737  1.00  0.00     0.001 A 
ATOM     74  C   UNL A   1      40.777  26.166  26.163  1.00  0.00     0.001 A 
ATOM     75  C   UNL A   1      40.174  24.989  26.506  1.00  0.00     0.000 A 
ENDBRANCH  51  70
BRANCH  63  76
ATOM     76  C   UNL A   1      45.237  28.818  32.795  1.00  0.00    -0.014 A 
ATOM     77  C   UNL A   1      46.364  29.265  32.128  1.00  0.00     0.009 A 
ATOM     78  C   UNL A   1      45.324  27.920  33.770  1.00  0.00     0.009 A 
ATOM     79  C   UNL A   1      47.519  28.483  32.366  1.00  0.00     0.001 A 
ATOM     80  C   UNL A   1      46.516  27.293  34.038  1.00  0.00     0.001 A 
ATOM     81  C   UNL A   1      47.660  27.643  33.375  1.00  0.00     0.000 A 
ENDBRANCH  63  76
ENDBRANCH  37  38
ENDBRANCH  30  32
ENDBRANCH  29  30
ENDBRANCH  28  29
ENDBRANCH   1  28
TORSDOF 16
ENDMDL
