MODEL 1
REMARK VINA RESULT:      -9.1      0.000      0.000
REMARK SMILES CCc1ccsc1CNC(=O)N[C@@H](CCO)C(=O)OCCOCCOC(=O)c1ccc(-c2c3nc(c(-c4ccccc4)c4ccc([nH]4)c(-c4ccccc4)c4nc(c(-c5ccccc5)c5ccc2[nH]5)C=C4)C=C3)cc1
REMARK SMILES IDX 21 1 20 2 19 3 17 4 18 5 13 6 12 7 9 8 10 9 11 11 8 13 7 14
REMARK SMILES IDX 3 15 4 16 5 17 6 18 2 19 1 20 14 21 15 22 16 23 22 25 23 26
REMARK SMILES IDX 24 27 25 28 26 29 27 30 28 31 29 32 75 33 30 34 74 35 31 36
REMARK SMILES IDX 32 37 33 38 68 39 34 40 73 41 67 42 69 43 35 44 72 45 66 46
REMARK SMILES IDX 65 47 36 49 58 50 43 51 57 52 44 53 47 54 56 55 70 56 45 57
REMARK SMILES IDX 46 58 55 60 71 61 48 62 37 63 38 64 42 65 39 66 41 67 40 68
REMARK SMILES IDX 59 69 60 70 64 71 61 72 63 73 62 74 49 75 50 76 54 77 51 78
REMARK SMILES IDX 53 79 52 80
REMARK H PARENT 9 10 12 12 16 24 69 48 47 59
REMARK Flexibility Score: inf
ROOT
ATOM      1  C   UNL A   1      33.062  30.108  26.092  1.00  0.00     0.202 C 
ENDROOT
BRANCH   1   2
ATOM      2  C   UNL A   1      32.700  29.061  25.038  1.00  0.00     0.261 C 
BRANCH   2   3
ATOM      3  O   UNL A   1      31.281  28.809  25.027  1.00  0.00    -0.462 OA
BRANCH   3   4
ATOM      4  C   UNL A   1      30.870  27.812  24.188  1.00  0.00     0.328 C 
ATOM      5  O   UNL A   1      29.910  27.885  23.431  1.00  0.00    -0.250 OA
BRANCH   4   6
ATOM      6  C   UNL A   1      31.682  26.518  24.383  1.00  0.00     0.196 C 
BRANCH   6   7
ATOM      7  N   UNL A   1      31.322  25.742  25.575  1.00  0.00    -0.324 N 
ATOM      8  N   UNL A   1      33.242  24.523  26.238  1.00  0.00    -0.333 N 
ATOM      9  C   UNL A   1      31.954  24.856  26.352  1.00  0.00     0.315 C 
ATOM     10  H   UNL A   1      33.499  23.770  26.816  1.00  0.00     0.165 HD
ATOM     11  O   UNL A   1      31.294  24.317  27.243  1.00  0.00    -0.249 OA
ATOM     12  H   UNL A   1      30.399  25.913  25.871  1.00  0.00     0.166 HD
BRANCH   8  13
ATOM     13  C   UNL A   1      34.340  25.033  25.451  1.00  0.00     0.165 C 
BRANCH  13  14
ATOM     14  C   UNL A   1      35.313  23.956  25.047  1.00  0.00     0.027 A 
ATOM     15  C   UNL A   1      35.260  23.131  23.928  1.00  0.00    -0.033 A 
ATOM     16  C   UNL A   1      36.518  22.472  23.713  1.00  0.00     0.016 A 
ATOM     17  C   UNL A   1      37.430  22.730  24.707  1.00  0.00     0.065 A 
ATOM     18  S   UNL A   1      36.762  23.701  25.932  1.00  0.00    -0.147 S 
BRANCH  15  19
ATOM     19  C   UNL A   1      34.086  22.979  23.003  1.00  0.00     0.033 C 
ATOM     20  C   UNL A   1      33.112  21.920  23.505  1.00  0.00     0.009 C 
ENDBRANCH  15  19
ENDBRANCH  13  14
ENDBRANCH   8  13
ENDBRANCH   6   7
BRANCH   6  21
ATOM     21  C   UNL A   1      31.623  25.665  23.107  1.00  0.00     0.065 C 
BRANCH  21  22
ATOM     22  C   UNL A   1      30.647  24.493  23.127  1.00  0.00     0.159 C 
BRANCH  22  23
ATOM     23  O   UNL A   1      29.342  24.908  23.492  1.00  0.00    -0.396 OA
ATOM     24  H   UNL A   1      29.370  25.824  23.808  1.00  0.00     0.210 HD
ENDBRANCH  22  23
ENDBRANCH  21  22
ENDBRANCH   6  21
ENDBRANCH   4   6
ENDBRANCH   3   4
ENDBRANCH   2   3
ENDBRANCH   1   2
BRANCH   1  25
ATOM     25  O   UNL A   1      31.991  30.562  26.914  1.00  0.00    -0.374 OA
BRANCH  25  26
ATOM     26  C   UNL A   1      31.292  31.733  26.499  1.00  0.00     0.202 C 
BRANCH  26  27
ATOM     27  C   UNL A   1      31.913  33.083  26.874  1.00  0.00     0.261 C 
BRANCH  27  28
ATOM     28  O   UNL A   1      32.744  33.008  28.043  1.00  0.00    -0.460 OA
BRANCH  28  29
ATOM     29  C   UNL A   1      33.838  33.799  28.005  1.00  0.00     0.338 C 
ATOM     30  O   UNL A   1      33.880  35.018  27.877  1.00  0.00    -0.246 OA
BRANCH  29  31
ATOM     31  C   UNL A   1      35.037  33.010  28.318  1.00  0.00     0.060 A 
ATOM     32  C   UNL A   1      34.851  31.673  28.695  1.00  0.00     0.016 A 
ATOM     33  C   UNL A   1      36.310  33.584  28.325  1.00  0.00     0.016 A 
ATOM     34  C   UNL A   1      35.935  30.915  29.124  1.00  0.00     0.010 A 
ATOM     35  C   UNL A   1      37.396  32.823  28.767  1.00  0.00     0.010 A 
ATOM     36  C   UNL A   1      37.206  31.499  29.202  1.00  0.00    -0.014 A 
BRANCH  36  37
ATOM     37  C   UNL A   1      38.298  30.765  29.881  1.00  0.00     0.031 A 
ATOM     38  C   UNL A   1      38.493  30.952  31.360  1.00  0.00     0.074 A 
ATOM     39  C   UNL A   1      39.078  29.909  29.199  1.00  0.00     0.049 A 
ATOM     40  N   UNL A   1      39.370  30.399  32.157  1.00  0.00    -0.248 NA
ATOM     41  C   UNL A   1      37.574  31.888  32.028  1.00  0.00     0.031 C 
ATOM     42  C   UNL A   1      38.952  29.598  27.776  1.00  0.00     0.029 A 
ATOM     43  N   UNL A   1      40.128  29.136  29.623  1.00  0.00    -0.354 N 
ATOM     44  C   UNL A   1      39.115  30.925  33.418  1.00  0.00     0.074 A 
ATOM     45  C   UNL A   1      38.019  31.859  33.274  1.00  0.00     0.031 C 
ATOM     46  C   UNL A   1      39.886  28.691  27.446  1.00  0.00     0.029 A 
ATOM     47  C   UNL A   1      40.693  28.384  28.624  1.00  0.00     0.049 A 
ATOM     48  H   UNL A   1      40.448  29.123  30.555  1.00  0.00     0.167 HD
ATOM     49  C   UNL A   1      39.734  30.652  34.591  1.00  0.00     0.031 A 
ATOM     50  C   UNL A   1      41.750  27.551  28.657  1.00  0.00     0.031 A 
ATOM     51  C   UNL A   1      40.834  29.736  34.731  1.00  0.00     0.049 A 
ATOM     52  C   UNL A   1      42.483  27.337  29.953  1.00  0.00     0.074 A 
ATOM     53  C   UNL A   1      41.514  29.372  35.881  1.00  0.00     0.029 A 
ATOM     54  N   UNL A   1      41.426  29.050  33.681  1.00  0.00    -0.354 N 
ATOM     55  N   UNL A   1      42.214  27.814  31.144  1.00  0.00    -0.248 NA
ATOM     56  C   UNL A   1      43.666  26.464  29.907  1.00  0.00     0.031 C 
ATOM     57  C   UNL A   1      42.556  28.511  35.516  1.00  0.00     0.029 A 
ATOM     58  C   UNL A   1      42.488  28.295  34.149  1.00  0.00     0.049 A 
ATOM     59  H   UNL A   1      41.134  29.095  32.742  1.00  0.00     0.167 HD
ATOM     60  C   UNL A   1      43.176  27.281  31.993  1.00  0.00     0.074 A 
ATOM     61  C   UNL A   1      44.029  26.436  31.181  1.00  0.00     0.031 C 
ATOM     62  C   UNL A   1      43.334  27.468  33.327  1.00  0.00     0.031 A 
BRANCH  49  63
ATOM     63  C   UNL A   1      39.261  31.401  35.804  1.00  0.00    -0.014 A 
ATOM     64  C   UNL A   1      38.155  30.963  36.551  1.00  0.00     0.009 A 
ATOM     65  C   UNL A   1      39.934  32.565  36.207  1.00  0.00     0.009 A 
ATOM     66  C   UNL A   1      37.707  31.703  37.649  1.00  0.00     0.001 A 
ATOM     67  C   UNL A   1      39.501  33.286  37.320  1.00  0.00     0.001 A 
ATOM     68  C   UNL A   1      38.382  32.861  38.033  1.00  0.00     0.000 A 
ENDBRANCH  49  63
BRANCH  50  69
ATOM     69  C   UNL A   1      42.180  26.853  27.419  1.00  0.00    -0.014 A 
ATOM     70  C   UNL A   1      42.998  27.504  26.484  1.00  0.00     0.009 A 
ATOM     71  C   UNL A   1      41.776  25.533  27.166  1.00  0.00     0.009 A 
ATOM     72  C   UNL A   1      43.395  26.851  25.315  1.00  0.00     0.001 A 
ATOM     73  C   UNL A   1      42.194  24.874  26.008  1.00  0.00     0.001 A 
ATOM     74  C   UNL A   1      42.997  25.535  25.081  1.00  0.00     0.000 A 
ENDBRANCH  50  69
BRANCH  62  75
ATOM     75  C   UNL A   1      44.454  26.724  33.997  1.00  0.00    -0.014 A 
ATOM     76  C   UNL A   1      45.721  27.304  34.160  1.00  0.00     0.009 A 
ATOM     77  C   UNL A   1      44.224  25.437  34.510  1.00  0.00     0.009 A 
ATOM     78  C   UNL A   1      46.744  26.598  34.796  1.00  0.00     0.001 A 
ATOM     79  C   UNL A   1      45.240  24.745  35.169  1.00  0.00     0.001 A 
ATOM     80  C   UNL A   1      46.502  25.322  35.304  1.00  0.00     0.000 A 
ENDBRANCH  62  75
ENDBRANCH  36  37
ENDBRANCH  29  31
ENDBRANCH  28  29
ENDBRANCH  27  28
ENDBRANCH  26  27
ENDBRANCH  25  26
ENDBRANCH   1  25
TORSDOF 21
ENDMDL
MODEL 2
REMARK VINA RESULT:      -8.8      3.928      7.048
REMARK SMILES CCc1ccsc1CNC(=O)N[C@@H](CCO)C(=O)OCCOCCOC(=O)c1ccc(-c2c3nc(c(-c4ccccc4)c4ccc([nH]4)c(-c4ccccc4)c4nc(c(-c5ccccc5)c5ccc2[nH]5)C=C4)C=C3)cc1
REMARK SMILES IDX 21 1 20 2 19 3 17 4 18 5 13 6 12 7 9 8 10 9 11 11 8 13 7 14
REMARK SMILES IDX 3 15 4 16 5 17 6 18 2 19 1 20 14 21 15 22 16 23 22 25 23 26
REMARK SMILES IDX 24 27 25 28 26 29 27 30 28 31 29 32 75 33 30 34 74 35 31 36
REMARK SMILES IDX 32 37 33 38 68 39 34 40 73 41 67 42 69 43 35 44 72 45 66 46
REMARK SMILES IDX 65 47 36 49 58 50 43 51 57 52 44 53 47 54 56 55 70 56 45 57
REMARK SMILES IDX 46 58 55 60 71 61 48 62 37 63 38 64 42 65 39 66 41 67 40 68
REMARK SMILES IDX 59 69 60 70 64 71 61 72 63 73 62 74 49 75 50 76 54 77 51 78
REMARK SMILES IDX 53 79 52 80
REMARK H PARENT 9 10 12 12 16 24 69 48 47 59
REMARK Flexibility Score: inf
ROOT
ATOM      1  C   UNL A   1      35.421  24.213  24.458  1.00  0.00     0.202 C 
ENDROOT
BRANCH   1   2
ATOM      2  C   UNL A   1      34.390  25.143  25.099  1.00  0.00     0.261 C 
BRANCH   2   3
ATOM      3  O   UNL A   1      34.158  26.301  24.275  1.00  0.00    -0.462 OA
BRANCH   3   4
ATOM      4  C   UNL A   1      32.985  26.962  24.512  1.00  0.00     0.328 C 
ATOM      5  O   UNL A   1      32.355  26.915  25.562  1.00  0.00    -0.250 OA
BRANCH   4   6
ATOM      6  C   UNL A   1      32.466  27.691  23.259  1.00  0.00     0.196 C 
BRANCH   6   7
ATOM      7  N   UNL A   1      32.801  27.040  21.987  1.00  0.00    -0.324 N 
ATOM      8  N   UNL A   1      31.794  24.896  21.997  1.00  0.00    -0.333 N 
ATOM      9  C   UNL A   1      32.564  25.839  21.449  1.00  0.00     0.315 C 
ATOM     10  H   UNL A   1      31.834  24.038  21.517  1.00  0.00     0.165 HD
ATOM     11  O   UNL A   1      33.092  25.596  20.362  1.00  0.00    -0.249 OA
ATOM     12  H   UNL A   1      33.323  27.625  21.391  1.00  0.00     0.166 HD
BRANCH   8  13
ATOM     13  C   UNL A   1      30.912  24.865  23.141  1.00  0.00     0.165 C 
BRANCH  13  14
ATOM     14  C   UNL A   1      31.226  23.732  24.083  1.00  0.00     0.027 A 
ATOM     15  C   UNL A   1      32.040  22.628  23.853  1.00  0.00    -0.033 A 
ATOM     16  C   UNL A   1      32.354  21.953  25.081  1.00  0.00     0.016 A 
ATOM     17  C   UNL A   1      31.704  22.492  26.164  1.00  0.00     0.065 A 
ATOM     18  S   UNL A   1      30.664  23.756  25.705  1.00  0.00    -0.147 S 
BRANCH  15  19
ATOM     19  C   UNL A   1      32.594  22.207  22.520  1.00  0.00     0.033 C 
ATOM     20  C   UNL A   1      31.835  21.014  21.952  1.00  0.00     0.009 C 
ENDBRANCH  15  19
ENDBRANCH  13  14
ENDBRANCH   8  13
ENDBRANCH   6   7
BRANCH   6  21
ATOM     21  C   UNL A   1      30.956  27.946  23.389  1.00  0.00     0.065 C 
BRANCH  21  22
ATOM     22  C   UNL A   1      30.347  28.907  22.373  1.00  0.00     0.159 C 
BRANCH  22  23
ATOM     23  O   UNL A   1      31.337  29.720  21.767  1.00  0.00    -0.396 OA
ATOM     24  H   UNL A   1      31.918  30.089  22.451  1.00  0.00     0.210 HD
ENDBRANCH  22  23
ENDBRANCH  21  22
ENDBRANCH   6  21
ENDBRANCH   4   6
ENDBRANCH   3   4
ENDBRANCH   2   3
ENDBRANCH   1   2
BRANCH   1  25
ATOM     25  O   UNL A   1      35.596  22.947  25.087  1.00  0.00    -0.374 OA
BRANCH  25  26
ATOM     26  C   UNL A   1      35.927  21.838  24.257  1.00  0.00     0.202 C 
BRANCH  26  27
ATOM     27  C   UNL A   1      37.129  20.986  24.680  1.00  0.00     0.261 C 
BRANCH  27  28
ATOM     28  O   UNL A   1      37.616  21.322  25.989  1.00  0.00    -0.460 OA
BRANCH  28  29
ATOM     29  C   UNL A   1      38.956  21.231  26.129  1.00  0.00     0.338 C 
ATOM     30  O   UNL A   1      39.692  20.327  25.747  1.00  0.00    -0.246 OA
BRANCH  29  31
ATOM     31  C   UNL A   1      39.489  22.487  26.675  1.00  0.00     0.060 A 
ATOM     32  C   UNL A   1      38.934  23.684  26.202  1.00  0.00     0.016 A 
ATOM     33  C   UNL A   1      40.562  22.500  27.567  1.00  0.00     0.016 A 
ATOM     34  C   UNL A   1      39.482  24.903  26.586  1.00  0.00     0.010 A 
ATOM     35  C   UNL A   1      41.119  23.726  27.943  1.00  0.00     0.010 A 
ATOM     36  C   UNL A   1      40.603  24.928  27.426  1.00  0.00    -0.014 A 
BRANCH  36  37
ATOM     37  C   UNL A   1      41.320  26.207  27.635  1.00  0.00     0.031 A 
ATOM     38  C   UNL A   1      40.707  27.251  28.526  1.00  0.00     0.074 A 
ATOM     39  C   UNL A   1      42.523  26.419  27.074  1.00  0.00     0.049 A 
ATOM     40  N   UNL A   1      41.166  28.428  28.861  1.00  0.00    -0.248 NA
ATOM     41  C   UNL A   1      39.401  26.919  29.119  1.00  0.00     0.031 C 
ATOM     42  C   UNL A   1      43.247  25.463  26.238  1.00  0.00     0.029 A 
ATOM     43  N   UNL A   1      43.350  27.511  27.135  1.00  0.00    -0.354 N 
ATOM     44  C   UNL A   1      40.204  28.983  29.696  1.00  0.00     0.074 A 
ATOM     45  C   UNL A   1      39.125  28.023  29.796  1.00  0.00     0.031 C 
ATOM     46  C   UNL A   1      44.418  26.010  25.870  1.00  0.00     0.029 A 
ATOM     47  C   UNL A   1      44.509  27.361  26.417  1.00  0.00     0.049 A 
ATOM     48  H   UNL A   1      43.133  28.325  27.645  1.00  0.00     0.167 HD
ATOM     49  C   UNL A   1      40.217  30.181  30.327  1.00  0.00     0.031 A 
ATOM     50  C   UNL A   1      45.524  28.223  26.216  1.00  0.00     0.031 A 
ATOM     51  C   UNL A   1      41.282  31.142  30.216  1.00  0.00     0.049 A 
ATOM     52  C   UNL A   1      45.472  29.586  26.851  1.00  0.00     0.074 A 
ATOM     53  C   UNL A   1      41.402  32.374  30.835  1.00  0.00     0.029 A 
ATOM     54  N   UNL A   1      42.405  30.983  29.418  1.00  0.00    -0.354 N 
ATOM     55  N   UNL A   1      44.573  30.087  27.662  1.00  0.00    -0.248 NA
ATOM     56  C   UNL A   1      46.580  30.501  26.540  1.00  0.00     0.031 C 
ATOM     57  C   UNL A   1      42.570  32.986  30.365  1.00  0.00     0.029 A 
ATOM     58  C   UNL A   1      43.204  32.111  29.498  1.00  0.00     0.049 A 
ATOM     59  H   UNL A   1      42.603  30.186  28.875  1.00  0.00     0.167 HD
ATOM     60  C   UNL A   1      45.019  31.364  27.981  1.00  0.00     0.074 A 
ATOM     61  C   UNL A   1      46.273  31.556  27.282  1.00  0.00     0.031 C 
ATOM     62  C   UNL A   1      44.445  32.291  28.788  1.00  0.00     0.031 A 
BRANCH  49  63
ATOM     63  C   UNL A   1      39.013  30.533  31.154  1.00  0.00    -0.014 A 
ATOM     64  C   UNL A   1      37.917  31.216  30.600  1.00  0.00     0.009 A 
ATOM     65  C   UNL A   1      38.975  30.175  32.510  1.00  0.00     0.009 A 
ATOM     66  C   UNL A   1      36.829  31.572  31.401  1.00  0.00     0.001 A 
ATOM     67  C   UNL A   1      37.874  30.508  33.301  1.00  0.00     0.001 A 
ATOM     68  C   UNL A   1      36.808  31.215  32.749  1.00  0.00     0.000 A 
ENDBRANCH  49  63
BRANCH  50  69
ATOM     69  C   UNL A   1      46.679  27.822  25.374  1.00  0.00    -0.014 A 
ATOM     70  C   UNL A   1      47.791  27.188  25.948  1.00  0.00     0.009 A 
ATOM     71  C   UNL A   1      46.676  28.070  23.993  1.00  0.00     0.009 A 
ATOM     72  C   UNL A   1      48.882  26.820  25.157  1.00  0.00     0.001 A 
ATOM     73  C   UNL A   1      47.757  27.680  23.200  1.00  0.00     0.001 A 
ATOM     74  C   UNL A   1      48.861  27.061  23.783  1.00  0.00     0.000 A 
ENDBRANCH  50  69
BRANCH  62  75
ATOM     75  C   UNL A   1      45.181  33.586  28.978  1.00  0.00    -0.014 A 
ATOM     76  C   UNL A   1      44.929  34.697  28.158  1.00  0.00     0.009 A 
ATOM     77  C   UNL A   1      46.112  33.708  30.023  1.00  0.00     0.009 A 
ATOM     78  C   UNL A   1      45.618  35.895  28.361  1.00  0.00     0.001 A 
ATOM     79  C   UNL A   1      46.779  34.915  30.239  1.00  0.00     0.001 A 
ATOM     80  C   UNL A   1      46.538  36.004  29.403  1.00  0.00     0.000 A 
ENDBRANCH  62  75
ENDBRANCH  36  37
ENDBRANCH  29  31
ENDBRANCH  28  29
ENDBRANCH  27  28
ENDBRANCH  26  27
ENDBRANCH  25  26
ENDBRANCH   1  25
TORSDOF 21
ENDMDL
MODEL 3
REMARK VINA RESULT:      -8.8      2.196      2.923
REMARK SMILES CCc1ccsc1CNC(=O)N[C@@H](CCO)C(=O)OCCOCCOC(=O)c1ccc(-c2c3nc(c(-c4ccccc4)c4ccc([nH]4)c(-c4ccccc4)c4nc(c(-c5ccccc5)c5ccc2[nH]5)C=C4)C=C3)cc1
REMARK SMILES IDX 21 1 20 2 19 3 17 4 18 5 13 6 12 7 9 8 10 9 11 11 8 13 7 14
REMARK SMILES IDX 3 15 4 16 5 17 6 18 2 19 1 20 14 21 15 22 16 23 22 25 23 26
REMARK SMILES IDX 24 27 25 28 26 29 27 30 28 31 29 32 75 33 30 34 74 35 31 36
REMARK SMILES IDX 32 37 33 38 68 39 34 40 73 41 67 42 69 43 35 44 72 45 66 46
REMARK SMILES IDX 65 47 36 49 58 50 43 51 57 52 44 53 47 54 56 55 70 56 45 57
REMARK SMILES IDX 46 58 55 60 71 61 48 62 37 63 38 64 42 65 39 66 41 67 40 68
REMARK SMILES IDX 59 69 60 70 64 71 61 72 63 73 62 74 49 75 50 76 54 77 51 78
REMARK SMILES IDX 53 79 52 80
REMARK H PARENT 9 10 12 12 16 24 69 48 47 59
REMARK Flexibility Score: inf
ROOT
ATOM      1  C   UNL A   1      31.916  28.971  27.281  1.00  0.00     0.202 C 
ENDROOT
BRANCH   1   2
ATOM      2  C   UNL A   1      32.972  27.994  26.764  1.00  0.00     0.261 C 
BRANCH   2   3
ATOM      3  O   UNL A   1      32.445  26.654  26.695  1.00  0.00    -0.462 OA
BRANCH   3   4
ATOM      4  C   UNL A   1      32.892  25.903  25.644  1.00  0.00     0.328 C 
ATOM      5  O   UNL A   1      34.003  26.001  25.137  1.00  0.00    -0.250 OA
BRANCH   4   6
ATOM      6  C   UNL A   1      31.792  24.988  25.076  1.00  0.00     0.196 C 
BRANCH   6   7
ATOM      7  N   UNL A   1      30.854  24.463  26.074  1.00  0.00    -0.324 N 
ATOM      8  N   UNL A   1      31.484  22.226  26.537  1.00  0.00    -0.333 N 
ATOM      9  C   UNL A   1      30.677  23.281  26.675  1.00  0.00     0.315 C 
ATOM     10  H   UNL A   1      31.130  21.411  26.958  1.00  0.00     0.165 HD
ATOM     11  O   UNL A   1      29.700  23.169  27.418  1.00  0.00    -0.249 OA
ATOM     12  H   UNL A   1      30.202  25.138  26.370  1.00  0.00     0.166 HD
BRANCH   8  13
ATOM     13  C   UNL A   1      32.766  22.025  25.903  1.00  0.00     0.165 C 
BRANCH  13  14
ATOM     14  C   UNL A   1      32.663  21.238  24.622  1.00  0.00     0.027 A 
ATOM     15  C   UNL A   1      32.580  19.857  24.471  1.00  0.00    -0.033 A 
ATOM     16  C   UNL A   1      32.165  19.509  23.141  1.00  0.00     0.016 A 
ATOM     17  C   UNL A   1      32.047  20.601  22.317  1.00  0.00     0.065 A 
ATOM     18  S   UNL A   1      32.500  22.034  23.111  1.00  0.00    -0.147 S 
BRANCH  15  19
ATOM     19  C   UNL A   1      32.818  18.839  25.551  1.00  0.00     0.033 C 
ATOM     20  C   UNL A   1      32.708  17.418  25.012  1.00  0.00     0.009 C 
ENDBRANCH  15  19
ENDBRANCH  13  14
ENDBRANCH   8  13
ENDBRANCH   6   7
BRANCH   6  21
ATOM     21  C   UNL A   1      31.062  25.698  23.925  1.00  0.00     0.065 C 
BRANCH  21  22
ATOM     22  C   UNL A   1      29.927  26.635  24.326  1.00  0.00     0.159 C 
BRANCH  22  23
ATOM     23  O   UNL A   1      30.238  27.986  24.031  1.00  0.00    -0.396 OA
ATOM     24  H   UNL A   1      29.860  28.562  24.714  1.00  0.00     0.210 HD
ENDBRANCH  22  23
ENDBRANCH  21  22
ENDBRANCH   6  21
ENDBRANCH   4   6
ENDBRANCH   3   4
ENDBRANCH   2   3
ENDBRANCH   1   2
BRANCH   1  25
ATOM     25  O   UNL A   1      31.827  30.214  26.592  1.00  0.00    -0.374 OA
BRANCH  25  26
ATOM     26  C   UNL A   1      32.752  31.236  26.952  1.00  0.00     0.202 C 
BRANCH  26  27
ATOM     27  C   UNL A   1      32.166  32.574  27.417  1.00  0.00     0.261 C 
BRANCH  27  28
ATOM     28  O   UNL A   1      33.106  33.656  27.324  1.00  0.00    -0.460 OA
BRANCH  28  29
ATOM     29  C   UNL A   1      33.256  34.368  28.462  1.00  0.00     0.338 C 
ATOM     30  O   UNL A   1      32.465  35.161  28.962  1.00  0.00    -0.246 OA
BRANCH  29  31
ATOM     31  C   UNL A   1      34.473  33.937  29.165  1.00  0.00     0.060 A 
ATOM     32  C   UNL A   1      35.705  34.283  28.594  1.00  0.00     0.016 A 
ATOM     33  C   UNL A   1      34.413  33.143  30.312  1.00  0.00     0.016 A 
ATOM     34  C   UNL A   1      36.886  33.796  29.145  1.00  0.00     0.010 A 
ATOM     35  C   UNL A   1      35.601  32.646  30.857  1.00  0.00     0.010 A 
ATOM     36  C   UNL A   1      36.837  32.942  30.254  1.00  0.00    -0.014 A 
BRANCH  36  37
ATOM     37  C   UNL A   1      38.070  32.242  30.682  1.00  0.00     0.031 A 
ATOM     38  C   UNL A   1      38.865  32.802  31.829  1.00  0.00     0.074 A 
ATOM     39  C   UNL A   1      38.452  31.100  30.088  1.00  0.00     0.049 A 
ATOM     40  N   UNL A   1      39.961  32.345  32.378  1.00  0.00    -0.248 NA
ATOM     41  C   UNL A   1      38.355  34.041  32.436  1.00  0.00     0.031 C 
ATOM     42  C   UNL A   1      37.736  30.427  29.005  1.00  0.00     0.029 A 
ATOM     43  N   UNL A   1      39.541  30.299  30.323  1.00  0.00    -0.354 N 
ATOM     44  C   UNL A   1      40.276  33.244  33.390  1.00  0.00     0.074 A 
ATOM     45  C   UNL A   1      39.270  34.285  33.361  1.00  0.00     0.031 C 
ATOM     46  C   UNL A   1      38.401  29.308  28.674  1.00  0.00     0.029 A 
ATOM     47  C   UNL A   1      39.603  29.204  29.498  1.00  0.00     0.049 A 
ATOM     48  H   UNL A   1      40.213  30.491  31.016  1.00  0.00     0.167 HD
ATOM     49  C   UNL A   1      41.306  33.206  34.268  1.00  0.00     0.031 A 
ATOM     50  C   UNL A   1      40.533  28.234  29.412  1.00  0.00     0.031 A 
ATOM     51  C   UNL A   1      42.315  32.181  34.286  1.00  0.00     0.049 A 
ATOM     52  C   UNL A   1      41.721  28.265  30.335  1.00  0.00     0.074 A 
ATOM     53  C   UNL A   1      43.386  32.038  35.152  1.00  0.00     0.029 A 
ATOM     54  N   UNL A   1      42.384  31.129  33.386  1.00  0.00    -0.354 N 
ATOM     55  N   UNL A   1      41.992  29.101  31.307  1.00  0.00    -0.248 NA
ATOM     56  C   UNL A   1      42.730  27.212  30.146  1.00  0.00     0.031 C 
ATOM     57  C   UNL A   1      44.137  30.933  34.737  1.00  0.00     0.029 A 
ATOM     58  C   UNL A   1      43.502  30.355  33.649  1.00  0.00     0.049 A 
ATOM     59  H   UNL A   1      41.735  30.958  32.666  1.00  0.00     0.167 HD
ATOM     60  C   UNL A   1      43.187  28.662  31.864  1.00  0.00     0.074 A 
ATOM     61  C   UNL A   1      43.583  27.480  31.125  1.00  0.00     0.031 C 
ATOM     62  C   UNL A   1      43.889  29.187  32.899  1.00  0.00     0.031 A 
BRANCH  49  63
ATOM     63  C   UNL A   1      41.415  34.341  35.245  1.00  0.00    -0.014 A 
ATOM     64  C   UNL A   1      42.141  35.505  34.941  1.00  0.00     0.009 A 
ATOM     65  C   UNL A   1      40.780  34.245  36.493  1.00  0.00     0.009 A 
ATOM     66  C   UNL A   1      42.265  36.527  35.885  1.00  0.00     0.001 A 
ATOM     67  C   UNL A   1      40.883  35.279  37.424  1.00  0.00     0.001 A 
ATOM     68  C   UNL A   1      41.635  36.414  37.124  1.00  0.00     0.000 A 
ENDBRANCH  49  63
BRANCH  50  69
ATOM     69  C   UNL A   1      40.377  27.147  28.412  1.00  0.00    -0.014 A 
ATOM     70  C   UNL A   1      40.923  27.281  27.127  1.00  0.00     0.009 A 
ATOM     71  C   UNL A   1      39.685  25.971  28.738  1.00  0.00     0.009 A 
ATOM     72  C   UNL A   1      40.768  26.263  26.184  1.00  0.00     0.001 A 
ATOM     73  C   UNL A   1      39.552  24.944  27.801  1.00  0.00     0.001 A 
ATOM     74  C   UNL A   1      40.088  25.093  26.523  1.00  0.00     0.000 A 
ENDBRANCH  50  69
BRANCH  62  75
ATOM     75  C   UNL A   1      45.142  28.470  33.312  1.00  0.00    -0.014 A 
ATOM     76  C   UNL A   1      46.393  28.824  32.783  1.00  0.00     0.009 A 
ATOM     77  C   UNL A   1      45.075  27.452  34.277  1.00  0.00     0.009 A 
ATOM     78  C   UNL A   1      47.548  28.151  33.190  1.00  0.00     0.001 A 
ATOM     79  C   UNL A   1      46.233  26.800  34.701  1.00  0.00     0.001 A 
ATOM     80  C   UNL A   1      47.467  27.144  34.151  1.00  0.00     0.000 A 
ENDBRANCH  62  75
ENDBRANCH  36  37
ENDBRANCH  29  31
ENDBRANCH  28  29
ENDBRANCH  27  28
ENDBRANCH  26  27
ENDBRANCH  25  26
ENDBRANCH   1  25
TORSDOF 21
ENDMDL
