MODEL 1
REMARK VINA RESULT:      -9.9      0.000      0.000
REMARK SMILES Nc1c(CC(=O)OCCOCCOC(=O)c2ccc(-c3c4nc(c(-c5ccccc5)c5ccc([nH]5)c(-c5ccccc5)c5nc(c(-c6ccccc6)c6ccc3[nH]6)C=C5)C=C4)cc2)cccc1C(=O)c1ccc(Br)cc1
REMARK SMILES IDX 9 1 8 2 7 3 5 4 6 5 4 6 3 7 2 8 67 9 64 10 66 11 65 12 1 13
REMARK SMILES IDX 68 16 69 17 70 18 71 19 76 20 72 21 75 22 73 23 74 24 10 25
REMARK SMILES IDX 11 26 12 27 13 28 14 29 15 30 16 31 17 32 63 33 18 34 62 35
REMARK SMILES IDX 19 36 20 37 21 38 56 39 22 40 61 41 55 42 57 43 23 44 60 45
REMARK SMILES IDX 54 46 53 47 24 49 46 50 31 51 45 52 32 53 35 54 44 55 58 56
REMARK SMILES IDX 33 57 34 58 43 60 59 61 36 62 25 63 26 64 30 65 27 66 29 67
REMARK SMILES IDX 28 68 47 69 48 70 52 71 49 72 51 73 50 74 37 75 38 76 42 77
REMARK SMILES IDX 39 78 41 79 40 80
REMARK H PARENT 1 14 1 15 57 48 35 59
REMARK Flexibility Score: inf
ROOT
ATOM      1  C   UNL A   1      33.534  36.523  31.977  1.00  0.00     0.202 C 
ENDROOT
BRANCH   1   2
ATOM      2  C   UNL A   1      32.891  35.771  30.808  1.00  0.00     0.261 C 
BRANCH   2   3
ATOM      3  O   UNL A   1      33.479  36.180  29.562  1.00  0.00    -0.463 OA
BRANCH   3   4
ATOM      4  C   UNL A   1      33.990  35.182  28.799  1.00  0.00     0.310 C 
ATOM      5  O   UNL A   1      34.404  35.328  27.654  1.00  0.00    -0.252 OA
BRANCH   4   6
ATOM      6  C   UNL A   1      34.108  33.862  29.523  1.00  0.00     0.160 C 
BRANCH   6   7
ATOM      7  C   UNL A   1      35.455  33.163  29.530  1.00  0.00    -0.013 A 
ATOM      8  C   UNL A   1      35.609  31.831  29.085  1.00  0.00     0.047 A 
ATOM      9  C   UNL A   1      36.927  31.339  28.905  1.00  0.00     0.046 A 
ATOM     10  C   UNL A   1      36.586  33.901  29.937  1.00  0.00     0.006 A 
ATOM     11  C   UNL A   1      38.035  32.085  29.342  1.00  0.00     0.014 A 
ATOM     12  C   UNL A   1      37.863  33.355  29.876  1.00  0.00     0.001 A 
BRANCH   8  13
ATOM     13  N   UNL A   1      34.479  31.093  28.731  1.00  0.00    -0.398 N 
ATOM     14  H   UNL A   1      34.279  30.248  29.196  1.00  0.00     0.156 HD
ATOM     15  H   UNL A   1      33.884  31.415  28.016  1.00  0.00     0.156 HD
ENDBRANCH   8  13
BRANCH   9  16
ATOM     16  C   UNL A   1      37.256  30.034  28.257  1.00  0.00     0.195 C 
ATOM     17  O   UNL A   1      36.445  29.502  27.503  1.00  0.00    -0.289 OA
BRANCH  16  18
ATOM     18  C   UNL A   1      38.551  29.353  28.497  1.00  0.00     0.023 A 
ATOM     19  C   UNL A   1      38.686  28.601  29.670  1.00  0.00     0.013 A 
ATOM     20  C   UNL A   1      39.588  29.384  27.557  1.00  0.00     0.013 A 
ATOM     21  C   UNL A   1      39.825  27.819  29.867  1.00  0.00     0.016 A 
ATOM     22  C   UNL A   1      40.727  28.600  27.756  1.00  0.00     0.016 A 
ATOM     23  C   UNL A   1      40.831  27.808  28.901  1.00  0.00     0.018 A 
ATOM     24  Br  UNL A   1      42.338  26.691  29.133  1.00  0.00    -0.051 Br
ENDBRANCH  16  18
ENDBRANCH   9  16
ENDBRANCH   6   7
ENDBRANCH   4   6
ENDBRANCH   3   4
ENDBRANCH   2   3
ENDBRANCH   1   2
BRANCH   1  25
ATOM     25  O   UNL A   1      34.622  35.855  32.621  1.00  0.00    -0.374 OA
BRANCH  25  26
ATOM     26  C   UNL A   1      34.374  34.545  33.130  1.00  0.00     0.202 C 
BRANCH  26  27
ATOM     27  C   UNL A   1      35.154  34.145  34.388  1.00  0.00     0.261 C 
BRANCH  27  28
ATOM     28  O   UNL A   1      36.160  33.154  34.118  1.00  0.00    -0.460 OA
BRANCH  28  29
ATOM     29  C   UNL A   1      37.402  33.659  33.940  1.00  0.00     0.338 C 
ATOM     30  O   UNL A   1      37.758  34.819  34.106  1.00  0.00    -0.246 OA
BRANCH  29  31
ATOM     31  C   UNL A   1      38.379  32.590  33.659  1.00  0.00     0.060 A 
ATOM     32  C   UNL A   1      39.706  32.842  34.028  1.00  0.00     0.016 A 
ATOM     33  C   UNL A   1      38.046  31.432  32.952  1.00  0.00     0.016 A 
ATOM     34  C   UNL A   1      40.718  31.986  33.611  1.00  0.00     0.010 A 
ATOM     35  C   UNL A   1      39.069  30.570  32.531  1.00  0.00     0.010 A 
ATOM     36  C   UNL A   1      40.413  30.876  32.811  1.00  0.00    -0.014 A 
BRANCH  36  37
ATOM     37  C   UNL A   1      41.532  30.174  32.134  1.00  0.00     0.031 A 
ATOM     38  C   UNL A   1      42.165  30.808  30.923  1.00  0.00     0.074 A 
ATOM     39  C   UNL A   1      42.057  29.050  32.653  1.00  0.00     0.049 A 
ATOM     40  N   UNL A   1      43.232  30.443  30.257  1.00  0.00    -0.248 NA
ATOM     41  C   UNL A   1      41.514  32.019  30.397  1.00  0.00     0.031 C 
ATOM     42  C   UNL A   1      41.565  28.358  33.843  1.00  0.00     0.029 A 
ATOM     43  N   UNL A   1      43.140  28.308  32.253  1.00  0.00    -0.354 N 
ATOM     44  C   UNL A   1      43.382  31.381  29.242  1.00  0.00     0.074 A 
ATOM     45  C   UNL A   1      42.277  32.308  29.354  1.00  0.00     0.031 C 
ATOM     46  C   UNL A   1      42.355  27.298  34.086  1.00  0.00     0.029 A 
ATOM     47  C   UNL A   1      43.396  27.229  33.063  1.00  0.00     0.049 A 
ATOM     48  H   UNL A   1      43.681  28.527  31.461  1.00  0.00     0.167 HD
ATOM     49  C   UNL A   1      44.357  31.473  28.307  1.00  0.00     0.031 A 
ATOM     50  C   UNL A   1      44.364  26.295  32.990  1.00  0.00     0.031 A 
ATOM     51  C   UNL A   1      45.452  30.549  28.179  1.00  0.00     0.049 A 
ATOM     52  C   UNL A   1      45.401  26.385  31.904  1.00  0.00     0.074 A 
ATOM     53  C   UNL A   1      46.495  30.567  27.270  1.00  0.00     0.029 A 
ATOM     54  N   UNL A   1      45.639  29.436  28.983  1.00  0.00    -0.354 N 
ATOM     55  N   UNL A   1      45.551  27.298  30.976  1.00  0.00    -0.248 NA
ATOM     56  C   UNL A   1      46.413  25.318  31.868  1.00  0.00     0.031 C 
ATOM     57  C   UNL A   1      47.287  29.435  27.494  1.00  0.00     0.029 A 
ATOM     58  C   UNL A   1      46.765  28.744  28.575  1.00  0.00     0.049 A 
ATOM     59  H   UNL A   1      45.056  29.178  29.734  1.00  0.00     0.167 HD
ATOM     60  C   UNL A   1      46.683  26.929  30.260  1.00  0.00     0.074 A 
ATOM     61  C   UNL A   1      47.193  25.721  30.874  1.00  0.00     0.031 C 
ATOM     62  C   UNL A   1      47.252  27.538  29.190  1.00  0.00     0.031 A 
BRANCH  49  63
ATOM     63  C   UNL A   1      44.263  32.607  27.325  1.00  0.00    -0.014 A 
ATOM     64  C   UNL A   1      43.854  32.391  25.999  1.00  0.00     0.009 A 
ATOM     65  C   UNL A   1      44.566  33.913  27.738  1.00  0.00     0.009 A 
ATOM     66  C   UNL A   1      43.782  33.456  25.099  1.00  0.00     0.001 A 
ATOM     67  C   UNL A   1      44.471  34.980  26.842  1.00  0.00     0.001 A 
ATOM     68  C   UNL A   1      44.087  34.749  25.522  1.00  0.00     0.000 A 
ENDBRANCH  49  63
BRANCH  50  69
ATOM     69  C   UNL A   1      44.401  25.186  33.977  1.00  0.00    -0.014 A 
ATOM     70  C   UNL A   1      43.777  23.959  33.704  1.00  0.00     0.009 A 
ATOM     71  C   UNL A   1      45.049  25.359  35.211  1.00  0.00     0.009 A 
ATOM     72  C   UNL A   1      43.782  22.937  34.657  1.00  0.00     0.001 A 
ATOM     73  C   UNL A   1      45.073  24.327  36.150  1.00  0.00     0.001 A 
ATOM     74  C   UNL A   1      44.433  23.120  35.876  1.00  0.00     0.000 A 
ENDBRANCH  50  69
BRANCH  62  75
ATOM     75  C   UNL A   1      48.501  26.914  28.631  1.00  0.00    -0.014 A 
ATOM     76  C   UNL A   1      49.772  27.408  28.964  1.00  0.00     0.009 A 
ATOM     77  C   UNL A   1      48.403  25.801  27.780  1.00  0.00     0.009 A 
ATOM     78  C   UNL A   1      50.920  26.821  28.427  1.00  0.00     0.001 A 
ATOM     79  C   UNL A   1      49.554  25.200  27.267  1.00  0.00     0.001 A 
ATOM     80  C   UNL A   1      50.810  25.717  27.582  1.00  0.00     0.000 A 
ENDBRANCH  62  75
ENDBRANCH  36  37
ENDBRANCH  29  31
ENDBRANCH  28  29
ENDBRANCH  27  28
ENDBRANCH  26  27
ENDBRANCH  25  26
ENDBRANCH   1  25
TORSDOF 18
ENDMDL
MODEL 2
REMARK VINA RESULT:      -9.9      5.605     10.481
REMARK SMILES Nc1c(CC(=O)OCCOCCOC(=O)c2ccc(-c3c4nc(c(-c5ccccc5)c5ccc([nH]5)c(-c5ccccc5)c5nc(c(-c6ccccc6)c6ccc3[nH]6)C=C5)C=C4)cc2)cccc1C(=O)c1ccc(Br)cc1
REMARK SMILES IDX 9 1 8 2 7 3 5 4 6 5 4 6 3 7 2 8 67 9 64 10 66 11 65 12 1 13
REMARK SMILES IDX 68 16 69 17 70 18 71 19 76 20 72 21 75 22 73 23 74 24 10 25
REMARK SMILES IDX 11 26 12 27 13 28 14 29 15 30 16 31 17 32 63 33 18 34 62 35
REMARK SMILES IDX 19 36 20 37 21 38 56 39 22 40 61 41 55 42 57 43 23 44 60 45
REMARK SMILES IDX 54 46 53 47 24 49 46 50 31 51 45 52 32 53 35 54 44 55 58 56
REMARK SMILES IDX 33 57 34 58 43 60 59 61 36 62 25 63 26 64 30 65 27 66 29 67
REMARK SMILES IDX 28 68 47 69 48 70 52 71 49 72 51 73 50 74 37 75 38 76 42 77
REMARK SMILES IDX 39 78 41 79 40 80
REMARK H PARENT 1 14 1 15 57 48 35 59
REMARK Flexibility Score: inf
ROOT
ATOM      1  C   UNL A   1      35.553  20.694  24.944  1.00  0.00     0.202 C 
ENDROOT
BRANCH   1   2
ATOM      2  C   UNL A   1      34.468  19.614  24.997  1.00  0.00     0.261 C 
BRANCH   2   3
ATOM      3  O   UNL A   1      33.561  19.756  23.891  1.00  0.00    -0.463 OA
BRANCH   3   4
ATOM      4  C   UNL A   1      32.467  20.521  24.126  1.00  0.00     0.310 C 
ATOM      5  O   UNL A   1      31.859  20.552  25.192  1.00  0.00    -0.252 OA
BRANCH   4   6
ATOM      6  C   UNL A   1      32.104  21.434  22.979  1.00  0.00     0.160 C 
BRANCH   6   7
ATOM      7  C   UNL A   1      32.576  22.876  23.030  1.00  0.00    -0.013 A 
ATOM      8  C   UNL A   1      31.671  23.955  23.137  1.00  0.00     0.047 A 
ATOM      9  C   UNL A   1      32.202  25.242  23.413  1.00  0.00     0.046 A 
ATOM     10  C   UNL A   1      33.964  23.121  23.032  1.00  0.00     0.006 A 
ATOM     11  C   UNL A   1      33.590  25.464  23.385  1.00  0.00     0.014 A 
ATOM     12  C   UNL A   1      34.468  24.409  23.174  1.00  0.00     0.001 A 
BRANCH   8  13
ATOM     13  N   UNL A   1      30.300  23.707  23.084  1.00  0.00    -0.398 N 
ATOM     14  H   UNL A   1      29.698  24.133  23.737  1.00  0.00     0.156 HD
ATOM     15  H   UNL A   1      29.935  23.105  22.396  1.00  0.00     0.156 HD
ENDBRANCH   8  13
BRANCH   9  16
ATOM     16  C   UNL A   1      31.375  26.438  23.751  1.00  0.00     0.195 C 
ATOM     17  O   UNL A   1      30.262  26.575  23.250  1.00  0.00    -0.289 OA
BRANCH  16  18
ATOM     18  C   UNL A   1      31.861  27.479  24.687  1.00  0.00     0.023 A 
ATOM     19  C   UNL A   1      32.090  27.107  26.017  1.00  0.00     0.013 A 
ATOM     20  C   UNL A   1      32.162  28.778  24.257  1.00  0.00     0.013 A 
ATOM     21  C   UNL A   1      32.691  28.008  26.898  1.00  0.00     0.016 A 
ATOM     22  C   UNL A   1      32.765  29.677  25.140  1.00  0.00     0.016 A 
ATOM     23  C   UNL A   1      33.042  29.281  26.450  1.00  0.00     0.018 A 
ATOM     24  Br  UNL A   1      33.925  30.474  27.621  1.00  0.00    -0.051 Br
ENDBRANCH  16  18
ENDBRANCH   9  16
ENDBRANCH   6   7
ENDBRANCH   4   6
ENDBRANCH   3   4
ENDBRANCH   2   3
ENDBRANCH   1   2
BRANCH   1  25
ATOM     25  O   UNL A   1      35.461  21.713  25.943  1.00  0.00    -0.374 OA
BRANCH  25  26
ATOM     26  C   UNL A   1      36.409  22.779  25.878  1.00  0.00     0.202 C 
BRANCH  26  27
ATOM     27  C   UNL A   1      37.783  22.433  25.292  1.00  0.00     0.261 C 
BRANCH  27  28
ATOM     28  O   UNL A   1      38.696  21.944  26.289  1.00  0.00    -0.460 OA
BRANCH  28  29
ATOM     29  C   UNL A   1      39.884  22.589  26.318  1.00  0.00     0.338 C 
ATOM     30  O   UNL A   1      40.947  22.201  25.847  1.00  0.00    -0.246 OA
BRANCH  29  31
ATOM     31  C   UNL A   1      39.741  23.951  26.865  1.00  0.00     0.060 A 
ATOM     32  C   UNL A   1      40.356  24.983  26.145  1.00  0.00     0.016 A 
ATOM     33  C   UNL A   1      39.137  24.208  28.098  1.00  0.00     0.016 A 
ATOM     34  C   UNL A   1      40.451  26.255  26.696  1.00  0.00     0.010 A 
ATOM     35  C   UNL A   1      39.236  25.492  28.653  1.00  0.00     0.010 A 
ATOM     36  C   UNL A   1      39.943  26.503  27.979  1.00  0.00    -0.014 A 
BRANCH  36  37
ATOM     37  C   UNL A   1      40.334  27.767  28.653  1.00  0.00     0.031 A 
ATOM     38  C   UNL A   1      41.772  27.962  29.058  1.00  0.00     0.074 A 
ATOM     39  C   UNL A   1      39.455  28.774  28.797  1.00  0.00     0.049 A 
ATOM     40  N   UNL A   1      42.362  29.030  29.535  1.00  0.00    -0.248 NA
ATOM     41  C   UNL A   1      42.666  26.804  28.896  1.00  0.00     0.031 C 
ATOM     42  C   UNL A   1      38.046  28.728  28.410  1.00  0.00     0.029 A 
ATOM     43  N   UNL A   1      39.629  30.042  29.292  1.00  0.00    -0.354 N 
ATOM     44  C   UNL A   1      43.693  28.673  29.722  1.00  0.00     0.074 A 
ATOM     45  C   UNL A   1      43.816  27.282  29.346  1.00  0.00     0.031 C 
ATOM     46  C   UNL A   1      37.486  29.923  28.667  1.00  0.00     0.029 A 
ATOM     47  C   UNL A   1      38.492  30.809  29.249  1.00  0.00     0.049 A 
ATOM     48  H   UNL A   1      40.488  30.371  29.642  1.00  0.00     0.167 HD
ATOM     49  C   UNL A   1      44.724  29.435  30.157  1.00  0.00     0.031 A 
ATOM     50  C   UNL A   1      38.286  32.084  29.632  1.00  0.00     0.031 A 
ATOM     51  C   UNL A   1      44.609  30.815  30.546  1.00  0.00     0.049 A 
ATOM     52  C   UNL A   1      39.435  32.892  30.169  1.00  0.00     0.074 A 
ATOM     53  C   UNL A   1      45.600  31.673  30.988  1.00  0.00     0.029 A 
ATOM     54  N   UNL A   1      43.425  31.535  30.546  1.00  0.00    -0.354 N 
ATOM     55  N   UNL A   1      40.694  32.552  30.305  1.00  0.00    -0.248 NA
ATOM     56  C   UNL A   1      39.134  34.268  30.592  1.00  0.00     0.031 C 
ATOM     57  C   UNL A   1      45.006  32.901  31.303  1.00  0.00     0.029 A 
ATOM     58  C   UNL A   1      43.655  32.820  31.005  1.00  0.00     0.049 A 
ATOM     59  H   UNL A   1      42.550  31.184  30.259  1.00  0.00     0.167 HD
ATOM     60  C   UNL A   1      41.338  33.676  30.808  1.00  0.00     0.074 A 
ATOM     61  C   UNL A   1      40.336  34.714  30.933  1.00  0.00     0.031 C 
ATOM     62  C   UNL A   1      42.645  33.837  31.134  1.00  0.00     0.031 A 
BRANCH  49  63
ATOM     63  C   UNL A   1      46.071  28.775  30.260  1.00  0.00    -0.014 A 
ATOM     64  C   UNL A   1      46.485  28.148  31.446  1.00  0.00     0.009 A 
ATOM     65  C   UNL A   1      46.926  28.762  29.148  1.00  0.00     0.009 A 
ATOM     66  C   UNL A   1      47.745  27.549  31.525  1.00  0.00     0.001 A 
ATOM     67  C   UNL A   1      48.175  28.141  29.223  1.00  0.00     0.001 A 
ATOM     68  C   UNL A   1      48.586  27.543  30.413  1.00  0.00     0.000 A 
ENDBRANCH  49  63
BRANCH  50  69
ATOM     69  C   UNL A   1      36.930  32.682  29.524  1.00  0.00    -0.014 A 
ATOM     70  C   UNL A   1      36.521  33.327  28.347  1.00  0.00     0.009 A 
ATOM     71  C   UNL A   1      36.044  32.626  30.612  1.00  0.00     0.009 A 
ATOM     72  C   UNL A   1      35.259  33.923  28.271  1.00  0.00     0.001 A 
ATOM     73  C   UNL A   1      34.775  33.200  30.523  1.00  0.00     0.001 A 
ATOM     74  C   UNL A   1      34.387  33.855  29.356  1.00  0.00     0.000 A 
ENDBRANCH  50  69
BRANCH  62  75
ATOM     75  C   UNL A   1      43.063  35.189  31.640  1.00  0.00    -0.014 A 
ATOM     76  C   UNL A   1      42.969  35.517  33.002  1.00  0.00     0.009 A 
ATOM     77  C   UNL A   1      43.583  36.138  30.745  1.00  0.00     0.009 A 
ATOM     78  C   UNL A   1      43.354  36.781  33.451  1.00  0.00     0.001 A 
ATOM     79  C   UNL A   1      43.992  37.392  31.202  1.00  0.00     0.001 A 
ATOM     80  C   UNL A   1      43.867  37.716  32.552  1.00  0.00     0.000 A 
ENDBRANCH  62  75
ENDBRANCH  36  37
ENDBRANCH  29  31
ENDBRANCH  28  29
ENDBRANCH  27  28
ENDBRANCH  26  27
ENDBRANCH  25  26
ENDBRANCH   1  25
TORSDOF 18
ENDMDL
MODEL 3
REMARK VINA RESULT:      -9.8      5.715     12.094
REMARK SMILES Nc1c(CC(=O)OCCOCCOC(=O)c2ccc(-c3c4nc(c(-c5ccccc5)c5ccc([nH]5)c(-c5ccccc5)c5nc(c(-c6ccccc6)c6ccc3[nH]6)C=C5)C=C4)cc2)cccc1C(=O)c1ccc(Br)cc1
REMARK SMILES IDX 9 1 8 2 7 3 5 4 6 5 4 6 3 7 2 8 67 9 64 10 66 11 65 12 1 13
REMARK SMILES IDX 68 16 69 17 70 18 71 19 76 20 72 21 75 22 73 23 74 24 10 25
REMARK SMILES IDX 11 26 12 27 13 28 14 29 15 30 16 31 17 32 63 33 18 34 62 35
REMARK SMILES IDX 19 36 20 37 21 38 56 39 22 40 61 41 55 42 57 43 23 44 60 45
REMARK SMILES IDX 54 46 53 47 24 49 46 50 31 51 45 52 32 53 35 54 44 55 58 56
REMARK SMILES IDX 33 57 34 58 43 60 59 61 36 62 25 63 26 64 30 65 27 66 29 67
REMARK SMILES IDX 28 68 47 69 48 70 52 71 49 72 51 73 50 74 37 75 38 76 42 77
REMARK SMILES IDX 39 78 41 79 40 80
REMARK H PARENT 1 14 1 15 57 48 35 59
REMARK Flexibility Score: inf
ROOT
ATOM      1  C   UNL A   1      45.117  20.566  24.764  1.00  0.00     0.202 C 
ENDROOT
BRANCH   1   2
ATOM      2  C   UNL A   1      43.764  20.771  25.452  1.00  0.00     0.261 C 
BRANCH   2   3
ATOM      3  O   UNL A   1      42.941  19.602  25.300  1.00  0.00    -0.463 OA
BRANCH   3   4
ATOM      4  C   UNL A   1      42.616  18.961  26.451  1.00  0.00     0.310 C 
ATOM      5  O   UNL A   1      43.002  17.836  26.749  1.00  0.00    -0.252 OA
BRANCH   4   6
ATOM      6  C   UNL A   1      41.805  19.802  27.409  1.00  0.00     0.160 C 
BRANCH   6   7
ATOM      7  C   UNL A   1      40.706  20.682  26.842  1.00  0.00    -0.013 A 
ATOM      8  C   UNL A   1      39.680  20.161  26.022  1.00  0.00     0.047 A 
ATOM      9  C   UNL A   1      38.573  20.999  25.732  1.00  0.00     0.046 A 
ATOM     10  C   UNL A   1      40.690  22.044  27.206  1.00  0.00     0.006 A 
ATOM     11  C   UNL A   1      38.594  22.360  26.085  1.00  0.00     0.014 A 
ATOM     12  C   UNL A   1      39.659  22.885  26.803  1.00  0.00     0.001 A 
BRANCH   8  13
ATOM     13  N   UNL A   1      39.732  18.825  25.626  1.00  0.00    -0.398 N 
ATOM     14  H   UNL A   1      40.272  18.181  26.140  1.00  0.00     0.156 HD
ATOM     15  H   UNL A   1      39.230  18.526  24.834  1.00  0.00     0.156 HD
ENDBRANCH   8  13
BRANCH   9  16
ATOM     16  C   UNL A   1      37.325  20.538  25.054  1.00  0.00     0.195 C 
ATOM     17  O   UNL A   1      37.127  19.338  24.883  1.00  0.00    -0.289 OA
BRANCH  16  18
ATOM     18  C   UNL A   1      36.302  21.498  24.574  1.00  0.00     0.023 A 
ATOM     19  C   UNL A   1      36.710  22.497  23.682  1.00  0.00     0.013 A 
ATOM     20  C   UNL A   1      34.953  21.380  24.930  1.00  0.00     0.013 A 
ATOM     21  C   UNL A   1      35.759  23.326  23.084  1.00  0.00     0.016 A 
ATOM     22  C   UNL A   1      34.003  22.211  24.331  1.00  0.00     0.016 A 
ATOM     23  C   UNL A   1      34.409  23.167  23.399  1.00  0.00     0.018 A 
ATOM     24  Br  UNL A   1      33.116  24.239  22.533  1.00  0.00    -0.051 Br
ENDBRANCH  16  18
ENDBRANCH   9  16
ENDBRANCH   6   7
ENDBRANCH   4   6
ENDBRANCH   3   4
ENDBRANCH   2   3
ENDBRANCH   1   2
BRANCH   1  25
ATOM     25  O   UNL A   1      46.212  21.299  25.321  1.00  0.00    -0.374 OA
BRANCH  25  26
ATOM     26  C   UNL A   1      45.898  22.473  26.070  1.00  0.00     0.202 C 
BRANCH  26  27
ATOM     27  C   UNL A   1      46.616  23.760  25.651  1.00  0.00     0.261 C 
BRANCH  27  28
ATOM     28  O   UNL A   1      45.861  24.940  25.976  1.00  0.00    -0.460 OA
BRANCH  28  29
ATOM     29  C   UNL A   1      44.668  25.027  25.346  1.00  0.00     0.338 C 
ATOM     30  O   UNL A   1      44.337  24.461  24.311  1.00  0.00    -0.246 OA
BRANCH  29  31
ATOM     31  C   UNL A   1      43.693  25.788  26.148  1.00  0.00     0.060 A 
ATOM     32  C   UNL A   1      44.031  27.111  26.456  1.00  0.00     0.016 A 
ATOM     33  C   UNL A   1      42.545  25.206  26.690  1.00  0.00     0.016 A 
ATOM     34  C   UNL A   1      43.276  27.827  27.378  1.00  0.00     0.010 A 
ATOM     35  C   UNL A   1      41.785  25.928  27.621  1.00  0.00     0.010 A 
ATOM     36  C   UNL A   1      42.183  27.220  28.010  1.00  0.00    -0.014 A 
BRANCH  36  37
ATOM     37  C   UNL A   1      41.600  27.893  29.198  1.00  0.00     0.031 A 
ATOM     38  C   UNL A   1      42.307  27.772  30.523  1.00  0.00     0.074 A 
ATOM     39  C   UNL A   1      40.528  28.696  29.081  1.00  0.00     0.049 A 
ATOM     40  N   UNL A   1      42.055  28.380  31.656  1.00  0.00    -0.248 NA
ATOM     41  C   UNL A   1      43.454  26.851  30.577  1.00  0.00     0.031 C 
ATOM     42  C   UNL A   1      39.778  28.931  27.848  1.00  0.00     0.029 A 
ATOM     43  N   UNL A   1      39.899  29.480  30.015  1.00  0.00    -0.354 N 
ATOM     44  C   UNL A   1      43.014  27.921  32.551  1.00  0.00     0.074 A 
ATOM     45  C   UNL A   1      43.828  26.955  31.844  1.00  0.00     0.031 C 
ATOM     46  C   UNL A   1      38.798  29.816  28.099  1.00  0.00     0.029 A 
ATOM     47  C   UNL A   1      38.843  30.196  29.509  1.00  0.00     0.049 A 
ATOM     48  H   UNL A   1      40.179  29.526  30.957  1.00  0.00     0.167 HD
ATOM     49  C   UNL A   1      43.212  28.276  33.843  1.00  0.00     0.031 A 
ATOM     50  C   UNL A   1      38.008  31.063  30.114  1.00  0.00     0.031 A 
ATOM     51  C   UNL A   1      42.401  29.224  34.558  1.00  0.00     0.049 A 
ATOM     52  C   UNL A   1      38.211  31.396  31.567  1.00  0.00     0.074 A 
ATOM     53  C   UNL A   1      42.530  29.658  35.866  1.00  0.00     0.029 A 
ATOM     54  N   UNL A   1      41.302  29.879  34.025  1.00  0.00    -0.354 N 
ATOM     55  N   UNL A   1      39.144  30.982  32.389  1.00  0.00    -0.248 NA
ATOM     56  C   UNL A   1      37.249  32.331  32.170  1.00  0.00     0.031 C 
ATOM     57  C   UNL A   1      41.479  30.540  36.139  1.00  0.00     0.029 A 
ATOM     58  C   UNL A   1      40.728  30.694  34.984  1.00  0.00     0.049 A 
ATOM     59  H   UNL A   1      40.980  29.780  33.099  1.00  0.00     0.167 HD
ATOM     60  C   UNL A   1      38.896  31.621  33.598  1.00  0.00     0.074 A 
ATOM     61  C   UNL A   1      37.737  32.465  33.396  1.00  0.00     0.031 C 
ATOM     62  C   UNL A   1      39.569  31.519  34.771  1.00  0.00     0.031 A 
BRANCH  49  63
ATOM     63  C   UNL A   1      44.342  27.608  34.574  1.00  0.00    -0.014 A 
ATOM     64  C   UNL A   1      44.149  26.401  35.266  1.00  0.00     0.009 A 
ATOM     65  C   UNL A   1      45.621  28.183  34.553  1.00  0.00     0.009 A 
ATOM     66  C   UNL A   1      45.209  25.801  35.949  1.00  0.00     0.001 A 
ATOM     67  C   UNL A   1      46.685  27.568  35.217  1.00  0.00     0.001 A 
ATOM     68  C   UNL A   1      46.476  26.383  35.921  1.00  0.00     0.000 A 
ENDBRANCH  49  63
BRANCH  50  69
ATOM     69  C   UNL A   1      36.897  31.683  29.347  1.00  0.00    -0.014 A 
ATOM     70  C   UNL A   1      37.050  32.944  28.751  1.00  0.00     0.009 A 
ATOM     71  C   UNL A   1      35.666  31.018  29.224  1.00  0.00     0.009 A 
ATOM     72  C   UNL A   1      35.984  33.536  28.068  1.00  0.00     0.001 A 
ATOM     73  C   UNL A   1      34.613  31.601  28.519  1.00  0.00     0.001 A 
ATOM     74  C   UNL A   1      34.770  32.863  27.949  1.00  0.00     0.000 A 
ENDBRANCH  50  69
BRANCH  62  75
ATOM     75  C   UNL A   1      39.076  32.357  35.918  1.00  0.00    -0.014 A 
ATOM     76  C   UNL A   1      38.148  31.851  36.841  1.00  0.00     0.009 A 
ATOM     77  C   UNL A   1      39.568  33.661  36.091  1.00  0.00     0.009 A 
ATOM     78  C   UNL A   1      37.695  32.648  37.895  1.00  0.00     0.001 A 
ATOM     79  C   UNL A   1      39.134  34.445  37.160  1.00  0.00     0.001 A 
ATOM     80  C   UNL A   1      38.190  33.943  38.055  1.00  0.00     0.000 A 
ENDBRANCH  62  75
ENDBRANCH  36  37
ENDBRANCH  29  31
ENDBRANCH  28  29
ENDBRANCH  27  28
ENDBRANCH  26  27
ENDBRANCH  25  26
ENDBRANCH   1  25
TORSDOF 18
ENDMDL
