MODEL 1
REMARK VINA RESULT:     -11.1      0.000      0.000
REMARK SMILES COc1ccccc1-n1nnc(C(=O)OCCOCCOC(=O)c2ccc(-c3c4nc(c(-c5ccccc5)c5ccc([nH]5)c(-c5ccccc5)c5nc(c(-c6ccccc6)c6ccc3[nH]6)C=C5)C=C4)cc2)c1-c1ccc(Cl)cc1
REMARK SMILES IDX 18 1 17 2 16 3 15 4 13 5 14 6 12 7 9 8 10 9 72 10 11 11 8 12
REMARK SMILES IDX 3 13 4 14 5 15 7 16 6 17 2 18 1 19 73 20 74 21 79 22 75 23
REMARK SMILES IDX 78 24 76 25 77 26 19 27 20 28 21 29 22 30 23 31 24 32 25 33
REMARK SMILES IDX 71 34 26 35 70 36 27 37 28 38 29 39 64 40 30 41 69 42 63 43
REMARK SMILES IDX 65 44 31 45 68 46 62 47 61 48 32 50 54 51 39 52 53 53 40 54
REMARK SMILES IDX 43 55 52 56 66 57 41 58 42 59 51 61 67 62 44 63 33 64 34 65
REMARK SMILES IDX 38 66 35 67 37 68 36 69 55 70 56 71 60 72 57 73 59 74 58 75
REMARK SMILES IDX 45 76 46 77 50 78 47 79 49 80 48 81
REMARK H PARENT 65 49 43 60
REMARK Flexibility Score: inf
ROOT
ATOM      1  O   UNL A   1      32.573  29.700  24.820  1.00  0.00    -0.374 OA
ENDROOT
BRANCH   1   2
ATOM      2  C   UNL A   1      32.090  28.896  23.743  1.00  0.00     0.202 C 
BRANCH   2   3
ATOM      3  C   UNL A   1      33.080  27.937  23.087  1.00  0.00     0.261 C 
BRANCH   3   4
ATOM      4  O   UNL A   1      33.974  27.403  24.069  1.00  0.00    -0.458 OA
BRANCH   4   5
ATOM      5  C   UNL A   1      33.444  26.542  24.986  1.00  0.00     0.361 C 
ATOM      6  O   UNL A   1      33.337  26.771  26.175  1.00  0.00    -0.244 OA
BRANCH   5   7
ATOM      7  C   UNL A   1      32.935  25.338  24.348  1.00  0.00     0.198 A 
ATOM      8  N   UNL A   1      32.528  23.311  23.714  1.00  0.00    -0.208 N 
ATOM      9  N   UNL A   1      31.536  24.089  23.225  1.00  0.00    -0.061 NA
ATOM     10  C   UNL A   1      33.556  24.106  24.206  1.00  0.00     0.109 A 
ATOM     11  N   UNL A   1      31.710  25.304  23.724  1.00  0.00    -0.122 NA
BRANCH   8  12
ATOM     12  C   UNL A   1      32.382  21.913  23.790  1.00  0.00     0.109 A 
ATOM     13  C   UNL A   1      32.479  21.241  25.016  1.00  0.00     0.144 A 
ATOM     14  C   UNL A   1      32.525  19.848  25.027  1.00  0.00     0.049 A 
ATOM     15  C   UNL A   1      32.416  19.130  23.835  1.00  0.00     0.004 A 
ATOM     16  C   UNL A   1      32.196  21.197  22.598  1.00  0.00     0.032 A 
ATOM     17  C   UNL A   1      32.233  19.803  22.625  1.00  0.00     0.003 A 
BRANCH  13  18
ATOM     18  O   UNL A   1      32.584  21.846  26.241  1.00  0.00    -0.494 OA
ATOM     19  C   UNL A   1      33.563  21.255  27.100  1.00  0.00     0.278 C 
ENDBRANCH  13  18
ENDBRANCH   8  12
BRANCH  10  20
ATOM     20  C   UNL A   1      34.897  23.631  24.548  1.00  0.00     0.003 A 
ATOM     21  C   UNL A   1      35.623  22.836  23.651  1.00  0.00     0.012 A 
ATOM     22  C   UNL A   1      35.474  23.960  25.784  1.00  0.00     0.012 A 
ATOM     23  C   UNL A   1      36.891  22.361  23.987  1.00  0.00     0.021 A 
ATOM     24  C   UNL A   1      36.746  23.491  26.118  1.00  0.00     0.021 A 
ATOM     25  C   UNL A   1      37.446  22.688  25.220  1.00  0.00     0.041 A 
ATOM     26  Cl  UNL A   1      39.006  22.097  25.638  1.00  0.00    -0.084 Cl
ENDBRANCH  10  20
ENDBRANCH   5   7
ENDBRANCH   4   5
ENDBRANCH   3   4
ENDBRANCH   2   3
ENDBRANCH   1   2
BRANCH   1  27
ATOM     27  C   UNL A   1      31.755  29.953  25.957  1.00  0.00     0.202 C 
BRANCH  27  28
ATOM     28  C   UNL A   1      31.722  31.361  26.532  1.00  0.00     0.261 C 
BRANCH  28  29
ATOM     29  O   UNL A   1      32.856  31.667  27.328  1.00  0.00    -0.460 OA
BRANCH  29  30
ATOM     30  C   UNL A   1      32.839  32.933  27.807  1.00  0.00     0.338 C 
ATOM     31  O   UNL A   1      32.024  33.807  27.568  1.00  0.00    -0.246 OA
BRANCH  30  32
ATOM     32  C   UNL A   1      34.083  33.180  28.536  1.00  0.00     0.060 A 
ATOM     33  C   UNL A   1      35.119  33.782  27.816  1.00  0.00     0.016 A 
ATOM     34  C   UNL A   1      34.305  32.494  29.737  1.00  0.00     0.016 A 
ATOM     35  C   UNL A   1      36.413  33.478  28.169  1.00  0.00     0.010 A 
ATOM     36  C   UNL A   1      35.594  32.178  30.076  1.00  0.00     0.010 A 
ATOM     37  C   UNL A   1      36.618  32.588  29.228  1.00  0.00    -0.014 A 
BRANCH  37  38
ATOM     38  C   UNL A   1      37.965  32.155  29.523  1.00  0.00     0.031 A 
ATOM     39  C   UNL A   1      38.128  30.708  29.280  1.00  0.00     0.074 A 
ATOM     40  C   UNL A   1      38.946  33.024  29.834  1.00  0.00     0.049 A 
ATOM     41  N   UNL A   1      38.216  29.774  30.167  1.00  0.00    -0.248 NA
ATOM     42  C   UNL A   1      37.925  30.219  27.904  1.00  0.00     0.031 C 
ATOM     43  C   UNL A   1      38.910  34.490  29.815  1.00  0.00     0.029 A 
ATOM     44  N   UNL A   1      40.243  32.766  30.140  1.00  0.00    -0.354 N 
ATOM     45  C   UNL A   1      38.321  28.597  29.437  1.00  0.00     0.074 A 
ATOM     46  C   UNL A   1      37.864  28.904  28.108  1.00  0.00     0.031 C 
ATOM     47  C   UNL A   1      40.177  34.969  29.847  1.00  0.00     0.029 A 
ATOM     48  C   UNL A   1      41.096  33.857  30.024  1.00  0.00     0.049 A 
ATOM     49  H   UNL A   1      40.555  31.875  30.422  1.00  0.00     0.167 HD
ATOM     50  C   UNL A   1      39.113  27.581  29.870  1.00  0.00     0.031 A 
ATOM     51  C   UNL A   1      42.454  33.817  30.011  1.00  0.00     0.031 A 
ATOM     52  C   UNL A   1      39.449  27.739  31.264  1.00  0.00     0.049 A 
ATOM     53  C   UNL A   1      42.862  32.501  30.560  1.00  0.00     0.074 A 
ATOM     54  C   UNL A   1      38.735  27.800  32.443  1.00  0.00     0.029 A 
ATOM     55  N   UNL A   1      40.683  28.280  31.533  1.00  0.00    -0.354 N 
ATOM     56  N   UNL A   1      42.683  32.161  31.803  1.00  0.00    -0.248 NA
ATOM     57  C   UNL A   1      43.017  31.396  29.626  1.00  0.00     0.031 C 
ATOM     58  C   UNL A   1      39.416  28.767  33.240  1.00  0.00     0.029 A 
ATOM     59  C   UNL A   1      40.551  29.191  32.546  1.00  0.00     0.049 A 
ATOM     60  H   UNL A   1      41.523  28.051  31.073  1.00  0.00     0.167 HD
ATOM     61  C   UNL A   1      42.245  30.845  31.747  1.00  0.00     0.074 A 
ATOM     62  C   UNL A   1      42.562  30.398  30.390  1.00  0.00     0.031 C 
ATOM     63  C   UNL A   1      41.403  30.350  32.702  1.00  0.00     0.031 A 
BRANCH  50  64
ATOM     64  C   UNL A   1      39.980  26.771  28.931  1.00  0.00    -0.014 A 
ATOM     65  C   UNL A   1      41.082  27.407  28.336  1.00  0.00     0.009 A 
ATOM     66  C   UNL A   1      39.601  25.528  28.385  1.00  0.00     0.009 A 
ATOM     67  C   UNL A   1      41.706  26.871  27.203  1.00  0.00     0.001 A 
ATOM     68  C   UNL A   1      40.246  24.969  27.280  1.00  0.00     0.001 A 
ATOM     69  C   UNL A   1      41.281  25.658  26.670  1.00  0.00     0.000 A 
ENDBRANCH  50  64
BRANCH  51  70
ATOM     70  C   UNL A   1      43.409  34.672  29.264  1.00  0.00    -0.014 A 
ATOM     71  C   UNL A   1      43.882  34.295  27.995  1.00  0.00     0.009 A 
ATOM     72  C   UNL A   1      43.630  36.000  29.672  1.00  0.00     0.009 A 
ATOM     73  C   UNL A   1      44.522  35.221  27.157  1.00  0.00     0.001 A 
ATOM     74  C   UNL A   1      44.268  36.924  28.834  1.00  0.00     0.001 A 
ATOM     75  C   UNL A   1      44.703  36.538  27.571  1.00  0.00     0.000 A 
ENDBRANCH  51  70
BRANCH  63  76
ATOM     76  C   UNL A   1      41.173  31.187  33.937  1.00  0.00    -0.014 A 
ATOM     77  C   UNL A   1      40.277  32.271  33.991  1.00  0.00     0.009 A 
ATOM     78  C   UNL A   1      41.783  30.768  35.128  1.00  0.00     0.009 A 
ATOM     79  C   UNL A   1      40.024  32.929  35.201  1.00  0.00     0.001 A 
ATOM     80  C   UNL A   1      41.513  31.411  36.337  1.00  0.00     0.001 A 
ATOM     81  C   UNL A   1      40.638  32.494  36.374  1.00  0.00     0.000 A 
ENDBRANCH  63  76
ENDBRANCH  37  38
ENDBRANCH  30  32
ENDBRANCH  29  30
ENDBRANCH  28  29
ENDBRANCH  27  28
ENDBRANCH   1  27
TORSDOF 17
ENDMDL
MODEL 2
REMARK VINA RESULT:     -10.9      2.738      7.217
REMARK SMILES COc1ccccc1-n1nnc(C(=O)OCCOCCOC(=O)c2ccc(-c3c4nc(c(-c5ccccc5)c5ccc([nH]5)c(-c5ccccc5)c5nc(c(-c6ccccc6)c6ccc3[nH]6)C=C5)C=C4)cc2)c1-c1ccc(Cl)cc1
REMARK SMILES IDX 18 1 17 2 16 3 15 4 13 5 14 6 12 7 9 8 10 9 72 10 11 11 8 12
REMARK SMILES IDX 3 13 4 14 5 15 7 16 6 17 2 18 1 19 73 20 74 21 79 22 75 23
REMARK SMILES IDX 78 24 76 25 77 26 19 27 20 28 21 29 22 30 23 31 24 32 25 33
REMARK SMILES IDX 71 34 26 35 70 36 27 37 28 38 29 39 64 40 30 41 69 42 63 43
REMARK SMILES IDX 65 44 31 45 68 46 62 47 61 48 32 50 54 51 39 52 53 53 40 54
REMARK SMILES IDX 43 55 52 56 66 57 41 58 42 59 51 61 67 62 44 63 33 64 34 65
REMARK SMILES IDX 38 66 35 67 37 68 36 69 55 70 56 71 60 72 57 73 59 74 58 75
REMARK SMILES IDX 45 76 46 77 50 78 47 79 49 80 48 81
REMARK H PARENT 65 49 43 60
REMARK Flexibility Score: inf
ROOT
ATOM      1  O   UNL A   1      36.379  21.813  25.434  1.00  0.00    -0.374 OA
ENDROOT
BRANCH   1   2
ATOM      2  C   UNL A   1      35.244  20.962  25.273  1.00  0.00     0.202 C 
BRANCH   2   3
ATOM      3  C   UNL A   1      33.944  21.395  25.945  1.00  0.00     0.261 C 
BRANCH   3   4
ATOM      4  O   UNL A   1      33.264  22.356  25.131  1.00  0.00    -0.458 OA
BRANCH   4   5
ATOM      5  C   UNL A   1      33.118  23.612  25.647  1.00  0.00     0.361 C 
ATOM      6  O   UNL A   1      33.864  24.120  26.462  1.00  0.00    -0.244 OA
BRANCH   5   7
ATOM      7  C   UNL A   1      32.001  24.310  25.030  1.00  0.00     0.198 A 
ATOM      8  N   UNL A   1      30.663  25.761  24.148  1.00  0.00    -0.208 N 
ATOM      9  N   UNL A   1      30.136  24.539  23.914  1.00  0.00    -0.061 NA
ATOM     10  C   UNL A   1      31.699  25.663  25.069  1.00  0.00     0.109 A 
ATOM     11  N   UNL A   1      31.019  23.645  24.333  1.00  0.00    -0.122 NA
BRANCH   8  12
ATOM     12  C   UNL A   1      30.240  26.885  23.414  1.00  0.00     0.109 A 
ATOM     13  C   UNL A   1      31.103  27.531  22.518  1.00  0.00     0.144 A 
ATOM     14  C   UNL A   1      30.719  28.749  21.959  1.00  0.00     0.049 A 
ATOM     15  C   UNL A   1      29.464  29.289  22.244  1.00  0.00     0.004 A 
ATOM     16  C   UNL A   1      28.949  27.385  23.644  1.00  0.00     0.032 A 
ATOM     17  C   UNL A   1      28.574  28.599  23.070  1.00  0.00     0.003 A 
BRANCH  13  18
ATOM     18  O   UNL A   1      32.350  27.085  22.165  1.00  0.00    -0.494 OA
ATOM     19  C   UNL A   1      32.336  25.938  21.311  1.00  0.00     0.278 C 
ENDBRANCH  13  18
ENDBRANCH   8  12
BRANCH  10  20
ATOM     20  C   UNL A   1      32.310  26.791  25.771  1.00  0.00     0.003 A 
ATOM     21  C   UNL A   1      33.571  27.271  25.390  1.00  0.00     0.012 A 
ATOM     22  C   UNL A   1      31.645  27.408  26.842  1.00  0.00     0.012 A 
ATOM     23  C   UNL A   1      34.167  28.329  26.076  1.00  0.00     0.021 A 
ATOM     24  C   UNL A   1      32.238  28.472  27.525  1.00  0.00     0.021 A 
ATOM     25  C   UNL A   1      33.499  28.924  27.142  1.00  0.00     0.041 A 
ATOM     26  Cl  UNL A   1      34.236  30.224  27.992  1.00  0.00    -0.084 Cl
ENDBRANCH  10  20
ENDBRANCH   5   7
ENDBRANCH   4   5
ENDBRANCH   3   4
ENDBRANCH   2   3
ENDBRANCH   1   2
BRANCH   1  27
ATOM     27  C   UNL A   1      37.636  21.456  24.871  1.00  0.00     0.202 C 
BRANCH  27  28
ATOM     28  C   UNL A   1      38.865  21.457  25.768  1.00  0.00     0.261 C 
BRANCH  28  29
ATOM     29  O   UNL A   1      39.043  22.678  26.469  1.00  0.00    -0.460 OA
BRANCH  29  30
ATOM     30  C   UNL A   1      40.182  22.706  27.199  1.00  0.00     0.338 C 
ATOM     31  O   UNL A   1      40.663  21.802  27.861  1.00  0.00    -0.246 OA
BRANCH  30  32
ATOM     32  C   UNL A   1      40.686  24.079  27.239  1.00  0.00     0.060 A 
ATOM     33  C   UNL A   1      41.799  24.312  28.052  1.00  0.00     0.016 A 
ATOM     34  C   UNL A   1      39.853  25.113  26.796  1.00  0.00     0.016 A 
ATOM     35  C   UNL A   1      41.929  25.553  28.630  1.00  0.00     0.010 A 
ATOM     36  C   UNL A   1      39.973  26.343  27.386  1.00  0.00     0.010 A 
ATOM     37  C   UNL A   1      40.944  26.511  28.369  1.00  0.00    -0.014 A 
BRANCH  37  38
ATOM     38  C   UNL A   1      40.994  27.770  29.074  1.00  0.00     0.031 A 
ATOM     39  C   UNL A   1      42.070  28.635  28.551  1.00  0.00     0.074 A 
ATOM     40  C   UNL A   1      40.065  28.122  29.984  1.00  0.00     0.049 A 
ATOM     41  N   UNL A   1      43.203  28.897  29.113  1.00  0.00    -0.248 NA
ATOM     42  C   UNL A   1      41.983  29.056  27.141  1.00  0.00     0.031 C 
ATOM     43  C   UNL A   1      38.823  27.427  30.337  1.00  0.00     0.029 A 
ATOM     44  N   UNL A   1      39.988  29.257  30.724  1.00  0.00    -0.354 N 
ATOM     45  C   UNL A   1      43.866  29.720  28.212  1.00  0.00     0.074 A 
ATOM     46  C   UNL A   1      43.205  29.551  26.946  1.00  0.00     0.031 C 
ATOM     47  C   UNL A   1      38.016  28.274  31.021  1.00  0.00     0.029 A 
ATOM     48  C   UNL A   1      38.734  29.513  31.267  1.00  0.00     0.049 A 
ATOM     49  H   UNL A   1      40.760  29.853  30.865  1.00  0.00     0.167 HD
ATOM     50  C   UNL A   1      44.651  30.739  28.653  1.00  0.00     0.031 A 
ATOM     51  C   UNL A   1      38.320  30.686  31.812  1.00  0.00     0.031 A 
ATOM     52  C   UNL A   1      44.985  30.576  30.046  1.00  0.00     0.049 A 
ATOM     53  C   UNL A   1      39.532  31.485  32.114  1.00  0.00     0.074 A 
ATOM     54  C   UNL A   1      45.654  29.625  30.789  1.00  0.00     0.029 A 
ATOM     55  N   UNL A   1      44.233  31.303  30.939  1.00  0.00    -0.354 N 
ATOM     56  N   UNL A   1      40.394  31.153  33.030  1.00  0.00    -0.248 NA
ATOM     57  C   UNL A   1      40.035  32.372  31.076  1.00  0.00     0.031 C 
ATOM     58  C   UNL A   1      44.939  29.546  32.021  1.00  0.00     0.029 A 
ATOM     59  C   UNL A   1      43.922  30.503  32.004  1.00  0.00     0.049 A 
ATOM     60  H   UNL A   1      43.963  32.244  30.829  1.00  0.00     0.167 HD
ATOM     61  C   UNL A   1      41.633  31.398  32.453  1.00  0.00     0.074 A 
ATOM     62  C   UNL A   1      41.348  32.237  31.288  1.00  0.00     0.031 C 
ATOM     63  C   UNL A   1      42.723  30.653  32.801  1.00  0.00     0.031 A 
BRANCH  50  64
ATOM     64  C   UNL A   1      44.668  32.097  27.986  1.00  0.00    -0.014 A 
ATOM     65  C   UNL A   1      43.709  33.042  28.386  1.00  0.00     0.009 A 
ATOM     66  C   UNL A   1      45.374  32.383  26.799  1.00  0.00     0.009 A 
ATOM     67  C   UNL A   1      43.413  34.158  27.595  1.00  0.00     0.001 A 
ATOM     68  C   UNL A   1      45.111  33.516  26.027  1.00  0.00     0.001 A 
ATOM     69  C   UNL A   1      44.107  34.388  26.411  1.00  0.00     0.000 A 
ENDBRANCH  50  64
BRANCH  51  70
ATOM     70  C   UNL A   1      36.973  31.307  31.787  1.00  0.00    -0.014 A 
ATOM     71  C   UNL A   1      36.374  31.790  32.963  1.00  0.00     0.009 A 
ATOM     72  C   UNL A   1      36.398  31.689  30.561  1.00  0.00     0.009 A 
ATOM     73  C   UNL A   1      35.263  32.646  32.911  1.00  0.00     0.001 A 
ATOM     74  C   UNL A   1      35.291  32.545  30.509  1.00  0.00     0.001 A 
ATOM     75  C   UNL A   1      34.731  33.035  31.684  1.00  0.00     0.000 A 
ENDBRANCH  51  70
BRANCH  63  76
ATOM     76  C   UNL A   1      42.598  29.743  33.999  1.00  0.00    -0.014 A 
ATOM     77  C   UNL A   1      42.096  28.430  33.934  1.00  0.00     0.009 A 
ATOM     78  C   UNL A   1      43.144  30.187  35.211  1.00  0.00     0.009 A 
ATOM     79  C   UNL A   1      42.118  27.600  35.061  1.00  0.00     0.001 A 
ATOM     80  C   UNL A   1      43.186  29.352  36.328  1.00  0.00     0.001 A 
ATOM     81  C   UNL A   1      42.669  28.060  36.256  1.00  0.00     0.000 A 
ENDBRANCH  63  76
ENDBRANCH  37  38
ENDBRANCH  30  32
ENDBRANCH  29  30
ENDBRANCH  28  29
ENDBRANCH  27  28
ENDBRANCH   1  27
TORSDOF 17
ENDMDL
MODEL 3
REMARK VINA RESULT:     -10.8      2.453      6.099
REMARK SMILES COc1ccccc1-n1nnc(C(=O)OCCOCCOC(=O)c2ccc(-c3c4nc(c(-c5ccccc5)c5ccc([nH]5)c(-c5ccccc5)c5nc(c(-c6ccccc6)c6ccc3[nH]6)C=C5)C=C4)cc2)c1-c1ccc(Cl)cc1
REMARK SMILES IDX 18 1 17 2 16 3 15 4 13 5 14 6 12 7 9 8 10 9 72 10 11 11 8 12
REMARK SMILES IDX 3 13 4 14 5 15 7 16 6 17 2 18 1 19 73 20 74 21 79 22 75 23
REMARK SMILES IDX 78 24 76 25 77 26 19 27 20 28 21 29 22 30 23 31 24 32 25 33
REMARK SMILES IDX 71 34 26 35 70 36 27 37 28 38 29 39 64 40 30 41 69 42 63 43
REMARK SMILES IDX 65 44 31 45 68 46 62 47 61 48 32 50 54 51 39 52 53 53 40 54
REMARK SMILES IDX 43 55 52 56 66 57 41 58 42 59 51 61 67 62 44 63 33 64 34 65
REMARK SMILES IDX 38 66 35 67 37 68 36 69 55 70 56 71 60 72 57 73 59 74 58 75
REMARK SMILES IDX 45 76 46 77 50 78 47 79 49 80 48 81
REMARK H PARENT 65 49 43 60
REMARK Flexibility Score: inf
ROOT
ATOM      1  O   UNL A   1      32.651  29.357  26.006  1.00  0.00    -0.374 OA
ENDROOT
BRANCH   1   2
ATOM      2  C   UNL A   1      31.570  29.364  25.072  1.00  0.00     0.202 C 
BRANCH   2   3
ATOM      3  C   UNL A   1      31.139  28.020  24.491  1.00  0.00     0.261 C 
BRANCH   3   4
ATOM      4  O   UNL A   1      32.025  26.986  24.929  1.00  0.00    -0.458 OA
BRANCH   4   5
ATOM      5  C   UNL A   1      32.888  26.476  24.003  1.00  0.00     0.361 C 
ATOM      6  O   UNL A   1      33.893  27.035  23.606  1.00  0.00    -0.244 OA
BRANCH   5   7
ATOM      7  C   UNL A   1      32.506  25.130  23.607  1.00  0.00     0.198 A 
ATOM      8  N   UNL A   1      32.286  22.990  23.386  1.00  0.00    -0.208 N 
ATOM      9  N   UNL A   1      31.264  23.567  22.717  1.00  0.00    -0.061 NA
ATOM     10  C   UNL A   1      33.225  23.951  23.739  1.00  0.00     0.109 A 
ATOM     11  N   UNL A   1      31.319  24.867  22.963  1.00  0.00    -0.122 NA
BRANCH   8  12
ATOM     12  C   UNL A   1      32.244  21.629  23.740  1.00  0.00     0.109 A 
ATOM     13  C   UNL A   1      32.218  21.230  25.085  1.00  0.00     0.144 A 
ATOM     14  C   UNL A   1      32.374  19.881  25.398  1.00  0.00     0.049 A 
ATOM     15  C   UNL A   1      32.495  18.932  24.383  1.00  0.00     0.004 A 
ATOM     16  C   UNL A   1      32.289  20.671  22.716  1.00  0.00     0.032 A 
ATOM     17  C   UNL A   1      32.434  19.324  23.044  1.00  0.00     0.003 A 
BRANCH  13  18
ATOM     18  O   UNL A   1      32.097  22.077  26.154  1.00  0.00    -0.494 OA
ATOM     19  C   UNL A   1      30.779  22.604  26.333  1.00  0.00     0.278 C 
ENDBRANCH  13  18
ENDBRANCH   8  12
BRANCH  10  20
ATOM     20  C   UNL A   1      34.579  23.670  24.215  1.00  0.00     0.003 A 
ATOM     21  C   UNL A   1      35.524  23.072  23.370  1.00  0.00     0.012 A 
ATOM     22  C   UNL A   1      34.953  23.992  25.529  1.00  0.00     0.012 A 
ATOM     23  C   UNL A   1      36.807  22.780  23.831  1.00  0.00     0.021 A 
ATOM     24  C   UNL A   1      36.240  23.706  25.989  1.00  0.00     0.021 A 
ATOM     25  C   UNL A   1      37.159  23.095  25.139  1.00  0.00     0.041 A 
ATOM     26  Cl  UNL A   1      38.739  22.729  25.710  1.00  0.00    -0.084 Cl
ENDBRANCH  10  20
ENDBRANCH   5   7
ENDBRANCH   4   5
ENDBRANCH   3   4
ENDBRANCH   2   3
ENDBRANCH   1   2
BRANCH   1  27
ATOM     27  C   UNL A   1      32.594  30.153  27.184  1.00  0.00     0.202 C 
BRANCH  27  28
ATOM     28  C   UNL A   1      33.579  31.303  27.335  1.00  0.00     0.261 C 
BRANCH  28  29
ATOM     29  O   UNL A   1      34.931  30.876  27.404  1.00  0.00    -0.460 OA
BRANCH  29  30
ATOM     30  C   UNL A   1      35.744  31.789  27.983  1.00  0.00     0.338 C 
ATOM     31  O   UNL A   1      35.842  32.974  27.715  1.00  0.00    -0.246 OA
BRANCH  30  32
ATOM     32  C   UNL A   1      36.661  31.098  28.890  1.00  0.00     0.060 A 
ATOM     33  C   UNL A   1      37.803  31.804  29.279  1.00  0.00     0.016 A 
ATOM     34  C   UNL A   1      36.563  29.706  29.012  1.00  0.00     0.016 A 
ATOM     35  C   UNL A   1      38.944  31.086  29.555  1.00  0.00     0.010 A 
ATOM     36  C   UNL A   1      37.704  28.994  29.270  1.00  0.00     0.010 A 
ATOM     37  C   UNL A   1      38.895  29.694  29.434  1.00  0.00    -0.014 A 
BRANCH  37  38
ATOM     38  C   UNL A   1      40.117  28.940  29.589  1.00  0.00     0.031 A 
ATOM     39  C   UNL A   1      40.549  28.902  31.000  1.00  0.00     0.074 A 
ATOM     40  C   UNL A   1      40.673  28.256  28.570  1.00  0.00     0.049 A 
ATOM     41  N   UNL A   1      41.526  29.555  31.534  1.00  0.00    -0.248 NA
ATOM     42  C   UNL A   1      39.647  28.259  31.973  1.00  0.00     0.031 C 
ATOM     43  C   UNL A   1      40.139  28.028  27.223  1.00  0.00     0.029 A 
ATOM     44  N   UNL A   1      41.811  27.516  28.564  1.00  0.00    -0.354 N 
ATOM     45  C   UNL A   1      41.496  29.206  32.878  1.00  0.00     0.074 A 
ATOM     46  C   UNL A   1      40.191  28.652  33.124  1.00  0.00     0.031 C 
ATOM     47  C   UNL A   1      40.822  27.015  26.637  1.00  0.00     0.029 A 
ATOM     48  C   UNL A   1      41.917  26.620  27.507  1.00  0.00     0.049 A 
ATOM     49  H   UNL A   1      42.507  27.608  29.255  1.00  0.00     0.167 HD
ATOM     50  C   UNL A   1      42.651  29.053  33.580  1.00  0.00     0.031 A 
ATOM     51  C   UNL A   1      42.803  25.595  27.409  1.00  0.00     0.031 A 
ATOM     52  C   UNL A   1      43.763  29.662  32.894  1.00  0.00     0.049 A 
ATOM     53  C   UNL A   1      43.888  25.855  28.386  1.00  0.00     0.074 A 
ATOM     54  C   UNL A   1      44.081  30.940  32.484  1.00  0.00     0.029 A 
ATOM     55  N   UNL A   1      44.565  28.814  32.168  1.00  0.00    -0.354 N 
ATOM     56  N   UNL A   1      44.733  26.839  28.268  1.00  0.00    -0.248 NA
ATOM     57  C   UNL A   1      43.728  25.327  29.732  1.00  0.00     0.031 C 
ATOM     58  C   UNL A   1      44.737  30.775  31.228  1.00  0.00     0.029 A 
ATOM     59  C   UNL A   1      44.860  29.408  30.970  1.00  0.00     0.049 A 
ATOM     60  H   UNL A   1      44.876  27.926  32.460  1.00  0.00     0.167 HD
ATOM     61  C   UNL A   1      44.857  27.350  29.553  1.00  0.00     0.074 A 
ATOM     62  C   UNL A   1      44.291  26.321  30.426  1.00  0.00     0.031 C 
ATOM     63  C   UNL A   1      45.126  28.675  29.752  1.00  0.00     0.031 A 
BRANCH  50  64
ATOM     64  C   UNL A   1      42.850  27.936  34.581  1.00  0.00    -0.014 A 
ATOM     65  C   UNL A   1      42.651  26.616  34.146  1.00  0.00     0.009 A 
ATOM     66  C   UNL A   1      42.930  28.133  35.975  1.00  0.00     0.009 A 
ATOM     67  C   UNL A   1      42.453  25.572  35.057  1.00  0.00     0.001 A 
ATOM     68  C   UNL A   1      42.773  27.088  36.888  1.00  0.00     0.001 A 
ATOM     69  C   UNL A   1      42.503  25.811  36.427  1.00  0.00     0.000 A 
ENDBRANCH  50  64
BRANCH  51  70
ATOM     70  C   UNL A   1      42.626  24.260  26.789  1.00  0.00    -0.014 A 
ATOM     71  C   UNL A   1      43.238  23.940  25.564  1.00  0.00     0.009 A 
ATOM     72  C   UNL A   1      42.094  23.199  27.545  1.00  0.00     0.009 A 
ATOM     73  C   UNL A   1      43.339  22.609  25.131  1.00  0.00     0.001 A 
ATOM     74  C   UNL A   1      42.196  21.870  27.113  1.00  0.00     0.001 A 
ATOM     75  C   UNL A   1      42.831  21.573  25.912  1.00  0.00     0.000 A 
ENDBRANCH  51  70
BRANCH  63  76
ATOM     76  C   UNL A   1      45.533  29.496  28.552  1.00  0.00    -0.014 A 
ATOM     77  C   UNL A   1      44.621  30.175  27.724  1.00  0.00     0.009 A 
ATOM     78  C   UNL A   1      46.904  29.703  28.342  1.00  0.00     0.009 A 
ATOM     79  C   UNL A   1      45.074  31.015  26.700  1.00  0.00     0.001 A 
ATOM     80  C   UNL A   1      47.355  30.558  27.335  1.00  0.00     0.001 A 
ATOM     81  C   UNL A   1      46.441  31.210  26.510  1.00  0.00     0.000 A 
ENDBRANCH  63  76
ENDBRANCH  37  38
ENDBRANCH  30  32
ENDBRANCH  29  30
ENDBRANCH  28  29
ENDBRANCH  27  28
ENDBRANCH   1  27
TORSDOF 17
ENDMDL
