MODEL 1
REMARK VINA RESULT:     -10.7      0.000      0.000
REMARK SMILES COc1ccc(NC(=O)[C@@H]2[C@@H](C(=O)OCCOCCOC(=O)c3ccc(-c4c5nc(c(-c6ccccc6)c6ccc([nH]6)c(-c6ccccc6)c6nc(c(-c7ccccc7)c7ccc4[nH]7)C=C6)C=C5)cc3)[C@H]3C=C[C@@H]2C3)cc1O
REMARK SMILES IDX 16 1 15 2 14 3 12 4 13 5 11 6 10 7 74 8 71 9 73 10 75 11
REMARK SMILES IDX 72 12 8 13 7 14 9 16 6 17 3 18 4 19 77 20 5 21 76 22 2 23
REMARK SMILES IDX 1 24 78 25 17 27 18 28 19 29 20 30 21 31 22 32 23 33 24 34
REMARK SMILES IDX 70 35 25 36 69 37 26 38 27 39 28 40 63 41 29 42 68 43 62 44
REMARK SMILES IDX 64 45 30 46 67 47 61 48 60 49 31 51 53 52 38 53 52 54 39 55
REMARK SMILES IDX 42 56 51 57 65 58 40 59 41 60 50 62 66 63 43 64 32 65 33 66
REMARK SMILES IDX 37 67 34 68 36 69 35 70 54 71 55 72 59 73 56 74 58 75 57 76
REMARK SMILES IDX 44 77 45 78 49 79 46 80 48 81 47 82
REMARK H PARENT 7 15 78 26 64 50 42 61
REMARK Flexibility Score: inf
ROOT
ATOM      1  C   UNL A   1      36.847  22.778  24.239  1.00  0.00     0.202 C 
ENDROOT
BRANCH   1   2
ATOM      2  C   UNL A   1      36.785  23.615  25.528  1.00  0.00     0.261 C 
BRANCH   2   3
ATOM      3  O   UNL A   1      35.444  24.131  25.702  1.00  0.00    -0.463 OA
BRANCH   3   4
ATOM      4  C   UNL A   1      34.491  23.340  26.257  1.00  0.00     0.310 C 
ATOM      5  O   UNL A   1      34.759  22.540  27.141  1.00  0.00    -0.252 OA
BRANCH   4   6
ATOM      6  C   UNL A   1      33.086  23.572  25.603  1.00  0.00     0.119 C 
ATOM      7  C   UNL A   1      31.840  22.863  26.305  1.00  0.00     0.100 C 
ATOM      8  C   UNL A   1      31.414  21.857  25.167  1.00  0.00     0.025 C 
ATOM      9  C   UNL A   1      33.087  22.938  24.171  1.00  0.00     0.027 C 
ATOM     10  C   UNL A   1      32.501  20.846  24.920  1.00  0.00    -0.027 C 
ATOM     11  C   UNL A   1      31.598  22.740  23.923  1.00  0.00     0.017 C 
ATOM     12  C   UNL A   1      33.475  21.477  24.253  1.00  0.00    -0.027 C 
BRANCH   7  13
ATOM     13  C   UNL A   1      30.490  23.563  26.728  1.00  0.00     0.228 C 
ATOM     14  N   UNL A   1      29.974  24.779  26.418  1.00  0.00    -0.326 N 
ATOM     15  H   UNL A   1      29.161  24.976  26.939  1.00  0.00     0.169 HD
ATOM     16  O   UNL A   1      29.765  22.977  27.555  1.00  0.00    -0.274 OA
BRANCH  14  17
ATOM     17  C   UNL A   1      30.299  25.822  25.555  1.00  0.00     0.045 A 
ATOM     18  C   UNL A   1      30.582  28.126  23.986  1.00  0.00     0.160 A 
ATOM     19  C   UNL A   1      29.756  27.096  23.576  1.00  0.00     0.052 A 
ATOM     20  C   UNL A   1      31.353  27.943  25.137  1.00  0.00     0.159 A 
ATOM     21  C   UNL A   1      29.694  25.937  24.334  1.00  0.00     0.030 A 
ATOM     22  C   UNL A   1      31.216  26.803  25.930  1.00  0.00     0.076 A 
BRANCH  18  23
ATOM     23  O   UNL A   1      30.694  29.329  23.346  1.00  0.00    -0.493 OA
ATOM     24  C   UNL A   1      29.471  30.047  23.253  1.00  0.00     0.278 C 
ENDBRANCH  18  23
BRANCH  20  25
ATOM     25  O   UNL A   1      32.265  28.894  25.501  1.00  0.00    -0.504 OA
ATOM     26  H   UNL A   1      32.452  29.041  26.408  1.00  0.00     0.293 HD
ENDBRANCH  20  25
ENDBRANCH  14  17
ENDBRANCH   7  13
ENDBRANCH   4   6
ENDBRANCH   3   4
ENDBRANCH   2   3
ENDBRANCH   1   2
BRANCH   1  27
ATOM     27  O   UNL A   1      37.292  21.431  24.438  1.00  0.00    -0.374 OA
BRANCH  27  28
ATOM     28  C   UNL A   1      38.292  21.253  25.436  1.00  0.00     0.202 C 
BRANCH  28  29
ATOM     29  C   UNL A   1      39.200  20.035  25.246  1.00  0.00     0.261 C 
BRANCH  29  30
ATOM     30  O   UNL A   1      40.010  19.778  26.406  1.00  0.00    -0.460 OA
BRANCH  30  31
ATOM     31  C   UNL A   1      41.340  19.731  26.148  1.00  0.00     0.338 C 
ATOM     32  O   UNL A   1      41.951  18.832  25.596  1.00  0.00    -0.246 OA
BRANCH  31  33
ATOM     33  C   UNL A   1      41.999  20.995  26.534  1.00  0.00     0.060 A 
ATOM     34  C   UNL A   1      41.978  21.338  27.891  1.00  0.00     0.016 A 
ATOM     35  C   UNL A   1      42.511  21.888  25.591  1.00  0.00     0.016 A 
ATOM     36  C   UNL A   1      42.406  22.601  28.306  1.00  0.00     0.010 A 
ATOM     37  C   UNL A   1      42.947  23.153  26.011  1.00  0.00     0.010 A 
ATOM     38  C   UNL A   1      42.860  23.534  27.365  1.00  0.00    -0.014 A 
BRANCH  38  39
ATOM     39  C   UNL A   1      43.132  24.941  27.768  1.00  0.00     0.031 A 
ATOM     40  C   UNL A   1      44.536  25.359  28.097  1.00  0.00     0.074 A 
ATOM     41  C   UNL A   1      42.148  25.855  27.843  1.00  0.00     0.049 A 
ATOM     42  N   UNL A   1      44.971  26.530  28.485  1.00  0.00    -0.248 NA
ATOM     43  C   UNL A   1      45.591  24.346  27.933  1.00  0.00     0.031 C 
ATOM     44  C   UNL A   1      40.771  25.636  27.428  1.00  0.00     0.029 A 
ATOM     45  N   UNL A   1      42.139  27.140  28.325  1.00  0.00    -0.354 N 
ATOM     46  C   UNL A   1      46.350  26.407  28.578  1.00  0.00     0.074 A 
ATOM     47  C   UNL A   1      46.676  25.032  28.266  1.00  0.00     0.031 C 
ATOM     48  C   UNL A   1      40.016  26.684  27.793  1.00  0.00     0.029 A 
ATOM     49  C   UNL A   1      40.877  27.679  28.419  1.00  0.00     0.049 A 
ATOM     50  H   UNL A   1      42.955  27.628  28.578  1.00  0.00     0.167 HD
ATOM     51  C   UNL A   1      47.261  27.364  28.866  1.00  0.00     0.031 A 
ATOM     52  C   UNL A   1      40.453  28.843  28.943  1.00  0.00     0.031 A 
ATOM     53  C   UNL A   1      46.936  28.728  29.188  1.00  0.00     0.049 A 
ATOM     54  C   UNL A   1      41.475  29.842  29.399  1.00  0.00     0.074 A 
ATOM     55  C   UNL A   1      47.799  29.780  29.446  1.00  0.00     0.029 A 
ATOM     56  N   UNL A   1      45.650  29.227  29.312  1.00  0.00    -0.354 N 
ATOM     57  N   UNL A   1      42.780  29.737  29.398  1.00  0.00    -0.248 NA
ATOM     58  C   UNL A   1      40.971  31.142  29.863  1.00  0.00     0.031 C 
ATOM     59  C   UNL A   1      47.034  30.899  29.789  1.00  0.00     0.029 A 
ATOM     60  C   UNL A   1      45.695  30.561  29.687  1.00  0.00     0.049 A 
ATOM     61  H   UNL A   1      44.826  28.711  29.157  1.00  0.00     0.167 HD
ATOM     62  C   UNL A   1      43.257  30.977  29.796  1.00  0.00     0.074 A 
ATOM     63  C   UNL A   1      42.100  31.814  30.038  1.00  0.00     0.031 C 
ATOM     64  C   UNL A   1      44.542  31.388  29.925  1.00  0.00     0.031 A 
BRANCH  51  65
ATOM     65  C   UNL A   1      48.708  26.967  28.854  1.00  0.00    -0.014 A 
ATOM     66  C   UNL A   1      49.332  26.469  30.010  1.00  0.00     0.009 A 
ATOM     67  C   UNL A   1      49.439  27.034  27.659  1.00  0.00     0.009 A 
ATOM     68  C   UNL A   1      50.668  26.064  29.971  1.00  0.00     0.001 A 
ATOM     69  C   UNL A   1      50.767  26.607  27.619  1.00  0.00     0.001 A 
ATOM     70  C   UNL A   1      51.381  26.128  28.775  1.00  0.00     0.000 A 
ENDBRANCH  51  65
BRANCH  52  71
ATOM     71  C   UNL A   1      39.000  29.144  29.037  1.00  0.00    -0.014 A 
ATOM     72  C   UNL A   1      38.316  29.738  27.967  1.00  0.00     0.009 A 
ATOM     73  C   UNL A   1      38.301  28.872  30.224  1.00  0.00     0.009 A 
ATOM     74  C   UNL A   1      36.970  30.092  28.098  1.00  0.00     0.001 A 
ATOM     75  C   UNL A   1      36.950  29.206  30.343  1.00  0.00     0.001 A 
ATOM     76  C   UNL A   1      36.289  29.827  29.285  1.00  0.00     0.000 A 
ENDBRANCH  52  71
BRANCH  64  77
ATOM     77  C   UNL A   1      44.765  32.823  30.302  1.00  0.00    -0.014 A 
ATOM     78  C   UNL A   1      44.856  33.829  29.329  1.00  0.00     0.009 A 
ATOM     79  C   UNL A   1      44.857  33.176  31.658  1.00  0.00     0.009 A 
ATOM     80  C   UNL A   1      45.071  35.156  29.705  1.00  0.00     0.001 A 
ATOM     81  C   UNL A   1      45.040  34.506  32.033  1.00  0.00     0.001 A 
ATOM     82  C   UNL A   1      45.157  35.494  31.056  1.00  0.00     0.000 A 
ENDBRANCH  64  77
ENDBRANCH  38  39
ENDBRANCH  31  33
ENDBRANCH  30  31
ENDBRANCH  29  30
ENDBRANCH  28  29
ENDBRANCH  27  28
ENDBRANCH   1  27
TORSDOF 18
ENDMDL
MODEL 2
REMARK VINA RESULT:     -10.6      1.141      5.880
REMARK SMILES COc1ccc(NC(=O)[C@@H]2[C@@H](C(=O)OCCOCCOC(=O)c3ccc(-c4c5nc(c(-c6ccccc6)c6ccc([nH]6)c(-c6ccccc6)c6nc(c(-c7ccccc7)c7ccc4[nH]7)C=C6)C=C5)cc3)[C@H]3C=C[C@@H]2C3)cc1O
REMARK SMILES IDX 16 1 15 2 14 3 12 4 13 5 11 6 10 7 74 8 71 9 73 10 75 11
REMARK SMILES IDX 72 12 8 13 7 14 9 16 6 17 3 18 4 19 77 20 5 21 76 22 2 23
REMARK SMILES IDX 1 24 78 25 17 27 18 28 19 29 20 30 21 31 22 32 23 33 24 34
REMARK SMILES IDX 70 35 25 36 69 37 26 38 27 39 28 40 63 41 29 42 68 43 62 44
REMARK SMILES IDX 64 45 30 46 67 47 61 48 60 49 31 51 53 52 38 53 52 54 39 55
REMARK SMILES IDX 42 56 51 57 65 58 40 59 41 60 50 62 66 63 43 64 32 65 33 66
REMARK SMILES IDX 37 67 34 68 36 69 35 70 54 71 55 72 59 73 56 74 58 75 57 76
REMARK SMILES IDX 44 77 45 78 49 79 46 80 48 81 47 82
REMARK H PARENT 7 15 78 26 64 50 42 61
REMARK Flexibility Score: inf
ROOT
ATOM      1  C   UNL A   1      37.034  22.403  24.770  1.00  0.00     0.202 C 
ENDROOT
BRANCH   1   2
ATOM      2  C   UNL A   1      36.788  23.697  25.565  1.00  0.00     0.261 C 
BRANCH   2   3
ATOM      3  O   UNL A   1      35.437  24.158  25.323  1.00  0.00    -0.463 OA
BRANCH   3   4
ATOM      4  C   UNL A   1      34.417  23.657  26.064  1.00  0.00     0.310 C 
ATOM      5  O   UNL A   1      34.620  23.068  27.116  1.00  0.00    -0.252 OA
BRANCH   4   6
ATOM      6  C   UNL A   1      33.027  23.904  25.386  1.00  0.00     0.119 C 
ATOM      7  C   UNL A   1      31.742  23.358  26.160  1.00  0.00     0.100 C 
ATOM      8  C   UNL A   1      31.247  22.260  25.141  1.00  0.00     0.025 C 
ATOM      9  C   UNL A   1      32.980  23.115  24.033  1.00  0.00     0.027 C 
ATOM     10  C   UNL A   1      32.267  21.162  25.010  1.00  0.00    -0.027 C 
ATOM     11  C   UNL A   1      31.480  22.986  23.806  1.00  0.00     0.017 C 
ATOM     12  C   UNL A   1      33.275  21.651  24.279  1.00  0.00    -0.027 C 
BRANCH   7  13
ATOM     13  C   UNL A   1      30.441  24.185  26.499  1.00  0.00     0.228 C 
ATOM     14  N   UNL A   1      30.077  25.455  26.187  1.00  0.00    -0.326 N 
ATOM     15  H   UNL A   1      29.251  25.723  26.651  1.00  0.00     0.169 HD
ATOM     16  O   UNL A   1      29.598  23.660  27.251  1.00  0.00    -0.274 OA
BRANCH  14  17
ATOM     17  C   UNL A   1      30.574  26.476  25.382  1.00  0.00     0.045 A 
ATOM     18  C   UNL A   1      31.947  28.271  23.725  1.00  0.00     0.160 A 
ATOM     19  C   UNL A   1      32.153  28.281  25.092  1.00  0.00     0.052 A 
ATOM     20  C   UNL A   1      30.962  27.427  23.207  1.00  0.00     0.159 A 
ATOM     21  C   UNL A   1      31.404  27.434  25.894  1.00  0.00     0.030 A 
ATOM     22  C   UNL A   1      30.276  26.524  24.021  1.00  0.00     0.076 A 
BRANCH  18  23
ATOM     23  O   UNL A   1      32.652  29.028  22.832  1.00  0.00    -0.493 OA
ATOM     24  C   UNL A   1      33.984  28.578  22.621  1.00  0.00     0.278 C 
ENDBRANCH  18  23
BRANCH  20  25
ATOM     25  O   UNL A   1      30.654  27.480  21.876  1.00  0.00    -0.504 OA
ATOM     26  H   UNL A   1      30.989  26.830  21.291  1.00  0.00     0.293 HD
ENDBRANCH  20  25
ENDBRANCH  14  17
ENDBRANCH   7  13
ENDBRANCH   4   6
ENDBRANCH   3   4
ENDBRANCH   2   3
ENDBRANCH   1   2
BRANCH   1  27
ATOM     27  O   UNL A   1      37.893  21.466  25.431  1.00  0.00    -0.374 OA
BRANCH  27  28
ATOM     28  C   UNL A   1      37.777  20.114  25.001  1.00  0.00     0.202 C 
BRANCH  28  29
ATOM     29  C   UNL A   1      38.950  19.203  25.375  1.00  0.00     0.261 C 
BRANCH  29  30
ATOM     30  O   UNL A   1      39.805  19.801  26.365  1.00  0.00    -0.460 OA
BRANCH  30  31
ATOM     31  C   UNL A   1      41.124  19.555  26.173  1.00  0.00     0.338 C 
ATOM     32  O   UNL A   1      41.626  18.527  25.751  1.00  0.00    -0.246 OA
BRANCH  31  33
ATOM     33  C   UNL A   1      41.933  20.760  26.445  1.00  0.00     0.060 A 
ATOM     34  C   UNL A   1      42.149  21.095  27.787  1.00  0.00     0.016 A 
ATOM     35  C   UNL A   1      42.363  21.616  25.429  1.00  0.00     0.016 A 
ATOM     36  C   UNL A   1      42.736  22.317  28.123  1.00  0.00     0.010 A 
ATOM     37  C   UNL A   1      42.959  22.839  25.769  1.00  0.00     0.010 A 
ATOM     38  C   UNL A   1      43.112  23.217  27.119  1.00  0.00    -0.014 A 
BRANCH  38  39
ATOM     39  C   UNL A   1      43.554  24.595  27.467  1.00  0.00     0.031 A 
ATOM     40  C   UNL A   1      42.528  25.646  27.777  1.00  0.00     0.074 A 
ATOM     41  C   UNL A   1      44.857  24.925  27.513  1.00  0.00     0.049 A 
ATOM     42  N   UNL A   1      42.714  26.904  28.083  1.00  0.00    -0.248 NA
ATOM     43  C   UNL A   1      41.118  25.223  27.785  1.00  0.00     0.031 C 
ATOM     44  C   UNL A   1      45.962  23.990  27.370  1.00  0.00     0.029 A 
ATOM     45  N   UNL A   1      45.480  26.140  27.659  1.00  0.00    -0.354 N 
ATOM     46  C   UNL A   1      41.452  27.416  28.352  1.00  0.00     0.074 A 
ATOM     47  C   UNL A   1      40.502  26.350  28.116  1.00  0.00     0.031 C 
ATOM     48  C   UNL A   1      47.119  24.665  27.294  1.00  0.00     0.029 A 
ATOM     49  C   UNL A   1      46.837  26.086  27.445  1.00  0.00     0.049 A 
ATOM     50  H   UNL A   1      45.002  26.968  27.893  1.00  0.00     0.167 HD
ATOM     51  C   UNL A   1      41.123  28.652  28.789  1.00  0.00     0.031 A 
ATOM     52  C   UNL A   1      47.759  27.065  27.381  1.00  0.00     0.031 A 
ATOM     53  C   UNL A   1      42.065  29.716  29.014  1.00  0.00     0.049 A 
ATOM     54  C   UNL A   1      47.346  28.466  27.725  1.00  0.00     0.074 A 
ATOM     55  C   UNL A   1      41.826  30.989  29.502  1.00  0.00     0.029 A 
ATOM     56  N   UNL A   1      43.422  29.638  28.749  1.00  0.00    -0.354 N 
ATOM     57  N   UNL A   1      46.162  28.911  28.061  1.00  0.00    -0.248 NA
ATOM     58  C   UNL A   1      48.406  29.483  27.748  1.00  0.00     0.031 C 
ATOM     59  C   UNL A   1      43.028  31.701  29.474  1.00  0.00     0.029 A 
ATOM     60  C   UNL A   1      44.027  30.855  29.023  1.00  0.00     0.049 A 
ATOM     61  H   UNL A   1      43.889  28.837  28.416  1.00  0.00     0.167 HD
ATOM     62  C   UNL A   1      46.344  30.243  28.400  1.00  0.00     0.074 A 
ATOM     63  C   UNL A   1      47.751  30.534  28.220  1.00  0.00     0.031 C 
ATOM     64  C   UNL A   1      45.427  31.137  28.844  1.00  0.00     0.031 A 
BRANCH  51  65
ATOM     65  C   UNL A   1      39.671  28.930  29.049  1.00  0.00    -0.014 A 
ATOM     66  C   UNL A   1      39.112  28.735  30.322  1.00  0.00     0.009 A 
ATOM     67  C   UNL A   1      38.866  29.450  28.024  1.00  0.00     0.009 A 
ATOM     68  C   UNL A   1      37.770  29.039  30.558  1.00  0.00     0.001 A 
ATOM     69  C   UNL A   1      37.531  29.773  28.268  1.00  0.00     0.001 A 
ATOM     70  C   UNL A   1      36.983  29.562  29.533  1.00  0.00     0.000 A 
ENDBRANCH  51  65
BRANCH  52  71
ATOM     71  C   UNL A   1      49.164  26.756  27.008  1.00  0.00    -0.014 A 
ATOM     72  C   UNL A   1      49.569  26.747  25.666  1.00  0.00     0.009 A 
ATOM     73  C   UNL A   1      50.099  26.426  28.003  1.00  0.00     0.009 A 
ATOM     74  C   UNL A   1      50.872  26.373  25.324  1.00  0.00     0.001 A 
ATOM     75  C   UNL A   1      51.406  26.075  27.659  1.00  0.00     0.001 A 
ATOM     76  C   UNL A   1      51.788  26.037  26.319  1.00  0.00     0.000 A 
ENDBRANCH  52  71
BRANCH  64  77
ATOM     77  C   UNL A   1      45.927  32.503  29.211  1.00  0.00    -0.014 A 
ATOM     78  C   UNL A   1      45.945  33.550  28.278  1.00  0.00     0.009 A 
ATOM     79  C   UNL A   1      46.360  32.752  30.523  1.00  0.00     0.009 A 
ATOM     80  C   UNL A   1      46.421  34.811  28.642  1.00  0.00     0.001 A 
ATOM     81  C   UNL A   1      46.806  34.020  30.893  1.00  0.00     0.001 A 
ATOM     82  C   UNL A   1      46.845  35.046  29.950  1.00  0.00     0.000 A 
ENDBRANCH  64  77
ENDBRANCH  38  39
ENDBRANCH  31  33
ENDBRANCH  30  31
ENDBRANCH  29  30
ENDBRANCH  28  29
ENDBRANCH  27  28
ENDBRANCH   1  27
TORSDOF 18
ENDMDL
MODEL 3
REMARK VINA RESULT:     -10.3      3.887      6.164
REMARK SMILES COc1ccc(NC(=O)[C@@H]2[C@@H](C(=O)OCCOCCOC(=O)c3ccc(-c4c5nc(c(-c6ccccc6)c6ccc([nH]6)c(-c6ccccc6)c6nc(c(-c7ccccc7)c7ccc4[nH]7)C=C6)C=C5)cc3)[C@H]3C=C[C@@H]2C3)cc1O
REMARK SMILES IDX 16 1 15 2 14 3 12 4 13 5 11 6 10 7 74 8 71 9 73 10 75 11
REMARK SMILES IDX 72 12 8 13 7 14 9 16 6 17 3 18 4 19 77 20 5 21 76 22 2 23
REMARK SMILES IDX 1 24 78 25 17 27 18 28 19 29 20 30 21 31 22 32 23 33 24 34
REMARK SMILES IDX 70 35 25 36 69 37 26 38 27 39 28 40 63 41 29 42 68 43 62 44
REMARK SMILES IDX 64 45 30 46 67 47 61 48 60 49 31 51 53 52 38 53 52 54 39 55
REMARK SMILES IDX 42 56 51 57 65 58 40 59 41 60 50 62 66 63 43 64 32 65 33 66
REMARK SMILES IDX 37 67 34 68 36 69 35 70 54 71 55 72 59 73 56 74 58 75 57 76
REMARK SMILES IDX 44 77 45 78 49 79 46 80 48 81 47 82
REMARK H PARENT 7 15 78 26 64 50 42 61
REMARK Flexibility Score: inf
ROOT
ATOM      1  C   UNL A   1      39.806  21.552  25.672  1.00  0.00     0.202 C 
ENDROOT
BRANCH   1   2
ATOM      2  C   UNL A   1      38.354  21.803  26.111  1.00  0.00     0.261 C 
BRANCH   2   3
ATOM      3  O   UNL A   1      37.452  21.179  25.166  1.00  0.00    -0.463 OA
BRANCH   3   4
ATOM      4  C   UNL A   1      36.500  21.930  24.556  1.00  0.00     0.310 C 
ATOM      5  O   UNL A   1      36.794  22.842  23.797  1.00  0.00    -0.252 OA
BRANCH   4   6
ATOM      6  C   UNL A   1      35.055  21.497  24.978  1.00  0.00     0.119 C 
ATOM      7  C   UNL A   1      33.842  22.211  24.227  1.00  0.00     0.100 C 
ATOM      8  C   UNL A   1      33.191  22.995  25.432  1.00  0.00     0.025 C 
ATOM      9  C   UNL A   1      34.826  21.900  26.474  1.00  0.00     0.027 C 
ATOM     10  C   UNL A   1      34.142  24.033  25.963  1.00  0.00    -0.027 C 
ATOM     11  C   UNL A   1      33.306  21.947  26.549  1.00  0.00     0.017 C 
ATOM     12  C   UNL A   1      35.084  23.380  26.655  1.00  0.00    -0.027 C 
BRANCH   7  13
ATOM     13  C   UNL A   1      32.623  21.487  23.534  1.00  0.00     0.228 C 
ATOM     14  N   UNL A   1      32.316  20.172  23.403  1.00  0.00    -0.326 N 
ATOM     15  H   UNL A   1      31.544  20.034  22.807  1.00  0.00     0.169 HD
ATOM     16  O   UNL A   1      31.807  22.192  22.910  1.00  0.00    -0.274 OA
BRANCH  14  17
ATOM     17  C   UNL A   1      32.813  18.968  23.892  1.00  0.00     0.045 A 
ATOM     18  C   UNL A   1      33.390  16.386  24.818  1.00  0.00     0.160 A 
ATOM     19  C   UNL A   1      32.858  17.335  25.672  1.00  0.00     0.052 A 
ATOM     20  C   UNL A   1      33.735  16.777  23.522  1.00  0.00     0.159 A 
ATOM     21  C   UNL A   1      32.654  18.624  25.206  1.00  0.00     0.030 A 
ATOM     22  C   UNL A   1      33.447  18.058  23.048  1.00  0.00     0.076 A 
BRANCH  18  23
ATOM     23  O   UNL A   1      33.597  15.077  25.150  1.00  0.00    -0.493 OA
ATOM     24  C   UNL A   1      32.446  14.428  25.676  1.00  0.00     0.278 C 
ENDBRANCH  18  23
BRANCH  20  25
ATOM     25  O   UNL A   1      34.371  15.895  22.694  1.00  0.00    -0.504 OA
ATOM     26  H   UNL A   1      33.881  15.227  22.256  1.00  0.00     0.293 HD
ENDBRANCH  20  25
ENDBRANCH  14  17
ENDBRANCH   7  13
ENDBRANCH   4   6
ENDBRANCH   3   4
ENDBRANCH   2   3
ENDBRANCH   1   2
BRANCH   1  27
ATOM     27  O   UNL A   1      40.554  20.725  26.572  1.00  0.00    -0.374 OA
BRANCH  27  28
ATOM     28  C   UNL A   1      41.830  20.301  26.103  1.00  0.00     0.202 C 
BRANCH  28  29
ATOM     29  C   UNL A   1      42.904  21.391  26.047  1.00  0.00     0.261 C 
BRANCH  29  30
ATOM     30  O   UNL A   1      42.713  22.282  24.934  1.00  0.00    -0.460 OA
BRANCH  30  31
ATOM     31  C   UNL A   1      43.500  23.385  24.971  1.00  0.00     0.338 C 
ATOM     32  O   UNL A   1      44.536  23.570  24.356  1.00  0.00    -0.246 OA
BRANCH  31  33
ATOM     33  C   UNL A   1      42.890  24.443  25.802  1.00  0.00     0.060 A 
ATOM     34  C   UNL A   1      43.626  25.621  25.977  1.00  0.00     0.016 A 
ATOM     35  C   UNL A   1      41.697  24.249  26.499  1.00  0.00     0.016 A 
ATOM     36  C   UNL A   1      43.208  26.583  26.899  1.00  0.00     0.010 A 
ATOM     37  C   UNL A   1      41.274  25.220  27.419  1.00  0.00     0.010 A 
ATOM     38  C   UNL A   1      42.048  26.375  27.656  1.00  0.00    -0.014 A 
BRANCH  38  39
ATOM     39  C   UNL A   1      41.701  27.295  28.773  1.00  0.00     0.031 A 
ATOM     40  C   UNL A   1      42.463  27.213  30.064  1.00  0.00     0.074 A 
ATOM     41  C   UNL A   1      40.717  28.205  28.656  1.00  0.00     0.049 A 
ATOM     42  N   UNL A   1      42.298  27.914  31.157  1.00  0.00    -0.248 NA
ATOM     43  C   UNL A   1      43.577  26.253  30.123  1.00  0.00     0.031 C 
ATOM     44  C   UNL A   1      39.986  28.492  27.432  1.00  0.00     0.029 A 
ATOM     45  N   UNL A   1      40.134  29.035  29.582  1.00  0.00    -0.354 N 
ATOM     46  C   UNL A   1      43.304  27.505  32.020  1.00  0.00     0.074 A 
ATOM     47  C   UNL A   1      44.039  26.454  31.350  1.00  0.00     0.031 C 
ATOM     48  C   UNL A   1      38.965  29.321  27.698  1.00  0.00     0.029 A 
ATOM     49  C   UNL A   1      39.010  29.672  29.112  1.00  0.00     0.049 A 
ATOM     50  H   UNL A   1      40.487  29.161  30.492  1.00  0.00     0.167 HD
ATOM     51  C   UNL A   1      43.606  27.989  33.247  1.00  0.00     0.031 A 
ATOM     52  C   UNL A   1      38.115  30.457  29.740  1.00  0.00     0.031 A 
ATOM     53  C   UNL A   1      42.869  29.026  33.918  1.00  0.00     0.049 A 
ATOM     54  C   UNL A   1      38.387  30.868  31.157  1.00  0.00     0.074 A 
ATOM     55  C   UNL A   1      43.132  29.612  35.144  1.00  0.00     0.029 A 
ATOM     56  N   UNL A   1      41.716  29.619  33.431  1.00  0.00    -0.354 N 
ATOM     57  N   UNL A   1      39.392  30.537  31.926  1.00  0.00    -0.248 NA
ATOM     58  C   UNL A   1      37.440  31.812  31.767  1.00  0.00     0.031 C 
ATOM     59  C   UNL A   1      42.103  30.515  35.427  1.00  0.00     0.029 A 
ATOM     60  C   UNL A   1      41.231  30.534  34.351  1.00  0.00     0.049 A 
ATOM     61  H   UNL A   1      41.303  29.420  32.560  1.00  0.00     0.167 HD
ATOM     62  C   UNL A   1      39.238  31.281  33.086  1.00  0.00     0.074 A 
ATOM     63  C   UNL A   1      38.037  32.073  32.921  1.00  0.00     0.031 C 
ATOM     64  C   UNL A   1      40.037  31.320  34.180  1.00  0.00     0.031 A 
BRANCH  51  65
ATOM     65  C   UNL A   1      44.788  27.392  33.953  1.00  0.00    -0.014 A 
ATOM     66  C   UNL A   1      44.647  26.263  34.775  1.00  0.00     0.009 A 
ATOM     67  C   UNL A   1      46.067  27.929  33.746  1.00  0.00     0.009 A 
ATOM     68  C   UNL A   1      45.764  25.694  35.391  1.00  0.00     0.001 A 
ATOM     69  C   UNL A   1      47.184  27.346  34.346  1.00  0.00     0.001 A 
ATOM     70  C   UNL A   1      47.031  26.233  35.171  1.00  0.00     0.000 A 
ENDBRANCH  51  65
BRANCH  52  71
ATOM     71  C   UNL A   1      36.899  30.931  29.030  1.00  0.00    -0.014 A 
ATOM     72  C   UNL A   1      35.888  30.036  28.652  1.00  0.00     0.009 A 
ATOM     73  C   UNL A   1      36.767  32.287  28.690  1.00  0.00     0.009 A 
ATOM     74  C   UNL A   1      34.789  30.481  27.912  1.00  0.00     0.001 A 
ATOM     75  C   UNL A   1      35.656  32.734  27.971  1.00  0.00     0.001 A 
ATOM     76  C   UNL A   1      34.675  31.829  27.571  1.00  0.00     0.000 A 
ENDBRANCH  52  71
BRANCH  64  77
ATOM     77  C   UNL A   1      39.662  32.285  35.266  1.00  0.00    -0.014 A 
ATOM     78  C   UNL A   1      38.827  31.904  36.327  1.00  0.00     0.009 A 
ATOM     79  C   UNL A   1      40.179  33.590  35.240  1.00  0.00     0.009 A 
ATOM     80  C   UNL A   1      38.488  32.822  37.322  1.00  0.00     0.001 A 
ATOM     81  C   UNL A   1      39.864  34.497  36.252  1.00  0.00     0.001 A 
ATOM     82  C   UNL A   1      39.011  34.115  37.287  1.00  0.00     0.000 A 
ENDBRANCH  64  77
ENDBRANCH  38  39
ENDBRANCH  31  33
ENDBRANCH  30  31
ENDBRANCH  29  30
ENDBRANCH  28  29
ENDBRANCH  27  28
ENDBRANCH   1  27
TORSDOF 18
ENDMDL
