MODEL 1
REMARK VINA RESULT:     -11.1      0.000      0.000
REMARK SMILES Cc1cc(OC(F)(F)F)cc2c1O[C@H](C(F)(F)F)C(C(=O)OCCOCCOC(=O)c1ccc(-c3c4nc(c(-c5ccccc5)c5ccc([nH]5)c(-c5ccccc5)c5nc(c(-c6ccccc6)c6ccc3[nH]6)C=C5)C=C4)cc1)=C2
REMARK SMILES IDX 25 1 24 2 23 3 22 4 20 5 21 6 19 7 1 8 2 9 3 10 12 11 4 12
REMARK SMILES IDX 11 13 13 14 10 15 79 16 14 17 5 18 6 19 7 20 8 21 9 22 15 23
REMARK SMILES IDX 16 24 17 25 18 26 26 27 27 28 28 29 29 30 30 31 31 32 32 33
REMARK SMILES IDX 78 34 33 35 77 36 34 37 35 38 36 39 71 40 37 41 76 42 70 43
REMARK SMILES IDX 72 44 38 45 75 46 69 47 68 48 39 50 61 51 46 52 60 53 47 54
REMARK SMILES IDX 50 55 59 56 73 57 48 58 49 59 58 61 74 62 51 63 40 64 41 65
REMARK SMILES IDX 45 66 42 67 44 68 43 69 62 70 63 71 67 72 64 73 66 74 65 75
REMARK SMILES IDX 52 76 53 77 57 78 54 79 56 80 55 81
REMARK H PARENT 72 49 50 60
REMARK Flexibility Score: inf
ROOT
ATOM      1  O   UNL A   1      40.128  20.779  26.144  1.00  0.00    -0.374 OA
ENDROOT
BRANCH   1   2
ATOM      2  C   UNL A   1      39.144  21.813  26.132  1.00  0.00     0.202 C 
BRANCH   2   3
ATOM      3  C   UNL A   1      38.052  21.672  25.071  1.00  0.00     0.261 C 
BRANCH   3   4
ATOM      4  O   UNL A   1      37.192  22.824  25.068  1.00  0.00    -0.460 OA
BRANCH   4   5
ATOM      5  C   UNL A   1      36.391  22.932  23.984  1.00  0.00     0.338 C 
ATOM      6  O   UNL A   1      36.692  22.684  22.826  1.00  0.00    -0.246 OA
BRANCH   5   7
ATOM      7  C   UNL A   1      35.025  23.292  24.403  1.00  0.00     0.087 C 
ATOM      8  C   UNL A   1      30.314  23.446  26.428  1.00  0.00     0.048 C 
ATOM      9  C   UNL A   1      31.356  24.452  26.021  1.00  0.00    -0.005 A 
ATOM     10  C   UNL A   1      31.120  25.820  26.259  1.00  0.00     0.054 A 
ATOM     11  C   UNL A   1      32.544  24.056  25.390  1.00  0.00     0.131 A 
ATOM     12  C   UNL A   1      32.063  26.781  25.893  1.00  0.00     0.130 A 
ATOM     13  C   UNL A   1      33.501  25.013  25.050  1.00  0.00     0.021 A 
ATOM     14  O   UNL A   1      32.704  22.724  25.125  1.00  0.00    -0.475 OA
ATOM     15  C   UNL A   1      33.249  26.369  25.282  1.00  0.00     0.058 A 
ATOM     16  C   UNL A   1      34.786  24.604  24.517  1.00  0.00     0.027 C 
ATOM     17  C   UNL A   1      34.007  22.229  24.704  1.00  0.00     0.316 C 
BRANCH  12  18
ATOM     18  O   UNL A   1      31.966  28.131  26.068  1.00  0.00    -0.406 OA
BRANCH  18  19
ATOM     19  C   UNL A   1      32.245  28.653  27.356  1.00  0.00     0.573 C 
ATOM     20  F   UNL A   1      33.517  28.388  27.720  1.00  0.00    -0.132 F 
ATOM     21  F   UNL A   1      32.028  29.984  27.401  1.00  0.00    -0.132 F 
ATOM     22  F   UNL A   1      31.420  28.061  28.248  1.00  0.00    -0.132 F 
ENDBRANCH  18  19
ENDBRANCH  12  18
BRANCH  17  23
ATOM     23  C   UNL A   1      34.494  21.215  25.748  1.00  0.00     0.430 C 
ATOM     24  F   UNL A   1      33.454  20.540  26.298  1.00  0.00    -0.167 F 
ATOM     25  F   UNL A   1      35.310  20.282  25.203  1.00  0.00    -0.167 F 
ATOM     26  F   UNL A   1      35.172  21.808  26.756  1.00  0.00    -0.167 F 
ENDBRANCH  17  23
ENDBRANCH   5   7
ENDBRANCH   4   5
ENDBRANCH   3   4
ENDBRANCH   2   3
ENDBRANCH   1   2
BRANCH   1  27
ATOM     27  C   UNL A   1      41.349  21.044  26.835  1.00  0.00     0.202 C 
BRANCH  27  28
ATOM     28  C   UNL A   1      42.536  21.480  25.969  1.00  0.00     0.261 C 
BRANCH  28  29
ATOM     29  O   UNL A   1      42.241  22.664  25.203  1.00  0.00    -0.460 OA
BRANCH  29  30
ATOM     30  C   UNL A   1      43.126  23.674  25.351  1.00  0.00     0.338 C 
ATOM     31  O   UNL A   1      44.221  23.789  24.816  1.00  0.00    -0.246 OA
BRANCH  30  32
ATOM     32  C   UNL A   1      42.532  24.754  26.155  1.00  0.00     0.060 A 
ATOM     33  C   UNL A   1      43.223  25.971  26.230  1.00  0.00     0.016 A 
ATOM     34  C   UNL A   1      41.377  24.541  26.909  1.00  0.00     0.016 A 
ATOM     35  C   UNL A   1      42.790  26.966  27.104  1.00  0.00     0.010 A 
ATOM     36  C   UNL A   1      40.956  25.531  27.800  1.00  0.00     0.010 A 
ATOM     37  C   UNL A   1      41.682  26.729  27.928  1.00  0.00    -0.014 A 
BRANCH  37  38
ATOM     38  C   UNL A   1      41.370  27.657  29.036  1.00  0.00     0.031 A 
ATOM     39  C   UNL A   1      42.180  27.576  30.299  1.00  0.00     0.074 A 
ATOM     40  C   UNL A   1      40.376  28.554  28.924  1.00  0.00     0.049 A 
ATOM     41  N   UNL A   1      42.007  28.209  31.431  1.00  0.00    -0.248 NA
ATOM     42  C   UNL A   1      43.340  26.670  30.284  1.00  0.00     0.031 C 
ATOM     43  C   UNL A   1      39.567  28.776  27.727  1.00  0.00     0.029 A 
ATOM     44  N   UNL A   1      39.874  29.440  29.843  1.00  0.00    -0.354 N 
ATOM     45  C   UNL A   1      43.030  27.772  32.263  1.00  0.00     0.074 A 
ATOM     46  C   UNL A   1      43.815  26.816  31.513  1.00  0.00     0.031 C 
ATOM     47  C   UNL A   1      38.656  29.728  27.990  1.00  0.00     0.029 A 
ATOM     48  C   UNL A   1      38.797  30.153  29.382  1.00  0.00     0.049 A 
ATOM     49  H   UNL A   1      40.251  29.554  30.745  1.00  0.00     0.167 HD
ATOM     50  C   UNL A   1      43.289  28.135  33.540  1.00  0.00     0.031 A 
ATOM     51  C   UNL A   1      37.997  31.028  30.020  1.00  0.00     0.031 A 
ATOM     52  C   UNL A   1      42.499  29.069  34.293  1.00  0.00     0.049 A 
ATOM     53  C   UNL A   1      38.249  31.350  31.466  1.00  0.00     0.074 A 
ATOM     54  C   UNL A   1      42.672  29.480  35.602  1.00  0.00     0.029 A 
ATOM     55  N   UNL A   1      41.390  29.738  33.802  1.00  0.00    -0.354 N 
ATOM     56  N   UNL A   1      39.194  30.901  32.256  1.00  0.00    -0.248 NA
ATOM     57  C   UNL A   1      37.326  32.297  32.110  1.00  0.00     0.031 C 
ATOM     58  C   UNL A   1      41.643  30.373  35.917  1.00  0.00     0.029 A 
ATOM     59  C   UNL A   1      40.862  30.553  34.786  1.00  0.00     0.049 A 
ATOM     60  H   UNL A   1      41.032  29.646  32.889  1.00  0.00     0.167 HD
ATOM     61  C   UNL A   1      38.997  31.529  33.479  1.00  0.00     0.074 A 
ATOM     62  C   UNL A   1      37.842  32.390  33.330  1.00  0.00     0.031 C 
ATOM     63  C   UNL A   1      39.716  31.407  34.620  1.00  0.00     0.031 A 
BRANCH  50  64
ATOM     64  C   UNL A   1      44.465  27.504  34.222  1.00  0.00    -0.014 A 
ATOM     65  C   UNL A   1      44.338  26.271  34.879  1.00  0.00     0.009 A 
ATOM     66  C   UNL A   1      45.730  28.105  34.132  1.00  0.00     0.009 A 
ATOM     67  C   UNL A   1      45.460  25.652  35.437  1.00  0.00     0.001 A 
ATOM     68  C   UNL A   1      46.851  27.477  34.675  1.00  0.00     0.001 A 
ATOM     69  C   UNL A   1      46.715  26.252  35.328  1.00  0.00     0.000 A 
ENDBRANCH  50  64
BRANCH  51  70
ATOM     70  C   UNL A   1      36.868  31.652  29.286  1.00  0.00    -0.014 A 
ATOM     71  C   UNL A   1      37.012  32.921  28.709  1.00  0.00     0.009 A 
ATOM     72  C   UNL A   1      35.655  30.964  29.127  1.00  0.00     0.009 A 
ATOM     73  C   UNL A   1      35.961  33.492  27.989  1.00  0.00     0.001 A 
ATOM     74  C   UNL A   1      34.613  31.529  28.391  1.00  0.00     0.001 A 
ATOM     75  C   UNL A   1      34.766  32.794  27.824  1.00  0.00     0.000 A 
ENDBRANCH  51  70
BRANCH  63  76
ATOM     76  C   UNL A   1      39.313  32.248  35.796  1.00  0.00    -0.014 A 
ATOM     77  C   UNL A   1      39.808  33.549  35.962  1.00  0.00     0.009 A 
ATOM     78  C   UNL A   1      38.346  31.763  36.691  1.00  0.00     0.009 A 
ATOM     79  C   UNL A   1      39.350  34.345  37.013  1.00  0.00     0.001 A 
ATOM     80  C   UNL A   1      37.875  32.569  37.728  1.00  0.00     0.001 A 
ATOM     81  C   UNL A   1      38.380  33.857  37.890  1.00  0.00     0.000 A 
ENDBRANCH  63  76
ENDBRANCH  37  38
ENDBRANCH  30  32
ENDBRANCH  29  30
ENDBRANCH  28  29
ENDBRANCH  27  28
ENDBRANCH   1  27
TORSDOF 17
ENDMDL
MODEL 2
REMARK VINA RESULT:     -10.8      3.783      7.305
REMARK SMILES Cc1cc(OC(F)(F)F)cc2c1O[C@H](C(F)(F)F)C(C(=O)OCCOCCOC(=O)c1ccc(-c3c4nc(c(-c5ccccc5)c5ccc([nH]5)c(-c5ccccc5)c5nc(c(-c6ccccc6)c6ccc3[nH]6)C=C5)C=C4)cc1)=C2
REMARK SMILES IDX 25 1 24 2 23 3 22 4 20 5 21 6 19 7 1 8 2 9 3 10 12 11 4 12
REMARK SMILES IDX 11 13 13 14 10 15 79 16 14 17 5 18 6 19 7 20 8 21 9 22 15 23
REMARK SMILES IDX 16 24 17 25 18 26 26 27 27 28 28 29 29 30 30 31 31 32 32 33
REMARK SMILES IDX 78 34 33 35 77 36 34 37 35 38 36 39 71 40 37 41 76 42 70 43
REMARK SMILES IDX 72 44 38 45 75 46 69 47 68 48 39 50 61 51 46 52 60 53 47 54
REMARK SMILES IDX 50 55 59 56 73 57 48 58 49 59 58 61 74 62 51 63 40 64 41 65
REMARK SMILES IDX 45 66 42 67 44 68 43 69 62 70 63 71 67 72 64 73 66 74 65 75
REMARK SMILES IDX 52 76 53 77 57 78 54 79 56 80 55 81
REMARK H PARENT 72 49 50 60
REMARK Flexibility Score: inf
ROOT
ATOM      1  O   UNL A   1      37.795  21.284  25.358  1.00  0.00    -0.374 OA
ENDROOT
BRANCH   1   2
ATOM      2  C   UNL A   1      36.425  21.511  25.685  1.00  0.00     0.202 C 
BRANCH   2   3
ATOM      3  C   UNL A   1      35.940  22.953  25.534  1.00  0.00     0.261 C 
BRANCH   3   4
ATOM      4  O   UNL A   1      34.639  22.992  24.924  1.00  0.00    -0.460 OA
BRANCH   4   5
ATOM      5  C   UNL A   1      34.621  23.454  23.654  1.00  0.00     0.338 C 
ATOM      6  O   UNL A   1      35.196  22.969  22.691  1.00  0.00    -0.246 OA
BRANCH   5   7
ATOM      7  C   UNL A   1      33.694  24.595  23.547  1.00  0.00     0.087 C 
ATOM      8  C   UNL A   1      29.610  27.671  23.122  1.00  0.00     0.048 C 
ATOM      9  C   UNL A   1      30.983  27.765  23.730  1.00  0.00    -0.005 A 
ATOM     10  C   UNL A   1      31.340  28.924  24.446  1.00  0.00     0.054 A 
ATOM     11  C   UNL A   1      31.918  26.731  23.579  1.00  0.00     0.131 A 
ATOM     12  C   UNL A   1      32.605  29.045  25.021  1.00  0.00     0.130 A 
ATOM     13  C   UNL A   1      33.174  26.839  24.179  1.00  0.00     0.021 A 
ATOM     14  O   UNL A   1      31.549  25.650  22.826  1.00  0.00    -0.475 OA
ATOM     15  C   UNL A   1      33.519  28.000  24.877  1.00  0.00     0.058 A 
ATOM     16  C   UNL A   1      34.100  25.724  24.139  1.00  0.00     0.027 C 
ATOM     17  C   UNL A   1      32.375  24.452  22.840  1.00  0.00     0.316 C 
BRANCH  12  18
ATOM     18  O   UNL A   1      33.078  30.104  25.741  1.00  0.00    -0.406 OA
BRANCH  18  19
ATOM     19  C   UNL A   1      33.018  30.024  27.154  1.00  0.00     0.573 C 
ATOM     20  F   UNL A   1      31.821  29.551  27.561  1.00  0.00    -0.132 F 
ATOM     21  F   UNL A   1      34.004  29.243  27.642  1.00  0.00    -0.132 F 
ATOM     22  F   UNL A   1      33.173  31.266  27.663  1.00  0.00    -0.132 F 
ENDBRANCH  18  19
ENDBRANCH  12  18
BRANCH  17  23
ATOM     23  C   UNL A   1      31.528  23.293  23.387  1.00  0.00     0.430 C 
ATOM     24  F   UNL A   1      31.646  23.194  24.734  1.00  0.00    -0.167 F 
ATOM     25  F   UNL A   1      30.211  23.465  23.130  1.00  0.00    -0.167 F 
ATOM     26  F   UNL A   1      31.892  22.103  22.858  1.00  0.00    -0.167 F 
ENDBRANCH  17  23
ENDBRANCH   5   7
ENDBRANCH   4   5
ENDBRANCH   3   4
ENDBRANCH   2   3
ENDBRANCH   1   2
BRANCH   1  27
ATOM     27  C   UNL A   1      38.153  19.979  24.900  1.00  0.00     0.202 C 
BRANCH  27  28
ATOM     28  C   UNL A   1      39.146  19.204  25.774  1.00  0.00     0.261 C 
BRANCH  28  29
ATOM     29  O   UNL A   1      40.474  19.210  25.218  1.00  0.00    -0.460 OA
BRANCH  29  30
ATOM     30  C   UNL A   1      41.471  19.312  26.125  1.00  0.00     0.338 C 
ATOM     31  O   UNL A   1      42.290  18.454  26.431  1.00  0.00    -0.246 OA
BRANCH  30  32
ATOM     32  C   UNL A   1      41.563  20.692  26.624  1.00  0.00     0.060 A 
ATOM     33  C   UNL A   1      41.744  21.718  25.686  1.00  0.00     0.016 A 
ATOM     34  C   UNL A   1      41.583  20.966  27.992  1.00  0.00     0.016 A 
ATOM     35  C   UNL A   1      41.998  23.019  26.115  1.00  0.00     0.010 A 
ATOM     36  C   UNL A   1      41.859  22.267  28.421  1.00  0.00     0.010 A 
ATOM     37  C   UNL A   1      42.106  23.287  27.485  1.00  0.00    -0.014 A 
BRANCH  37  38
ATOM     38  C   UNL A   1      42.631  24.590  27.947  1.00  0.00     0.031 A 
ATOM     39  C   UNL A   1      41.657  25.668  28.334  1.00  0.00     0.074 A 
ATOM     40  C   UNL A   1      43.954  24.815  28.013  1.00  0.00     0.049 A 
ATOM     41  N   UNL A   1      41.892  26.914  28.655  1.00  0.00    -0.248 NA
ATOM     42  C   UNL A   1      40.235  25.291  28.372  1.00  0.00     0.031 C 
ATOM     43  C   UNL A   1      44.995  23.829  27.732  1.00  0.00     0.029 A 
ATOM     44  N   UNL A   1      44.643  25.957  28.332  1.00  0.00    -0.354 N 
ATOM     45  C   UNL A   1      40.649  27.471  28.925  1.00  0.00     0.074 A 
ATOM     46  C   UNL A   1      39.661  26.434  28.723  1.00  0.00     0.031 C 
ATOM     47  C   UNL A   1      46.196  24.415  27.875  1.00  0.00     0.029 A 
ATOM     48  C   UNL A   1      46.004  25.822  28.222  1.00  0.00     0.049 A 
ATOM     49  H   UNL A   1      44.204  26.792  28.613  1.00  0.00     0.167 HD
ATOM     50  C   UNL A   1      40.358  28.736  29.305  1.00  0.00     0.031 A 
ATOM     51  C   UNL A   1      46.982  26.737  28.357  1.00  0.00     0.031 A 
ATOM     52  C   UNL A   1      41.336  29.772  29.486  1.00  0.00     0.049 A 
ATOM     53  C   UNL A   1      46.630  28.159  28.692  1.00  0.00     0.074 A 
ATOM     54  C   UNL A   1      41.131  31.093  29.846  1.00  0.00     0.029 A 
ATOM     55  N   UNL A   1      42.701  29.605  29.323  1.00  0.00    -0.354 N 
ATOM     56  N   UNL A   1      45.448  28.686  28.905  1.00  0.00    -0.248 NA
ATOM     57  C   UNL A   1      47.743  29.114  28.804  1.00  0.00     0.031 C 
ATOM     58  C   UNL A   1      42.373  31.735  29.867  1.00  0.00     0.029 A 
ATOM     59  C   UNL A   1      43.351  30.801  29.567  1.00  0.00     0.049 A 
ATOM     60  H   UNL A   1      43.141  28.761  29.072  1.00  0.00     0.167 HD
ATOM     61  C   UNL A   1      45.676  30.023  29.203  1.00  0.00     0.074 A 
ATOM     62  C   UNL A   1      47.108  30.230  29.141  1.00  0.00     0.031 C 
ATOM     63  C   UNL A   1      44.777  30.989  29.507  1.00  0.00     0.031 A 
BRANCH  50  64
ATOM     64  C   UNL A   1      38.918  29.086  29.529  1.00  0.00    -0.014 A 
ATOM     65  C   UNL A   1      38.332  28.943  30.795  1.00  0.00     0.009 A 
ATOM     66  C   UNL A   1      38.165  29.647  28.485  1.00  0.00     0.009 A 
ATOM     67  C   UNL A   1      37.014  29.354  31.011  1.00  0.00     0.001 A 
ATOM     68  C   UNL A   1      36.855  30.072  28.709  1.00  0.00     0.001 A 
ATOM     69  C   UNL A   1      36.281  29.924  29.971  1.00  0.00     0.000 A 
ENDBRANCH  50  64
BRANCH  51  70
ATOM     70  C   UNL A   1      48.395  26.328  28.159  1.00  0.00    -0.014 A 
ATOM     71  C   UNL A   1      48.981  26.390  26.888  1.00  0.00     0.009 A 
ATOM     72  C   UNL A   1      49.173  25.911  29.250  1.00  0.00     0.009 A 
ATOM     73  C   UNL A   1      50.320  26.038  26.711  1.00  0.00     0.001 A 
ATOM     74  C   UNL A   1      50.517  25.578  29.073  1.00  0.00     0.001 A 
ATOM     75  C   UNL A   1      51.089  25.640  27.804  1.00  0.00     0.000 A 
ENDBRANCH  51  70
BRANCH  63  76
ATOM     76  C   UNL A   1      45.301  32.355  29.840  1.00  0.00    -0.014 A 
ATOM     77  C   UNL A   1      45.424  33.345  28.855  1.00  0.00     0.009 A 
ATOM     78  C   UNL A   1      45.578  32.681  31.177  1.00  0.00     0.009 A 
ATOM     79  C   UNL A   1      45.827  34.635  29.204  1.00  0.00     0.001 A 
ATOM     80  C   UNL A   1      45.961  33.976  31.525  1.00  0.00     0.001 A 
ATOM     81  C   UNL A   1      46.089  34.951  30.538  1.00  0.00     0.000 A 
ENDBRANCH  63  76
ENDBRANCH  37  38
ENDBRANCH  30  32
ENDBRANCH  29  30
ENDBRANCH  28  29
ENDBRANCH  27  28
ENDBRANCH   1  27
TORSDOF 17
ENDMDL
MODEL 3
REMARK VINA RESULT:     -10.5      3.465      4.593
REMARK SMILES Cc1cc(OC(F)(F)F)cc2c1O[C@H](C(F)(F)F)C(C(=O)OCCOCCOC(=O)c1ccc(-c3c4nc(c(-c5ccccc5)c5ccc([nH]5)c(-c5ccccc5)c5nc(c(-c6ccccc6)c6ccc3[nH]6)C=C5)C=C4)cc1)=C2
REMARK SMILES IDX 25 1 24 2 23 3 22 4 20 5 21 6 19 7 1 8 2 9 3 10 12 11 4 12
REMARK SMILES IDX 11 13 13 14 10 15 79 16 14 17 5 18 6 19 7 20 8 21 9 22 15 23
REMARK SMILES IDX 16 24 17 25 18 26 26 27 27 28 28 29 29 30 30 31 31 32 32 33
REMARK SMILES IDX 78 34 33 35 77 36 34 37 35 38 36 39 71 40 37 41 76 42 70 43
REMARK SMILES IDX 72 44 38 45 75 46 69 47 68 48 39 50 61 51 46 52 60 53 47 54
REMARK SMILES IDX 50 55 59 56 73 57 48 58 49 59 58 61 74 62 51 63 40 64 41 65
REMARK SMILES IDX 45 66 42 67 44 68 43 69 62 70 63 71 67 72 64 73 66 74 65 75
REMARK SMILES IDX 52 76 53 77 57 78 54 79 56 80 55 81
REMARK H PARENT 72 49 50 60
REMARK Flexibility Score: inf
ROOT
ATOM      1  O   UNL A   1      37.339  20.852  24.591  1.00  0.00    -0.374 OA
ENDROOT
BRANCH   1   2
ATOM      2  C   UNL A   1      36.058  20.729  25.207  1.00  0.00     0.202 C 
BRANCH   2   3
ATOM      3  C   UNL A   1      35.434  22.037  25.698  1.00  0.00     0.261 C 
BRANCH   3   4
ATOM      4  O   UNL A   1      36.054  23.167  25.063  1.00  0.00    -0.460 OA
BRANCH   4   5
ATOM      5  C   UNL A   1      35.538  23.494  23.856  1.00  0.00     0.338 C 
ATOM      6  O   UNL A   1      35.893  23.063  22.769  1.00  0.00    -0.246 OA
BRANCH   5   7
ATOM      7  C   UNL A   1      34.375  24.381  24.031  1.00  0.00     0.087 C 
ATOM      8  C   UNL A   1      29.690  26.445  24.361  1.00  0.00     0.048 C 
ATOM      9  C   UNL A   1      31.037  26.702  24.979  1.00  0.00    -0.005 A 
ATOM     10  C   UNL A   1      31.163  27.705  25.960  1.00  0.00     0.054 A 
ATOM     11  C   UNL A   1      32.171  25.979  24.581  1.00  0.00     0.131 A 
ATOM     12  C   UNL A   1      32.398  27.972  26.553  1.00  0.00     0.130 A 
ATOM     13  C   UNL A   1      33.400  26.225  25.194  1.00  0.00     0.021 A 
ATOM     14  O   UNL A   1      32.013  25.057  23.584  1.00  0.00    -0.475 OA
ATOM     15  C   UNL A   1      33.513  27.232  26.158  1.00  0.00     0.058 A 
ATOM     16  C   UNL A   1      34.549  25.397  24.885  1.00  0.00     0.027 C 
ATOM     17  C   UNL A   1      33.086  24.113  23.305  1.00  0.00     0.316 C 
BRANCH  12  18
ATOM     18  O   UNL A   1      32.659  28.906  27.513  1.00  0.00    -0.406 OA
BRANCH  18  19
ATOM     19  C   UNL A   1      32.720  30.265  27.115  1.00  0.00     0.573 C 
ATOM     20  F   UNL A   1      33.376  31.008  28.031  1.00  0.00    -0.132 F 
ATOM     21  F   UNL A   1      33.318  30.396  25.913  1.00  0.00    -0.132 F 
ATOM     22  F   UNL A   1      31.460  30.741  27.013  1.00  0.00    -0.132 F 
ENDBRANCH  18  19
ENDBRANCH  12  18
BRANCH  17  23
ATOM     23  C   UNL A   1      32.551  22.695  23.546  1.00  0.00     0.430 C 
ATOM     24  F   UNL A   1      33.379  21.762  23.014  1.00  0.00    -0.167 F 
ATOM     25  F   UNL A   1      32.449  22.410  24.865  1.00  0.00    -0.167 F 
ATOM     26  F   UNL A   1      31.328  22.513  22.997  1.00  0.00    -0.167 F 
ENDBRANCH  17  23
ENDBRANCH   5   7
ENDBRANCH   4   5
ENDBRANCH   3   4
ENDBRANCH   2   3
ENDBRANCH   1   2
BRANCH   1  27
ATOM     27  C   UNL A   1      38.401  20.058  25.122  1.00  0.00     0.202 C 
BRANCH  27  28
ATOM     28  C   UNL A   1      39.404  20.787  26.024  1.00  0.00     0.261 C 
BRANCH  28  29
ATOM     29  O   UNL A   1      40.360  19.883  26.610  1.00  0.00    -0.460 OA
BRANCH  29  30
ATOM     30  C   UNL A   1      41.618  19.991  26.126  1.00  0.00     0.338 C 
ATOM     31  O   UNL A   1      42.178  19.244  25.334  1.00  0.00    -0.246 OA
BRANCH  30  32
ATOM     32  C   UNL A   1      42.222  21.259  26.565  1.00  0.00     0.060 A 
ATOM     33  C   UNL A   1      42.216  21.548  27.936  1.00  0.00     0.016 A 
ATOM     34  C   UNL A   1      42.685  22.196  25.640  1.00  0.00     0.016 A 
ATOM     35  C   UNL A   1      42.627  22.801  28.386  1.00  0.00     0.010 A 
ATOM     36  C   UNL A   1      43.077  23.459  26.091  1.00  0.00     0.010 A 
ATOM     37  C   UNL A   1      43.012  23.777  27.459  1.00  0.00    -0.014 A 
BRANCH  37  38
ATOM     38  C   UNL A   1      43.195  25.179  27.892  1.00  0.00     0.031 A 
ATOM     39  C   UNL A   1      44.584  25.671  28.190  1.00  0.00     0.074 A 
ATOM     40  C   UNL A   1      42.141  26.002  28.026  1.00  0.00     0.049 A 
ATOM     41  N   UNL A   1      44.963  26.819  28.690  1.00  0.00    -0.248 NA
ATOM     42  C   UNL A   1      45.691  24.752  27.877  1.00  0.00     0.031 C 
ATOM     43  C   UNL A   1      40.757  25.664  27.701  1.00  0.00     0.029 A 
ATOM     44  N   UNL A   1      42.079  27.293  28.484  1.00  0.00    -0.354 N 
ATOM     45  C   UNL A   1      46.349  26.757  28.758  1.00  0.00     0.074 A 
ATOM     46  C   UNL A   1      46.746  25.459  28.258  1.00  0.00     0.031 C 
ATOM     47  C   UNL A   1      39.976  26.720  27.986  1.00  0.00     0.029 A 
ATOM     48  C   UNL A   1      40.801  27.790  28.545  1.00  0.00     0.049 A 
ATOM     49  H   UNL A   1      42.873  27.814  28.742  1.00  0.00     0.167 HD
ATOM     50  C   UNL A   1      47.212  27.699  29.202  1.00  0.00     0.031 A 
ATOM     51  C   UNL A   1      40.346  28.962  29.025  1.00  0.00     0.031 A 
ATOM     52  C   UNL A   1      46.818  28.980  29.717  1.00  0.00     0.049 A 
ATOM     53  C   UNL A   1      41.315  29.959  29.596  1.00  0.00     0.074 A 
ATOM     54  C   UNL A   1      47.622  29.991  30.212  1.00  0.00     0.029 A 
ATOM     55  N   UNL A   1      45.509  29.427  29.801  1.00  0.00    -0.354 N 
ATOM     56  N   UNL A   1      42.619  29.876  29.693  1.00  0.00    -0.248 NA
ATOM     57  C   UNL A   1      40.751  31.211  30.122  1.00  0.00     0.031 C 
ATOM     58  C   UNL A   1      46.796  31.039  30.630  1.00  0.00     0.029 A 
ATOM     59  C   UNL A   1      45.483  30.697  30.348  1.00  0.00     0.049 A 
ATOM     60  H   UNL A   1      44.718  28.917  29.513  1.00  0.00     0.167 HD
ATOM     61  C   UNL A   1      43.035  31.070  30.266  1.00  0.00     0.074 A 
ATOM     62  C   UNL A   1      41.845  31.863  30.497  1.00  0.00     0.031 C 
ATOM     63  C   UNL A   1      44.292  31.475  30.566  1.00  0.00     0.031 A 
BRANCH  50  64
ATOM     64  C   UNL A   1      48.675  27.376  29.175  1.00  0.00    -0.014 A 
ATOM     65  C   UNL A   1      49.283  26.704  30.245  1.00  0.00     0.009 A 
ATOM     66  C   UNL A   1      49.434  27.669  28.030  1.00  0.00     0.009 A 
ATOM     67  C   UNL A   1      50.628  26.333  30.170  1.00  0.00     0.001 A 
ATOM     68  C   UNL A   1      50.772  27.282  27.952  1.00  0.00     0.001 A 
ATOM     69  C   UNL A   1      51.368  26.615  29.022  1.00  0.00     0.000 A 
ENDBRANCH  50  64
BRANCH  51  70
ATOM     70  C   UNL A   1      38.890  29.246  28.994  1.00  0.00    -0.014 A 
ATOM     71  C   UNL A   1      38.109  29.076  30.145  1.00  0.00     0.009 A 
ATOM     72  C   UNL A   1      38.284  29.725  27.822  1.00  0.00     0.009 A 
ATOM     73  C   UNL A   1      36.745  29.378  30.122  1.00  0.00     0.001 A 
ATOM     74  C   UNL A   1      36.925  30.044  27.808  1.00  0.00     0.001 A 
ATOM     75  C   UNL A   1      36.156  29.867  28.958  1.00  0.00     0.000 A 
ENDBRANCH  51  70
BRANCH  63  76
ATOM     76  C   UNL A   1      44.468  32.850  31.139  1.00  0.00    -0.014 A 
ATOM     77  C   UNL A   1      44.718  33.955  30.313  1.00  0.00     0.009 A 
ATOM     78  C   UNL A   1      44.279  33.053  32.516  1.00  0.00     0.009 A 
ATOM     79  C   UNL A   1      44.788  35.238  30.859  1.00  0.00     0.001 A 
ATOM     80  C   UNL A   1      44.330  34.338  33.055  1.00  0.00     0.001 A 
ATOM     81  C   UNL A   1      44.587  35.429  32.227  1.00  0.00     0.000 A 
ENDBRANCH  63  76
ENDBRANCH  37  38
ENDBRANCH  30  32
ENDBRANCH  29  30
ENDBRANCH  28  29
ENDBRANCH  27  28
ENDBRANCH   1  27
TORSDOF 17
ENDMDL
