MODEL 1
REMARK VINA RESULT:     -11.6      0.000      0.000
REMARK SMILES O=C(OCCOCCOC(=O)c1ccc(-c2c3nc(c(-c4ccccc4)c4ccc([nH]4)c(-c4ccccc4)c4nc(c(-c5ccccc5)c5ccc2[nH]5)C=C4)C=C3)cc1)C1=Cc2cc(S(F)(F)(F)(F)F)cc(Br)c2O[C@H]1C(F)(F)F
REMARK SMILES IDX 7 1 6 2 5 3 4 4 3 5 2 6 1 7 60 8 61 9 76 10 62 11 75 12
REMARK SMILES IDX 63 13 74 14 64 15 72 16 71 17 73 18 77 19 78 20 79 21 80 22
REMARK SMILES IDX 65 23 66 24 67 25 68 26 69 27 70 28 8 29 9 30 10 31 11 32
REMARK SMILES IDX 12 33 13 34 59 35 14 36 58 37 15 38 16 39 17 40 52 41 18 42
REMARK SMILES IDX 57 43 51 44 53 45 19 46 56 47 50 48 49 49 20 51 42 52 27 53
REMARK SMILES IDX 41 54 28 55 31 56 40 57 54 58 29 59 30 60 39 62 55 63 32 64
REMARK SMILES IDX 21 65 22 66 26 67 23 68 25 69 24 70 43 71 44 72 48 73 45 74
REMARK SMILES IDX 47 75 46 76 33 77 34 78 38 79 35 80 37 81 36 82
REMARK H PARENT 53 50 31 61
REMARK Flexibility Score: inf
ROOT
ATOM      1  C   UNL A   1      37.797  19.734  24.880  1.00  0.00     0.202 C 
ENDROOT
BRANCH   1   2
ATOM      2  O   UNL A   1      36.772  20.696  25.083  1.00  0.00    -0.374 OA
BRANCH   2   3
ATOM      3  C   UNL A   1      37.237  21.976  24.682  1.00  0.00     0.202 C 
BRANCH   3   4
ATOM      4  C   UNL A   1      36.177  22.657  23.832  1.00  0.00     0.261 C 
BRANCH   4   5
ATOM      5  O   UNL A   1      35.021  22.899  24.620  1.00  0.00    -0.460 OA
BRANCH   5   6
ATOM      6  C   UNL A   1      33.730  22.647  24.084  1.00  0.00     0.338 C 
ATOM      7  O   UNL A   1      33.581  22.497  22.831  1.00  0.00    -0.246 OA
BRANCH   6   8
ATOM      8  C   UNL A   1      32.527  22.554  25.009  1.00  0.00     0.087 C 
ATOM      9  C   UNL A   1      32.007  23.682  25.562  1.00  0.00     0.027 C 
ATOM     10  C   UNL A   1      31.905  21.202  25.314  1.00  0.00     0.316 C 
ATOM     11  C   UNL A   1      32.629  25.035  25.257  1.00  0.00     0.020 A 
ATOM     12  O   UNL A   1      32.926  24.205  23.051  1.00  0.00    -0.474 OA
ATOM     13  C   UNL A   1      32.769  26.018  26.223  1.00  0.00     0.036 A 
ATOM     14  C   UNL A   1      32.926  25.274  23.985  1.00  0.00     0.142 A 
ATOM     15  C   UNL A   1      32.958  27.317  25.697  1.00  0.00     0.109 A 
ATOM     16  C   UNL A   1      33.235  26.545  23.565  1.00  0.00     0.062 A 
ATOM     17  C   UNL A   1      33.333  27.576  24.458  1.00  0.00     0.044 A 
ATOM     18  Br  UNL A   1      33.539  26.884  21.659  1.00  0.00    -0.047 Br
BRANCH  10  19
ATOM     19  C   UNL A   1      32.669  20.115  24.576  1.00  0.00     0.430 C 
ATOM     20  F   UNL A   1      33.971  20.238  24.818  1.00  0.00    -0.167 F 
ATOM     21  F   UNL A   1      32.252  18.921  24.986  1.00  0.00    -0.167 F 
ATOM     22  F   UNL A   1      32.449  20.236  23.268  1.00  0.00    -0.167 F 
ENDBRANCH  10  19
BRANCH  15  23
ATOM     23  S   UNL A   1      32.666  28.724  26.798  1.00  0.00     0.310 S 
ATOM     24  F   UNL A   1      31.959  27.812  27.886  1.00  0.00    -0.094 F 
ATOM     25  F   UNL A   1      31.251  28.910  26.132  1.00  0.00    -0.094 F 
ATOM     26  F   UNL A   1      32.414  29.935  27.740  1.00  0.00    -0.094 F 
ATOM     27  F   UNL A   1      34.028  28.436  27.546  1.00  0.00    -0.094 F 
ATOM     28  F   UNL A   1      32.888  27.424  25.926  1.00  0.00    -0.094 F 
ENDBRANCH  15  23
ENDBRANCH   6   8
ENDBRANCH   5   6
ENDBRANCH   4   5
ENDBRANCH   3   4
ENDBRANCH   2   3
ENDBRANCH   1   2
BRANCH   1  29
ATOM     29  C   UNL A   1      39.105  20.262  25.444  1.00  0.00     0.261 C 
BRANCH  29  30
ATOM     30  O   UNL A   1      39.950  19.172  25.782  1.00  0.00    -0.460 OA
BRANCH  30  31
ATOM     31  C   UNL A   1      41.333  19.391  26.014  1.00  0.00     0.338 C 
ATOM     32  O   UNL A   1      42.182  18.508  25.674  1.00  0.00    -0.246 OA
BRANCH  31  33
ATOM     33  C   UNL A   1      41.799  20.681  26.671  1.00  0.00     0.060 A 
ATOM     34  C   UNL A   1      41.588  20.911  28.020  1.00  0.00     0.016 A 
ATOM     35  C   UNL A   1      42.266  21.633  25.873  1.00  0.00     0.016 A 
ATOM     36  C   UNL A   1      41.628  22.279  28.380  1.00  0.00     0.010 A 
ATOM     37  C   UNL A   1      42.407  22.922  26.331  1.00  0.00     0.010 A 
ATOM     38  C   UNL A   1      42.159  23.233  27.639  1.00  0.00    -0.014 A 
BRANCH  38  39
ATOM     39  C   UNL A   1      42.479  24.606  28.208  1.00  0.00     0.031 A 
ATOM     40  C   UNL A   1      43.840  24.851  28.403  1.00  0.00     0.074 A 
ATOM     41  C   UNL A   1      41.492  25.566  28.353  1.00  0.00     0.049 A 
ATOM     42  N   UNL A   1      44.422  26.009  28.715  1.00  0.00    -0.248 NA
ATOM     43  C   UNL A   1      44.887  23.825  28.282  1.00  0.00     0.031 C 
ATOM     44  C   UNL A   1      40.119  25.329  28.151  1.00  0.00     0.029 A 
ATOM     45  N   UNL A   1      41.645  26.887  28.709  1.00  0.00    -0.354 N 
ATOM     46  C   UNL A   1      45.745  25.854  28.797  1.00  0.00     0.074 A 
ATOM     47  C   UNL A   1      46.063  24.445  28.526  1.00  0.00     0.031 C 
ATOM     48  C   UNL A   1      39.451  26.488  28.393  1.00  0.00     0.029 A 
ATOM     49  C   UNL A   1      40.396  27.468  28.750  1.00  0.00     0.049 A 
ATOM     50  H   UNL A   1      42.498  27.339  28.902  1.00  0.00     0.167 HD
ATOM     51  C   UNL A   1      46.698  26.832  29.085  1.00  0.00     0.031 A 
ATOM     52  C   UNL A   1      40.079  28.777  29.079  1.00  0.00     0.031 A 
ATOM     53  C   UNL A   1      46.385  28.150  29.372  1.00  0.00     0.049 A 
ATOM     54  C   UNL A   1      41.029  29.741  29.425  1.00  0.00     0.074 A 
ATOM     55  C   UNL A   1      47.335  29.150  29.657  1.00  0.00     0.029 A 
ATOM     56  N   UNL A   1      45.135  28.726  29.436  1.00  0.00    -0.354 N 
ATOM     57  N   UNL A   1      42.354  29.595  29.467  1.00  0.00    -0.248 NA
ATOM     58  C   UNL A   1      40.702  31.122  29.806  1.00  0.00     0.031 C 
ATOM     59  C   UNL A   1      46.667  30.309  29.899  1.00  0.00     0.029 A 
ATOM     60  C   UNL A   1      45.289  30.052  29.770  1.00  0.00     0.049 A 
ATOM     61  H   UNL A   1      44.279  28.267  29.272  1.00  0.00     0.167 HD
ATOM     62  C   UNL A   1      42.932  30.744  29.821  1.00  0.00     0.074 A 
ATOM     63  C   UNL A   1      41.877  31.740  30.051  1.00  0.00     0.031 C 
ATOM     64  C   UNL A   1      44.297  31.003  29.959  1.00  0.00     0.031 A 
BRANCH  51  65
ATOM     65  C   UNL A   1      48.164  26.426  29.085  1.00  0.00    -0.014 A 
ATOM     66  C   UNL A   1      48.918  26.483  27.925  1.00  0.00     0.009 A 
ATOM     67  C   UNL A   1      48.690  26.001  30.228  1.00  0.00     0.009 A 
ATOM     68  C   UNL A   1      50.149  25.790  28.006  1.00  0.00     0.001 A 
ATOM     69  C   UNL A   1      49.952  25.460  30.259  1.00  0.00     0.001 A 
ATOM     70  C   UNL A   1      50.731  25.429  29.136  1.00  0.00     0.000 A 
ENDBRANCH  51  65
BRANCH  52  71
ATOM     71  C   UNL A   1      38.615  29.185  29.063  1.00  0.00    -0.014 A 
ATOM     72  C   UNL A   1      38.095  29.705  27.889  1.00  0.00     0.009 A 
ATOM     73  C   UNL A   1      37.859  29.037  30.145  1.00  0.00     0.009 A 
ATOM     74  C   UNL A   1      36.828  30.315  28.044  1.00  0.00     0.001 A 
ATOM     75  C   UNL A   1      36.581  29.540  30.178  1.00  0.00     0.001 A 
ATOM     76  C   UNL A   1      36.024  30.120  29.072  1.00  0.00     0.000 A 
ENDBRANCH  52  71
BRANCH  64  77
ATOM     77  C   UNL A   1      44.722  32.413  30.336  1.00  0.00    -0.014 A 
ATOM     78  C   UNL A   1      44.818  32.815  31.657  1.00  0.00     0.009 A 
ATOM     79  C   UNL A   1      44.871  33.278  29.340  1.00  0.00     0.009 A 
ATOM     80  C   UNL A   1      44.788  34.218  31.834  1.00  0.00     0.001 A 
ATOM     81  C   UNL A   1      44.972  34.624  29.592  1.00  0.00     0.001 A 
ATOM     82  C   UNL A   1      45.014  35.098  30.874  1.00  0.00     0.000 A 
ENDBRANCH  64  77
ENDBRANCH  38  39
ENDBRANCH  31  33
ENDBRANCH  30  31
ENDBRANCH  29  30
ENDBRANCH   1  29
TORSDOF 16
ENDMDL
MODEL 2
REMARK VINA RESULT:     -11.5      3.983      8.981
REMARK SMILES O=C(OCCOCCOC(=O)c1ccc(-c2c3nc(c(-c4ccccc4)c4ccc([nH]4)c(-c4ccccc4)c4nc(c(-c5ccccc5)c5ccc2[nH]5)C=C4)C=C3)cc1)C1=Cc2cc(S(F)(F)(F)(F)F)cc(Br)c2O[C@H]1C(F)(F)F
REMARK SMILES IDX 7 1 6 2 5 3 4 4 3 5 2 6 1 7 60 8 61 9 76 10 62 11 75 12
REMARK SMILES IDX 63 13 74 14 64 15 72 16 71 17 73 18 77 19 78 20 79 21 80 22
REMARK SMILES IDX 65 23 66 24 67 25 68 26 69 27 70 28 8 29 9 30 10 31 11 32
REMARK SMILES IDX 12 33 13 34 59 35 14 36 58 37 15 38 16 39 17 40 52 41 18 42
REMARK SMILES IDX 57 43 51 44 53 45 19 46 56 47 50 48 49 49 20 51 42 52 27 53
REMARK SMILES IDX 41 54 28 55 31 56 40 57 54 58 29 59 30 60 39 62 55 63 32 64
REMARK SMILES IDX 21 65 22 66 26 67 23 68 25 69 24 70 43 71 44 72 48 73 45 74
REMARK SMILES IDX 47 75 46 76 33 77 34 78 38 79 35 80 37 81 36 82
REMARK H PARENT 53 50 31 61
REMARK Flexibility Score: inf
ROOT
ATOM      1  C   UNL A   1      31.503  31.665  26.550  1.00  0.00     0.202 C 
ENDROOT
BRANCH   1   2
ATOM      2  O   UNL A   1      31.710  30.261  26.599  1.00  0.00    -0.374 OA
BRANCH   2   3
ATOM      3  C   UNL A   1      33.020  29.958  26.143  1.00  0.00     0.202 C 
BRANCH   3   4
ATOM      4  C   UNL A   1      33.044  28.550  25.571  1.00  0.00     0.261 C 
BRANCH   4   5
ATOM      5  O   UNL A   1      31.761  27.959  25.712  1.00  0.00    -0.460 OA
BRANCH   5   6
ATOM      6  C   UNL A   1      31.149  27.318  24.602  1.00  0.00     0.338 C 
ATOM      7  O   UNL A   1      29.963  26.872  24.701  1.00  0.00    -0.246 OA
BRANCH   6   8
ATOM      8  C   UNL A   1      31.911  27.167  23.295  1.00  0.00     0.087 C 
ATOM      9  C   UNL A   1      32.881  26.221  23.180  1.00  0.00     0.027 C 
ATOM     10  C   UNL A   1      31.589  28.073  22.119  1.00  0.00     0.316 C 
ATOM     11  C   UNL A   1      33.203  25.314  24.357  1.00  0.00     0.020 A 
ATOM     12  O   UNL A   1      30.863  25.310  24.768  1.00  0.00    -0.474 OA
ATOM     13  C   UNL A   1      34.501  24.946  24.671  1.00  0.00     0.036 A 
ATOM     14  C   UNL A   1      32.165  24.795  25.002  1.00  0.00     0.142 A 
ATOM     15  C   UNL A   1      34.588  23.799  25.494  1.00  0.00     0.109 A 
ATOM     16  C   UNL A   1      32.340  23.766  25.895  1.00  0.00     0.062 A 
ATOM     17  C   UNL A   1      33.591  23.311  26.208  1.00  0.00     0.044 A 
ATOM     18  Br  UNL A   1      30.773  22.936  26.730  1.00  0.00    -0.047 Br
BRANCH  10  19
ATOM     19  C   UNL A   1      30.477  29.033  22.508  1.00  0.00     0.430 C 
ATOM     20  F   UNL A   1      29.345  28.358  22.691  1.00  0.00    -0.167 F 
ATOM     21  F   UNL A   1      30.806  29.662  23.632  1.00  0.00    -0.167 F 
ATOM     22  F   UNL A   1      30.308  29.924  21.534  1.00  0.00    -0.167 F 
ENDBRANCH  10  19
BRANCH  15  23
ATOM     23  S   UNL A   1      36.179  22.937  25.572  1.00  0.00     0.310 S 
ATOM     24  F   UNL A   1      36.779  23.797  24.382  1.00  0.00    -0.094 F 
ATOM     25  F   UNL A   1      35.649  21.928  24.484  1.00  0.00    -0.094 F 
ATOM     26  F   UNL A   1      37.541  22.192  25.640  1.00  0.00    -0.094 F 
ATOM     27  F   UNL A   1      36.740  24.038  26.556  1.00  0.00    -0.094 F 
ATOM     28  F   UNL A   1      34.841  23.768  25.430  1.00  0.00    -0.094 F 
ENDBRANCH  15  23
ENDBRANCH   6   8
ENDBRANCH   5   6
ENDBRANCH   4   5
ENDBRANCH   3   4
ENDBRANCH   2   3
ENDBRANCH   1   2
BRANCH   1  29
ATOM     29  C   UNL A   1      32.579  32.363  27.366  1.00  0.00     0.261 C 
BRANCH  29  30
ATOM     30  O   UNL A   1      32.184  33.701  27.625  1.00  0.00    -0.460 OA
BRANCH  30  31
ATOM     31  C   UNL A   1      32.966  34.519  28.483  1.00  0.00     0.338 C 
ATOM     32  O   UNL A   1      32.498  35.620  28.912  1.00  0.00    -0.246 OA
BRANCH  31  33
ATOM     33  C   UNL A   1      34.365  34.080  28.884  1.00  0.00     0.060 A 
ATOM     34  C   UNL A   1      35.442  34.260  28.033  1.00  0.00     0.016 A 
ATOM     35  C   UNL A   1      34.482  33.378  30.005  1.00  0.00     0.016 A 
ATOM     36  C   UNL A   1      36.539  33.410  28.308  1.00  0.00     0.010 A 
ATOM     37  C   UNL A   1      35.634  32.679  30.275  1.00  0.00     0.010 A 
ATOM     38  C   UNL A   1      36.718  32.764  29.446  1.00  0.00    -0.014 A 
BRANCH  38  39
ATOM     39  C   UNL A   1      38.058  32.147  29.815  1.00  0.00     0.031 A 
ATOM     40  C   UNL A   1      38.777  32.857  30.778  1.00  0.00     0.074 A 
ATOM     41  C   UNL A   1      38.425  30.901  29.338  1.00  0.00     0.049 A 
ATOM     42  N   UNL A   1      39.883  32.471  31.417  1.00  0.00    -0.248 NA
ATOM     43  C   UNL A   1      38.408  34.196  31.261  1.00  0.00     0.031 C 
ATOM     44  C   UNL A   1      37.701  30.175  28.373  1.00  0.00     0.029 A 
ATOM     45  N   UNL A   1      39.523  30.150  29.694  1.00  0.00    -0.354 N 
ATOM     46  C   UNL A   1      40.269  33.412  32.282  1.00  0.00     0.074 A 
ATOM     47  C   UNL A   1      39.329  34.538  32.190  1.00  0.00     0.031 C 
ATOM     48  C   UNL A   1      38.358  29.009  28.141  1.00  0.00     0.029 A 
ATOM     49  C   UNL A   1      39.505  28.986  28.958  1.00  0.00     0.049 A 
ATOM     50  H   UNL A   1      40.205  30.402  30.358  1.00  0.00     0.167 HD
ATOM     51  C   UNL A   1      41.365  33.374  33.144  1.00  0.00     0.031 A 
ATOM     52  C   UNL A   1      40.428  27.952  28.981  1.00  0.00     0.031 A 
ATOM     53  C   UNL A   1      42.264  32.321  33.198  1.00  0.00     0.049 A 
ATOM     54  C   UNL A   1      41.558  27.940  29.802  1.00  0.00     0.074 A 
ATOM     55  C   UNL A   1      43.371  32.264  34.068  1.00  0.00     0.029 A 
ATOM     56  N   UNL A   1      42.259  31.167  32.445  1.00  0.00    -0.354 N 
ATOM     57  N   UNL A   1      41.921  28.863  30.695  1.00  0.00    -0.248 NA
ATOM     58  C   UNL A   1      42.559  26.865  29.813  1.00  0.00     0.031 C 
ATOM     59  C   UNL A   1      44.029  31.097  33.835  1.00  0.00     0.029 A 
ATOM     60  C   UNL A   1      43.345  30.407  32.816  1.00  0.00     0.049 A 
ATOM     61  H   UNL A   1      41.594  30.928  31.760  1.00  0.00     0.167 HD
ATOM     62  C   UNL A   1      43.051  28.494  31.303  1.00  0.00     0.074 A 
ATOM     63  C   UNL A   1      43.480  27.208  30.739  1.00  0.00     0.031 C 
ATOM     64  C   UNL A   1      43.738  29.178  32.308  1.00  0.00     0.031 A 
BRANCH  51  65
ATOM     65  C   UNL A   1      41.587  34.556  34.075  1.00  0.00    -0.014 A 
ATOM     66  C   UNL A   1      41.003  34.592  35.330  1.00  0.00     0.009 A 
ATOM     67  C   UNL A   1      42.343  35.556  33.638  1.00  0.00     0.009 A 
ATOM     68  C   UNL A   1      41.040  35.867  35.943  1.00  0.00     0.001 A 
ATOM     69  C   UNL A   1      42.443  36.723  34.356  1.00  0.00     0.001 A 
ATOM     70  C   UNL A   1      41.842  36.850  35.577  1.00  0.00     0.000 A 
ENDBRANCH  51  65
BRANCH  52  71
ATOM     71  C   UNL A   1      40.197  26.764  28.062  1.00  0.00    -0.014 A 
ATOM     72  C   UNL A   1      39.494  25.679  28.561  1.00  0.00     0.009 A 
ATOM     73  C   UNL A   1      40.651  26.775  26.814  1.00  0.00     0.009 A 
ATOM     74  C   UNL A   1      39.572  24.523  27.750  1.00  0.00     0.001 A 
ATOM     75  C   UNL A   1      40.572  25.649  26.031  1.00  0.00     0.001 A 
ATOM     76  C   UNL A   1      39.943  24.521  26.483  1.00  0.00     0.000 A 
ENDBRANCH  52  71
BRANCH  64  77
ATOM     77  C   UNL A   1      44.991  28.535  32.880  1.00  0.00    -0.014 A 
ATOM     78  C   UNL A   1      46.214  28.626  32.237  1.00  0.00     0.009 A 
ATOM     79  C   UNL A   1      44.833  27.775  33.956  1.00  0.00     0.009 A 
ATOM     80  C   UNL A   1      47.147  27.642  32.638  1.00  0.00     0.001 A 
ATOM     81  C   UNL A   1      45.837  26.935  34.373  1.00  0.00     0.001 A 
ATOM     82  C   UNL A   1      47.053  26.929  33.747  1.00  0.00     0.000 A 
ENDBRANCH  64  77
ENDBRANCH  38  39
ENDBRANCH  31  33
ENDBRANCH  30  31
ENDBRANCH  29  30
ENDBRANCH   1  29
TORSDOF 16
ENDMDL
MODEL 3
REMARK VINA RESULT:     -11.2      2.856      7.559
REMARK SMILES O=C(OCCOCCOC(=O)c1ccc(-c2c3nc(c(-c4ccccc4)c4ccc([nH]4)c(-c4ccccc4)c4nc(c(-c5ccccc5)c5ccc2[nH]5)C=C4)C=C3)cc1)C1=Cc2cc(S(F)(F)(F)(F)F)cc(Br)c2O[C@H]1C(F)(F)F
REMARK SMILES IDX 7 1 6 2 5 3 4 4 3 5 2 6 1 7 60 8 61 9 76 10 62 11 75 12
REMARK SMILES IDX 63 13 74 14 64 15 72 16 71 17 73 18 77 19 78 20 79 21 80 22
REMARK SMILES IDX 65 23 66 24 67 25 68 26 69 27 70 28 8 29 9 30 10 31 11 32
REMARK SMILES IDX 12 33 13 34 59 35 14 36 58 37 15 38 16 39 17 40 52 41 18 42
REMARK SMILES IDX 57 43 51 44 53 45 19 46 56 47 50 48 49 49 20 51 42 52 27 53
REMARK SMILES IDX 41 54 28 55 31 56 40 57 54 58 29 59 30 60 39 62 55 63 32 64
REMARK SMILES IDX 21 65 22 66 26 67 23 68 25 69 24 70 43 71 44 72 48 73 45 74
REMARK SMILES IDX 47 75 46 76 33 77 34 78 38 79 35 80 37 81 36 82
REMARK H PARENT 53 50 31 61
REMARK Flexibility Score: inf
ROOT
ATOM      1  C   UNL A   1      31.814  29.078  27.269  1.00  0.00     0.202 C 
ENDROOT
BRANCH   1   2
ATOM      2  O   UNL A   1      31.203  27.863  27.678  1.00  0.00    -0.374 OA
BRANCH   2   3
ATOM      3  C   UNL A   1      31.674  26.798  26.865  1.00  0.00     0.202 C 
BRANCH   3   4
ATOM      4  C   UNL A   1      30.510  26.193  26.098  1.00  0.00     0.261 C 
BRANCH   4   5
ATOM      5  O   UNL A   1      31.008  25.397  25.032  1.00  0.00    -0.460 OA
BRANCH   5   6
ATOM      6  C   UNL A   1      31.157  25.959  23.736  1.00  0.00     0.338 C 
ATOM      7  O   UNL A   1      30.296  25.713  22.834  1.00  0.00    -0.246 OA
BRANCH   6   8
ATOM      8  C   UNL A   1      32.346  26.855  23.428  1.00  0.00     0.087 C 
ATOM      9  C   UNL A   1      33.610  26.362  23.519  1.00  0.00     0.027 C 
ATOM     10  C   UNL A   1      32.121  28.300  23.018  1.00  0.00     0.316 C 
ATOM     11  C   UNL A   1      33.835  24.915  23.929  1.00  0.00     0.020 A 
ATOM     12  O   UNL A   1      31.910  24.430  22.623  1.00  0.00    -0.474 OA
ATOM     13  C   UNL A   1      34.870  24.539  24.769  1.00  0.00     0.036 A 
ATOM     14  C   UNL A   1      33.057  24.010  23.347  1.00  0.00     0.142 A 
ATOM     15  C   UNL A   1      35.189  23.162  24.705  1.00  0.00     0.109 A 
ATOM     16  C   UNL A   1      33.351  22.672  23.439  1.00  0.00     0.062 A 
ATOM     17  C   UNL A   1      34.397  22.232  24.204  1.00  0.00     0.044 A 
ATOM     18  Br  UNL A   1      32.259  21.373  22.458  1.00  0.00    -0.047 Br
BRANCH  10  19
ATOM     19  C   UNL A   1      30.631  28.595  22.994  1.00  0.00     0.430 C 
ATOM     20  F   UNL A   1      30.432  29.882  22.725  1.00  0.00    -0.167 F 
ATOM     21  F   UNL A   1      30.046  27.850  22.060  1.00  0.00    -0.167 F 
ATOM     22  F   UNL A   1      30.108  28.305  24.183  1.00  0.00    -0.167 F 
ENDBRANCH  10  19
BRANCH  15  23
ATOM     23  S   UNL A   1      36.795  22.638  25.354  1.00  0.00     0.310 S 
ATOM     24  F   UNL A   1      37.529  23.907  24.750  1.00  0.00    -0.094 F 
ATOM     25  F   UNL A   1      37.075  21.910  23.985  1.00  0.00    -0.094 F 
ATOM     26  F   UNL A   1      38.174  22.182  25.910  1.00  0.00    -0.094 F 
ATOM     27  F   UNL A   1      36.556  23.488  26.664  1.00  0.00    -0.094 F 
ATOM     28  F   UNL A   1      35.442  23.201  24.760  1.00  0.00    -0.094 F 
ENDBRANCH  15  23
ENDBRANCH   6   8
ENDBRANCH   5   6
ENDBRANCH   4   5
ENDBRANCH   3   4
ENDBRANCH   2   3
ENDBRANCH   1   2
BRANCH   1  29
ATOM     29  C   UNL A   1      33.289  28.835  26.997  1.00  0.00     0.261 C 
BRANCH  29  30
ATOM     30  O   UNL A   1      33.953  30.081  26.839  1.00  0.00    -0.460 OA
BRANCH  30  31
ATOM     31  C   UNL A   1      34.719  30.617  27.907  1.00  0.00     0.338 C 
ATOM     32  O   UNL A   1      34.289  31.622  28.556  1.00  0.00    -0.246 OA
BRANCH  31  33
ATOM     33  C   UNL A   1      36.056  29.992  28.273  1.00  0.00     0.060 A 
ATOM     34  C   UNL A   1      36.326  29.593  29.571  1.00  0.00     0.016 A 
ATOM     35  C   UNL A   1      37.001  29.993  27.340  1.00  0.00     0.016 A 
ATOM     36  C   UNL A   1      37.707  29.486  29.861  1.00  0.00     0.010 A 
ATOM     37  C   UNL A   1      38.312  29.746  27.673  1.00  0.00     0.010 A 
ATOM     38  C   UNL A   1      38.659  29.405  28.951  1.00  0.00    -0.014 A 
BRANCH  38  39
ATOM     39  C   UNL A   1      40.068  28.954  29.303  1.00  0.00     0.031 A 
ATOM     40  C   UNL A   1      40.381  27.656  28.895  1.00  0.00     0.074 A 
ATOM     41  C   UNL A   1      40.988  29.841  29.835  1.00  0.00     0.049 A 
ATOM     42  N   UNL A   1      41.576  27.065  28.908  1.00  0.00    -0.248 NA
ATOM     43  C   UNL A   1      39.398  26.701  28.362  1.00  0.00     0.031 C 
ATOM     44  C   UNL A   1      40.683  31.154  30.241  1.00  0.00     0.029 A 
ATOM     45  N   UNL A   1      42.330  29.629  30.065  1.00  0.00    -0.354 N 
ATOM     46  C   UNL A   1      41.484  25.825  28.422  1.00  0.00     0.074 A 
ATOM     47  C   UNL A   1      40.080  25.571  28.070  1.00  0.00     0.031 C 
ATOM     48  C   UNL A   1      41.820  31.723  30.720  1.00  0.00     0.029 A 
ATOM     49  C   UNL A   1      42.856  30.775  30.621  1.00  0.00     0.049 A 
ATOM     50  H   UNL A   1      42.826  28.803  29.869  1.00  0.00     0.167 HD
ATOM     51  C   UNL A   1      42.514  24.898  28.258  1.00  0.00     0.031 A 
ATOM     52  C   UNL A   1      44.162  30.998  31.028  1.00  0.00     0.031 A 
ATOM     53  C   UNL A   1      43.828  25.137  28.624  1.00  0.00     0.049 A 
ATOM     54  C   UNL A   1      45.181  30.049  30.918  1.00  0.00     0.074 A 
ATOM     55  C   UNL A   1      44.880  24.215  28.459  1.00  0.00     0.029 A 
ATOM     56  N   UNL A   1      44.350  26.273  29.203  1.00  0.00    -0.354 N 
ATOM     57  N   UNL A   1      45.095  28.825  30.395  1.00  0.00    -0.248 NA
ATOM     58  C   UNL A   1      46.561  30.263  31.374  1.00  0.00     0.031 C 
ATOM     59  C   UNL A   1      46.018  24.784  28.938  1.00  0.00     0.029 A 
ATOM     60  C   UNL A   1      45.695  26.070  29.413  1.00  0.00     0.049 A 
ATOM     61  H   UNL A   1      43.847  27.090  29.427  1.00  0.00     0.167 HD
ATOM     62  C   UNL A   1      46.284  28.219  30.448  1.00  0.00     0.074 A 
ATOM     63  C   UNL A   1      47.241  29.133  31.084  1.00  0.00     0.031 C 
ATOM     64  C   UNL A   1      46.608  26.942  29.986  1.00  0.00     0.031 A 
BRANCH  51  65
ATOM     65  C   UNL A   1      42.174  23.549  27.643  1.00  0.00    -0.014 A 
ATOM     66  C   UNL A   1      42.331  23.326  26.285  1.00  0.00     0.009 A 
ATOM     67  C   UNL A   1      41.706  22.602  28.447  1.00  0.00     0.009 A 
ATOM     68  C   UNL A   1      41.690  22.155  25.818  1.00  0.00     0.001 A 
ATOM     69  C   UNL A   1      41.220  21.424  27.932  1.00  0.00     0.001 A 
ATOM     70  C   UNL A   1      41.290  21.162  26.592  1.00  0.00     0.000 A 
ENDBRANCH  51  65
BRANCH  52  71
ATOM     71  C   UNL A   1      44.504  32.352  31.628  1.00  0.00    -0.014 A 
ATOM     72  C   UNL A   1      44.368  32.513  32.997  1.00  0.00     0.009 A 
ATOM     73  C   UNL A   1      44.929  33.346  30.857  1.00  0.00     0.009 A 
ATOM     74  C   UNL A   1      44.430  33.859  33.426  1.00  0.00     0.001 A 
ATOM     75  C   UNL A   1      45.098  34.608  31.373  1.00  0.00     0.001 A 
ATOM     76  C   UNL A   1      44.923  34.852  32.707  1.00  0.00     0.000 A 
ENDBRANCH  52  71
BRANCH  64  77
ATOM     77  C   UNL A   1      48.050  26.480  30.119  1.00  0.00    -0.014 A 
ATOM     78  C   UNL A   1      48.929  26.520  29.049  1.00  0.00     0.009 A 
ATOM     79  C   UNL A   1      48.394  25.916  31.270  1.00  0.00     0.009 A 
ATOM     80  C   UNL A   1      50.053  25.675  29.197  1.00  0.00     0.001 A 
ATOM     81  C   UNL A   1      49.572  25.220  31.385  1.00  0.00     0.001 A 
ATOM     82  C   UNL A   1      50.461  25.168  30.348  1.00  0.00     0.000 A 
ENDBRANCH  64  77
ENDBRANCH  38  39
ENDBRANCH  31  33
ENDBRANCH  30  31
ENDBRANCH  29  30
ENDBRANCH   1  29
TORSDOF 16
ENDMDL
