MODEL 1
REMARK VINA RESULT:     -11.4      0.000      0.000
REMARK SMILES O=C(COc1ccc(N2C[C@@H](C(=O)OCCOCCOC(=O)c3ccc(-c4c5nc(c(-c6ccccc6)c6ccc([nH]6)c(-c6ccccc6)c6nc(c(-c7ccccc7)c7ccc4[nH]7)C=C6)C=C5)cc3)CC2=O)cc1)Nc1ccc(Cl)cc1Cl
REMARK SMILES IDX 15 1 14 2 12 3 13 4 11 5 9 6 10 7 72 8 71 9 73 10 8 11 5 12
REMARK SMILES IDX 6 13 75 14 7 15 74 16 4 17 3 18 2 19 1 20 76 21 77 23 78 24
REMARK SMILES IDX 83 25 79 26 82 27 84 28 80 29 81 30 16 31 17 32 18 33 19 34
REMARK SMILES IDX 20 35 21 36 22 37 23 38 24 39 70 40 25 41 69 42 26 43 27 44
REMARK SMILES IDX 28 45 63 46 29 47 68 48 62 49 64 50 30 51 67 52 61 53 60 54
REMARK SMILES IDX 31 56 53 57 38 58 52 59 39 60 42 61 51 62 65 63 40 64 41 65
REMARK SMILES IDX 50 67 66 68 43 69 32 70 33 71 37 72 34 73 36 74 35 75 54 76
REMARK SMILES IDX 55 77 59 78 56 79 58 80 57 81 44 82 45 83 49 84 46 85 48 86
REMARK SMILES IDX 47 87
REMARK H PARENT 76 22 64 55 42 66
REMARK Flexibility Score: inf
ROOT
ATOM      1  C   UNL A   1      33.056  35.762  31.803  1.00  0.00     0.261 C 
ENDROOT
BRANCH   1   2
ATOM      2  O   UNL A   1      33.783  35.222  30.690  1.00  0.00    -0.463 OA
BRANCH   2   3
ATOM      3  C   UNL A   1      33.205  35.362  29.471  1.00  0.00     0.311 C 
ATOM      4  O   UNL A   1      32.243  36.078  29.223  1.00  0.00    -0.252 OA
BRANCH   3   5
ATOM      5  C   UNL A   1      33.879  34.533  28.410  1.00  0.00     0.128 C 
ATOM      6  N   UNL A   1      33.739  32.333  27.625  1.00  0.00    -0.312 N 
ATOM      7  C   UNL A   1      32.911  33.454  27.980  1.00  0.00     0.141 C 
ATOM      8  C   UNL A   1      35.051  32.481  28.073  1.00  0.00     0.227 C 
ATOM      9  C   UNL A   1      35.152  33.790  28.801  1.00  0.00     0.117 C 
ATOM     10  O   UNL A   1      35.996  31.716  27.945  1.00  0.00    -0.274 OA
BRANCH   6  11
ATOM     11  C   UNL A   1      33.182  31.141  27.117  1.00  0.00     0.044 A 
ATOM     12  C   UNL A   1      32.028  28.740  26.233  1.00  0.00     0.120 A 
ATOM     13  C   UNL A   1      31.481  29.956  25.840  1.00  0.00     0.048 A 
ATOM     14  C   UNL A   1      33.162  28.724  27.036  1.00  0.00     0.048 A 
ATOM     15  C   UNL A   1      32.040  31.153  26.305  1.00  0.00     0.030 A 
ATOM     16  C   UNL A   1      33.742  29.913  27.465  1.00  0.00     0.030 A 
BRANCH  12  17
ATOM     17  O   UNL A   1      31.493  27.585  25.725  1.00  0.00    -0.484 OA
BRANCH  17  18
ATOM     18  C   UNL A   1      31.690  26.462  26.592  1.00  0.00     0.329 C 
BRANCH  18  19
ATOM     19  C   UNL A   1      32.230  25.212  25.890  1.00  0.00     0.262 C 
ATOM     20  O   UNL A   1      31.480  24.446  25.295  1.00  0.00    -0.271 OA
ATOM     21  N   UNL A   1      33.592  25.029  26.119  1.00  0.00    -0.322 N 
ATOM     22  H   UNL A   1      34.099  25.780  26.499  1.00  0.00     0.170 HD
BRANCH  21  23
ATOM     23  C   UNL A   1      34.291  23.832  25.839  1.00  0.00     0.060 A 
ATOM     24  C   UNL A   1      35.024  23.829  24.639  1.00  0.00     0.029 A 
ATOM     25  C   UNL A   1      34.346  22.699  26.667  1.00  0.00     0.066 A 
ATOM     26  C   UNL A   1      35.872  22.765  24.323  1.00  0.00     0.023 A 
ATOM     27  C   UNL A   1      35.193  21.631  26.345  1.00  0.00     0.043 A 
ATOM     28  Cl  UNL A   1      33.267  22.450  27.997  1.00  0.00    -0.082 Cl
ATOM     29  C   UNL A   1      35.965  21.679  25.187  1.00  0.00     0.042 A 
ATOM     30  Cl  UNL A   1      37.019  20.375  24.805  1.00  0.00    -0.084 Cl
ENDBRANCH  21  23
ENDBRANCH  18  19
ENDBRANCH  17  18
ENDBRANCH  12  17
ENDBRANCH   6  11
ENDBRANCH   3   5
ENDBRANCH   2   3
ENDBRANCH   1   2
BRANCH   1  31
ATOM     31  C   UNL A   1      33.978  36.603  32.688  1.00  0.00     0.202 C 
BRANCH  31  32
ATOM     32  O   UNL A   1      35.190  35.978  33.108  1.00  0.00    -0.374 OA
BRANCH  32  33
ATOM     33  C   UNL A   1      35.100  34.910  34.052  1.00  0.00     0.202 C 
BRANCH  33  34
ATOM     34  C   UNL A   1      36.353  34.049  34.257  1.00  0.00     0.261 C 
BRANCH  34  35
ATOM     35  O   UNL A   1      36.065  32.640  34.200  1.00  0.00    -0.460 OA
BRANCH  35  36
ATOM     36  C   UNL A   1      35.883  32.152  32.951  1.00  0.00     0.338 C 
ATOM     37  O   UNL A   1      34.834  32.094  32.323  1.00  0.00    -0.246 OA
BRANCH  36  38
ATOM     38  C   UNL A   1      37.180  31.836  32.328  1.00  0.00     0.060 A 
ATOM     39  C   UNL A   1      37.419  32.343  31.044  1.00  0.00     0.016 A 
ATOM     40  C   UNL A   1      38.102  30.983  32.939  1.00  0.00     0.016 A 
ATOM     41  C   UNL A   1      38.559  31.960  30.343  1.00  0.00     0.010 A 
ATOM     42  C   UNL A   1      39.243  30.591  32.228  1.00  0.00     0.010 A 
ATOM     43  C   UNL A   1      39.458  31.051  30.915  1.00  0.00    -0.014 A 
BRANCH  43  44
ATOM     44  C   UNL A   1      40.546  30.481  30.085  1.00  0.00     0.031 A 
ATOM     45  C   UNL A   1      41.777  31.305  29.820  1.00  0.00     0.074 A 
ATOM     46  C   UNL A   1      40.453  29.233  29.595  1.00  0.00     0.049 A 
ATOM     47  N   UNL A   1      42.835  31.007  29.112  1.00  0.00    -0.248 NA
ATOM     48  C   UNL A   1      41.819  32.641  30.437  1.00  0.00     0.031 C 
ATOM     49  C   UNL A   1      39.332  28.319  29.811  1.00  0.00     0.029 A 
ATOM     50  N   UNL A   1      41.320  28.522  28.803  1.00  0.00    -0.354 N 
ATOM     51  C   UNL A   1      43.665  32.119  29.189  1.00  0.00     0.074 A 
ATOM     52  C   UNL A   1      42.979  33.105  29.995  1.00  0.00     0.031 C 
ATOM     53  C   UNL A   1      39.575  27.170  29.158  1.00  0.00     0.029 A 
ATOM     54  C   UNL A   1      40.852  27.280  28.455  1.00  0.00     0.049 A 
ATOM     55  H   UNL A   1      42.195  28.869  28.515  1.00  0.00     0.167 HD
ATOM     56  C   UNL A   1      44.889  32.302  28.639  1.00  0.00     0.031 A 
ATOM     57  C   UNL A   1      41.382  26.346  27.641  1.00  0.00     0.031 A 
ATOM     58  C   UNL A   1      45.570  31.327  27.831  1.00  0.00     0.049 A 
ATOM     59  C   UNL A   1      42.711  26.604  26.984  1.00  0.00     0.074 A 
ATOM     60  C   UNL A   1      46.829  31.411  27.259  1.00  0.00     0.029 A 
ATOM     61  N   UNL A   1      45.046  30.097  27.471  1.00  0.00    -0.354 N 
ATOM     62  N   UNL A   1      43.504  27.641  27.101  1.00  0.00    -0.248 NA
ATOM     63  C   UNL A   1      43.219  25.557  26.085  1.00  0.00     0.031 C 
ATOM     64  C   UNL A   1      47.043  30.251  26.506  1.00  0.00     0.029 A 
ATOM     65  C   UNL A   1      45.940  29.425  26.655  1.00  0.00     0.049 A 
ATOM     66  H   UNL A   1      44.169  29.751  27.753  1.00  0.00     0.167 HD
ATOM     67  C   UNL A   1      44.612  27.362  26.311  1.00  0.00     0.074 A 
ATOM     68  C   UNL A   1      44.397  26.053  25.732  1.00  0.00     0.031 C 
ATOM     69  C   UNL A   1      45.711  28.123  26.085  1.00  0.00     0.031 A 
BRANCH  56  70
ATOM     70  C   UNL A   1      45.558  33.627  28.865  1.00  0.00    -0.014 A 
ATOM     71  C   UNL A   1      46.401  33.843  29.967  1.00  0.00     0.009 A 
ATOM     72  C   UNL A   1      45.375  34.664  27.936  1.00  0.00     0.009 A 
ATOM     73  C   UNL A   1      47.024  35.079  30.147  1.00  0.00     0.001 A 
ATOM     74  C   UNL A   1      46.017  35.891  28.107  1.00  0.00     0.001 A 
ATOM     75  C   UNL A   1      46.835  36.101  29.216  1.00  0.00     0.000 A 
ENDBRANCH  56  70
BRANCH  57  76
ATOM     76  C   UNL A   1      40.641  25.087  27.371  1.00  0.00    -0.014 A 
ATOM     77  C   UNL A   1      41.072  23.869  27.915  1.00  0.00     0.009 A 
ATOM     78  C   UNL A   1      39.507  25.098  26.543  1.00  0.00     0.009 A 
ATOM     79  C   UNL A   1      40.398  22.683  27.616  1.00  0.00     0.001 A 
ATOM     80  C   UNL A   1      38.819  23.915  26.266  1.00  0.00     0.001 A 
ATOM     81  C   UNL A   1      39.271  22.706  26.795  1.00  0.00     0.000 A 
ENDBRANCH  57  76
BRANCH  69  82
ATOM     82  C   UNL A   1      46.777  27.547  25.197  1.00  0.00    -0.014 A 
ATOM     83  C   UNL A   1      46.923  27.971  23.867  1.00  0.00     0.009 A 
ATOM     84  C   UNL A   1      47.676  26.600  25.713  1.00  0.00     0.009 A 
ATOM     85  C   UNL A   1      47.932  27.436  23.064  1.00  0.00     0.001 A 
ATOM     86  C   UNL A   1      48.700  26.087  24.916  1.00  0.00     0.001 A 
ATOM     87  C   UNL A   1      48.821  26.499  23.589  1.00  0.00     0.000 A 
ENDBRANCH  69  82
ENDBRANCH  43  44
ENDBRANCH  36  38
ENDBRANCH  35  36
ENDBRANCH  34  35
ENDBRANCH  33  34
ENDBRANCH  32  33
ENDBRANCH  31  32
ENDBRANCH   1  31
TORSDOF 19
ENDMDL
MODEL 2
REMARK VINA RESULT:     -10.5      1.344      5.787
REMARK SMILES O=C(COc1ccc(N2C[C@@H](C(=O)OCCOCCOC(=O)c3ccc(-c4c5nc(c(-c6ccccc6)c6ccc([nH]6)c(-c6ccccc6)c6nc(c(-c7ccccc7)c7ccc4[nH]7)C=C6)C=C5)cc3)CC2=O)cc1)Nc1ccc(Cl)cc1Cl
REMARK SMILES IDX 15 1 14 2 12 3 13 4 11 5 9 6 10 7 72 8 71 9 73 10 8 11 5 12
REMARK SMILES IDX 6 13 75 14 7 15 74 16 4 17 3 18 2 19 1 20 76 21 77 23 78 24
REMARK SMILES IDX 83 25 79 26 82 27 84 28 80 29 81 30 16 31 17 32 18 33 19 34
REMARK SMILES IDX 20 35 21 36 22 37 23 38 24 39 70 40 25 41 69 42 26 43 27 44
REMARK SMILES IDX 28 45 63 46 29 47 68 48 62 49 64 50 30 51 67 52 61 53 60 54
REMARK SMILES IDX 31 56 53 57 38 58 52 59 39 60 42 61 51 62 65 63 40 64 41 65
REMARK SMILES IDX 50 67 66 68 43 69 32 70 33 71 37 72 34 73 36 74 35 75 54 76
REMARK SMILES IDX 55 77 59 78 56 79 58 80 57 81 44 82 45 83 49 84 46 85 48 86
REMARK SMILES IDX 47 87
REMARK H PARENT 76 22 64 55 42 66
REMARK Flexibility Score: inf
ROOT
ATOM      1  C   UNL A   1      32.886  35.771  31.489  1.00  0.00     0.261 C 
ENDROOT
BRANCH   1   2
ATOM      2  O   UNL A   1      33.688  36.256  30.402  1.00  0.00    -0.463 OA
BRANCH   2   3
ATOM      3  C   UNL A   1      33.204  36.035  29.155  1.00  0.00     0.311 C 
ATOM      4  O   UNL A   1      32.141  36.462  28.722  1.00  0.00    -0.252 OA
BRANCH   3   5
ATOM      5  C   UNL A   1      34.127  35.191  28.316  1.00  0.00     0.128 C 
ATOM      6  N   UNL A   1      34.494  32.906  27.963  1.00  0.00    -0.312 N 
ATOM      7  C   UNL A   1      33.434  33.875  28.046  1.00  0.00     0.141 C 
ATOM      8  C   UNL A   1      35.702  33.402  28.452  1.00  0.00     0.227 C 
ATOM      9  C   UNL A   1      35.475  34.811  28.918  1.00  0.00     0.117 C 
ATOM     10  O   UNL A   1      36.785  32.842  28.530  1.00  0.00    -0.274 OA
BRANCH   6  11
ATOM     11  C   UNL A   1      34.232  31.554  27.662  1.00  0.00     0.044 A 
ATOM     12  C   UNL A   1      33.724  28.832  27.199  1.00  0.00     0.120 A 
ATOM     13  C   UNL A   1      32.697  29.761  27.064  1.00  0.00     0.048 A 
ATOM     14  C   UNL A   1      35.002  29.266  27.531  1.00  0.00     0.048 A 
ATOM     15  C   UNL A   1      32.945  31.115  27.324  1.00  0.00     0.030 A 
ATOM     16  C   UNL A   1      35.258  30.615  27.750  1.00  0.00     0.030 A 
BRANCH  12  17
ATOM     17  O   UNL A   1      33.468  27.522  26.890  1.00  0.00    -0.484 OA
BRANCH  17  18
ATOM     18  C   UNL A   1      32.587  27.385  25.769  1.00  0.00     0.329 C 
BRANCH  18  19
ATOM     19  C   UNL A   1      32.873  26.163  24.890  1.00  0.00     0.262 C 
ATOM     20  O   UNL A   1      33.128  26.287  23.698  1.00  0.00    -0.271 OA
ATOM     21  N   UNL A   1      32.691  24.966  25.579  1.00  0.00    -0.322 N 
ATOM     22  H   UNL A   1      32.615  25.007  26.559  1.00  0.00     0.170 HD
BRANCH  21  23
ATOM     23  C   UNL A   1      32.607  23.697  24.962  1.00  0.00     0.060 A 
ATOM     24  C   UNL A   1      31.553  23.543  24.043  1.00  0.00     0.029 A 
ATOM     25  C   UNL A   1      33.497  22.628  25.155  1.00  0.00     0.066 A 
ATOM     26  C   UNL A   1      31.451  22.390  23.261  1.00  0.00     0.023 A 
ATOM     27  C   UNL A   1      33.389  21.471  24.372  1.00  0.00     0.043 A 
ATOM     28  Cl  UNL A   1      34.633  22.571  26.459  1.00  0.00    -0.082 Cl
ATOM     29  C   UNL A   1      32.380  21.367  23.418  1.00  0.00     0.042 A 
ATOM     30  Cl  UNL A   1      32.263  19.954  22.445  1.00  0.00    -0.084 Cl
ENDBRANCH  21  23
ENDBRANCH  18  19
ENDBRANCH  17  18
ENDBRANCH  12  17
ENDBRANCH   6  11
ENDBRANCH   3   5
ENDBRANCH   2   3
ENDBRANCH   1   2
BRANCH   1  31
ATOM     31  C   UNL A   1      33.330  36.406  32.808  1.00  0.00     0.202 C 
BRANCH  31  32
ATOM     32  O   UNL A   1      34.350  35.714  33.529  1.00  0.00    -0.374 OA
BRANCH  32  33
ATOM     33  C   UNL A   1      34.713  34.407  33.083  1.00  0.00     0.202 C 
BRANCH  33  34
ATOM     34  C   UNL A   1      36.028  33.825  33.618  1.00  0.00     0.261 C 
BRANCH  34  35
ATOM     35  O   UNL A   1      36.035  32.386  33.606  1.00  0.00    -0.460 OA
BRANCH  35  36
ATOM     36  C   UNL A   1      37.159  31.823  34.110  1.00  0.00     0.338 C 
ATOM     37  O   UNL A   1      37.458  31.696  35.290  1.00  0.00    -0.246 OA
BRANCH  36  38
ATOM     38  C   UNL A   1      37.946  31.196  33.036  1.00  0.00     0.060 A 
ATOM     39  C   UNL A   1      38.973  30.321  33.416  1.00  0.00     0.016 A 
ATOM     40  C   UNL A   1      37.756  31.528  31.693  1.00  0.00     0.016 A 
ATOM     41  C   UNL A   1      39.846  29.812  32.459  1.00  0.00     0.010 A 
ATOM     42  C   UNL A   1      38.642  31.023  30.733  1.00  0.00     0.010 A 
ATOM     43  C   UNL A   1      39.710  30.192  31.118  1.00  0.00    -0.014 A 
BRANCH  43  44
ATOM     44  C   UNL A   1      40.768  29.825  30.146  1.00  0.00     0.031 A 
ATOM     45  C   UNL A   1      40.662  28.522  29.400  1.00  0.00     0.074 A 
ATOM     46  C   UNL A   1      41.799  30.655  29.908  1.00  0.00     0.049 A 
ATOM     47  N   UNL A   1      41.479  28.003  28.521  1.00  0.00    -0.248 NA
ATOM     48  C   UNL A   1      39.475  27.698  29.684  1.00  0.00     0.031 C 
ATOM     49  C   UNL A   1      41.997  31.960  30.535  1.00  0.00     0.029 A 
ATOM     50  N   UNL A   1      42.880  30.513  29.074  1.00  0.00    -0.354 N 
ATOM     51  C   UNL A   1      40.914  26.788  28.152  1.00  0.00     0.074 A 
ATOM     52  C   UNL A   1      39.695  26.638  28.918  1.00  0.00     0.031 C 
ATOM     53  C   UNL A   1      43.139  32.497  30.071  1.00  0.00     0.029 A 
ATOM     54  C   UNL A   1      43.764  31.560  29.140  1.00  0.00     0.049 A 
ATOM     55  H   UNL A   1      43.008  29.735  28.485  1.00  0.00     0.167 HD
ATOM     56  C   UNL A   1      41.367  25.880  27.256  1.00  0.00     0.031 A 
ATOM     57  C   UNL A   1      44.956  31.733  28.535  1.00  0.00     0.031 A 
ATOM     58  C   UNL A   1      42.582  26.022  26.500  1.00  0.00     0.049 A 
ATOM     59  C   UNL A   1      45.473  30.674  27.599  1.00  0.00     0.074 A 
ATOM     60  C   UNL A   1      43.105  25.169  25.543  1.00  0.00     0.029 A 
ATOM     61  N   UNL A   1      43.468  27.080  26.623  1.00  0.00    -0.354 N 
ATOM     62  N   UNL A   1      44.906  29.552  27.226  1.00  0.00    -0.248 NA
ATOM     63  C   UNL A   1      46.792  30.911  26.995  1.00  0.00     0.031 C 
ATOM     64  C   UNL A   1      44.337  25.684  25.127  1.00  0.00     0.029 A 
ATOM     65  C   UNL A   1      44.553  26.885  25.785  1.00  0.00     0.049 A 
ATOM     66  H   UNL A   1      43.345  27.854  27.217  1.00  0.00     0.167 HD
ATOM     67  C   UNL A   1      45.789  28.961  26.330  1.00  0.00     0.074 A 
ATOM     68  C   UNL A   1      46.920  29.856  26.203  1.00  0.00     0.031 C 
ATOM     69  C   UNL A   1      45.672  27.782  25.671  1.00  0.00     0.031 A 
BRANCH  56  70
ATOM     70  C   UNL A   1      40.560  24.628  27.071  1.00  0.00    -0.014 A 
ATOM     71  C   UNL A   1      39.315  24.650  26.421  1.00  0.00     0.009 A 
ATOM     72  C   UNL A   1      41.072  23.399  27.518  1.00  0.00     0.009 A 
ATOM     73  C   UNL A   1      38.590  23.469  26.247  1.00  0.00     0.001 A 
ATOM     74  C   UNL A   1      40.355  22.218  27.322  1.00  0.00     0.001 A 
ATOM     75  C   UNL A   1      39.111  22.255  26.694  1.00  0.00     0.000 A 
ENDBRANCH  56  70
BRANCH  57  76
ATOM     76  C   UNL A   1      45.766  32.945  28.821  1.00  0.00    -0.014 A 
ATOM     77  C   UNL A   1      46.820  32.902  29.746  1.00  0.00     0.009 A 
ATOM     78  C   UNL A   1      45.471  34.160  28.183  1.00  0.00     0.009 A 
ATOM     79  C   UNL A   1      47.545  34.058  30.044  1.00  0.00     0.001 A 
ATOM     80  C   UNL A   1      46.214  35.308  28.464  1.00  0.00     0.001 A 
ATOM     81  C   UNL A   1      47.245  35.258  29.402  1.00  0.00     0.000 A 
ENDBRANCH  57  76
BRANCH  69  82
ATOM     82  C   UNL A   1      46.782  27.406  24.731  1.00  0.00    -0.014 A 
ATOM     83  C   UNL A   1      46.951  28.063  23.503  1.00  0.00     0.009 A 
ATOM     84  C   UNL A   1      47.699  26.409  25.103  1.00  0.00     0.009 A 
ATOM     85  C   UNL A   1      48.000  27.710  22.653  1.00  0.00     0.001 A 
ATOM     86  C   UNL A   1      48.762  26.077  24.263  1.00  0.00     0.001 A 
ATOM     87  C   UNL A   1      48.907  26.722  23.035  1.00  0.00     0.000 A 
ENDBRANCH  69  82
ENDBRANCH  43  44
ENDBRANCH  36  38
ENDBRANCH  35  36
ENDBRANCH  34  35
ENDBRANCH  33  34
ENDBRANCH  32  33
ENDBRANCH  31  32
ENDBRANCH   1  31
TORSDOF 19
ENDMDL
MODEL 3
REMARK VINA RESULT:     -10.3      4.893      7.803
REMARK SMILES O=C(COc1ccc(N2C[C@@H](C(=O)OCCOCCOC(=O)c3ccc(-c4c5nc(c(-c6ccccc6)c6ccc([nH]6)c(-c6ccccc6)c6nc(c(-c7ccccc7)c7ccc4[nH]7)C=C6)C=C5)cc3)CC2=O)cc1)Nc1ccc(Cl)cc1Cl
REMARK SMILES IDX 15 1 14 2 12 3 13 4 11 5 9 6 10 7 72 8 71 9 73 10 8 11 5 12
REMARK SMILES IDX 6 13 75 14 7 15 74 16 4 17 3 18 2 19 1 20 76 21 77 23 78 24
REMARK SMILES IDX 83 25 79 26 82 27 84 28 80 29 81 30 16 31 17 32 18 33 19 34
REMARK SMILES IDX 20 35 21 36 22 37 23 38 24 39 70 40 25 41 69 42 26 43 27 44
REMARK SMILES IDX 28 45 63 46 29 47 68 48 62 49 64 50 30 51 67 52 61 53 60 54
REMARK SMILES IDX 31 56 53 57 38 58 52 59 39 60 42 61 51 62 65 63 40 64 41 65
REMARK SMILES IDX 50 67 66 68 43 69 32 70 33 71 37 72 34 73 36 74 35 75 54 76
REMARK SMILES IDX 55 77 59 78 56 79 58 80 57 81 44 82 45 83 49 84 46 85 48 86
REMARK SMILES IDX 47 87
REMARK H PARENT 76 22 64 55 42 66
REMARK Flexibility Score: inf
ROOT
ATOM      1  C   UNL A   1      35.862  34.902  32.960  1.00  0.00     0.261 C 
ENDROOT
BRANCH   1   2
ATOM      2  O   UNL A   1      36.848  34.590  33.955  1.00  0.00    -0.463 OA
BRANCH   2   3
ATOM      3  C   UNL A   1      37.931  33.895  33.528  1.00  0.00     0.311 C 
ATOM      4  O   UNL A   1      38.766  34.304  32.732  1.00  0.00    -0.252 OA
BRANCH   3   5
ATOM      5  C   UNL A   1      38.022  32.526  34.149  1.00  0.00     0.128 C 
ATOM      6  N   UNL A   1      39.337  30.611  33.860  1.00  0.00    -0.312 N 
ATOM      7  C   UNL A   1      39.445  32.039  33.990  1.00  0.00     0.141 C 
ATOM      8  C   UNL A   1      38.028  30.201  33.610  1.00  0.00     0.227 C 
ATOM      9  C   UNL A   1      37.158  31.422  33.551  1.00  0.00     0.117 C 
ATOM     10  O   UNL A   1      37.598  29.069  33.444  1.00  0.00    -0.274 OA
BRANCH   6  11
ATOM     11  C   UNL A   1      40.481  29.795  33.747  1.00  0.00     0.044 A 
ATOM     12  C   UNL A   1      42.768  28.207  33.387  1.00  0.00     0.120 A 
ATOM     13  C   UNL A   1      42.843  29.364  34.156  1.00  0.00     0.048 A 
ATOM     14  C   UNL A   1      41.552  27.831  32.828  1.00  0.00     0.048 A 
ATOM     15  C   UNL A   1      41.708  30.171  34.311  1.00  0.00     0.030 A 
ATOM     16  C   UNL A   1      40.416  28.611  33.016  1.00  0.00     0.030 A 
BRANCH  12  17
ATOM     17  O   UNL A   1      43.878  27.410  33.292  1.00  0.00    -0.484 OA
BRANCH  17  18
ATOM     18  C   UNL A   1      43.740  26.188  34.027  1.00  0.00     0.329 C 
BRANCH  18  19
ATOM     19  C   UNL A   1      44.754  25.105  33.644  1.00  0.00     0.262 C 
ATOM     20  O   UNL A   1      44.613  24.439  32.625  1.00  0.00    -0.271 OA
ATOM     21  N   UNL A   1      45.726  24.926  34.625  1.00  0.00    -0.322 N 
ATOM     22  H   UNL A   1      45.803  25.611  35.327  1.00  0.00     0.170 HD
BRANCH  21  23
ATOM     23  C   UNL A   1      46.609  23.823  34.678  1.00  0.00     0.060 A 
ATOM     24  C   UNL A   1      45.999  22.558  34.602  1.00  0.00     0.029 A 
ATOM     25  C   UNL A   1      48.010  23.894  34.750  1.00  0.00     0.066 A 
ATOM     26  C   UNL A   1      46.771  21.399  34.496  1.00  0.00     0.023 A 
ATOM     27  C   UNL A   1      48.781  22.729  34.648  1.00  0.00     0.043 A 
ATOM     28  Cl  UNL A   1      48.861  25.346  35.153  1.00  0.00    -0.082 Cl
ATOM     29  C   UNL A   1      48.158  21.492  34.502  1.00  0.00     0.042 A 
ATOM     30  Cl  UNL A   1      49.108  20.066  34.358  1.00  0.00    -0.084 Cl
ENDBRANCH  21  23
ENDBRANCH  18  19
ENDBRANCH  17  18
ENDBRANCH  12  17
ENDBRANCH   6  11
ENDBRANCH   3   5
ENDBRANCH   2   3
ENDBRANCH   1   2
BRANCH   1  31
ATOM     31  C   UNL A   1      34.624  34.019  33.137  1.00  0.00     0.202 C 
BRANCH  31  32
ATOM     32  O   UNL A   1      33.954  33.626  31.940  1.00  0.00    -0.374 OA
BRANCH  32  33
ATOM     33  C   UNL A   1      34.224  34.366  30.749  1.00  0.00     0.202 C 
BRANCH  33  34
ATOM     34  C   UNL A   1      34.673  33.570  29.517  1.00  0.00     0.261 C 
BRANCH  34  35
ATOM     35  O   UNL A   1      34.603  32.148  29.728  1.00  0.00    -0.460 OA
BRANCH  35  36
ATOM     36  C   UNL A   1      34.716  31.404  28.602  1.00  0.00     0.338 C 
ATOM     37  O   UNL A   1      34.000  31.448  27.610  1.00  0.00    -0.246 OA
BRANCH  36  38
ATOM     38  C   UNL A   1      35.959  30.615  28.629  1.00  0.00     0.060 A 
ATOM     39  C   UNL A   1      36.291  29.978  29.832  1.00  0.00     0.016 A 
ATOM     40  C   UNL A   1      36.833  30.579  27.541  1.00  0.00     0.016 A 
ATOM     41  C   UNL A   1      37.522  29.342  29.968  1.00  0.00     0.010 A 
ATOM     42  C   UNL A   1      38.074  29.948  27.683  1.00  0.00     0.010 A 
ATOM     43  C   UNL A   1      38.436  29.357  28.908  1.00  0.00    -0.014 A 
BRANCH  43  44
ATOM     44  C   UNL A   1      39.820  28.873  29.132  1.00  0.00     0.031 A 
ATOM     45  C   UNL A   1      40.827  29.795  29.766  1.00  0.00     0.074 A 
ATOM     46  C   UNL A   1      40.170  27.617  28.803  1.00  0.00     0.049 A 
ATOM     47  N   UNL A   1      42.088  29.580  30.038  1.00  0.00    -0.248 NA
ATOM     48  C   UNL A   1      40.346  31.134  30.142  1.00  0.00     0.031 C 
ATOM     49  C   UNL A   1      39.279  26.616  28.220  1.00  0.00     0.029 A 
ATOM     50  N   UNL A   1      41.378  26.975  28.908  1.00  0.00    -0.354 N 
ATOM     51  C   UNL A   1      42.556  30.758  30.608  1.00  0.00     0.074 A 
ATOM     52  C   UNL A   1      41.449  31.690  30.624  1.00  0.00     0.031 C 
ATOM     53  C   UNL A   1      39.975  25.486  28.008  1.00  0.00     0.029 A 
ATOM     54  C   UNL A   1      41.364  25.696  28.411  1.00  0.00     0.049 A 
ATOM     55  H   UNL A   1      42.178  27.392  29.303  1.00  0.00     0.167 HD
ATOM     56  C   UNL A   1      43.795  31.038  31.077  1.00  0.00     0.031 A 
ATOM     57  C   UNL A   1      42.363  24.803  28.277  1.00  0.00     0.031 A 
ATOM     58  C   UNL A   1      44.899  30.117  31.056  1.00  0.00     0.049 A 
ATOM     59  C   UNL A   1      43.749  25.165  28.739  1.00  0.00     0.074 A 
ATOM     60  C   UNL A   1      46.183  30.300  31.541  1.00  0.00     0.029 A 
ATOM     61  N   UNL A   1      44.853  28.844  30.511  1.00  0.00    -0.354 N 
ATOM     62  N   UNL A   1      44.166  26.266  29.317  1.00  0.00    -0.248 NA
ATOM     63  C   UNL A   1      44.800  24.157  28.536  1.00  0.00     0.031 C 
ATOM     64  C   UNL A   1      46.930  29.157  31.238  1.00  0.00     0.029 A 
ATOM     65  C   UNL A   1      46.096  28.243  30.615  1.00  0.00     0.049 A 
ATOM     66  H   UNL A   1      44.056  28.429  30.109  1.00  0.00     0.167 HD
ATOM     67  C   UNL A   1      45.520  26.074  29.565  1.00  0.00     0.074 A 
ATOM     68  C   UNL A   1      45.850  24.747  29.091  1.00  0.00     0.031 C 
ATOM     69  C   UNL A   1      46.410  26.922  30.137  1.00  0.00     0.031 A 
BRANCH  56  70
ATOM     70  C   UNL A   1      44.032  32.416  31.624  1.00  0.00    -0.014 A 
ATOM     71  C   UNL A   1      43.774  32.724  32.970  1.00  0.00     0.009 A 
ATOM     72  C   UNL A   1      44.564  33.412  30.788  1.00  0.00     0.009 A 
ATOM     73  C   UNL A   1      44.018  34.009  33.459  1.00  0.00     0.001 A 
ATOM     74  C   UNL A   1      44.828  34.688  31.286  1.00  0.00     0.001 A 
ATOM     75  C   UNL A   1      44.548  34.988  32.618  1.00  0.00     0.000 A 
ENDBRANCH  56  70
BRANCH  57  76
ATOM     76  C   UNL A   1      42.103  23.485  27.643  1.00  0.00    -0.014 A 
ATOM     77  C   UNL A   1      41.573  22.422  28.389  1.00  0.00     0.009 A 
ATOM     78  C   UNL A   1      42.408  23.279  26.288  1.00  0.00     0.009 A 
ATOM     79  C   UNL A   1      41.378  21.171  27.796  1.00  0.00     0.001 A 
ATOM     80  C   UNL A   1      42.188  22.035  25.692  1.00  0.00     0.001 A 
ATOM     81  C   UNL A   1      41.682  20.980  26.449  1.00  0.00     0.000 A 
ENDBRANCH  57  76
BRANCH  69  82
ATOM     82  C   UNL A   1      47.819  26.430  30.305  1.00  0.00    -0.014 A 
ATOM     83  C   UNL A   1      48.235  25.805  31.491  1.00  0.00     0.009 A 
ATOM     84  C   UNL A   1      48.730  26.554  29.244  1.00  0.00     0.009 A 
ATOM     85  C   UNL A   1      49.544  25.339  31.620  1.00  0.00     0.001 A 
ATOM     86  C   UNL A   1      50.030  26.062  29.366  1.00  0.00     0.001 A 
ATOM     87  C   UNL A   1      50.439  25.463  30.558  1.00  0.00     0.000 A 
ENDBRANCH  69  82
ENDBRANCH  43  44
ENDBRANCH  36  38
ENDBRANCH  35  36
ENDBRANCH  34  35
ENDBRANCH  33  34
ENDBRANCH  32  33
ENDBRANCH  31  32
ENDBRANCH   1  31
TORSDOF 19
ENDMDL
