MODEL 1
REMARK VINA RESULT:      -9.6      0.000      0.000
REMARK SMILES CC(C)N(CC(=O)OCCOCCOC(=O)c1ccc(-c2c3nc(c(-c4ccccc4)c4ccc([nH]4)c(-c4ccccc4)c4nc(c(-c5ccccc5)c5ccc2[nH]5)C=C4)C=C3)cc1)C(=O)NC1C(C)(C)C1(C)C
REMARK SMILES IDX 10 1 9 2 8 3 6 4 7 5 5 6 4 7 2 8 1 9 3 10 65 11 66 12 67 13
REMARK SMILES IDX 68 15 69 16 72 17 70 18 71 19 73 20 74 21 11 22 12 23 13 24
REMARK SMILES IDX 14 25 15 26 16 27 17 28 18 29 64 30 19 31 63 32 20 33 21 34
REMARK SMILES IDX 22 35 57 36 23 37 62 38 56 39 58 40 24 41 61 42 55 43 54 44
REMARK SMILES IDX 25 46 47 47 32 48 46 49 33 50 36 51 45 52 59 53 34 54 35 55
REMARK SMILES IDX 44 57 60 58 37 59 26 60 27 61 31 62 28 63 30 64 29 65 48 66
REMARK SMILES IDX 49 67 53 68 50 69 52 70 51 71 38 72 39 73 43 74 40 75 42 76
REMARK SMILES IDX 41 77
REMARK H PARENT 67 14 58 45 36 56
REMARK Flexibility Score: inf
ROOT
ATOM      1  C   UNL A   1      33.505  29.708  27.201  1.00  0.00     0.202 C 
ENDROOT
BRANCH   1   2
ATOM      2  C   UNL A   1      33.353  28.194  26.929  1.00  0.00     0.261 C 
BRANCH   2   3
ATOM      3  O   UNL A   1      34.112  27.615  25.850  1.00  0.00    -0.462 OA
BRANCH   3   4
ATOM      4  C   UNL A   1      33.538  26.468  25.413  1.00  0.00     0.325 C 
ATOM      5  O   UNL A   1      32.897  25.756  26.162  1.00  0.00    -0.250 OA
BRANCH   4   6
ATOM      6  C   UNL A   1      33.856  26.093  23.980  1.00  0.00     0.244 C 
BRANCH   6   7
ATOM      7  N   UNL A   1      33.123  26.724  22.891  1.00  0.00    -0.311 N 
BRANCH   7   8
ATOM      8  C   UNL A   1      32.235  25.798  22.140  1.00  0.00     0.081 C 
ATOM      9  C   UNL A   1      32.566  25.571  20.656  1.00  0.00     0.031 C 
ATOM     10  C   UNL A   1      32.050  24.458  22.852  1.00  0.00     0.031 C 
ENDBRANCH   7   8
BRANCH   7  11
ATOM     11  C   UNL A   1      33.127  28.047  22.592  1.00  0.00     0.318 C 
ATOM     12  O   UNL A   1      34.200  28.657  22.476  1.00  0.00    -0.249 OA
ATOM     13  N   UNL A   1      32.054  28.823  22.371  1.00  0.00    -0.334 N 
ATOM     14  H   UNL A   1      32.396  29.713  22.127  1.00  0.00     0.165 HD
BRANCH  13  15
ATOM     15  C   UNL A   1      30.625  28.906  22.339  1.00  0.00     0.096 C 
ATOM     16  C   UNL A   1      29.833  28.399  23.536  1.00  0.00    -0.007 C 
ATOM     17  C   UNL A   1      29.465  29.735  22.893  1.00  0.00    -0.007 C 
ATOM     18  C   UNL A   1      28.849  27.269  23.389  1.00  0.00     0.014 C 
ATOM     19  C   UNL A   1      30.560  28.377  24.868  1.00  0.00     0.014 C 
ATOM     20  C   UNL A   1      29.452  30.929  23.807  1.00  0.00     0.014 C 
ATOM     21  C   UNL A   1      28.306  29.854  21.887  1.00  0.00     0.014 C 
ENDBRANCH  13  15
ENDBRANCH   7  11
ENDBRANCH   6   7
ENDBRANCH   4   6
ENDBRANCH   3   4
ENDBRANCH   2   3
ENDBRANCH   1   2
BRANCH   1  22
ATOM     22  O   UNL A   1      32.846  30.632  26.364  1.00  0.00    -0.374 OA
BRANCH  22  23
ATOM     23  C   UNL A   1      31.894  31.589  26.822  1.00  0.00     0.202 C 
BRANCH  23  24
ATOM     24  C   UNL A   1      32.090  33.106  27.029  1.00  0.00     0.261 C 
BRANCH  24  25
ATOM     25  O   UNL A   1      32.313  33.565  28.353  1.00  0.00    -0.460 OA
BRANCH  25  26
ATOM     26  C   UNL A   1      33.370  34.395  28.483  1.00  0.00     0.338 C 
ATOM     27  O   UNL A   1      33.367  35.613  28.595  1.00  0.00    -0.246 OA
BRANCH  26  28
ATOM     28  C   UNL A   1      34.545  33.560  28.739  1.00  0.00     0.060 A 
ATOM     29  C   UNL A   1      34.351  32.370  29.452  1.00  0.00     0.016 A 
ATOM     30  C   UNL A   1      35.808  33.941  28.282  1.00  0.00     0.016 A 
ATOM     31  C   UNL A   1      35.431  31.557  29.735  1.00  0.00     0.010 A 
ATOM     32  C   UNL A   1      36.902  33.147  28.605  1.00  0.00     0.010 A 
ATOM     33  C   UNL A   1      36.711  31.979  29.365  1.00  0.00    -0.014 A 
BRANCH  33  34
ATOM     34  C   UNL A   1      37.853  31.316  30.011  1.00  0.00     0.031 A 
ATOM     35  C   UNL A   1      38.120  31.641  31.450  1.00  0.00     0.074 A 
ATOM     36  C   UNL A   1      38.558  30.388  29.351  1.00  0.00     0.049 A 
ATOM     37  N   UNL A   1      39.036  31.166  32.251  1.00  0.00    -0.248 NA
ATOM     38  C   UNL A   1      37.227  32.634  32.074  1.00  0.00     0.031 C 
ATOM     39  C   UNL A   1      38.313  29.961  27.975  1.00  0.00     0.029 A 
ATOM     40  N   UNL A   1      39.620  29.630  29.763  1.00  0.00    -0.354 N 
ATOM     41  C   UNL A   1      38.836  31.809  33.465  1.00  0.00     0.074 A 
ATOM     42  C   UNL A   1      37.735  32.728  33.291  1.00  0.00     0.031 C 
ATOM     43  C   UNL A   1      39.209  29.014  27.651  1.00  0.00     0.029 A 
ATOM     44  C   UNL A   1      40.105  28.801  28.785  1.00  0.00     0.049 A 
ATOM     45  H   UNL A   1      39.997  29.675  30.670  1.00  0.00     0.167 HD
ATOM     46  C   UNL A   1      39.515  31.643  34.622  1.00  0.00     0.031 A 
ATOM     47  C   UNL A   1      41.172  27.983  28.808  1.00  0.00     0.031 A 
ATOM     48  C   UNL A   1      40.628  30.744  34.759  1.00  0.00     0.049 A 
ATOM     49  C   UNL A   1      41.969  27.880  30.078  1.00  0.00     0.074 A 
ATOM     50  C   UNL A   1      41.399  30.487  35.877  1.00  0.00     0.029 A 
ATOM     51  N   UNL A   1      41.136  29.963  33.729  1.00  0.00    -0.354 N 
ATOM     52  N   UNL A   1      41.772  28.478  31.230  1.00  0.00    -0.248 NA
ATOM     53  C   UNL A   1      43.130  26.982  30.056  1.00  0.00     0.031 C 
ATOM     54  C   UNL A   1      42.419  29.605  35.503  1.00  0.00     0.029 A 
ATOM     55  C   UNL A   1      42.236  29.252  34.173  1.00  0.00     0.049 A 
ATOM     56  H   UNL A   1      40.767  29.923  32.817  1.00  0.00     0.167 HD
ATOM     57  C   UNL A   1      42.768  28.015  32.078  1.00  0.00     0.074 A 
ATOM     58  C   UNL A   1      43.557  27.071  31.309  1.00  0.00     0.031 C 
ATOM     59  C   UNL A   1      43.010  28.333  33.375  1.00  0.00     0.031 A 
BRANCH  46  60
ATOM     60  C   UNL A   1      39.111  32.508  35.785  1.00  0.00    -0.014 A 
ATOM     61  C   UNL A   1      39.676  33.777  35.996  1.00  0.00     0.009 A 
ATOM     62  C   UNL A   1      38.163  32.031  36.702  1.00  0.00     0.009 A 
ATOM     63  C   UNL A   1      39.337  34.524  37.127  1.00  0.00     0.001 A 
ATOM     64  C   UNL A   1      37.799  32.794  37.813  1.00  0.00     0.001 A 
ATOM     65  C   UNL A   1      38.397  34.034  38.032  1.00  0.00     0.000 A 
ENDBRANCH  46  60
BRANCH  47  66
ATOM     66  C   UNL A   1      41.542  27.229  27.584  1.00  0.00    -0.014 A 
ATOM     67  C   UNL A   1      42.488  27.735  26.682  1.00  0.00     0.009 A 
ATOM     68  C   UNL A   1      40.972  25.969  27.334  1.00  0.00     0.009 A 
ATOM     69  C   UNL A   1      42.847  26.999  25.549  1.00  0.00     0.001 A 
ATOM     70  C   UNL A   1      41.354  25.223  26.217  1.00  0.00     0.001 A 
ATOM     71  C   UNL A   1      42.287  25.743  25.322  1.00  0.00     0.000 A 
ENDBRANCH  47  66
BRANCH  59  72
ATOM     72  C   UNL A   1      44.160  27.634  34.044  1.00  0.00    -0.014 A 
ATOM     73  C   UNL A   1      43.989  26.404  34.696  1.00  0.00     0.009 A 
ATOM     74  C   UNL A   1      45.444  28.200  33.980  1.00  0.00     0.009 A 
ATOM     75  C   UNL A   1      45.076  25.773  35.304  1.00  0.00     0.001 A 
ATOM     76  C   UNL A   1      46.534  27.549  34.557  1.00  0.00     0.001 A 
ATOM     77  C   UNL A   1      46.347  26.343  35.228  1.00  0.00     0.000 A 
ENDBRANCH  59  72
ENDBRANCH  33  34
ENDBRANCH  26  28
ENDBRANCH  25  26
ENDBRANCH  24  25
ENDBRANCH  23  24
ENDBRANCH  22  23
ENDBRANCH   1  22
TORSDOF 18
ENDMDL
MODEL 2
REMARK VINA RESULT:      -9.4      3.214      7.913
REMARK SMILES CC(C)N(CC(=O)OCCOCCOC(=O)c1ccc(-c2c3nc(c(-c4ccccc4)c4ccc([nH]4)c(-c4ccccc4)c4nc(c(-c5ccccc5)c5ccc2[nH]5)C=C4)C=C3)cc1)C(=O)NC1C(C)(C)C1(C)C
REMARK SMILES IDX 10 1 9 2 8 3 6 4 7 5 5 6 4 7 2 8 1 9 3 10 65 11 66 12 67 13
REMARK SMILES IDX 68 15 69 16 72 17 70 18 71 19 73 20 74 21 11 22 12 23 13 24
REMARK SMILES IDX 14 25 15 26 16 27 17 28 18 29 64 30 19 31 63 32 20 33 21 34
REMARK SMILES IDX 22 35 57 36 23 37 62 38 56 39 58 40 24 41 61 42 55 43 54 44
REMARK SMILES IDX 25 46 47 47 32 48 46 49 33 50 36 51 45 52 59 53 34 54 35 55
REMARK SMILES IDX 44 57 60 58 37 59 26 60 27 61 31 62 28 63 30 64 29 65 48 66
REMARK SMILES IDX 49 67 53 68 50 69 52 70 51 71 38 72 39 73 43 74 40 75 42 76
REMARK SMILES IDX 41 77
REMARK H PARENT 67 14 58 45 36 56
REMARK Flexibility Score: inf
ROOT
ATOM      1  C   UNL A   1      35.193  22.974  23.633  1.00  0.00     0.202 C 
ENDROOT
BRANCH   1   2
ATOM      2  C   UNL A   1      34.228  24.120  23.254  1.00  0.00     0.261 C 
BRANCH   2   3
ATOM      3  O   UNL A   1      32.954  23.775  22.677  1.00  0.00    -0.462 OA
BRANCH   3   4
ATOM      4  C   UNL A   1      32.002  24.672  23.029  1.00  0.00     0.325 C 
ATOM      5  O   UNL A   1      31.405  24.580  24.085  1.00  0.00    -0.250 OA
BRANCH   4   6
ATOM      6  C   UNL A   1      31.665  25.703  21.971  1.00  0.00     0.244 C 
BRANCH   6   7
ATOM      7  N   UNL A   1      31.788  27.120  22.281  1.00  0.00    -0.311 N 
BRANCH   7   8
ATOM      8  C   UNL A   1      30.490  27.841  22.354  1.00  0.00     0.081 C 
ATOM      9  C   UNL A   1      29.603  27.552  23.577  1.00  0.00     0.031 C 
ATOM     10  C   UNL A   1      30.646  29.349  22.159  1.00  0.00     0.031 C 
ENDBRANCH   7   8
BRANCH   7  11
ATOM     11  C   UNL A   1      32.939  27.770  22.585  1.00  0.00     0.318 C 
ATOM     12  O   UNL A   1      33.866  27.813  21.762  1.00  0.00    -0.249 OA
ATOM     13  N   UNL A   1      33.211  28.433  23.719  1.00  0.00    -0.334 N 
ATOM     14  H   UNL A   1      34.102  28.836  23.603  1.00  0.00     0.165 HD
BRANCH  13  15
ATOM     15  C   UNL A   1      32.758  28.804  25.026  1.00  0.00     0.096 C 
ATOM     16  C   UNL A   1      32.723  27.745  26.118  1.00  0.00    -0.007 C 
ATOM     17  C   UNL A   1      33.285  29.133  26.423  1.00  0.00    -0.007 C 
ATOM     18  C   UNL A   1      31.429  27.363  26.786  1.00  0.00     0.014 C 
ATOM     19  C   UNL A   1      33.668  26.568  25.951  1.00  0.00     0.014 C 
ATOM     20  C   UNL A   1      34.687  29.175  26.966  1.00  0.00     0.014 C 
ATOM     21  C   UNL A   1      32.437  30.209  27.125  1.00  0.00     0.014 C 
ENDBRANCH  13  15
ENDBRANCH   7  11
ENDBRANCH   6   7
ENDBRANCH   4   6
ENDBRANCH   3   4
ENDBRANCH   2   3
ENDBRANCH   1   2
BRANCH   1  22
ATOM     22  O   UNL A   1      35.735  22.926  24.935  1.00  0.00    -0.374 OA
BRANCH  22  23
ATOM     23  C   UNL A   1      37.110  23.145  25.238  1.00  0.00     0.202 C 
BRANCH  23  24
ATOM     24  C   UNL A   1      38.243  22.102  25.340  1.00  0.00     0.261 C 
BRANCH  24  25
ATOM     25  O   UNL A   1      38.994  22.065  26.544  1.00  0.00    -0.460 OA
BRANCH  25  26
ATOM     26  C   UNL A   1      40.233  22.593  26.442  1.00  0.00     0.338 C 
ATOM     27  O   UNL A   1      41.196  22.152  25.830  1.00  0.00    -0.246 OA
BRANCH  26  28
ATOM     28  C   UNL A   1      40.168  23.953  26.982  1.00  0.00     0.060 A 
ATOM     29  C   UNL A   1      40.803  24.968  26.254  1.00  0.00     0.016 A 
ATOM     30  C   UNL A   1      39.494  24.219  28.174  1.00  0.00     0.016 A 
ATOM     31  C   UNL A   1      40.786  26.264  26.731  1.00  0.00     0.010 A 
ATOM     32  C   UNL A   1      39.516  25.515  28.678  1.00  0.00     0.010 A 
ATOM     33  C   UNL A   1      40.196  26.522  27.972  1.00  0.00    -0.014 A 
BRANCH  33  34
ATOM     34  C   UNL A   1      40.534  27.793  28.628  1.00  0.00     0.031 A 
ATOM     35  C   UNL A   1      41.946  27.978  29.097  1.00  0.00     0.074 A 
ATOM     36  C   UNL A   1      39.626  28.775  28.709  1.00  0.00     0.049 A 
ATOM     37  N   UNL A   1      42.501  29.014  29.667  1.00  0.00    -0.248 NA
ATOM     38  C   UNL A   1      42.860  26.841  28.887  1.00  0.00     0.031 C 
ATOM     39  C   UNL A   1      38.254  28.700  28.208  1.00  0.00     0.029 A 
ATOM     40  N   UNL A   1      39.732  30.032  29.235  1.00  0.00    -0.354 N 
ATOM     41  C   UNL A   1      43.822  28.649  29.893  1.00  0.00     0.074 A 
ATOM     42  C   UNL A   1      43.979  27.289  29.429  1.00  0.00     0.031 C 
ATOM     43  C   UNL A   1      37.640  29.867  28.459  1.00  0.00     0.029 A 
ATOM     44  C   UNL A   1      38.566  30.749  29.166  1.00  0.00     0.049 A 
ATOM     45  H   UNL A   1      40.563  30.387  29.625  1.00  0.00     0.167 HD
ATOM     46  C   UNL A   1      44.813  29.388  30.441  1.00  0.00     0.031 A 
ATOM     47  C   UNL A   1      38.283  31.973  29.646  1.00  0.00     0.031 A 
ATOM     48  C   UNL A   1      44.620  30.728  30.924  1.00  0.00     0.049 A 
ATOM     49  C   UNL A   1      39.376  32.744  30.333  1.00  0.00     0.074 A 
ATOM     50  C   UNL A   1      45.543  31.579  31.501  1.00  0.00     0.029 A 
ATOM     51  N   UNL A   1      43.407  31.404  30.896  1.00  0.00    -0.354 N 
ATOM     52  N   UNL A   1      40.627  32.403  30.535  1.00  0.00    -0.248 NA
ATOM     53  C   UNL A   1      39.021  34.071  30.849  1.00  0.00     0.031 C 
ATOM     54  C   UNL A   1      44.870  32.744  31.887  1.00  0.00     0.029 A 
ATOM     55  C   UNL A   1      43.547  32.649  31.481  1.00  0.00     0.049 A 
ATOM     56  H   UNL A   1      42.571  31.048  30.516  1.00  0.00     0.167 HD
ATOM     57  C   UNL A   1      41.217  33.480  31.182  1.00  0.00     0.074 A 
ATOM     58  C   UNL A   1      40.187  34.492  31.321  1.00  0.00     0.031 C 
ATOM     59  C   UNL A   1      42.494  33.626  31.619  1.00  0.00     0.031 A 
BRANCH  46  60
ATOM     60  C   UNL A   1      46.152  28.723  30.607  1.00  0.00    -0.014 A 
ATOM     61  C   UNL A   1      47.136  28.779  29.605  1.00  0.00     0.009 A 
ATOM     62  C   UNL A   1      46.424  28.005  31.781  1.00  0.00     0.009 A 
ATOM     63  C   UNL A   1      48.341  28.087  29.757  1.00  0.00     0.001 A 
ATOM     64  C   UNL A   1      47.642  27.344  31.945  1.00  0.00     0.001 A 
ATOM     65  C   UNL A   1      48.594  27.374  30.927  1.00  0.00     0.000 A 
ENDBRANCH  46  60
BRANCH  47  66
ATOM     66  C   UNL A   1      36.908  32.514  29.506  1.00  0.00    -0.014 A 
ATOM     67  C   UNL A   1      35.946  32.313  30.505  1.00  0.00     0.009 A 
ATOM     68  C   UNL A   1      36.563  33.276  28.376  1.00  0.00     0.009 A 
ATOM     69  C   UNL A   1      34.664  32.854  30.371  1.00  0.00     0.001 A 
ATOM     70  C   UNL A   1      35.291  33.840  28.258  1.00  0.00     0.001 A 
ATOM     71  C   UNL A   1      34.341  33.623  29.254  1.00  0.00     0.000 A 
ENDBRANCH  47  66
BRANCH  59  72
ATOM     72  C   UNL A   1      42.848  34.936  32.264  1.00  0.00    -0.014 A 
ATOM     73  C   UNL A   1      43.446  35.974  31.534  1.00  0.00     0.009 A 
ATOM     74  C   UNL A   1      42.532  35.148  33.616  1.00  0.00     0.009 A 
ATOM     75  C   UNL A   1      43.757  37.184  32.157  1.00  0.00     0.001 A 
ATOM     76  C   UNL A   1      42.812  36.370  34.226  1.00  0.00     0.001 A 
ATOM     77  C   UNL A   1      43.434  37.383  33.499  1.00  0.00     0.000 A 
ENDBRANCH  59  72
ENDBRANCH  33  34
ENDBRANCH  26  28
ENDBRANCH  25  26
ENDBRANCH  24  25
ENDBRANCH  23  24
ENDBRANCH  22  23
ENDBRANCH   1  22
TORSDOF 18
ENDMDL
MODEL 3
REMARK VINA RESULT:      -9.4      4.352      7.740
REMARK SMILES CC(C)N(CC(=O)OCCOCCOC(=O)c1ccc(-c2c3nc(c(-c4ccccc4)c4ccc([nH]4)c(-c4ccccc4)c4nc(c(-c5ccccc5)c5ccc2[nH]5)C=C4)C=C3)cc1)C(=O)NC1C(C)(C)C1(C)C
REMARK SMILES IDX 10 1 9 2 8 3 6 4 7 5 5 6 4 7 2 8 1 9 3 10 65 11 66 12 67 13
REMARK SMILES IDX 68 15 69 16 72 17 70 18 71 19 73 20 74 21 11 22 12 23 13 24
REMARK SMILES IDX 14 25 15 26 16 27 17 28 18 29 64 30 19 31 63 32 20 33 21 34
REMARK SMILES IDX 22 35 57 36 23 37 62 38 56 39 58 40 24 41 61 42 55 43 54 44
REMARK SMILES IDX 25 46 47 47 32 48 46 49 33 50 36 51 45 52 59 53 34 54 35 55
REMARK SMILES IDX 44 57 60 58 37 59 26 60 27 61 31 62 28 63 30 64 29 65 48 66
REMARK SMILES IDX 49 67 53 68 50 69 52 70 51 71 38 72 39 73 43 74 40 75 42 76
REMARK SMILES IDX 41 77
REMARK H PARENT 67 14 58 45 36 56
REMARK Flexibility Score: inf
ROOT
ATOM      1  C   UNL A   1      35.147  20.311  25.084  1.00  0.00     0.202 C 
ENDROOT
BRANCH   1   2
ATOM      2  C   UNL A   1      33.759  20.978  24.957  1.00  0.00     0.261 C 
BRANCH   2   3
ATOM      3  O   UNL A   1      33.119  21.456  26.156  1.00  0.00    -0.462 OA
BRANCH   3   4
ATOM      4  C   UNL A   1      33.753  22.549  26.644  1.00  0.00     0.325 C 
ATOM      5  O   UNL A   1      34.196  22.571  27.777  1.00  0.00    -0.250 OA
BRANCH   4   6
ATOM      6  C   UNL A   1      33.758  23.755  25.727  1.00  0.00     0.244 C 
BRANCH   6   7
ATOM      7  N   UNL A   1      32.509  24.446  25.439  1.00  0.00    -0.311 N 
BRANCH   7   8
ATOM      8  C   UNL A   1      32.136  24.452  24.000  1.00  0.00     0.081 C 
ATOM      9  C   UNL A   1      33.247  24.109  22.994  1.00  0.00     0.031 C 
ATOM     10  C   UNL A   1      30.889  23.615  23.716  1.00  0.00     0.031 C 
ENDBRANCH   7   8
BRANCH   7  11
ATOM     11  C   UNL A   1      31.664  24.975  26.358  1.00  0.00     0.318 C 
ATOM     12  O   UNL A   1      31.209  24.266  27.269  1.00  0.00    -0.249 OA
ATOM     13  N   UNL A   1      31.248  26.249  26.427  1.00  0.00    -0.334 N 
ATOM     14  H   UNL A   1      30.690  26.320  27.234  1.00  0.00     0.165 HD
BRANCH  13  15
ATOM     15  C   UNL A   1      31.272  27.549  25.826  1.00  0.00     0.096 C 
ATOM     16  C   UNL A   1      32.282  28.571  26.327  1.00  0.00    -0.007 C 
ATOM     17  C   UNL A   1      32.068  28.387  24.826  1.00  0.00    -0.007 C 
ATOM     18  C   UNL A   1      31.831  29.872  26.934  1.00  0.00     0.014 C 
ATOM     19  C   UNL A   1      33.534  28.018  26.985  1.00  0.00     0.014 C 
ATOM     20  C   UNL A   1      33.294  28.061  24.017  1.00  0.00     0.014 C 
ATOM     21  C   UNL A   1      31.166  29.338  24.018  1.00  0.00     0.014 C 
ENDBRANCH  13  15
ENDBRANCH   7  11
ENDBRANCH   6   7
ENDBRANCH   4   6
ENDBRANCH   3   4
ENDBRANCH   2   3
ENDBRANCH   1   2
BRANCH   1  22
ATOM     22  O   UNL A   1      36.279  21.110  25.350  1.00  0.00    -0.374 OA
BRANCH  22  23
ATOM     23  C   UNL A   1      37.581  20.850  24.833  1.00  0.00     0.202 C 
BRANCH  23  24
ATOM     24  C   UNL A   1      38.749  20.109  25.517  1.00  0.00     0.261 C 
BRANCH  24  25
ATOM     25  O   UNL A   1      39.964  20.821  25.695  1.00  0.00    -0.460 OA
BRANCH  25  26
ATOM     26  C   UNL A   1      40.455  20.776  26.951  1.00  0.00     0.338 C 
ATOM     27  O   UNL A   1      40.799  19.795  27.595  1.00  0.00    -0.246 OA
BRANCH  26  28
ATOM     28  C   UNL A   1      40.766  22.152  27.343  1.00  0.00     0.060 A 
ATOM     29  C   UNL A   1      40.148  23.185  26.625  1.00  0.00     0.016 A 
ATOM     30  C   UNL A   1      41.642  22.417  28.397  1.00  0.00     0.016 A 
ATOM     31  C   UNL A   1      40.422  24.500  26.944  1.00  0.00     0.010 A 
ATOM     32  C   UNL A   1      41.954  23.740  28.688  1.00  0.00     0.010 A 
ATOM     33  C   UNL A   1      41.371  24.773  27.933  1.00  0.00    -0.014 A 
BRANCH  33  34
ATOM     34  C   UNL A   1      41.929  26.133  27.976  1.00  0.00     0.031 A 
ATOM     35  C   UNL A   1      41.195  27.158  28.786  1.00  0.00     0.074 A 
ATOM     36  C   UNL A   1      43.101  26.401  27.385  1.00  0.00     0.049 A 
ATOM     37  N   UNL A   1      41.499  28.408  29.011  1.00  0.00    -0.248 NA
ATOM     38  C   UNL A   1      39.951  26.711  29.437  1.00  0.00     0.031 C 
ATOM     39  C   UNL A   1      43.913  25.439  26.642  1.00  0.00     0.029 A 
ATOM     40  N   UNL A   1      43.813  27.568  27.330  1.00  0.00    -0.354 N 
ATOM     41  C   UNL A   1      40.480  28.897  29.819  1.00  0.00     0.074 A 
ATOM     42  C   UNL A   1      39.535  27.822  30.020  1.00  0.00     0.031 C 
ATOM     43  C   UNL A   1      45.018  26.060  26.198  1.00  0.00     0.029 A 
ATOM     44  C   UNL A   1      44.966  27.465  26.597  1.00  0.00     0.049 A 
ATOM     45  H   UNL A   1      43.527  28.398  27.774  1.00  0.00     0.167 HD
ATOM     46  C   UNL A   1      40.350  30.136  30.344  1.00  0.00     0.031 A 
ATOM     47  C   UNL A   1      45.861  28.414  26.269  1.00  0.00     0.031 A 
ATOM     48  C   UNL A   1      41.289  31.196  30.102  1.00  0.00     0.049 A 
ATOM     49  C   UNL A   1      45.650  29.808  26.789  1.00  0.00     0.074 A 
ATOM     50  C   UNL A   1      41.268  32.495  30.575  1.00  0.00     0.029 A 
ATOM     51  N   UNL A   1      42.417  31.076  29.301  1.00  0.00    -0.354 N 
ATOM     52  N   UNL A   1      44.693  30.266  27.563  1.00  0.00    -0.248 NA
ATOM     53  C   UNL A   1      46.645  30.814  26.401  1.00  0.00     0.031 C 
ATOM     54  C   UNL A   1      42.344  33.179  30.001  1.00  0.00     0.029 A 
ATOM     55  C   UNL A   1      43.079  32.288  29.233  1.00  0.00     0.049 A 
ATOM     56  H   UNL A   1      42.701  30.250  28.847  1.00  0.00     0.167 HD
ATOM     57  C   UNL A   1      44.981  31.607  27.774  1.00  0.00     0.074 A 
ATOM     58  C   UNL A   1      46.213  31.882  27.059  1.00  0.00     0.031 C 
ATOM     59  C   UNL A   1      44.296  32.530  28.495  1.00  0.00     0.031 A 
BRANCH  46  60
ATOM     60  C   UNL A   1      39.114  30.409  31.157  1.00  0.00    -0.014 A 
ATOM     61  C   UNL A   1      39.112  30.308  32.559  1.00  0.00     0.009 A 
ATOM     62  C   UNL A   1      37.920  30.750  30.504  1.00  0.00     0.009 A 
ATOM     63  C   UNL A   1      37.930  30.493  33.281  1.00  0.00     0.001 A 
ATOM     64  C   UNL A   1      36.748  30.968  31.230  1.00  0.00     0.001 A 
ATOM     65  C   UNL A   1      36.751  30.825  32.617  1.00  0.00     0.000 A 
ENDBRANCH  46  60
BRANCH  47  66
ATOM     66  C   UNL A   1      47.008  28.067  25.393  1.00  0.00    -0.014 A 
ATOM     67  C   UNL A   1      48.241  27.679  25.936  1.00  0.00     0.009 A 
ATOM     68  C   UNL A   1      46.857  28.085  23.995  1.00  0.00     0.009 A 
ATOM     69  C   UNL A   1      49.303  27.328  25.097  1.00  0.00     0.001 A 
ATOM     70  C   UNL A   1      47.911  27.706  23.161  1.00  0.00     0.001 A 
ATOM     71  C   UNL A   1      49.134  27.333  23.713  1.00  0.00     0.000 A 
ENDBRANCH  47  66
BRANCH  59  72
ATOM     72  C   UNL A   1      44.880  33.914  28.563  1.00  0.00    -0.014 A 
ATOM     73  C   UNL A   1      45.819  34.264  29.544  1.00  0.00     0.009 A 
ATOM     74  C   UNL A   1      44.516  34.865  27.596  1.00  0.00     0.009 A 
ATOM     75  C   UNL A   1      46.352  35.554  29.579  1.00  0.00     0.001 A 
ATOM     76  C   UNL A   1      45.077  36.142  27.613  1.00  0.00     0.001 A 
ATOM     77  C   UNL A   1      45.986  36.488  28.611  1.00  0.00     0.000 A 
ENDBRANCH  59  72
ENDBRANCH  33  34
ENDBRANCH  26  28
ENDBRANCH  25  26
ENDBRANCH  24  25
ENDBRANCH  23  24
ENDBRANCH  22  23
ENDBRANCH   1  22
TORSDOF 18
ENDMDL
