MODEL 1
REMARK VINA RESULT:      -9.7      0.000      0.000
REMARK SMILES Cc1cc(Br)cc2c1O[C@H](C(F)(F)F)C(C(=O)OCCOCCOC(=O)c1ccc(-c3c4nc(c(-c5ccccc5)c5ccc([nH]5)c(-c5ccccc5)c5nc(c(-c6ccccc6)c6ccc3[nH]6)C=C5)C=C4)cc1)=C2
REMARK SMILES IDX 22 1 21 2 20 3 19 4 18 5 16 6 17 7 15 8 1 9 2 10 3 11 8 12
REMARK SMILES IDX 4 13 7 14 9 15 5 16 6 17 75 18 10 19 11 20 12 21 13 22 14 23
REMARK SMILES IDX 23 24 24 25 25 26 26 27 27 28 28 29 74 30 29 31 73 32 30 33
REMARK SMILES IDX 31 34 32 35 67 36 33 37 72 38 66 39 68 40 34 41 71 42 65 43
REMARK SMILES IDX 64 44 35 46 57 47 42 48 56 49 43 50 46 51 55 52 69 53 44 54
REMARK SMILES IDX 45 55 54 57 70 58 47 59 36 60 37 61 41 62 38 63 40 64 39 65
REMARK SMILES IDX 58 66 59 67 63 68 60 69 62 70 61 71 48 72 49 73 53 74 50 75
REMARK SMILES IDX 52 76 51 77
REMARK H PARENT 68 45 46 56
REMARK Flexibility Score: inf
ROOT
ATOM      1  C   UNL A   1      40.584  20.050  26.561  1.00  0.00     0.202 C 
ENDROOT
BRANCH   1   2
ATOM      2  O   UNL A   1      41.386  19.210  25.726  1.00  0.00    -0.374 OA
BRANCH   2   3
ATOM      3  C   UNL A   1      42.754  19.031  26.087  1.00  0.00     0.202 C 
BRANCH   3   4
ATOM      4  C   UNL A   1      43.782  19.266  24.978  1.00  0.00     0.261 C 
BRANCH   4   5
ATOM      5  O   UNL A   1      44.025  20.668  24.776  1.00  0.00    -0.460 OA
BRANCH   5   6
ATOM      6  C   UNL A   1      45.186  21.121  25.305  1.00  0.00     0.338 C 
ATOM      7  O   UNL A   1      46.114  20.444  25.721  1.00  0.00    -0.246 OA
BRANCH   6   8
ATOM      8  C   UNL A   1      45.241  22.591  25.210  1.00  0.00     0.087 C 
ATOM      9  C   UNL A   1      44.669  27.640  25.872  1.00  0.00     0.048 C 
ATOM     10  C   UNL A   1      45.721  26.740  25.288  1.00  0.00    -0.007 A 
ATOM     11  C   UNL A   1      46.928  27.291  24.830  1.00  0.00     0.023 A 
ATOM     12  C   UNL A   1      45.517  25.354  25.183  1.00  0.00     0.130 A 
ATOM     13  C   UNL A   1      47.916  26.469  24.292  1.00  0.00     0.019 A 
ATOM     14  C   UNL A   1      46.529  24.532  24.675  1.00  0.00     0.019 A 
ATOM     15  O   UNL A   1      44.302  24.871  25.587  1.00  0.00    -0.475 OA
ATOM     16  Br  UNL A   1      49.541  27.222  23.686  1.00  0.00    -0.051 Br
ATOM     17  C   UNL A   1      47.724  25.093  24.214  1.00  0.00     0.027 A 
ATOM     18  C   UNL A   1      46.366  23.091  24.685  1.00  0.00     0.027 C 
ATOM     19  C   UNL A   1      44.103  23.435  25.706  1.00  0.00     0.316 C 
BRANCH  19  20
ATOM     20  C   UNL A   1      43.723  23.126  27.163  1.00  0.00     0.430 C 
ATOM     21  F   UNL A   1      44.827  23.036  27.946  1.00  0.00    -0.167 F 
ATOM     22  F   UNL A   1      42.950  24.098  27.700  1.00  0.00    -0.167 F 
ATOM     23  F   UNL A   1      43.049  21.960  27.277  1.00  0.00    -0.167 F 
ENDBRANCH  19  20
ENDBRANCH   6   8
ENDBRANCH   5   6
ENDBRANCH   4   5
ENDBRANCH   3   4
ENDBRANCH   2   3
ENDBRANCH   1   2
BRANCH   1  24
ATOM     24  C   UNL A   1      40.258  21.447  26.020  1.00  0.00     0.261 C 
BRANCH  24  25
ATOM     25  O   UNL A   1      39.052  21.978  26.602  1.00  0.00    -0.460 OA
BRANCH  25  26
ATOM     26  C   UNL A   1      38.651  23.167  26.092  1.00  0.00     0.338 C 
ATOM     27  O   UNL A   1      37.742  23.368  25.301  1.00  0.00    -0.246 OA
BRANCH  26  28
ATOM     28  C   UNL A   1      39.358  24.269  26.767  1.00  0.00     0.060 A 
ATOM     29  C   UNL A   1      39.124  24.444  28.137  1.00  0.00     0.016 A 
ATOM     30  C   UNL A   1      40.154  25.170  26.059  1.00  0.00     0.016 A 
ATOM     31  C   UNL A   1      39.645  25.554  28.796  1.00  0.00     0.010 A 
ATOM     32  C   UNL A   1      40.665  26.293  26.720  1.00  0.00     0.010 A 
ATOM     33  C   UNL A   1      40.381  26.508  28.080  1.00  0.00    -0.014 A 
BRANCH  33  34
ATOM     34  C   UNL A   1      40.704  27.803  28.723  1.00  0.00     0.031 A 
ATOM     35  C   UNL A   1      42.110  28.045  29.199  1.00  0.00     0.074 A 
ATOM     36  C   UNL A   1      39.778  28.770  28.833  1.00  0.00     0.049 A 
ATOM     37  N   UNL A   1      42.616  29.103  29.782  1.00  0.00    -0.248 NA
ATOM     38  C   UNL A   1      43.077  26.956  28.981  1.00  0.00     0.031 C 
ATOM     39  C   UNL A   1      38.400  28.681  28.353  1.00  0.00     0.029 A 
ATOM     40  N   UNL A   1      39.866  30.026  29.377  1.00  0.00    -0.354 N 
ATOM     41  C   UNL A   1      43.957  28.807  29.994  1.00  0.00     0.074 A 
ATOM     42  C   UNL A   1      44.181  27.464  29.509  1.00  0.00     0.031 C 
ATOM     43  C   UNL A   1      37.771  29.839  28.620  1.00  0.00     0.029 A 
ATOM     44  C   UNL A   1      38.693  30.736  29.316  1.00  0.00     0.049 A 
ATOM     45  H   UNL A   1      40.693  30.385  29.775  1.00  0.00     0.167 HD
ATOM     46  C   UNL A   1      44.919  29.590  30.537  1.00  0.00     0.031 A 
ATOM     47  C   UNL A   1      38.393  31.964  29.781  1.00  0.00     0.031 A 
ATOM     48  C   UNL A   1      44.697  30.918  31.038  1.00  0.00     0.049 A 
ATOM     49  C   UNL A   1      39.454  32.772  30.480  1.00  0.00     0.074 A 
ATOM     50  C   UNL A   1      45.610  31.786  31.612  1.00  0.00     0.029 A 
ATOM     51  N   UNL A   1      43.474  31.569  31.030  1.00  0.00    -0.354 N 
ATOM     52  N   UNL A   1      40.718  32.483  30.673  1.00  0.00    -0.248 NA
ATOM     53  C   UNL A   1      39.045  34.075  31.024  1.00  0.00     0.031 C 
ATOM     54  C   UNL A   1      44.928  32.943  31.998  1.00  0.00     0.029 A 
ATOM     55  C   UNL A   1      43.602  32.816  31.615  1.00  0.00     0.049 A 
ATOM     56  H   UNL A   1      42.639  31.199  30.663  1.00  0.00     0.167 HD
ATOM     57  C   UNL A   1      41.258  33.574  31.344  1.00  0.00     0.074 A 
ATOM     58  C   UNL A   1      40.190  34.536  31.511  1.00  0.00     0.031 C 
ATOM     59  C   UNL A   1      42.527  33.760  31.781  1.00  0.00     0.031 A 
BRANCH  46  60
ATOM     60  C   UNL A   1      46.303  29.016  30.637  1.00  0.00    -0.014 A 
ATOM     61  C   UNL A   1      46.712  28.308  31.777  1.00  0.00     0.009 A 
ATOM     62  C   UNL A   1      47.192  29.145  29.559  1.00  0.00     0.009 A 
ATOM     63  C   UNL A   1      47.993  27.755  31.843  1.00  0.00     0.001 A 
ATOM     64  C   UNL A   1      48.463  28.571  29.618  1.00  0.00     0.001 A 
ATOM     65  C   UNL A   1      48.865  27.883  30.762  1.00  0.00     0.000 A 
ENDBRANCH  46  60
BRANCH  47  66
ATOM     66  C   UNL A   1      37.020  32.506  29.613  1.00  0.00    -0.014 A 
ATOM     67  C   UNL A   1      36.043  32.287  30.595  1.00  0.00     0.009 A 
ATOM     68  C   UNL A   1      36.679  33.241  28.467  1.00  0.00     0.009 A 
ATOM     69  C   UNL A   1      34.747  32.782  30.426  1.00  0.00     0.001 A 
ATOM     70  C   UNL A   1      35.390  33.755  28.312  1.00  0.00     0.001 A 
ATOM     71  C   UNL A   1      34.424  33.520  29.288  1.00  0.00     0.000 A 
ENDBRANCH  47  66
BRANCH  59  72
ATOM     72  C   UNL A   1      42.842  35.057  32.471  1.00  0.00    -0.014 A 
ATOM     73  C   UNL A   1      43.466  36.109  31.783  1.00  0.00     0.009 A 
ATOM     74  C   UNL A   1      42.442  35.254  33.802  1.00  0.00     0.009 A 
ATOM     75  C   UNL A   1      43.700  37.328  32.424  1.00  0.00     0.001 A 
ATOM     76  C   UNL A   1      42.655  36.481  34.431  1.00  0.00     0.001 A 
ATOM     77  C   UNL A   1      43.289  37.515  33.743  1.00  0.00     0.000 A 
ENDBRANCH  59  72
ENDBRANCH  33  34
ENDBRANCH  26  28
ENDBRANCH  25  26
ENDBRANCH  24  25
ENDBRANCH   1  24
TORSDOF 15
ENDMDL
MODEL 2
REMARK VINA RESULT:      -9.7      4.735      7.714
REMARK SMILES Cc1cc(Br)cc2c1O[C@H](C(F)(F)F)C(C(=O)OCCOCCOC(=O)c1ccc(-c3c4nc(c(-c5ccccc5)c5ccc([nH]5)c(-c5ccccc5)c5nc(c(-c6ccccc6)c6ccc3[nH]6)C=C5)C=C4)cc1)=C2
REMARK SMILES IDX 22 1 21 2 20 3 19 4 18 5 16 6 17 7 15 8 1 9 2 10 3 11 8 12
REMARK SMILES IDX 4 13 7 14 9 15 5 16 6 17 75 18 10 19 11 20 12 21 13 22 14 23
REMARK SMILES IDX 23 24 24 25 25 26 26 27 27 28 28 29 74 30 29 31 73 32 30 33
REMARK SMILES IDX 31 34 32 35 67 36 33 37 72 38 66 39 68 40 34 41 71 42 65 43
REMARK SMILES IDX 64 44 35 46 57 47 42 48 56 49 43 50 46 51 55 52 69 53 44 54
REMARK SMILES IDX 45 55 54 57 70 58 47 59 36 60 37 61 41 62 38 63 40 64 39 65
REMARK SMILES IDX 58 66 59 67 63 68 60 69 62 70 61 71 48 72 49 73 53 74 50 75
REMARK SMILES IDX 52 76 51 77
REMARK H PARENT 68 45 46 56
REMARK Flexibility Score: inf
ROOT
ATOM      1  C   UNL A   1      37.868  21.259  25.319  1.00  0.00     0.202 C 
ENDROOT
BRANCH   1   2
ATOM      2  O   UNL A   1      36.614  21.008  24.680  1.00  0.00    -0.374 OA
BRANCH   2   3
ATOM      3  C   UNL A   1      35.452  20.944  25.505  1.00  0.00     0.202 C 
BRANCH   3   4
ATOM      4  C   UNL A   1      34.218  21.692  24.996  1.00  0.00     0.261 C 
BRANCH   4   5
ATOM      5  O   UNL A   1      34.429  23.114  24.995  1.00  0.00    -0.460 OA
BRANCH   5   6
ATOM      6  C   UNL A   1      34.436  23.682  23.767  1.00  0.00     0.338 C 
ATOM      7  O   UNL A   1      35.002  23.263  22.769  1.00  0.00    -0.246 OA
BRANCH   6   8
ATOM      8  C   UNL A   1      33.547  24.858  23.752  1.00  0.00     0.087 C 
ATOM      9  C   UNL A   1      29.573  28.083  23.493  1.00  0.00     0.048 C 
ATOM     10  C   UNL A   1      30.919  28.080  24.161  1.00  0.00    -0.007 A 
ATOM     11  C   UNL A   1      31.276  29.142  25.005  1.00  0.00     0.023 A 
ATOM     12  C   UNL A   1      31.835  27.035  23.948  1.00  0.00     0.130 A 
ATOM     13  C   UNL A   1      32.518  29.151  25.636  1.00  0.00     0.019 A 
ATOM     14  C   UNL A   1      33.065  27.034  24.615  1.00  0.00     0.019 A 
ATOM     15  O   UNL A   1      31.466  26.053  23.070  1.00  0.00    -0.475 OA
ATOM     16  Br  UNL A   1      32.984  30.583  26.779  1.00  0.00    -0.051 Br
ATOM     17  C   UNL A   1      33.413  28.102  25.448  1.00  0.00     0.027 A 
ATOM     18  C   UNL A   1      33.954  25.895  24.494  1.00  0.00     0.027 C 
ATOM     19  C   UNL A   1      32.266  24.842  22.968  1.00  0.00     0.316 C 
BRANCH  19  20
ATOM     20  C   UNL A   1      31.368  23.646  23.319  1.00  0.00     0.430 C 
ATOM     21  F   UNL A   1      30.093  23.855  22.904  1.00  0.00    -0.167 F 
ATOM     22  F   UNL A   1      31.785  22.508  22.717  1.00  0.00    -0.167 F 
ATOM     23  F   UNL A   1      31.328  23.413  24.649  1.00  0.00    -0.167 F 
ENDBRANCH  19  20
ENDBRANCH   6   8
ENDBRANCH   5   6
ENDBRANCH   4   5
ENDBRANCH   3   4
ENDBRANCH   2   3
ENDBRANCH   1   2
BRANCH   1  24
ATOM     24  C   UNL A   1      38.988  20.245  25.060  1.00  0.00     0.261 C 
BRANCH  24  25
ATOM     25  O   UNL A   1      39.641  19.845  26.280  1.00  0.00    -0.460 OA
BRANCH  25  26
ATOM     26  C   UNL A   1      40.986  19.715  26.187  1.00  0.00     0.338 C 
ATOM     27  O   UNL A   1      41.611  18.800  25.673  1.00  0.00    -0.246 OA
BRANCH  26  28
ATOM     28  C   UNL A   1      41.645  20.950  26.647  1.00  0.00     0.060 A 
ATOM     29  C   UNL A   1      41.594  21.238  28.017  1.00  0.00     0.016 A 
ATOM     30  C   UNL A   1      42.213  21.853  25.749  1.00  0.00     0.016 A 
ATOM     31  C   UNL A   1      42.067  22.459  28.490  1.00  0.00     0.010 A 
ATOM     32  C   UNL A   1      42.675  23.087  26.224  1.00  0.00     0.010 A 
ATOM     33  C   UNL A   1      42.568  23.408  27.588  1.00  0.00    -0.014 A 
BRANCH  33  34
ATOM     34  C   UNL A   1      42.821  24.790  28.060  1.00  0.00     0.031 A 
ATOM     35  C   UNL A   1      44.239  25.216  28.327  1.00  0.00     0.074 A 
ATOM     36  C   UNL A   1      41.814  25.669  28.197  1.00  0.00     0.049 A 
ATOM     37  N   UNL A   1      44.692  26.374  28.739  1.00  0.00    -0.248 NA
ATOM     38  C   UNL A   1      45.286  24.209  28.089  1.00  0.00     0.031 C 
ATOM     39  C   UNL A   1      40.408  25.396  27.909  1.00  0.00     0.029 A 
ATOM     40  N   UNL A   1      41.829  26.978  28.606  1.00  0.00    -0.354 N 
ATOM     41  C   UNL A   1      46.072  26.234  28.803  1.00  0.00     0.074 A 
ATOM     42  C   UNL A   1      46.383  24.875  28.421  1.00  0.00     0.031 C 
ATOM     43  C   UNL A   1      39.692  26.510  28.145  1.00  0.00     0.029 A 
ATOM     44  C   UNL A   1      40.586  27.560  28.630  1.00  0.00     0.049 A 
ATOM     45  H   UNL A   1      42.652  27.456  28.859  1.00  0.00     0.167 HD
ATOM     46  C   UNL A   1      47.001  27.159  29.142  1.00  0.00     0.031 A 
ATOM     47  C   UNL A   1      40.211  28.796  29.012  1.00  0.00     0.031 A 
ATOM     48  C   UNL A   1      46.695  28.506  29.541  1.00  0.00     0.049 A 
ATOM     49  C   UNL A   1      41.252  29.772  29.490  1.00  0.00     0.074 A 
ATOM     50  C   UNL A   1      47.569  29.514  29.909  1.00  0.00     0.029 A 
ATOM     51  N   UNL A   1      45.416  29.030  29.630  1.00  0.00    -0.354 N 
ATOM     52  N   UNL A   1      42.554  29.630  29.546  1.00  0.00    -0.248 NA
ATOM     53  C   UNL A   1      40.770  31.081  29.959  1.00  0.00     0.031 C 
ATOM     54  C   UNL A   1      46.816  30.634  30.270  1.00  0.00     0.029 A 
ATOM     55  C   UNL A   1      45.475  30.339  30.074  1.00  0.00     0.049 A 
ATOM     56  H   UNL A   1      44.589  28.545  29.409  1.00  0.00     0.167 HD
ATOM     57  C   UNL A   1      43.047  30.833  30.036  1.00  0.00     0.074 A 
ATOM     58  C   UNL A   1      41.907  31.699  30.248  1.00  0.00     0.031 C 
ATOM     59  C   UNL A   1      44.331  31.187  30.287  1.00  0.00     0.031 A 
BRANCH  46  60
ATOM     60  C   UNL A   1      48.441  26.737  29.117  1.00  0.00    -0.014 A 
ATOM     61  C   UNL A   1      49.042  26.145  30.239  1.00  0.00     0.009 A 
ATOM     62  C   UNL A   1      49.192  26.887  27.941  1.00  0.00     0.009 A 
ATOM     63  C   UNL A   1      50.374  25.731  30.190  1.00  0.00     0.001 A 
ATOM     64  C   UNL A   1      50.517  26.450  27.888  1.00  0.00     0.001 A 
ATOM     65  C   UNL A   1      51.109  25.879  29.013  1.00  0.00     0.000 A 
ENDBRANCH  46  60
BRANCH  47  66
ATOM     66  C   UNL A   1      38.776  29.182  28.972  1.00  0.00    -0.014 A 
ATOM     67  C   UNL A   1      37.962  29.012  30.101  1.00  0.00     0.009 A 
ATOM     68  C   UNL A   1      38.214  29.717  27.804  1.00  0.00     0.009 A 
ATOM     69  C   UNL A   1      36.609  29.358  30.055  1.00  0.00     0.001 A 
ATOM     70  C   UNL A   1      36.868  30.085  27.768  1.00  0.00     0.001 A 
ATOM     71  C   UNL A   1      36.065  29.899  28.891  1.00  0.00     0.000 A 
ENDBRANCH  47  66
BRANCH  59  72
ATOM     72  C   UNL A   1      44.581  32.574  30.807  1.00  0.00    -0.014 A 
ATOM     73  C   UNL A   1      44.665  32.826  32.185  1.00  0.00     0.009 A 
ATOM     74  C   UNL A   1      44.811  33.626  29.905  1.00  0.00     0.009 A 
ATOM     75  C   UNL A   1      44.955  34.110  32.650  1.00  0.00     0.001 A 
ATOM     76  C   UNL A   1      45.126  34.902  30.373  1.00  0.00     0.001 A 
ATOM     77  C   UNL A   1      45.191  35.144  31.745  1.00  0.00     0.000 A 
ENDBRANCH  59  72
ENDBRANCH  33  34
ENDBRANCH  26  28
ENDBRANCH  25  26
ENDBRANCH  24  25
ENDBRANCH   1  24
TORSDOF 15
ENDMDL
MODEL 3
REMARK VINA RESULT:      -9.7      5.263     11.136
REMARK SMILES Cc1cc(Br)cc2c1O[C@H](C(F)(F)F)C(C(=O)OCCOCCOC(=O)c1ccc(-c3c4nc(c(-c5ccccc5)c5ccc([nH]5)c(-c5ccccc5)c5nc(c(-c6ccccc6)c6ccc3[nH]6)C=C5)C=C4)cc1)=C2
REMARK SMILES IDX 22 1 21 2 20 3 19 4 18 5 16 6 17 7 15 8 1 9 2 10 3 11 8 12
REMARK SMILES IDX 4 13 7 14 9 15 5 16 6 17 75 18 10 19 11 20 12 21 13 22 14 23
REMARK SMILES IDX 23 24 24 25 25 26 26 27 27 28 28 29 74 30 29 31 73 32 30 33
REMARK SMILES IDX 31 34 32 35 67 36 33 37 72 38 66 39 68 40 34 41 71 42 65 43
REMARK SMILES IDX 64 44 35 46 57 47 42 48 56 49 43 50 46 51 55 52 69 53 44 54
REMARK SMILES IDX 45 55 54 57 70 58 47 59 36 60 37 61 41 62 38 63 40 64 39 65
REMARK SMILES IDX 58 66 59 67 63 68 60 69 62 70 61 71 48 72 49 73 53 74 50 75
REMARK SMILES IDX 52 76 51 77
REMARK H PARENT 68 45 46 56
REMARK Flexibility Score: inf
ROOT
ATOM      1  C   UNL A   1      33.914  34.869  28.800  1.00  0.00     0.202 C 
ENDROOT
BRANCH   1   2
ATOM      2  O   UNL A   1      32.796  34.823  29.691  1.00  0.00    -0.374 OA
BRANCH   2   3
ATOM      3  C   UNL A   1      32.756  35.776  30.751  1.00  0.00     0.202 C 
BRANCH   3   4
ATOM      4  C   UNL A   1      33.194  35.275  32.129  1.00  0.00     0.261 C 
BRANCH   4   5
ATOM      5  O   UNL A   1      34.615  35.400  32.306  1.00  0.00    -0.460 OA
BRANCH   5   6
ATOM      6  C   UNL A   1      35.298  34.235  32.226  1.00  0.00     0.338 C 
ATOM      7  O   UNL A   1      34.862  33.154  31.859  1.00  0.00    -0.246 OA
BRANCH   6   8
ATOM      8  C   UNL A   1      36.719  34.463  32.545  1.00  0.00     0.087 C 
ATOM      9  C   UNL A   1      41.311  34.851  34.788  1.00  0.00     0.048 C 
ATOM     10  C   UNL A   1      40.807  34.642  33.388  1.00  0.00    -0.007 A 
ATOM     11  C   UNL A   1      41.723  34.423  32.347  1.00  0.00     0.023 A 
ATOM     12  C   UNL A   1      39.432  34.672  33.096  1.00  0.00     0.130 A 
ATOM     13  C   UNL A   1      41.271  34.223  31.045  1.00  0.00     0.019 A 
ATOM     14  C   UNL A   1      38.987  34.433  31.792  1.00  0.00     0.019 A 
ATOM     15  O   UNL A   1      38.582  34.949  34.132  1.00  0.00    -0.475 OA
ATOM     16  Br  UNL A   1      42.515  33.920  29.653  1.00  0.00    -0.051 Br
ATOM     17  C   UNL A   1      39.909  34.224  30.762  1.00  0.00     0.027 A 
ATOM     18  C   UNL A   1      37.566  34.338  31.517  1.00  0.00     0.027 C 
ATOM     19  C   UNL A   1      37.148  34.784  33.948  1.00  0.00     0.316 C 
BRANCH  19  20
ATOM     20  C   UNL A   1      36.652  33.753  34.973  1.00  0.00     0.430 C 
ATOM     21  F   UNL A   1      37.472  33.704  36.053  1.00  0.00    -0.167 F 
ATOM     22  F   UNL A   1      35.420  34.059  35.441  1.00  0.00    -0.167 F 
ATOM     23  F   UNL A   1      36.593  32.507  34.454  1.00  0.00    -0.167 F 
ENDBRANCH  19  20
ENDBRANCH   6   8
ENDBRANCH   5   6
ENDBRANCH   4   5
ENDBRANCH   3   4
ENDBRANCH   2   3
ENDBRANCH   1   2
BRANCH   1  24
ATOM     24  C   UNL A   1      34.236  33.582  28.033  1.00  0.00     0.261 C 
BRANCH  24  25
ATOM     25  O   UNL A   1      34.341  32.447  28.914  1.00  0.00    -0.460 OA
BRANCH  25  26
ATOM     26  C   UNL A   1      34.846  31.328  28.340  1.00  0.00     0.338 C 
ATOM     27  O   UNL A   1      34.485  30.797  27.301  1.00  0.00    -0.246 OA
BRANCH  26  28
ATOM     28  C   UNL A   1      36.058  30.897  29.059  1.00  0.00     0.060 A 
ATOM     29  C   UNL A   1      37.253  31.569  28.772  1.00  0.00     0.016 A 
ATOM     30  C   UNL A   1      36.046  29.798  29.919  1.00  0.00     0.016 A 
ATOM     31  C   UNL A   1      38.455  31.111  29.306  1.00  0.00     0.010 A 
ATOM     32  C   UNL A   1      37.257  29.331  30.444  1.00  0.00     0.010 A 
ATOM     33  C   UNL A   1      38.468  29.962  30.108  1.00  0.00    -0.014 A 
BRANCH  33  34
ATOM     34  C   UNL A   1      39.766  29.336  30.452  1.00  0.00     0.031 A 
ATOM     35  C   UNL A   1      40.510  29.828  31.663  1.00  0.00     0.074 A 
ATOM     36  C   UNL A   1      40.250  28.310  29.733  1.00  0.00     0.049 A 
ATOM     37  N   UNL A   1      41.655  29.424  32.153  1.00  0.00    -0.248 NA
ATOM     38  C   UNL A   1      39.875  30.913  32.431  1.00  0.00     0.031 C 
ATOM     39  C   UNL A   1      39.593  27.702  28.578  1.00  0.00     0.029 A 
ATOM     40  N   UNL A   1      41.410  27.591  29.881  1.00  0.00    -0.354 N 
ATOM     41  C   UNL A   1      41.873  30.199  33.284  1.00  0.00     0.074 A 
ATOM     42  C   UNL A   1      40.763  31.118  33.394  1.00  0.00     0.031 C 
ATOM     43  C   UNL A   1      40.359  26.694  28.123  1.00  0.00     0.029 A 
ATOM     44  C   UNL A   1      41.572  26.609  28.936  1.00  0.00     0.049 A 
ATOM     45  H   UNL A   1      42.064  27.763  30.597  1.00  0.00     0.167 HD
ATOM     46  C   UNL A   1      42.904  30.145  34.160  1.00  0.00     0.031 A 
ATOM     47  C   UNL A   1      42.589  25.748  28.741  1.00  0.00     0.031 A 
ATOM     48  C   UNL A   1      44.019  29.246  34.045  1.00  0.00     0.049 A 
ATOM     49  C   UNL A   1      43.776  25.782  29.666  1.00  0.00     0.074 A 
ATOM     50  C   UNL A   1      45.115  29.121  34.882  1.00  0.00     0.029 A 
ATOM     51  N   UNL A   1      44.184  28.321  33.026  1.00  0.00    -0.354 N 
ATOM     52  N   UNL A   1      43.971  26.518  30.733  1.00  0.00    -0.248 NA
ATOM     53  C   UNL A   1      44.884  24.864  29.358  1.00  0.00     0.031 C 
ATOM     54  C   UNL A   1      45.969  28.156  34.341  1.00  0.00     0.029 A 
ATOM     55  C   UNL A   1      45.378  27.643  33.197  1.00  0.00     0.049 A 
ATOM     56  H   UNL A   1      43.548  28.170  32.292  1.00  0.00     0.167 HD
ATOM     57  C   UNL A   1      45.211  26.140  31.233  1.00  0.00     0.074 A 
ATOM     58  C   UNL A   1      45.717  25.100  30.362  1.00  0.00     0.031 C 
ATOM     59  C   UNL A   1      45.871  26.614  32.318  1.00  0.00     0.031 A 
BRANCH  46  60
ATOM     60  C   UNL A   1      42.883  31.103  35.316  1.00  0.00    -0.014 A 
ATOM     61  C   UNL A   1      42.028  30.899  36.410  1.00  0.00     0.009 A 
ATOM     62  C   UNL A   1      43.763  32.196  35.332  1.00  0.00     0.009 A 
ATOM     63  C   UNL A   1      42.042  31.784  37.490  1.00  0.00     0.001 A 
ATOM     64  C   UNL A   1      43.790  33.065  36.424  1.00  0.00     0.001 A 
ATOM     65  C   UNL A   1      42.926  32.863  37.498  1.00  0.00     0.000 A 
ENDBRANCH  46  60
BRANCH  47  66
ATOM     66  C   UNL A   1      42.539  24.785  27.611  1.00  0.00    -0.014 A 
ATOM     67  C   UNL A   1      41.938  23.528  27.772  1.00  0.00     0.009 A 
ATOM     68  C   UNL A   1      43.097  25.116  26.366  1.00  0.00     0.009 A 
ATOM     69  C   UNL A   1      41.908  22.618  26.712  1.00  0.00     0.001 A 
ATOM     70  C   UNL A   1      43.045  24.213  25.302  1.00  0.00     0.001 A 
ATOM     71  C   UNL A   1      42.457  22.963  25.478  1.00  0.00     0.000 A 
ENDBRANCH  47  66
BRANCH  59  72
ATOM     72  C   UNL A   1      47.207  26.007  32.640  1.00  0.00    -0.014 A 
ATOM     73  C   UNL A   1      48.386  26.508  32.065  1.00  0.00     0.009 A 
ATOM     74  C   UNL A   1      47.294  24.974  33.586  1.00  0.00     0.009 A 
ATOM     75  C   UNL A   1      49.625  25.969  32.419  1.00  0.00     0.001 A 
ATOM     76  C   UNL A   1      48.536  24.456  33.955  1.00  0.00     0.001 A 
ATOM     77  C   UNL A   1      49.699  24.950  33.367  1.00  0.00     0.000 A 
ENDBRANCH  59  72
ENDBRANCH  33  34
ENDBRANCH  26  28
ENDBRANCH  25  26
ENDBRANCH  24  25
ENDBRANCH   1  24
TORSDOF 15
ENDMDL
