MODEL 1
REMARK VINA RESULT:     -10.0      0.000      0.000
REMARK SMILES O=C(OCCOCCOC(=O)c1cc(SCC(=O)N2CCOCC2)ccn1)c1ccc(-c2c3nc(c(-c4ccccc4)c4ccc([nH]4)c(-c4ccccc4)c4nc(c(-c5ccccc5)c5ccc2[nH]5)C=C4)C=C3)cc1
REMARK SMILES IDX 7 1 6 2 5 3 4 4 3 5 2 6 1 7 28 8 29 9 75 10 30 11 74 12
REMARK SMILES IDX 31 13 32 14 33 15 68 16 34 17 73 18 67 19 69 20 35 21 72 22
REMARK SMILES IDX 66 23 65 24 36 26 58 27 43 28 57 29 44 30 47 31 56 32 70 33
REMARK SMILES IDX 45 34 46 35 55 37 71 38 48 39 37 40 38 41 42 42 39 43 41 44
REMARK SMILES IDX 40 45 59 46 60 47 64 48 61 49 63 50 62 51 49 52 50 53 54 54
REMARK SMILES IDX 51 55 53 56 52 57 8 58 9 59 10 60 11 61 12 62 13 63 27 64
REMARK SMILES IDX 14 65 26 66 25 67 15 68 16 69 17 70 18 71 19 72 20 73 24 74
REMARK SMILES IDX 21 75 23 76 22 77
REMARK H PARENT 69 25 47 36
REMARK Flexibility Score: inf
ROOT
ATOM      1  C   UNL A   1      31.763  29.439  25.854  1.00  0.00     0.202 C 
ENDROOT
BRANCH   1   2
ATOM      2  O   UNL A   1      32.374  30.708  26.096  1.00  0.00    -0.374 OA
BRANCH   2   3
ATOM      3  C   UNL A   1      31.648  31.606  26.934  1.00  0.00     0.202 C 
BRANCH   3   4
ATOM      4  C   UNL A   1      31.923  33.077  26.618  1.00  0.00     0.261 C 
BRANCH   4   5
ATOM      5  O   UNL A   1      32.103  33.825  27.833  1.00  0.00    -0.460 OA
BRANCH   5   6
ATOM      6  C   UNL A   1      33.229  34.395  28.319  1.00  0.00     0.338 C 
ATOM      7  O   UNL A   1      33.316  35.623  28.284  1.00  0.00    -0.246 OA
BRANCH   6   8
ATOM      8  C   UNL A   1      34.377  33.640  28.916  1.00  0.00     0.060 A 
ATOM      9  C   UNL A   1      34.322  32.343  29.431  1.00  0.00     0.016 A 
ATOM     10  C   UNL A   1      35.638  34.265  28.863  1.00  0.00     0.016 A 
ATOM     11  C   UNL A   1      35.456  31.699  29.910  1.00  0.00     0.010 A 
ATOM     12  C   UNL A   1      36.790  33.616  29.317  1.00  0.00     0.010 A 
ATOM     13  C   UNL A   1      36.695  32.330  29.854  1.00  0.00    -0.014 A 
BRANCH  13  14
ATOM     14  C   UNL A   1      37.851  31.636  30.445  1.00  0.00     0.031 A 
ATOM     15  C   UNL A   1      38.158  31.865  31.891  1.00  0.00     0.074 A 
ATOM     16  C   UNL A   1      38.515  30.720  29.720  1.00  0.00     0.049 A 
ATOM     17  N   UNL A   1      39.104  31.345  32.626  1.00  0.00    -0.248 NA
ATOM     18  C   UNL A   1      37.268  32.789  32.613  1.00  0.00     0.031 C 
ATOM     19  C   UNL A   1      38.201  30.350  28.337  1.00  0.00     0.029 A 
ATOM     20  N   UNL A   1      39.562  29.906  30.055  1.00  0.00    -0.354 N 
ATOM     21  C   UNL A   1      38.932  31.889  33.891  1.00  0.00     0.074 A 
ATOM     22  C   UNL A   1      37.799  32.784  33.825  1.00  0.00     0.031 C 
ATOM     23  C   UNL A   1      39.023  29.360  27.952  1.00  0.00     0.029 A 
ATOM     24  C   UNL A   1      39.952  29.068  29.038  1.00  0.00     0.049 A 
ATOM     25  H   UNL A   1      39.995  29.920  30.939  1.00  0.00     0.167 HD
ATOM     26  C   UNL A   1      39.666  31.665  35.005  1.00  0.00     0.031 A 
ATOM     27  C   UNL A   1      40.963  28.181  28.993  1.00  0.00     0.031 A 
ATOM     28  C   UNL A   1      40.806  30.792  35.039  1.00  0.00     0.049 A 
ATOM     29  C   UNL A   1      41.826  28.028  30.213  1.00  0.00     0.074 A 
ATOM     30  C   UNL A   1      41.677  30.542  36.083  1.00  0.00     0.029 A 
ATOM     31  N   UNL A   1      41.233  30.025  33.963  1.00  0.00    -0.354 N 
ATOM     32  N   UNL A   1      41.697  28.593  31.392  1.00  0.00    -0.248 NA
ATOM     33  C   UNL A   1      42.981  27.130  30.098  1.00  0.00     0.031 C 
ATOM     34  C   UNL A   1      42.657  29.655  35.623  1.00  0.00     0.029 A 
ATOM     35  C   UNL A   1      42.367  29.315  34.310  1.00  0.00     0.049 A 
ATOM     36  H   UNL A   1      40.792  29.991  33.084  1.00  0.00     0.167 HD
ATOM     37  C   UNL A   1      42.746  28.113  32.162  1.00  0.00     0.074 A 
ATOM     38  C   UNL A   1      43.489  27.191  31.322  1.00  0.00     0.031 C 
ATOM     39  C   UNL A   1      43.076  28.410  33.442  1.00  0.00     0.031 A 
BRANCH  26  40
ATOM     40  C   UNL A   1      39.290  32.446  36.230  1.00  0.00    -0.014 A 
ATOM     41  C   UNL A   1      39.959  33.629  36.581  1.00  0.00     0.009 A 
ATOM     42  C   UNL A   1      38.276  31.962  37.071  1.00  0.00     0.009 A 
ATOM     43  C   UNL A   1      39.646  34.289  37.773  1.00  0.00     0.001 A 
ATOM     44  C   UNL A   1      37.950  32.636  38.249  1.00  0.00     0.001 A 
ATOM     45  C   UNL A   1      38.643  33.792  38.605  1.00  0.00     0.000 A 
ENDBRANCH  26  40
BRANCH  27  46
ATOM     46  C   UNL A   1      41.240  27.419  27.746  1.00  0.00    -0.014 A 
ATOM     47  C   UNL A   1      42.052  27.954  26.736  1.00  0.00     0.009 A 
ATOM     48  C   UNL A   1      40.682  26.142  27.558  1.00  0.00     0.009 A 
ATOM     49  C   UNL A   1      42.282  27.237  25.557  1.00  0.00     0.001 A 
ATOM     50  C   UNL A   1      40.938  25.415  26.394  1.00  0.00     0.001 A 
ATOM     51  C   UNL A   1      41.730  25.967  25.389  1.00  0.00     0.000 A 
ENDBRANCH  27  46
BRANCH  39  52
ATOM     52  C   UNL A   1      44.278  27.713  34.008  1.00  0.00    -0.014 A 
ATOM     53  C   UNL A   1      44.158  26.465  34.639  1.00  0.00     0.009 A 
ATOM     54  C   UNL A   1      45.547  28.291  33.863  1.00  0.00     0.009 A 
ATOM     55  C   UNL A   1      45.290  25.821  35.140  1.00  0.00     0.001 A 
ATOM     56  C   UNL A   1      46.680  27.632  34.342  1.00  0.00     0.001 A 
ATOM     57  C   UNL A   1      46.549  26.402  34.986  1.00  0.00     0.000 A 
ENDBRANCH  39  52
ENDBRANCH  13  14
ENDBRANCH   6   8
ENDBRANCH   5   6
ENDBRANCH   4   5
ENDBRANCH   3   4
ENDBRANCH   2   3
ENDBRANCH   1   2
BRANCH   1  58
ATOM     58  C   UNL A   1      31.097  29.467  24.475  1.00  0.00     0.261 C 
BRANCH  58  59
ATOM     59  O   UNL A   1      30.678  28.133  24.147  1.00  0.00    -0.459 OA
BRANCH  59  60
ATOM     60  C   UNL A   1      30.523  27.878  22.819  1.00  0.00     0.357 C 
ATOM     61  O   UNL A   1      29.902  28.545  22.008  1.00  0.00    -0.244 OA
BRANCH  60  62
ATOM     62  C   UNL A   1      31.424  26.735  22.505  1.00  0.00     0.149 A 
ATOM     63  C   UNL A   1      32.221  26.191  23.502  1.00  0.00     0.051 A 
ATOM     64  N   UNL A   1      31.502  26.377  21.196  1.00  0.00    -0.249 NA
ATOM     65  C   UNL A   1      33.194  25.271  23.136  1.00  0.00     0.012 A 
ATOM     66  C   UNL A   1      32.438  25.468  20.871  1.00  0.00     0.113 A 
ATOM     67  C   UNL A   1      33.301  24.903  21.792  1.00  0.00     0.035 A 
BRANCH  65  68
ATOM     68  S   UNL A   1      34.323  24.497  24.270  1.00  0.00    -0.116 SA
BRANCH  68  69
ATOM     69  C   UNL A   1      34.446  22.780  23.708  1.00  0.00     0.175 C 
BRANCH  69  70
ATOM     70  C   UNL A   1      34.450  21.672  24.754  1.00  0.00     0.233 C 
ATOM     71  O   UNL A   1      35.495  21.035  24.938  1.00  0.00    -0.274 OA
ATOM     72  N   UNL A   1      33.392  21.551  25.632  1.00  0.00    -0.337 N 
ATOM     73  C   UNL A   1      31.991  21.890  25.398  1.00  0.00     0.148 C 
ATOM     74  C   UNL A   1      33.672  21.292  27.046  1.00  0.00     0.148 C 
ATOM     75  C   UNL A   1      31.617  23.119  26.223  1.00  0.00     0.181 C 
ATOM     76  C   UNL A   1      33.256  22.537  27.853  1.00  0.00     0.181 C 
ATOM     77  O   UNL A   1      31.876  22.884  27.618  1.00  0.00    -0.378 OA
ENDBRANCH  69  70
ENDBRANCH  68  69
ENDBRANCH  65  68
ENDBRANCH  60  62
ENDBRANCH  59  60
ENDBRANCH  58  59
ENDBRANCH   1  58
TORSDOF 17
ENDMDL
MODEL 2
REMARK VINA RESULT:     -10.0      3.988      6.855
REMARK SMILES O=C(OCCOCCOC(=O)c1cc(SCC(=O)N2CCOCC2)ccn1)c1ccc(-c2c3nc(c(-c4ccccc4)c4ccc([nH]4)c(-c4ccccc4)c4nc(c(-c5ccccc5)c5ccc2[nH]5)C=C4)C=C3)cc1
REMARK SMILES IDX 7 1 6 2 5 3 4 4 3 5 2 6 1 7 28 8 29 9 75 10 30 11 74 12
REMARK SMILES IDX 31 13 32 14 33 15 68 16 34 17 73 18 67 19 69 20 35 21 72 22
REMARK SMILES IDX 66 23 65 24 36 26 58 27 43 28 57 29 44 30 47 31 56 32 70 33
REMARK SMILES IDX 45 34 46 35 55 37 71 38 48 39 37 40 38 41 42 42 39 43 41 44
REMARK SMILES IDX 40 45 59 46 60 47 64 48 61 49 63 50 62 51 49 52 50 53 54 54
REMARK SMILES IDX 51 55 53 56 52 57 8 58 9 59 10 60 11 61 12 62 13 63 27 64
REMARK SMILES IDX 14 65 26 66 25 67 15 68 16 69 17 70 18 71 19 72 20 73 24 74
REMARK SMILES IDX 21 75 23 76 22 77
REMARK H PARENT 69 25 47 36
REMARK Flexibility Score: inf
ROOT
ATOM      1  C   UNL A   1      32.849  36.361  30.825  1.00  0.00     0.202 C 
ENDROOT
BRANCH   1   2
ATOM      2  O   UNL A   1      33.005  35.221  31.674  1.00  0.00    -0.374 OA
BRANCH   2   3
ATOM      3  C   UNL A   1      33.776  35.421  32.857  1.00  0.00     0.202 C 
BRANCH   3   4
ATOM      4  C   UNL A   1      35.256  35.079  32.674  1.00  0.00     0.261 C 
BRANCH   4   5
ATOM      5  O   UNL A   1      35.471  33.670  32.862  1.00  0.00    -0.460 OA
BRANCH   5   6
ATOM      6  C   UNL A   1      35.432  32.676  31.945  1.00  0.00     0.338 C 
ATOM      7  O   UNL A   1      34.332  32.216  31.638  1.00  0.00    -0.246 OA
BRANCH   6   8
ATOM      8  C   UNL A   1      36.635  32.101  31.261  1.00  0.00     0.060 A 
ATOM      9  C   UNL A   1      36.999  32.318  29.930  1.00  0.00     0.016 A 
ATOM     10  C   UNL A   1      37.518  31.352  32.063  1.00  0.00     0.016 A 
ATOM     11  C   UNL A   1      38.168  31.790  29.398  1.00  0.00     0.010 A 
ATOM     12  C   UNL A   1      38.711  30.840  31.545  1.00  0.00     0.010 A 
ATOM     13  C   UNL A   1      39.031  31.051  30.201  1.00  0.00    -0.014 A 
BRANCH  13  14
ATOM     14  C   UNL A   1      40.217  30.448  29.571  1.00  0.00     0.031 A 
ATOM     15  C   UNL A   1      41.502  31.214  29.588  1.00  0.00     0.074 A 
ATOM     16  C   UNL A   1      40.156  29.183  29.120  1.00  0.00     0.049 A 
ATOM     17  N   UNL A   1      42.672  30.873  29.119  1.00  0.00    -0.248 NA
ATOM     18  C   UNL A   1      41.470  32.536  30.237  1.00  0.00     0.031 C 
ATOM     19  C   UNL A   1      38.970  28.324  29.176  1.00  0.00     0.029 A 
ATOM     20  N   UNL A   1      41.121  28.388  28.565  1.00  0.00    -0.354 N 
ATOM     21  C   UNL A   1      43.512  31.941  29.404  1.00  0.00     0.074 A 
ATOM     22  C   UNL A   1      42.718  32.945  30.078  1.00  0.00     0.031 C 
ATOM     23  C   UNL A   1      39.288  27.110  28.699  1.00  0.00     0.029 A 
ATOM     24  C   UNL A   1      40.677  27.124  28.256  1.00  0.00     0.049 A 
ATOM     25  H   UNL A   1      42.043  28.691  28.401  1.00  0.00     0.167 HD
ATOM     26  C   UNL A   1      44.827  32.071  29.116  1.00  0.00     0.031 A 
ATOM     27  C   UNL A   1      41.325  26.107  27.660  1.00  0.00     0.031 A 
ATOM     28  C   UNL A   1      45.587  31.071  28.421  1.00  0.00     0.049 A 
ATOM     29  C   UNL A   1      42.758  26.317  27.258  1.00  0.00     0.074 A 
ATOM     30  C   UNL A   1      46.904  31.117  28.003  1.00  0.00     0.029 A 
ATOM     31  N   UNL A   1      45.084  29.835  28.038  1.00  0.00    -0.354 N 
ATOM     32  N   UNL A   1      43.531  27.355  27.475  1.00  0.00    -0.248 NA
ATOM     33  C   UNL A   1      43.404  25.225  26.520  1.00  0.00     0.031 C 
ATOM     34  C   UNL A   1      47.184  29.924  27.327  1.00  0.00     0.029 A 
ATOM     35  C   UNL A   1      46.057  29.116  27.370  1.00  0.00     0.049 A 
ATOM     36  H   UNL A   1      44.170  29.518  28.218  1.00  0.00     0.167 HD
ATOM     37  C   UNL A   1      44.759  27.040  26.909  1.00  0.00     0.074 A 
ATOM     38  C   UNL A   1      44.632  25.703  26.360  1.00  0.00     0.031 C 
ATOM     39  C   UNL A   1      45.887  27.787  26.838  1.00  0.00     0.031 A 
BRANCH  26  40
ATOM     40  C   UNL A   1      45.474  33.374  29.488  1.00  0.00    -0.014 A 
ATOM     41  C   UNL A   1      45.865  33.648  30.809  1.00  0.00     0.009 A 
ATOM     42  C   UNL A   1      45.653  34.359  28.506  1.00  0.00     0.009 A 
ATOM     43  C   UNL A   1      46.386  34.901  31.143  1.00  0.00     0.001 A 
ATOM     44  C   UNL A   1      46.195  35.601  28.840  1.00  0.00     0.001 A 
ATOM     45  C   UNL A   1      46.549  35.876  30.159  1.00  0.00     0.000 A 
ENDBRANCH  26  40
BRANCH  27  46
ATOM     46  C   UNL A   1      40.615  24.833  27.365  1.00  0.00    -0.014 A 
ATOM     47  C   UNL A   1      41.048  23.618  27.917  1.00  0.00     0.009 A 
ATOM     48  C   UNL A   1      39.495  24.827  26.516  1.00  0.00     0.009 A 
ATOM     49  C   UNL A   1      40.387  22.425  27.609  1.00  0.00     0.001 A 
ATOM     50  C   UNL A   1      38.818  23.639  26.235  1.00  0.00     0.001 A 
ATOM     51  C   UNL A   1      39.270  22.437  26.774  1.00  0.00     0.000 A 
ENDBRANCH  27  46
BRANCH  39  52
ATOM     52  C   UNL A   1      47.070  27.160  26.161  1.00  0.00    -0.014 A 
ATOM     53  C   UNL A   1      47.312  27.366  24.795  1.00  0.00     0.009 A 
ATOM     54  C   UNL A   1      47.975  26.397  26.913  1.00  0.00     0.009 A 
ATOM     55  C   UNL A   1      48.430  26.793  24.187  1.00  0.00     0.001 A 
ATOM     56  C   UNL A   1      49.105  25.848  26.308  1.00  0.00     0.001 A 
ATOM     57  C   UNL A   1      49.327  26.040  24.945  1.00  0.00     0.000 A 
ENDBRANCH  39  52
ENDBRANCH  13  14
ENDBRANCH   6   8
ENDBRANCH   5   6
ENDBRANCH   4   5
ENDBRANCH   3   4
ENDBRANCH   2   3
ENDBRANCH   1   2
BRANCH   1  58
ATOM     58  C   UNL A   1      33.165  35.950  29.384  1.00  0.00     0.261 C 
BRANCH  58  59
ATOM     59  O   UNL A   1      33.399  34.534  29.357  1.00  0.00    -0.459 OA
BRANCH  59  60
ATOM     60  C   UNL A   1      34.049  34.069  28.255  1.00  0.00     0.357 C 
ATOM     61  O   UNL A   1      35.145  34.412  27.847  1.00  0.00    -0.244 OA
BRANCH  60  62
ATOM     62  C   UNL A   1      33.250  32.916  27.754  1.00  0.00     0.149 A 
ATOM     63  C   UNL A   1      33.817  31.651  27.710  1.00  0.00     0.051 A 
ATOM     64  N   UNL A   1      32.029  33.215  27.237  1.00  0.00    -0.249 NA
ATOM     65  C   UNL A   1      33.127  30.644  27.051  1.00  0.00     0.012 A 
ATOM     66  C   UNL A   1      31.370  32.218  26.622  1.00  0.00     0.113 A 
ATOM     67  C   UNL A   1      31.876  30.937  26.498  1.00  0.00     0.035 A 
BRANCH  65  68
ATOM     68  S   UNL A   1      33.712  28.976  26.867  1.00  0.00    -0.116 SA
BRANCH  68  69
ATOM     69  C   UNL A   1      32.440  28.140  25.885  1.00  0.00     0.175 C 
BRANCH  69  70
ATOM     70  C   UNL A   1      32.780  27.723  24.460  1.00  0.00     0.233 C 
ATOM     71  O   UNL A   1      33.967  27.722  24.110  1.00  0.00    -0.274 OA
ATOM     72  N   UNL A   1      31.816  27.137  23.665  1.00  0.00    -0.337 N 
ATOM     73  C   UNL A   1      30.373  27.364  23.694  1.00  0.00     0.148 C 
ATOM     74  C   UNL A   1      32.179  25.974  22.853  1.00  0.00     0.148 C 
ATOM     75  C   UNL A   1      29.671  26.123  24.241  1.00  0.00     0.181 C 
ATOM     76  C   UNL A   1      31.431  24.748  23.410  1.00  0.00     0.181 C 
ATOM     77  O   UNL A   1      30.007  24.968  23.452  1.00  0.00    -0.378 OA
ENDBRANCH  69  70
ENDBRANCH  68  69
ENDBRANCH  65  68
ENDBRANCH  60  62
ENDBRANCH  59  60
ENDBRANCH  58  59
ENDBRANCH   1  58
TORSDOF 17
ENDMDL
MODEL 3
REMARK VINA RESULT:     -10.0      3.146      7.731
REMARK SMILES O=C(OCCOCCOC(=O)c1cc(SCC(=O)N2CCOCC2)ccn1)c1ccc(-c2c3nc(c(-c4ccccc4)c4ccc([nH]4)c(-c4ccccc4)c4nc(c(-c5ccccc5)c5ccc2[nH]5)C=C4)C=C3)cc1
REMARK SMILES IDX 7 1 6 2 5 3 4 4 3 5 2 6 1 7 28 8 29 9 75 10 30 11 74 12
REMARK SMILES IDX 31 13 32 14 33 15 68 16 34 17 73 18 67 19 69 20 35 21 72 22
REMARK SMILES IDX 66 23 65 24 36 26 58 27 43 28 57 29 44 30 47 31 56 32 70 33
REMARK SMILES IDX 45 34 46 35 55 37 71 38 48 39 37 40 38 41 42 42 39 43 41 44
REMARK SMILES IDX 40 45 59 46 60 47 64 48 61 49 63 50 62 51 49 52 50 53 54 54
REMARK SMILES IDX 51 55 53 56 52 57 8 58 9 59 10 60 11 61 12 62 13 63 27 64
REMARK SMILES IDX 14 65 26 66 25 67 15 68 16 69 17 70 18 71 19 72 20 73 24 74
REMARK SMILES IDX 21 75 23 76 22 77
REMARK H PARENT 69 25 47 36
REMARK Flexibility Score: inf
ROOT
ATOM      1  C   UNL A   1      34.853  34.605  29.041  1.00  0.00     0.202 C 
ENDROOT
BRANCH   1   2
ATOM      2  O   UNL A   1      33.981  35.606  28.511  1.00  0.00    -0.374 OA
BRANCH   2   3
ATOM      3  C   UNL A   1      32.897  36.003  29.349  1.00  0.00     0.202 C 
BRANCH   3   4
ATOM      4  C   UNL A   1      33.286  37.082  30.362  1.00  0.00     0.261 C 
BRANCH   4   5
ATOM      5  O   UNL A   1      32.763  36.759  31.662  1.00  0.00    -0.460 OA
BRANCH   5   6
ATOM      6  C   UNL A   1      32.753  35.566  32.300  1.00  0.00     0.338 C 
ATOM      7  O   UNL A   1      31.661  35.067  32.574  1.00  0.00    -0.246 OA
BRANCH   6   8
ATOM      8  C   UNL A   1      33.979  34.796  32.685  1.00  0.00     0.060 A 
ATOM      9  C   UNL A   1      34.018  33.445  33.037  1.00  0.00     0.016 A 
ATOM     10  C   UNL A   1      35.207  35.479  32.593  1.00  0.00     0.016 A 
ATOM     11  C   UNL A   1      35.214  32.799  33.322  1.00  0.00     0.010 A 
ATOM     12  C   UNL A   1      36.419  34.832  32.850  1.00  0.00     0.010 A 
ATOM     13  C   UNL A   1      36.420  33.487  33.228  1.00  0.00    -0.014 A 
BRANCH  13  14
ATOM     14  C   UNL A   1      37.651  32.779  33.615  1.00  0.00     0.031 A 
ATOM     15  C   UNL A   1      38.274  31.839  32.632  1.00  0.00     0.074 A 
ATOM     16  C   UNL A   1      38.257  33.090  34.774  1.00  0.00     0.049 A 
ATOM     17  N   UNL A   1      39.366  31.132  32.745  1.00  0.00    -0.248 NA
ATOM     18  C   UNL A   1      37.585  31.690  31.339  1.00  0.00     0.031 C 
ATOM     19  C   UNL A   1      37.777  34.086  35.736  1.00  0.00     0.029 A 
ATOM     20  N   UNL A   1      39.425  32.632  35.320  1.00  0.00    -0.354 N 
ATOM     21  C   UNL A   1      39.487  30.443  31.545  1.00  0.00     0.074 A 
ATOM     22  C   UNL A   1      38.357  30.810  30.722  1.00  0.00     0.031 C 
ATOM     23  C   UNL A   1      38.661  34.183  36.743  1.00  0.00     0.029 A 
ATOM     24  C   UNL A   1      39.734  33.220  36.523  1.00  0.00     0.049 A 
ATOM     25  H   UNL A   1      39.989  31.947  34.894  1.00  0.00     0.167 HD
ATOM     26  C   UNL A   1      40.455  29.574  31.173  1.00  0.00     0.031 A 
ATOM     27  C   UNL A   1      40.763  32.984  37.357  1.00  0.00     0.031 A 
ATOM     28  C   UNL A   1      41.554  29.204  32.020  1.00  0.00     0.049 A 
ATOM     29  C   UNL A   1      41.768  31.938  36.965  1.00  0.00     0.074 A 
ATOM     30  C   UNL A   1      42.553  28.278  31.790  1.00  0.00     0.029 A 
ATOM     31  N   UNL A   1      41.789  29.751  33.275  1.00  0.00    -0.354 N 
ATOM     32  N   UNL A   1      41.844  31.243  35.853  1.00  0.00    -0.248 NA
ATOM     33  C   UNL A   1      42.820  31.631  37.942  1.00  0.00     0.031 C 
ATOM     34  C   UNL A   1      43.370  28.233  32.926  1.00  0.00     0.029 A 
ATOM     35  C   UNL A   1      42.908  29.168  33.841  1.00  0.00     0.049 A 
ATOM     36  H   UNL A   1      41.242  30.450  33.698  1.00  0.00     0.167 HD
ATOM     37  C   UNL A   1      42.955  30.424  35.991  1.00  0.00     0.074 A 
ATOM     38  C   UNL A   1      43.536  30.727  37.287  1.00  0.00     0.031 C 
ATOM     39  C   UNL A   1      43.450  29.497  35.135  1.00  0.00     0.031 A 
BRANCH  26  40
ATOM     40  C   UNL A   1      40.298  28.923  29.830  1.00  0.00    -0.014 A 
ATOM     41  C   UNL A   1      40.868  29.478  28.674  1.00  0.00     0.009 A 
ATOM     42  C   UNL A   1      39.527  27.756  29.716  1.00  0.00     0.009 A 
ATOM     43  C   UNL A   1      40.634  28.899  27.424  1.00  0.00     0.001 A 
ATOM     44  C   UNL A   1      39.315  27.167  28.469  1.00  0.00     0.001 A 
ATOM     45  C   UNL A   1      39.858  27.745  27.323  1.00  0.00     0.000 A 
ENDBRANCH  26  40
BRANCH  27  46
ATOM     46  C   UNL A   1      40.862  33.707  38.653  1.00  0.00    -0.014 A 
ATOM     47  C   UNL A   1      41.581  34.906  38.761  1.00  0.00     0.009 A 
ATOM     48  C   UNL A   1      40.237  33.190  39.801  1.00  0.00     0.009 A 
ATOM     49  C   UNL A   1      41.688  35.561  39.992  1.00  0.00     0.001 A 
ATOM     50  C   UNL A   1      40.319  33.862  41.023  1.00  0.00     0.001 A 
ATOM     51  C   UNL A   1      41.053  35.042  41.120  1.00  0.00     0.000 A 
ENDBRANCH  27  46
BRANCH  39  52
ATOM     52  C   UNL A   1      44.687  28.769  35.569  1.00  0.00    -0.014 A 
ATOM     53  C   UNL A   1      45.946  29.385  35.511  1.00  0.00     0.009 A 
ATOM     54  C   UNL A   1      44.581  27.469  36.087  1.00  0.00     0.009 A 
ATOM     55  C   UNL A   1      47.083  28.700  35.940  1.00  0.00     0.001 A 
ATOM     56  C   UNL A   1      45.716  26.797  36.539  1.00  0.00     0.001 A 
ATOM     57  C   UNL A   1      46.966  27.410  36.458  1.00  0.00     0.000 A 
ENDBRANCH  39  52
ENDBRANCH  13  14
ENDBRANCH   6   8
ENDBRANCH   5   6
ENDBRANCH   4   5
ENDBRANCH   3   4
ENDBRANCH   2   3
ENDBRANCH   1   2
BRANCH   1  58
ATOM     58  C   UNL A   1      35.009  33.487  28.006  1.00  0.00     0.261 C 
BRANCH  58  59
ATOM     59  O   UNL A   1      34.201  32.374  28.417  1.00  0.00    -0.459 OA
BRANCH  59  60
ATOM     60  C   UNL A   1      33.145  32.087  27.606  1.00  0.00     0.357 C 
ATOM     61  O   UNL A   1      32.242  32.838  27.280  1.00  0.00    -0.244 OA
BRANCH  60  62
ATOM     62  C   UNL A   1      33.411  30.738  27.036  1.00  0.00     0.149 A 
ATOM     63  C   UNL A   1      32.409  30.072  26.343  1.00  0.00     0.051 A 
ATOM     64  N   UNL A   1      34.608  30.179  27.355  1.00  0.00    -0.249 NA
ATOM     65  C   UNL A   1      32.617  28.743  26.006  1.00  0.00     0.012 A 
ATOM     66  C   UNL A   1      34.793  28.896  26.997  1.00  0.00     0.113 A 
ATOM     67  C   UNL A   1      33.836  28.146  26.340  1.00  0.00     0.035 A 
BRANCH  65  68
ATOM     68  S   UNL A   1      31.437  27.726  25.149  1.00  0.00    -0.116 SA
BRANCH  68  69
ATOM     69  C   UNL A   1      30.871  28.738  23.758  1.00  0.00     0.175 C 
BRANCH  69  70
ATOM     70  C   UNL A   1      29.466  28.506  23.216  1.00  0.00     0.233 C 
ATOM     71  O   UNL A   1      28.876  27.464  23.525  1.00  0.00    -0.274 OA
ATOM     72  N   UNL A   1      28.788  29.538  22.598  1.00  0.00    -0.337 N 
ATOM     73  C   UNL A   1      29.349  30.643  21.827  1.00  0.00     0.148 C 
ATOM     74  C   UNL A   1      27.373  29.745  22.916  1.00  0.00     0.148 C 
ATOM     75  C   UNL A   1      29.190  31.945  22.607  1.00  0.00     0.181 C 
ATOM     76  C   UNL A   1      27.242  31.080  23.674  1.00  0.00     0.181 C 
ATOM     77  O   UNL A   1      27.805  32.174  22.923  1.00  0.00    -0.378 OA
ENDBRANCH  69  70
ENDBRANCH  68  69
ENDBRANCH  65  68
ENDBRANCH  60  62
ENDBRANCH  59  60
ENDBRANCH  58  59
ENDBRANCH   1  58
TORSDOF 17
ENDMDL
