MODEL 1
REMARK VINA RESULT:     -11.4      0.000      0.000
REMARK SMILES CC(C)c1cc(N2CCC(C(=O)OCCOCCOC(=O)c3ccc(-c4c5nc(c(-c6ccccc6)c6ccc([nH]6)c(-c6ccccc6)c6nc(c(-c7ccccc7)c7ccc4[nH]7)C=C6)C=C5)cc3)CC2)nc(-c2ccc(F)cc2)n1
REMARK SMILES IDX 16 1 15 2 14 3 13 4 11 5 12 6 10 7 7 8 8 9 71 10 9 11 70 12
REMARK SMILES IDX 6 13 4 14 5 15 81 16 73 17 72 18 2 19 1 20 3 21 74 22 75 23
REMARK SMILES IDX 80 24 76 25 79 26 77 27 78 28 17 29 18 30 19 31 20 32 21 33
REMARK SMILES IDX 22 34 23 35 69 36 24 37 68 38 25 39 26 40 27 41 62 42 28 43
REMARK SMILES IDX 67 44 61 45 63 46 29 47 66 48 60 49 59 50 30 52 52 53 37 54
REMARK SMILES IDX 51 55 38 56 41 57 50 58 64 59 39 60 40 61 49 63 65 64 42 65
REMARK SMILES IDX 31 66 32 67 36 68 33 69 35 70 34 71 53 72 54 73 58 74 55 75
REMARK SMILES IDX 57 76 56 77 43 78 44 79 48 80 45 81 47 82 46 83
REMARK H PARENT 63 51 41 62
REMARK Flexibility Score: inf
ROOT
ATOM      1  O   UNL A   1      33.166  34.652  31.361  1.00  0.00    -0.374 OA
ENDROOT
BRANCH   1   2
ATOM      2  C   UNL A   1      33.532  35.524  30.289  1.00  0.00     0.202 C 
BRANCH   2   3
ATOM      3  C   UNL A   1      34.052  34.839  29.021  1.00  0.00     0.261 C 
BRANCH   3   4
ATOM      4  O   UNL A   1      34.363  33.459  29.284  1.00  0.00    -0.463 OA
BRANCH   4   5
ATOM      5  C   UNL A   1      34.835  32.735  28.238  1.00  0.00     0.309 C 
ATOM      6  O   UNL A   1      35.692  33.115  27.448  1.00  0.00    -0.252 OA
BRANCH   5   7
ATOM      7  C   UNL A   1      34.176  31.376  28.119  1.00  0.00     0.103 C 
ATOM      8  N   UNL A   1      33.373  29.038  26.739  1.00  0.00    -0.356 N 
ATOM      9  C   UNL A   1      32.325  29.941  27.181  1.00  0.00     0.119 C 
ATOM     10  C   UNL A   1      34.608  28.972  27.494  1.00  0.00     0.119 C 
ATOM     11  C   UNL A   1      32.887  31.352  27.282  1.00  0.00     0.037 C 
ATOM     12  C   UNL A   1      35.201  30.377  27.577  1.00  0.00     0.037 C 
BRANCH   8  13
ATOM     13  C   UNL A   1      33.019  28.072  25.829  1.00  0.00     0.132 A 
ATOM     14  C   UNL A   1      32.100  27.360  23.775  1.00  0.00     0.049 A 
ATOM     15  C   UNL A   1      32.355  28.390  24.661  1.00  0.00     0.071 A 
ATOM     16  N   UNL A   1      32.450  26.087  24.040  1.00  0.00    -0.233 NA
ATOM     17  C   UNL A   1      33.049  25.865  25.221  1.00  0.00     0.161 A 
ATOM     18  N   UNL A   1      33.370  26.810  26.115  1.00  0.00    -0.211 NA
BRANCH  14  19
ATOM     19  C   UNL A   1      31.424  27.644  22.449  1.00  0.00     0.032 C 
ATOM     20  C   UNL A   1      31.489  26.413  21.545  1.00  0.00     0.014 C 
ATOM     21  C   UNL A   1      29.978  28.094  22.662  1.00  0.00     0.014 C 
ENDBRANCH  14  19
BRANCH  17  22
ATOM     22  C   UNL A   1      33.321  24.473  25.590  1.00  0.00     0.019 A 
ATOM     23  C   UNL A   1      34.501  24.116  26.267  1.00  0.00     0.015 A 
ATOM     24  C   UNL A   1      32.411  23.452  25.253  1.00  0.00     0.015 A 
ATOM     25  C   UNL A   1      34.762  22.783  26.596  1.00  0.00     0.040 A 
ATOM     26  C   UNL A   1      32.679  22.117  25.565  1.00  0.00     0.040 A 
ATOM     27  C   UNL A   1      33.852  21.797  26.236  1.00  0.00     0.123 A 
ATOM     28  F   UNL A   1      34.111  20.518  26.538  1.00  0.00    -0.207 F 
ENDBRANCH  17  22
ENDBRANCH   8  13
ENDBRANCH   5   7
ENDBRANCH   4   5
ENDBRANCH   3   4
ENDBRANCH   2   3
ENDBRANCH   1   2
BRANCH   1  29
ATOM     29  C   UNL A   1      34.005  34.655  32.515  1.00  0.00     0.202 C 
BRANCH  29  30
ATOM     30  C   UNL A   1      34.129  33.321  33.263  1.00  0.00     0.261 C 
BRANCH  30  31
ATOM     31  O   UNL A   1      34.982  32.382  32.584  1.00  0.00    -0.460 OA
BRANCH  31  32
ATOM     32  C   UNL A   1      36.196  32.215  33.156  1.00  0.00     0.338 C 
ATOM     33  O   UNL A   1      36.513  32.474  34.312  1.00  0.00    -0.246 OA
BRANCH  32  34
ATOM     34  C   UNL A   1      37.114  31.507  32.246  1.00  0.00     0.060 A 
ATOM     35  C   UNL A   1      38.083  30.687  32.834  1.00  0.00     0.016 A 
ATOM     36  C   UNL A   1      37.101  31.710  30.863  1.00  0.00     0.016 A 
ATOM     37  C   UNL A   1      39.078  30.110  32.049  1.00  0.00     0.010 A 
ATOM     38  C   UNL A   1      38.108  31.132  30.076  1.00  0.00     0.010 A 
ATOM     39  C   UNL A   1      39.122  30.360  30.670  1.00  0.00    -0.014 A 
BRANCH  39  40
ATOM     40  C   UNL A   1      40.307  29.905  29.901  1.00  0.00     0.031 A 
ATOM     41  C   UNL A   1      40.279  28.560  29.224  1.00  0.00     0.074 A 
ATOM     42  C   UNL A   1      41.364  30.718  29.729  1.00  0.00     0.049 A 
ATOM     43  N   UNL A   1      41.164  28.015  28.428  1.00  0.00    -0.248 NA
ATOM     44  C   UNL A   1      39.092  27.724  29.466  1.00  0.00     0.031 C 
ATOM     45  C   UNL A   1      41.502  32.058  30.298  1.00  0.00     0.029 A 
ATOM     46  N   UNL A   1      42.518  30.538  29.008  1.00  0.00    -0.354 N 
ATOM     47  C   UNL A   1      40.640  26.781  28.066  1.00  0.00     0.074 A 
ATOM     48  C   UNL A   1      39.376  26.640  28.757  1.00  0.00     0.031 C 
ATOM     49  C   UNL A   1      42.672  32.584  29.895  1.00  0.00     0.029 A 
ATOM     50  C   UNL A   1      43.372  31.613  29.057  1.00  0.00     0.049 A 
ATOM     51  H   UNL A   1      42.715  29.716  28.503  1.00  0.00     0.167 HD
ATOM     52  C   UNL A   1      41.154  25.852  27.226  1.00  0.00     0.031 A 
ATOM     53  C   UNL A   1      44.581  31.791  28.494  1.00  0.00     0.031 A 
ATOM     54  C   UNL A   1      42.418  25.973  26.549  1.00  0.00     0.049 A 
ATOM     55  C   UNL A   1      45.164  30.709  27.624  1.00  0.00     0.074 A 
ATOM     56  C   UNL A   1      43.020  25.081  25.678  1.00  0.00     0.029 A 
ATOM     57  N   UNL A   1      43.279  27.052  26.674  1.00  0.00    -0.354 N 
ATOM     58  N   UNL A   1      44.639  29.563  27.267  1.00  0.00    -0.248 NA
ATOM     59  C   UNL A   1      46.503  30.958  27.069  1.00  0.00     0.031 C 
ATOM     60  C   UNL A   1      44.267  25.600  25.310  1.00  0.00     0.029 A 
ATOM     61  C   UNL A   1      44.417  26.838  25.914  1.00  0.00     0.049 A 
ATOM     62  H   UNL A   1      43.107  27.851  27.222  1.00  0.00     0.167 HD
ATOM     63  C   UNL A   1      45.574  28.964  26.431  1.00  0.00     0.074 A 
ATOM     64  C   UNL A   1      46.686  29.885  26.315  1.00  0.00     0.031 C 
ATOM     65  C   UNL A   1      45.518  27.758  25.814  1.00  0.00     0.031 A 
BRANCH  52  66
ATOM     66  C   UNL A   1      40.352  24.602  27.001  1.00  0.00    -0.014 A 
ATOM     67  C   UNL A   1      39.114  24.648  26.341  1.00  0.00     0.009 A 
ATOM     68  C   UNL A   1      40.862  23.360  27.408  1.00  0.00     0.009 A 
ATOM     69  C   UNL A   1      38.393  23.473  26.112  1.00  0.00     0.001 A 
ATOM     70  C   UNL A   1      40.149  22.186  27.157  1.00  0.00     0.001 A 
ATOM     71  C   UNL A   1      38.912  22.245  26.515  1.00  0.00     0.000 A 
ENDBRANCH  52  66
BRANCH  53  72
ATOM     72  C   UNL A   1      45.345  33.041  28.741  1.00  0.00    -0.014 A 
ATOM     73  C   UNL A   1      45.252  34.127  27.857  1.00  0.00     0.009 A 
ATOM     74  C   UNL A   1      46.209  33.135  29.844  1.00  0.00     0.009 A 
ATOM     75  C   UNL A   1      46.033  35.268  28.055  1.00  0.00     0.001 A 
ATOM     76  C   UNL A   1      46.967  34.287  30.055  1.00  0.00     0.001 A 
ATOM     77  C   UNL A   1      46.887  35.349  29.154  1.00  0.00     0.000 A 
ENDBRANCH  53  72
BRANCH  65  78
ATOM     78  C   UNL A   1      46.682  27.382  24.942  1.00  0.00    -0.014 A 
ATOM     79  C   UNL A   1      46.879  27.988  23.690  1.00  0.00     0.009 A 
ATOM     80  C   UNL A   1      47.604  26.421  25.385  1.00  0.00     0.009 A 
ATOM     81  C   UNL A   1      47.952  27.606  22.882  1.00  0.00     0.001 A 
ATOM     82  C   UNL A   1      48.691  26.062  24.586  1.00  0.00     0.001 A 
ATOM     83  C   UNL A   1      48.858  26.646  23.332  1.00  0.00     0.000 A 
ENDBRANCH  65  78
ENDBRANCH  39  40
ENDBRANCH  32  34
ENDBRANCH  31  32
ENDBRANCH  30  31
ENDBRANCH  29  30
ENDBRANCH   1  29
TORSDOF 17
ENDMDL
MODEL 2
REMARK VINA RESULT:     -11.0      4.843      8.679
REMARK SMILES CC(C)c1cc(N2CCC(C(=O)OCCOCCOC(=O)c3ccc(-c4c5nc(c(-c6ccccc6)c6ccc([nH]6)c(-c6ccccc6)c6nc(c(-c7ccccc7)c7ccc4[nH]7)C=C6)C=C5)cc3)CC2)nc(-c2ccc(F)cc2)n1
REMARK SMILES IDX 16 1 15 2 14 3 13 4 11 5 12 6 10 7 7 8 8 9 71 10 9 11 70 12
REMARK SMILES IDX 6 13 4 14 5 15 81 16 73 17 72 18 2 19 1 20 3 21 74 22 75 23
REMARK SMILES IDX 80 24 76 25 79 26 77 27 78 28 17 29 18 30 19 31 20 32 21 33
REMARK SMILES IDX 22 34 23 35 69 36 24 37 68 38 25 39 26 40 27 41 62 42 28 43
REMARK SMILES IDX 67 44 61 45 63 46 29 47 66 48 60 49 59 50 30 52 52 53 37 54
REMARK SMILES IDX 51 55 38 56 41 57 50 58 64 59 39 60 40 61 49 63 65 64 42 65
REMARK SMILES IDX 31 66 32 67 36 68 33 69 35 70 34 71 53 72 54 73 58 74 55 75
REMARK SMILES IDX 57 76 56 77 43 78 44 79 48 80 45 81 47 82 46 83
REMARK H PARENT 63 51 41 62
REMARK Flexibility Score: inf
ROOT
ATOM      1  O   UNL A   1      32.567  35.942  31.963  1.00  0.00    -0.374 OA
ENDROOT
BRANCH   1   2
ATOM      2  C   UNL A   1      33.220  34.872  32.650  1.00  0.00     0.202 C 
BRANCH   2   3
ATOM      3  C   UNL A   1      34.608  34.492  32.124  1.00  0.00     0.261 C 
BRANCH   3   4
ATOM      4  O   UNL A   1      35.233  33.532  32.995  1.00  0.00    -0.463 OA
BRANCH   4   5
ATOM      5  C   UNL A   1      36.100  34.025  33.915  1.00  0.00     0.309 C 
ATOM      6  O   UNL A   1      36.341  35.214  34.089  1.00  0.00    -0.252 OA
BRANCH   5   7
ATOM      7  C   UNL A   1      36.779  32.938  34.723  1.00  0.00     0.103 C 
ATOM      8  N   UNL A   1      39.015  31.543  35.758  1.00  0.00    -0.356 N 
ATOM      9  C   UNL A   1      38.190  30.848  34.786  1.00  0.00     0.119 C 
ATOM     10  C   UNL A   1      38.405  32.544  36.610  1.00  0.00     0.119 C 
ATOM     11  C   UNL A   1      37.501  31.867  33.890  1.00  0.00     0.037 C 
ATOM     12  C   UNL A   1      37.736  33.592  35.724  1.00  0.00     0.037 C 
BRANCH   8  13
ATOM     13  C   UNL A   1      40.244  30.996  36.036  1.00  0.00     0.132 A 
ATOM     14  C   UNL A   1      42.467  31.119  36.818  1.00  0.00     0.049 A 
ATOM     15  C   UNL A   1      41.288  31.768  36.504  1.00  0.00     0.071 A 
ATOM     16  N   UNL A   1      42.617  29.791  36.652  1.00  0.00    -0.233 NA
ATOM     17  C   UNL A   1      41.563  29.128  36.148  1.00  0.00     0.161 A 
ATOM     18  N   UNL A   1      40.375  29.674  35.856  1.00  0.00    -0.211 NA
BRANCH  14  19
ATOM     19  C   UNL A   1      43.637  31.894  37.388  1.00  0.00     0.032 C 
ATOM     20  C   UNL A   1      43.491  33.383  37.077  1.00  0.00     0.014 C 
ATOM     21  C   UNL A   1      43.765  31.657  38.893  1.00  0.00     0.014 C 
ENDBRANCH  14  19
BRANCH  17  22
ATOM     22  C   UNL A   1      41.746  27.708  35.834  1.00  0.00     0.019 A 
ATOM     23  C   UNL A   1      41.370  26.708  36.749  1.00  0.00     0.015 A 
ATOM     24  C   UNL A   1      42.325  27.312  34.613  1.00  0.00     0.015 A 
ATOM     25  C   UNL A   1      41.566  25.356  36.451  1.00  0.00     0.040 A 
ATOM     26  C   UNL A   1      42.539  25.963  34.323  1.00  0.00     0.040 A 
ATOM     27  C   UNL A   1      42.155  24.998  35.245  1.00  0.00     0.123 A 
ATOM     28  F   UNL A   1      42.357  23.703  34.968  1.00  0.00    -0.207 F 
ENDBRANCH  17  22
ENDBRANCH   8  13
ENDBRANCH   5   7
ENDBRANCH   4   5
ENDBRANCH   3   4
ENDBRANCH   2   3
ENDBRANCH   1   2
BRANCH   1  29
ATOM     29  C   UNL A   1      33.305  36.598  30.933  1.00  0.00     0.202 C 
BRANCH  29  30
ATOM     30  C   UNL A   1      33.018  36.136  29.499  1.00  0.00     0.261 C 
BRANCH  30  31
ATOM     31  O   UNL A   1      32.525  34.785  29.441  1.00  0.00    -0.460 OA
BRANCH  31  32
ATOM     32  C   UNL A   1      32.901  34.100  28.336  1.00  0.00     0.338 C 
ATOM     33  O   UNL A   1      32.339  34.086  27.247  1.00  0.00    -0.246 OA
BRANCH  32  34
ATOM     34  C   UNL A   1      34.212  33.457  28.536  1.00  0.00     0.060 A 
ATOM     35  C   UNL A   1      34.247  32.336  29.372  1.00  0.00     0.016 A 
ATOM     36  C   UNL A   1      35.394  33.986  28.009  1.00  0.00     0.016 A 
ATOM     37  C   UNL A   1      35.469  31.771  29.730  1.00  0.00     0.010 A 
ATOM     38  C   UNL A   1      36.622  33.418  28.375  1.00  0.00     0.010 A 
ATOM     39  C   UNL A   1      36.667  32.331  29.267  1.00  0.00    -0.014 A 
BRANCH  39  40
ATOM     40  C   UNL A   1      37.948  31.838  29.830  1.00  0.00     0.031 A 
ATOM     41  C   UNL A   1      38.492  30.507  29.382  1.00  0.00     0.074 A 
ATOM     42  C   UNL A   1      38.670  32.608  30.665  1.00  0.00     0.049 A 
ATOM     43  N   UNL A   1      39.634  29.938  29.675  1.00  0.00    -0.248 NA
ATOM     44  C   UNL A   1      37.642  29.718  28.476  1.00  0.00     0.031 C 
ATOM     45  C   UNL A   1      38.277  33.932  31.146  1.00  0.00     0.029 A 
ATOM     46  N   UNL A   1      39.897  32.390  31.240  1.00  0.00    -0.354 N 
ATOM     47  C   UNL A   1      39.645  28.734  28.983  1.00  0.00     0.074 A 
ATOM     48  C   UNL A   1      38.382  28.636  28.284  1.00  0.00     0.031 C 
ATOM     49  C   UNL A   1      39.250  34.414  31.938  1.00  0.00     0.029 A 
ATOM     50  C   UNL A   1      40.324  33.427  32.034  1.00  0.00     0.049 A 
ATOM     51  H   UNL A   1      40.420  31.569  31.097  1.00  0.00     0.167 HD
ATOM     52  C   UNL A   1      40.622  27.797  28.923  1.00  0.00     0.031 A 
ATOM     53  C   UNL A   1      41.451  33.562  32.757  1.00  0.00     0.031 A 
ATOM     54  C   UNL A   1      41.873  27.875  29.629  1.00  0.00     0.049 A 
ATOM     55  C   UNL A   1      42.487  32.471  32.731  1.00  0.00     0.074 A 
ATOM     56  C   UNL A   1      42.923  26.972  29.627  1.00  0.00     0.029 A 
ATOM     57  N   UNL A   1      42.240  28.914  30.470  1.00  0.00    -0.354 N 
ATOM     58  N   UNL A   1      42.496  31.354  32.046  1.00  0.00    -0.248 NA
ATOM     59  C   UNL A   1      43.678  32.671  33.572  1.00  0.00     0.031 C 
ATOM     60  C   UNL A   1      43.908  27.443  30.503  1.00  0.00     0.029 A 
ATOM     61  C   UNL A   1      43.491  28.663  31.009  1.00  0.00     0.049 A 
ATOM     62  H   UNL A   1      41.693  29.710  30.656  1.00  0.00     0.167 HD
ATOM     63  C   UNL A   1      43.698  30.729  32.357  1.00  0.00     0.074 A 
ATOM     64  C   UNL A   1      44.402  31.603  33.272  1.00  0.00     0.031 C 
ATOM     65  C   UNL A   1      44.177  29.537  31.924  1.00  0.00     0.031 A 
BRANCH  52  66
ATOM     66  C   UNL A   1      40.368  26.587  28.071  1.00  0.00    -0.014 A 
ATOM     67  C   UNL A   1      40.851  26.517  26.754  1.00  0.00     0.009 A 
ATOM     68  C   UNL A   1      39.683  25.484  28.605  1.00  0.00     0.009 A 
ATOM     69  C   UNL A   1      40.633  25.372  25.983  1.00  0.00     0.001 A 
ATOM     70  C   UNL A   1      39.488  24.334  27.839  1.00  0.00     0.001 A 
ATOM     71  C   UNL A   1      39.958  24.281  26.527  1.00  0.00     0.000 A 
ENDBRANCH  52  66
BRANCH  53  72
ATOM     72  C   UNL A   1      41.665  34.774  33.589  1.00  0.00    -0.014 A 
ATOM     73  C   UNL A   1      42.588  35.758  33.202  1.00  0.00     0.009 A 
ATOM     74  C   UNL A   1      40.976  34.929  34.803  1.00  0.00     0.009 A 
ATOM     75  C   UNL A   1      42.839  36.856  34.030  1.00  0.00     0.001 A 
ATOM     76  C   UNL A   1      41.209  36.040  35.614  1.00  0.00     0.001 A 
ATOM     77  C   UNL A   1      42.148  36.998  35.232  1.00  0.00     0.000 A 
ENDBRANCH  53  72
BRANCH  65  78
ATOM     78  C   UNL A   1      45.535  29.126  32.418  1.00  0.00    -0.014 A 
ATOM     79  C   UNL A   1      46.701  29.490  31.727  1.00  0.00     0.009 A 
ATOM     80  C   UNL A   1      45.650  28.378  33.600  1.00  0.00     0.009 A 
ATOM     81  C   UNL A   1      47.953  29.076  32.188  1.00  0.00     0.001 A 
ATOM     82  C   UNL A   1      46.904  27.989  34.073  1.00  0.00     0.001 A 
ATOM     83  C   UNL A   1      48.053  28.329  33.361  1.00  0.00     0.000 A 
ENDBRANCH  65  78
ENDBRANCH  39  40
ENDBRANCH  32  34
ENDBRANCH  31  32
ENDBRANCH  30  31
ENDBRANCH  29  30
ENDBRANCH   1  29
TORSDOF 17
ENDMDL
MODEL 3
REMARK VINA RESULT:     -10.8      4.833     10.071
REMARK SMILES CC(C)c1cc(N2CCC(C(=O)OCCOCCOC(=O)c3ccc(-c4c5nc(c(-c6ccccc6)c6ccc([nH]6)c(-c6ccccc6)c6nc(c(-c7ccccc7)c7ccc4[nH]7)C=C6)C=C5)cc3)CC2)nc(-c2ccc(F)cc2)n1
REMARK SMILES IDX 16 1 15 2 14 3 13 4 11 5 12 6 10 7 7 8 8 9 71 10 9 11 70 12
REMARK SMILES IDX 6 13 4 14 5 15 81 16 73 17 72 18 2 19 1 20 3 21 74 22 75 23
REMARK SMILES IDX 80 24 76 25 79 26 77 27 78 28 17 29 18 30 19 31 20 32 21 33
REMARK SMILES IDX 22 34 23 35 69 36 24 37 68 38 25 39 26 40 27 41 62 42 28 43
REMARK SMILES IDX 67 44 61 45 63 46 29 47 66 48 60 49 59 50 30 52 52 53 37 54
REMARK SMILES IDX 51 55 38 56 41 57 50 58 64 59 39 60 40 61 49 63 65 64 42 65
REMARK SMILES IDX 31 66 32 67 36 68 33 69 35 70 34 71 53 72 54 73 58 74 55 75
REMARK SMILES IDX 57 76 56 77 43 78 44 79 48 80 45 81 47 82 46 83
REMARK H PARENT 63 51 41 62
REMARK Flexibility Score: inf
ROOT
ATOM      1  O   UNL A   1      36.506  23.091  24.788  1.00  0.00    -0.374 OA
ENDROOT
BRANCH   1   2
ATOM      2  C   UNL A   1      36.066  21.807  24.338  1.00  0.00     0.202 C 
BRANCH   2   3
ATOM      3  C   UNL A   1      34.829  21.243  25.042  1.00  0.00     0.261 C 
BRANCH   3   4
ATOM      4  O   UNL A   1      33.663  21.395  24.212  1.00  0.00    -0.463 OA
BRANCH   4   5
ATOM      5  C   UNL A   1      32.469  21.099  24.786  1.00  0.00     0.309 C 
ATOM      6  O   UNL A   1      32.160  20.006  25.246  1.00  0.00    -0.252 OA
BRANCH   5   7
ATOM      7  C   UNL A   1      31.514  22.276  24.796  1.00  0.00     0.103 C 
ATOM      8  N   UNL A   1      30.828  25.011  24.548  1.00  0.00    -0.356 N 
ATOM      9  C   UNL A   1      30.731  24.420  25.871  1.00  0.00     0.119 C 
ATOM     10  C   UNL A   1      30.631  24.170  23.385  1.00  0.00     0.119 C 
ATOM     11  C   UNL A   1      31.700  23.250  25.970  1.00  0.00     0.037 C 
ATOM     12  C   UNL A   1      31.619  23.007  23.455  1.00  0.00     0.037 C 
BRANCH   8  13
ATOM     13  C   UNL A   1      30.785  26.382  24.475  1.00  0.00     0.132 A 
ATOM     14  C   UNL A   1      29.888  28.414  23.676  1.00  0.00     0.049 A 
ATOM     15  C   UNL A   1      29.905  27.033  23.633  1.00  0.00     0.071 A 
ATOM     16  N   UNL A   1      30.713  29.114  24.479  1.00  0.00    -0.233 NA
ATOM     17  C   UNL A   1      31.568  28.398  25.228  1.00  0.00     0.161 A 
ATOM     18  N   UNL A   1      31.620  27.060  25.276  1.00  0.00    -0.211 NA
BRANCH  14  19
ATOM     19  C   UNL A   1      28.910  29.192  22.821  1.00  0.00     0.032 C 
ATOM     20  C   UNL A   1      27.477  28.750  23.114  1.00  0.00     0.014 C 
ATOM     21  C   UNL A   1      29.076  30.697  23.039  1.00  0.00     0.014 C 
ENDBRANCH  14  19
BRANCH  17  22
ATOM     22  C   UNL A   1      32.563  29.137  26.008  1.00  0.00     0.019 A 
ATOM     23  C   UNL A   1      33.806  28.563  26.333  1.00  0.00     0.015 A 
ATOM     24  C   UNL A   1      32.288  30.438  26.473  1.00  0.00     0.015 A 
ATOM     25  C   UNL A   1      34.742  29.268  27.096  1.00  0.00     0.040 A 
ATOM     26  C   UNL A   1      33.215  31.135  27.251  1.00  0.00     0.040 A 
ATOM     27  C   UNL A   1      34.434  30.543  27.553  1.00  0.00     0.123 A 
ATOM     28  F   UNL A   1      35.326  31.210  28.297  1.00  0.00    -0.207 F 
ENDBRANCH  17  22
ENDBRANCH   8  13
ENDBRANCH   5   7
ENDBRANCH   4   5
ENDBRANCH   3   4
ENDBRANCH   2   3
ENDBRANCH   1   2
BRANCH   1  29
ATOM     29  C   UNL A   1      36.997  23.177  26.124  1.00  0.00     0.202 C 
BRANCH  29  30
ATOM     30  C   UNL A   1      38.506  23.414  26.275  1.00  0.00     0.261 C 
BRANCH  30  31
ATOM     31  O   UNL A   1      38.839  24.809  26.386  1.00  0.00    -0.460 OA
BRANCH  31  32
ATOM     32  C   UNL A   1      40.162  25.060  26.516  1.00  0.00     0.338 C 
ATOM     33  O   UNL A   1      41.054  24.759  25.731  1.00  0.00    -0.246 OA
BRANCH  32  34
ATOM     34  C   UNL A   1      40.423  25.913  27.689  1.00  0.00     0.060 A 
ATOM     35  C   UNL A   1      39.514  25.829  28.749  1.00  0.00     0.016 A 
ATOM     36  C   UNL A   1      41.464  26.846  27.720  1.00  0.00     0.016 A 
ATOM     37  C   UNL A   1      39.608  26.714  29.820  1.00  0.00     0.010 A 
ATOM     38  C   UNL A   1      41.553  27.739  28.797  1.00  0.00     0.010 A 
ATOM     39  C   UNL A   1      40.603  27.701  29.834  1.00  0.00    -0.014 A 
BRANCH  39  40
ATOM     40  C   UNL A   1      40.548  28.753  30.879  1.00  0.00     0.031 A 
ATOM     41  C   UNL A   1      39.517  29.846  30.778  1.00  0.00     0.074 A 
ATOM     42  C   UNL A   1      41.350  28.687  31.958  1.00  0.00     0.049 A 
ATOM     43  N   UNL A   1      39.238  30.802  31.629  1.00  0.00    -0.248 NA
ATOM     44  C   UNL A   1      38.685  29.857  29.565  1.00  0.00     0.031 C 
ATOM     45  C   UNL A   1      42.363  27.661  32.197  1.00  0.00     0.029 A 
ATOM     46  N   UNL A   1      41.420  29.495  33.065  1.00  0.00    -0.354 N 
ATOM     47  C   UNL A   1      38.193  31.519  31.061  1.00  0.00     0.074 A 
ATOM     48  C   UNL A   1      37.911  30.913  29.778  1.00  0.00     0.031 C 
ATOM     49  C   UNL A   1      42.950  27.896  33.384  1.00  0.00     0.029 A 
ATOM     50  C   UNL A   1      42.366  29.097  33.978  1.00  0.00     0.049 A 
ATOM     51  H   UNL A   1      40.847  30.286  33.192  1.00  0.00     0.167 HD
ATOM     52  C   UNL A   1      37.519  32.580  31.565  1.00  0.00     0.031 A 
ATOM     53  C   UNL A   1      42.724  29.642  35.156  1.00  0.00     0.031 A 
ATOM     54  C   UNL A   1      37.803  33.203  32.830  1.00  0.00     0.049 A 
ATOM     55  C   UNL A   1      42.007  30.867  35.657  1.00  0.00     0.074 A 
ATOM     56  C   UNL A   1      37.170  34.283  33.422  1.00  0.00     0.029 A 
ATOM     57  N   UNL A   1      38.809  32.805  33.696  1.00  0.00    -0.354 N 
ATOM     58  N   UNL A   1      40.999  31.513  35.123  1.00  0.00    -0.248 NA
ATOM     59  C   UNL A   1      42.472  31.426  36.935  1.00  0.00     0.031 C 
ATOM     60  C   UNL A   1      37.823  34.568  34.627  1.00  0.00     0.029 A 
ATOM     61  C   UNL A   1      38.829  33.633  34.807  1.00  0.00     0.049 A 
ATOM     62  H   UNL A   1      39.419  32.048  33.544  1.00  0.00     0.167 HD
ATOM     63  C   UNL A   1      40.698  32.541  36.008  1.00  0.00     0.074 A 
ATOM     64  C   UNL A   1      41.612  32.417  37.124  1.00  0.00     0.031 C 
ATOM     65  C   UNL A   1      39.748  33.503  35.906  1.00  0.00     0.031 A 
BRANCH  52  66
ATOM     66  C   UNL A   1      36.407  33.152  30.732  1.00  0.00    -0.014 A 
ATOM     67  C   UNL A   1      35.063  32.954  31.087  1.00  0.00     0.009 A 
ATOM     68  C   UNL A   1      36.706  33.940  29.610  1.00  0.00     0.009 A 
ATOM     69  C   UNL A   1      34.040  33.517  30.320  1.00  0.00     0.001 A 
ATOM     70  C   UNL A   1      35.682  34.520  28.859  1.00  0.00     0.001 A 
ATOM     71  C   UNL A   1      34.350  34.303  29.211  1.00  0.00     0.000 A 
ENDBRANCH  52  66
BRANCH  53  72
ATOM     72  C   UNL A   1      43.829  29.047  35.951  1.00  0.00    -0.014 A 
ATOM     73  C   UNL A   1      43.588  27.986  36.837  1.00  0.00     0.009 A 
ATOM     74  C   UNL A   1      45.128  29.573  35.858  1.00  0.00     0.009 A 
ATOM     75  C   UNL A   1      44.618  27.486  37.637  1.00  0.00     0.001 A 
ATOM     76  C   UNL A   1      46.161  29.052  36.638  1.00  0.00     0.001 A 
ATOM     77  C   UNL A   1      45.903  28.016  37.535  1.00  0.00     0.000 A 
ENDBRANCH  53  72
BRANCH  65  78
ATOM     78  C   UNL A   1      39.640  34.479  37.043  1.00  0.00    -0.014 A 
ATOM     79  C   UNL A   1      38.904  34.170  38.199  1.00  0.00     0.009 A 
ATOM     80  C   UNL A   1      40.296  35.717  36.965  1.00  0.00     0.009 A 
ATOM     81  C   UNL A   1      38.793  35.101  39.234  1.00  0.00     0.001 A 
ATOM     82  C   UNL A   1      40.205  36.634  38.014  1.00  0.00     0.001 A 
ATOM     83  C   UNL A   1      39.445  36.330  39.142  1.00  0.00     0.000 A 
ENDBRANCH  65  78
ENDBRANCH  39  40
ENDBRANCH  32  34
ENDBRANCH  31  32
ENDBRANCH  30  31
ENDBRANCH  29  30
ENDBRANCH   1  29
TORSDOF 17
ENDMDL
