MODEL 1
REMARK VINA RESULT:      -9.5      0.000      0.000
REMARK SMILES C/C(=C\CN1CC(=O)N2CCC[C@H]2C1=O)C(=O)OCCOCCOC(=O)c1ccc(-c2c3nc(c(-c4ccccc4)c4ccc([nH]4)c(-c4ccccc4)c4nc(c(-c5ccccc5)c5ccc2[nH]5)C=C4)C=C3)cc1
REMARK SMILES IDX 21 1 20 2 19 3 18 4 16 5 17 6 2 7 1 8 3 9 4 10 5 11 6 12
REMARK SMILES IDX 14 13 7 14 13 15 15 16 8 17 9 18 12 19 10 20 11 21 22 22
REMARK SMILES IDX 23 23 24 24 25 25 26 26 27 27 28 28 74 29 29 30 73 31 30 32
REMARK SMILES IDX 31 33 32 34 67 35 33 36 72 37 66 38 68 39 34 40 71 41 65 42
REMARK SMILES IDX 64 43 35 45 57 46 42 47 56 48 43 49 46 50 55 51 69 52 44 53
REMARK SMILES IDX 45 54 54 56 70 57 47 58 36 59 37 60 41 61 38 62 40 63 39 64
REMARK SMILES IDX 58 65 59 66 63 67 60 68 62 69 61 70 48 71 49 72 53 73 50 74
REMARK SMILES IDX 52 75 51 76
REMARK H PARENT 68 44 46 55
REMARK Flexibility Score: inf
ROOT
ATOM      1  O   UNL A   1      34.564  34.653  27.781  1.00  0.00    -0.374 OA
ENDROOT
BRANCH   1   2
ATOM      2  C   UNL A   1      34.226  35.970  28.218  1.00  0.00     0.202 C 
BRANCH   2   3
ATOM      3  C   UNL A   1      32.904  36.101  28.980  1.00  0.00     0.261 C 
BRANCH   3   4
ATOM      4  O   UNL A   1      32.979  35.441  30.257  1.00  0.00    -0.460 OA
BRANCH   4   5
ATOM      5  C   UNL A   1      33.109  36.269  31.323  1.00  0.00     0.333 C 
ATOM      6  O   UNL A   1      32.764  37.440  31.373  1.00  0.00    -0.247 OA
BRANCH   5   7
ATOM      7  C   UNL A   1      33.611  35.533  32.524  1.00  0.00     0.032 C 
ATOM      8  C   UNL A   1      34.239  36.439  33.541  1.00  0.00     0.052 C 
ATOM      9  C   UNL A   1      33.519  34.189  32.594  1.00  0.00     0.005 C 
BRANCH   9  10
ATOM     10  C   UNL A   1      34.167  33.300  33.614  1.00  0.00     0.148 C 
BRANCH  10  11
ATOM     11  N   UNL A   1      35.513  32.875  33.265  1.00  0.00    -0.328 N 
ATOM     12  C   UNL A   1      35.823  32.311  31.939  1.00  0.00     0.220 C 
ATOM     13  C   UNL A   1      36.570  33.238  34.115  1.00  0.00     0.246 C 
ATOM     14  C   UNL A   1      36.871  33.163  31.217  1.00  0.00     0.242 C 
ATOM     15  C   UNL A   1      37.955  33.173  33.448  1.00  0.00     0.174 C 
ATOM     16  O   UNL A   1      36.420  33.503  35.306  1.00  0.00    -0.272 OA
ATOM     17  O   UNL A   1      36.898  33.308  30.000  1.00  0.00    -0.273 OA
ATOM     18  N   UNL A   1      37.845  33.637  32.067  1.00  0.00    -0.329 N 
ATOM     19  C   UNL A   1      38.993  34.118  34.050  1.00  0.00     0.037 C 
ATOM     20  C   UNL A   1      38.908  34.543  31.693  1.00  0.00     0.120 C 
ATOM     21  C   UNL A   1      39.885  34.466  32.857  1.00  0.00     0.024 C 
ENDBRANCH  10  11
ENDBRANCH   9  10
ENDBRANCH   5   7
ENDBRANCH   4   5
ENDBRANCH   3   4
ENDBRANCH   2   3
ENDBRANCH   1   2
BRANCH   1  22
ATOM     22  C   UNL A   1      33.525  33.675  27.806  1.00  0.00     0.202 C 
BRANCH  22  23
ATOM     23  C   UNL A   1      33.921  32.286  28.316  1.00  0.00     0.261 C 
BRANCH  23  24
ATOM     24  O   UNL A   1      34.150  31.363  27.236  1.00  0.00    -0.460 OA
BRANCH  24  25
ATOM     25  C   UNL A   1      34.322  30.076  27.619  1.00  0.00     0.338 C 
ATOM     26  O   UNL A   1      33.552  29.141  27.443  1.00  0.00    -0.246 OA
BRANCH  25  27
ATOM     27  C   UNL A   1      35.682  29.885  28.155  1.00  0.00     0.060 A 
ATOM     28  C   UNL A   1      36.751  30.021  27.262  1.00  0.00     0.016 A 
ATOM     29  C   UNL A   1      35.909  29.517  29.483  1.00  0.00     0.016 A 
ATOM     30  C   UNL A   1      38.050  29.741  27.679  1.00  0.00     0.010 A 
ATOM     31  C   UNL A   1      37.213  29.231  29.899  1.00  0.00     0.010 A 
ATOM     32  C   UNL A   1      38.285  29.308  28.991  1.00  0.00    -0.014 A 
BRANCH  32  33
ATOM     33  C   UNL A   1      39.630  28.815  29.367  1.00  0.00     0.031 A 
ATOM     34  C   UNL A   1      40.504  29.661  30.251  1.00  0.00     0.074 A 
ATOM     35  C   UNL A   1      40.060  27.612  28.950  1.00  0.00     0.049 A 
ATOM     36  N   UNL A   1      41.710  29.422  30.699  1.00  0.00    -0.248 NA
ATOM     37  C   UNL A   1      39.943  30.949  30.689  1.00  0.00     0.031 C 
ATOM     38  C   UNL A   1      39.297  26.681  28.119  1.00  0.00     0.029 A 
ATOM     39  N   UNL A   1      41.252  26.968  29.170  1.00  0.00    -0.354 N 
ATOM     40  C   UNL A   1      42.055  30.529  31.462  1.00  0.00     0.074 A 
ATOM     41  C   UNL A   1      40.944  31.452  31.395  1.00  0.00     0.031 C 
ATOM     42  C   UNL A   1      40.044  25.587  27.893  1.00  0.00     0.029 A 
ATOM     43  C   UNL A   1      41.344  25.752  28.540  1.00  0.00     0.049 A 
ATOM     44  H   UNL A   1      41.971  27.343  29.728  1.00  0.00     0.167 HD
ATOM     45  C   UNL A   1      43.193  30.756  32.160  1.00  0.00     0.031 A 
ATOM     46  C   UNL A   1      42.368  24.880  28.476  1.00  0.00     0.031 A 
ATOM     47  C   UNL A   1      44.306  29.845  32.218  1.00  0.00     0.049 A 
ATOM     48  C   UNL A   1      43.649  25.184  29.205  1.00  0.00     0.074 A 
ATOM     49  C   UNL A   1      45.491  29.975  32.921  1.00  0.00     0.029 A 
ATOM     50  N   UNL A   1      44.375  28.642  31.535  1.00  0.00    -0.354 N 
ATOM     51  N   UNL A   1      43.947  26.216  29.956  1.00  0.00    -0.248 NA
ATOM     52  C   UNL A   1      44.729  24.196  29.083  1.00  0.00     0.031 C 
ATOM     53  C   UNL A   1      46.301  28.875  32.619  1.00  0.00     0.029 A 
ATOM     54  C   UNL A   1      45.596  28.033  31.773  1.00  0.00     0.049 A 
ATOM     55  H   UNL A   1      43.662  28.274  30.964  1.00  0.00     0.167 HD
ATOM     56  C   UNL A   1      45.240  25.992  30.413  1.00  0.00     0.074 A 
ATOM     57  C   UNL A   1      45.662  24.718  29.868  1.00  0.00     0.031 C 
ATOM     58  C   UNL A   1      46.007  26.769  31.217  1.00  0.00     0.031 A 
BRANCH  45  59
ATOM     59  C   UNL A   1      43.303  32.065  32.890  1.00  0.00    -0.014 A 
ATOM     60  C   UNL A   1      42.861  32.203  34.215  1.00  0.00     0.009 A 
ATOM     61  C   UNL A   1      43.881  33.172  32.247  1.00  0.00     0.009 A 
ATOM     62  C   UNL A   1      42.964  33.433  34.869  1.00  0.00     0.001 A 
ATOM     63  C   UNL A   1      44.005  34.393  32.912  1.00  0.00     0.001 A 
ATOM     64  C   UNL A   1      43.538  34.525  34.219  1.00  0.00     0.000 A 
ENDBRANCH  45  59
BRANCH  46  65
ATOM     65  C   UNL A   1      42.229  23.637  27.676  1.00  0.00    -0.014 A 
ATOM     66  C   UNL A   1      42.617  23.603  26.329  1.00  0.00     0.009 A 
ATOM     67  C   UNL A   1      41.701  22.474  28.261  1.00  0.00     0.009 A 
ATOM     68  C   UNL A   1      42.461  22.435  25.578  1.00  0.00     0.001 A 
ATOM     69  C   UNL A   1      41.571  21.302  27.515  1.00  0.00     0.001 A 
ATOM     70  C   UNL A   1      41.944  21.285  26.172  1.00  0.00     0.000 A 
ENDBRANCH  46  65
BRANCH  58  71
ATOM     71  C   UNL A   1      47.372  26.253  31.576  1.00  0.00    -0.014 A 
ATOM     72  C   UNL A   1      48.469  26.440  30.721  1.00  0.00     0.009 A 
ATOM     73  C   UNL A   1      47.569  25.605  32.805  1.00  0.00     0.009 A 
ATOM     74  C   UNL A   1      49.731  25.958  31.078  1.00  0.00     0.001 A 
ATOM     75  C   UNL A   1      48.837  25.151  33.172  1.00  0.00     0.001 A 
ATOM     76  C   UNL A   1      49.914  25.320  32.304  1.00  0.00     0.000 A 
ENDBRANCH  58  71
ENDBRANCH  32  33
ENDBRANCH  25  27
ENDBRANCH  24  25
ENDBRANCH  23  24
ENDBRANCH  22  23
ENDBRANCH   1  22
TORSDOF 16
ENDMDL
MODEL 2
REMARK VINA RESULT:      -9.4      5.007     11.086
REMARK SMILES C/C(=C\CN1CC(=O)N2CCC[C@H]2C1=O)C(=O)OCCOCCOC(=O)c1ccc(-c2c3nc(c(-c4ccccc4)c4ccc([nH]4)c(-c4ccccc4)c4nc(c(-c5ccccc5)c5ccc2[nH]5)C=C4)C=C3)cc1
REMARK SMILES IDX 21 1 20 2 19 3 18 4 16 5 17 6 2 7 1 8 3 9 4 10 5 11 6 12
REMARK SMILES IDX 14 13 7 14 13 15 15 16 8 17 9 18 12 19 10 20 11 21 22 22
REMARK SMILES IDX 23 23 24 24 25 25 26 26 27 27 28 28 74 29 29 30 73 31 30 32
REMARK SMILES IDX 31 33 32 34 67 35 33 36 72 37 66 38 68 39 34 40 71 41 65 42
REMARK SMILES IDX 64 43 35 45 57 46 42 47 56 48 43 49 46 50 55 51 69 52 44 53
REMARK SMILES IDX 45 54 54 56 70 57 47 58 36 59 37 60 41 61 38 62 40 63 39 64
REMARK SMILES IDX 58 65 59 66 63 67 60 68 62 69 61 70 48 71 49 72 53 73 50 74
REMARK SMILES IDX 52 75 51 76
REMARK H PARENT 68 44 46 55
REMARK Flexibility Score: inf
ROOT
ATOM      1  O   UNL A   1      41.694  20.577  25.642  1.00  0.00    -0.374 OA
ENDROOT
BRANCH   1   2
ATOM      2  C   UNL A   1      40.617  20.741  26.565  1.00  0.00     0.202 C 
BRANCH   2   3
ATOM      3  C   UNL A   1      39.670  21.912  26.282  1.00  0.00     0.261 C 
BRANCH   3   4
ATOM      4  O   UNL A   1      38.418  21.443  25.750  1.00  0.00    -0.460 OA
BRANCH   4   5
ATOM      5  C   UNL A   1      37.548  22.419  25.387  1.00  0.00     0.333 C 
ATOM      6  O   UNL A   1      37.744  23.622  25.459  1.00  0.00    -0.247 OA
BRANCH   5   7
ATOM      7  C   UNL A   1      36.331  21.845  24.735  1.00  0.00     0.032 C 
ATOM      8  C   UNL A   1      35.705  22.784  23.746  1.00  0.00     0.052 C 
ATOM      9  C   UNL A   1      35.874  20.625  25.085  1.00  0.00     0.005 C 
BRANCH   9  10
ATOM     10  C   UNL A   1      34.562  20.015  24.690  1.00  0.00     0.148 C 
BRANCH  10  11
ATOM     11  N   UNL A   1      33.408  20.603  25.352  1.00  0.00    -0.328 N 
ATOM     12  C   UNL A   1      33.363  20.772  26.816  1.00  0.00     0.220 C 
ATOM     13  C   UNL A   1      32.438  21.241  24.562  1.00  0.00     0.246 C 
ATOM     14  C   UNL A   1      33.203  22.248  27.189  1.00  0.00     0.242 C 
ATOM     15  C   UNL A   1      31.544  22.218  25.346  1.00  0.00     0.174 C 
ATOM     16  O   UNL A   1      32.259  20.987  23.374  1.00  0.00    -0.272 OA
ATOM     17  O   UNL A   1      33.689  22.743  28.200  1.00  0.00    -0.273 OA
ATOM     18  N   UNL A   1      32.353  22.920  26.339  1.00  0.00    -0.329 N 
ATOM     19  C   UNL A   1      30.961  23.354  24.507  1.00  0.00     0.037 C 
ATOM     20  C   UNL A   1      32.082  24.340  26.382  1.00  0.00     0.120 C 
ATOM     21  C   UNL A   1      30.848  24.506  25.507  1.00  0.00     0.024 C 
ENDBRANCH  10  11
ENDBRANCH   9  10
ENDBRANCH   5   7
ENDBRANCH   4   5
ENDBRANCH   3   4
ENDBRANCH   2   3
ENDBRANCH   1   2
BRANCH   1  22
ATOM     22  C   UNL A   1      43.007  20.875  26.116  1.00  0.00     0.202 C 
BRANCH  22  23
ATOM     23  C   UNL A   1      43.886  21.710  25.180  1.00  0.00     0.261 C 
BRANCH  23  24
ATOM     24  O   UNL A   1      43.224  22.916  24.756  1.00  0.00    -0.460 OA
BRANCH  24  25
ATOM     25  C   UNL A   1      43.942  24.049  24.937  1.00  0.00     0.338 C 
ATOM     26  O   UNL A   1      44.957  24.387  24.340  1.00  0.00    -0.246 OA
BRANCH  25  27
ATOM     27  C   UNL A   1      43.241  24.951  25.867  1.00  0.00     0.060 A 
ATOM     28  C   UNL A   1      43.807  26.213  26.090  1.00  0.00     0.016 A 
ATOM     29  C   UNL A   1      42.093  24.556  26.558  1.00  0.00     0.016 A 
ATOM     30  C   UNL A   1      43.256  27.067  27.042  1.00  0.00     0.010 A 
ATOM     31  C   UNL A   1      41.545  25.413  27.518  1.00  0.00     0.010 A 
ATOM     32  C   UNL A   1      42.144  26.657  27.789  1.00  0.00    -0.014 A 
BRANCH  32  33
ATOM     33  C   UNL A   1      41.693  27.478  28.937  1.00  0.00     0.031 A 
ATOM     34  C   UNL A   1      42.437  27.390  30.241  1.00  0.00     0.074 A 
ATOM     35  C   UNL A   1      40.649  28.315  28.814  1.00  0.00     0.049 A 
ATOM     36  N   UNL A   1      42.213  28.017  31.367  1.00  0.00    -0.248 NA
ATOM     37  C   UNL A   1      43.587  26.473  30.280  1.00  0.00     0.031 C 
ATOM     38  C   UNL A   1      39.866  28.517  27.595  1.00  0.00     0.029 A 
ATOM     39  N   UNL A   1      40.067  29.151  29.732  1.00  0.00    -0.354 N 
ATOM     40  C   UNL A   1      43.185  27.567  32.250  1.00  0.00     0.074 A 
ATOM     41  C   UNL A   1      43.985  26.594  31.538  1.00  0.00     0.031 C 
ATOM     42  C   UNL A   1      38.900  29.417  27.845  1.00  0.00     0.029 A 
ATOM     43  C   UNL A   1      38.979  29.831  29.244  1.00  0.00     0.049 A 
ATOM     44  H   UNL A   1      40.398  29.254  30.654  1.00  0.00     0.167 HD
ATOM     45  C   UNL A   1      43.398  27.932  33.537  1.00  0.00     0.031 A 
ATOM     46  C   UNL A   1      38.133  30.678  29.860  1.00  0.00     0.031 A 
ATOM     47  C   UNL A   1      42.597  28.890  34.251  1.00  0.00     0.049 A 
ATOM     48  C   UNL A   1      38.349  31.019  31.310  1.00  0.00     0.074 A 
ATOM     49  C   UNL A   1      42.751  29.347  35.549  1.00  0.00     0.029 A 
ATOM     50  N   UNL A   1      41.481  29.528  33.732  1.00  0.00    -0.354 N 
ATOM     51  N   UNL A   1      39.296  30.616  32.121  1.00  0.00    -0.248 NA
ATOM     52  C   UNL A   1      37.380  31.938  31.923  1.00  0.00     0.031 C 
ATOM     53  C   UNL A   1      41.696  30.220  35.833  1.00  0.00     0.029 A 
ATOM     54  C   UNL A   1      40.918  30.350  34.694  1.00  0.00     0.049 A 
ATOM     55  H   UNL A   1      41.140  29.413  32.817  1.00  0.00     0.167 HD
ATOM     56  C   UNL A   1      39.052  31.250  33.334  1.00  0.00     0.074 A 
ATOM     57  C   UNL A   1      37.876  32.075  33.145  1.00  0.00     0.031 C 
ATOM     58  C   UNL A   1      39.742  31.159  34.497  1.00  0.00     0.031 A 
BRANCH  45  59
ATOM     59  C   UNL A   1      44.528  27.260  34.266  1.00  0.00    -0.014 A 
ATOM     60  C   UNL A   1      44.342  26.043  34.939  1.00  0.00     0.009 A 
ATOM     61  C   UNL A   1      45.804  27.845  34.258  1.00  0.00     0.009 A 
ATOM     62  C   UNL A   1      45.403  25.443  35.619  1.00  0.00     0.001 A 
ATOM     63  C   UNL A   1      46.869  27.230  34.917  1.00  0.00     0.001 A 
ATOM     64  C   UNL A   1      46.666  26.034  35.605  1.00  0.00     0.000 A 
ENDBRANCH  45  59
BRANCH  46  65
ATOM     65  C   UNL A   1      36.988  31.253  29.109  1.00  0.00    -0.014 A 
ATOM     66  C   UNL A   1      37.004  32.591  28.692  1.00  0.00     0.009 A 
ATOM     67  C   UNL A   1      35.867  30.461  28.811  1.00  0.00     0.009 A 
ATOM     68  C   UNL A   1      35.912  33.130  28.006  1.00  0.00     0.001 A 
ATOM     69  C   UNL A   1      34.790  30.995  28.103  1.00  0.00     0.001 A 
ATOM     70  C   UNL A   1      34.810  32.332  27.707  1.00  0.00     0.000 A 
ENDBRANCH  46  65
BRANCH  58  71
ATOM     71  C   UNL A   1      39.260  31.992  35.651  1.00  0.00    -0.014 A 
ATOM     72  C   UNL A   1      39.695  33.315  35.827  1.00  0.00     0.009 A 
ATOM     73  C   UNL A   1      38.325  31.458  36.551  1.00  0.00     0.009 A 
ATOM     74  C   UNL A   1      39.228  34.074  36.902  1.00  0.00     0.001 A 
ATOM     75  C   UNL A   1      37.838  32.228  37.608  1.00  0.00     0.001 A 
ATOM     76  C   UNL A   1      38.297  33.532  37.788  1.00  0.00     0.000 A 
ENDBRANCH  58  71
ENDBRANCH  32  33
ENDBRANCH  25  27
ENDBRANCH  24  25
ENDBRANCH  23  24
ENDBRANCH  22  23
ENDBRANCH   1  22
TORSDOF 16
ENDMDL
MODEL 3
REMARK VINA RESULT:      -9.2      0.942      6.000
REMARK SMILES C/C(=C\CN1CC(=O)N2CCC[C@H]2C1=O)C(=O)OCCOCCOC(=O)c1ccc(-c2c3nc(c(-c4ccccc4)c4ccc([nH]4)c(-c4ccccc4)c4nc(c(-c5ccccc5)c5ccc2[nH]5)C=C4)C=C3)cc1
REMARK SMILES IDX 21 1 20 2 19 3 18 4 16 5 17 6 2 7 1 8 3 9 4 10 5 11 6 12
REMARK SMILES IDX 14 13 7 14 13 15 15 16 8 17 9 18 12 19 10 20 11 21 22 22
REMARK SMILES IDX 23 23 24 24 25 25 26 26 27 27 28 28 74 29 29 30 73 31 30 32
REMARK SMILES IDX 31 33 32 34 67 35 33 36 72 37 66 38 68 39 34 40 71 41 65 42
REMARK SMILES IDX 64 43 35 45 57 46 42 47 56 48 43 49 46 50 55 51 69 52 44 53
REMARK SMILES IDX 45 54 54 56 70 57 47 58 36 59 37 60 41 61 38 62 40 63 39 64
REMARK SMILES IDX 58 65 59 66 63 67 60 68 62 69 61 70 48 71 49 72 53 73 50 74
REMARK SMILES IDX 52 75 51 76
REMARK H PARENT 68 44 46 55
REMARK Flexibility Score: inf
ROOT
ATOM      1  O   UNL A   1      34.234  35.635  27.943  1.00  0.00    -0.374 OA
ENDROOT
BRANCH   1   2
ATOM      2  C   UNL A   1      33.803  36.755  28.718  1.00  0.00     0.202 C 
BRANCH   2   3
ATOM      3  C   UNL A   1      32.961  36.424  29.955  1.00  0.00     0.261 C 
BRANCH   3   4
ATOM      4  O   UNL A   1      32.901  37.548  30.851  1.00  0.00    -0.460 OA
BRANCH   4   5
ATOM      5  C   UNL A   1      33.445  37.335  32.076  1.00  0.00     0.333 C 
ATOM      6  O   UNL A   1      33.980  38.175  32.782  1.00  0.00    -0.247 OA
BRANCH   5   7
ATOM      7  C   UNL A   1      33.186  35.941  32.549  1.00  0.00     0.032 C 
ATOM      8  C   UNL A   1      31.741  35.696  32.873  1.00  0.00     0.052 C 
ATOM      9  C   UNL A   1      34.200  35.064  32.692  1.00  0.00     0.005 C 
BRANCH   9  10
ATOM     10  C   UNL A   1      34.135  33.721  33.357  1.00  0.00     0.148 C 
BRANCH  10  11
ATOM     11  N   UNL A   1      35.378  32.968  33.303  1.00  0.00    -0.328 N 
ATOM     12  C   UNL A   1      35.810  32.282  32.072  1.00  0.00     0.220 C 
ATOM     13  C   UNL A   1      36.290  33.108  34.361  1.00  0.00     0.246 C 
ATOM     14  C   UNL A   1      37.161  32.820  31.594  1.00  0.00     0.242 C 
ATOM     15  C   UNL A   1      37.725  32.679  34.005  1.00  0.00     0.174 C 
ATOM     16  O   UNL A   1      35.966  33.459  35.493  1.00  0.00    -0.272 OA
ATOM     17  O   UNL A   1      37.475  32.894  30.411  1.00  0.00    -0.273 OA
ATOM     18  N   UNL A   1      38.022  33.088  32.634  1.00  0.00    -0.329 N 
ATOM     19  C   UNL A   1      38.814  33.376  34.819  1.00  0.00     0.037 C 
ATOM     20  C   UNL A   1      39.329  33.692  32.499  1.00  0.00     0.120 C 
ATOM     21  C   UNL A   1      39.993  33.440  33.846  1.00  0.00     0.024 C 
ENDBRANCH  10  11
ENDBRANCH   9  10
ENDBRANCH   5   7
ENDBRANCH   4   5
ENDBRANCH   3   4
ENDBRANCH   2   3
ENDBRANCH   1   2
BRANCH   1  22
ATOM     22  C   UNL A   1      34.682  34.485  28.659  1.00  0.00     0.202 C 
BRANCH  22  23
ATOM     23  C   UNL A   1      34.490  33.138  27.954  1.00  0.00     0.261 C 
BRANCH  23  24
ATOM     24  O   UNL A   1      34.650  32.031  28.860  1.00  0.00    -0.460 OA
BRANCH  24  25
ATOM     25  C   UNL A   1      34.609  30.811  28.274  1.00  0.00     0.338 C 
ATOM     26  O   UNL A   1      33.693  30.336  27.615  1.00  0.00    -0.246 OA
BRANCH  25  27
ATOM     27  C   UNL A   1      35.921  30.150  28.389  1.00  0.00     0.060 A 
ATOM     28  C   UNL A   1      36.283  29.653  29.648  1.00  0.00     0.016 A 
ATOM     29  C   UNL A   1      36.808  30.071  27.314  1.00  0.00     0.016 A 
ATOM     30  C   UNL A   1      37.554  29.120  29.849  1.00  0.00     0.010 A 
ATOM     31  C   UNL A   1      38.086  29.540  27.519  1.00  0.00     0.010 A 
ATOM     32  C   UNL A   1      38.476  29.095  28.795  1.00  0.00    -0.014 A 
BRANCH  32  33
ATOM     33  C   UNL A   1      39.884  28.722  29.066  1.00  0.00     0.031 A 
ATOM     34  C   UNL A   1      40.373  27.357  28.669  1.00  0.00     0.074 A 
ATOM     35  C   UNL A   1      40.728  29.600  29.633  1.00  0.00     0.049 A 
ATOM     36  N   UNL A   1      41.562  26.828  28.812  1.00  0.00    -0.248 NA
ATOM     37  C   UNL A   1      39.392  26.470  28.023  1.00  0.00     0.031 C 
ATOM     38  C   UNL A   1      40.388  30.965  30.033  1.00  0.00     0.029 A 
ATOM     39  N   UNL A   1      42.051  29.468  29.974  1.00  0.00    -0.354 N 
ATOM     40  C   UNL A   1      41.470  25.546  28.285  1.00  0.00     0.074 A 
ATOM     41  C   UNL A   1      40.104  25.367  27.842  1.00  0.00     0.031 C 
ATOM     42  C   UNL A   1      41.474  31.543  30.573  1.00  0.00     0.029 A 
ATOM     43  C   UNL A   1      42.575  30.583  30.581  1.00  0.00     0.049 A 
ATOM     44  H   UNL A   1      42.574  28.653  29.800  1.00  0.00     0.167 HD
ATOM     45  C   UNL A   1      42.436  24.603  28.174  1.00  0.00     0.031 A 
ATOM     46  C   UNL A   1      43.799  30.797  31.100  1.00  0.00     0.031 A 
ATOM     47  C   UNL A   1      43.792  24.774  28.625  1.00  0.00     0.049 A 
ATOM     48  C   UNL A   1      44.838  29.711  31.025  1.00  0.00     0.074 A 
ATOM     49  C   UNL A   1      44.850  23.887  28.531  1.00  0.00     0.029 A 
ATOM     50  N   UNL A   1      44.272  25.904  29.268  1.00  0.00    -0.354 N 
ATOM     51  N   UNL A   1      44.749  28.519  30.488  1.00  0.00    -0.248 NA
ATOM     52  C   UNL A   1      46.147  30.007  31.623  1.00  0.00     0.031 C 
ATOM     53  C   UNL A   1      45.957  24.458  29.167  1.00  0.00     0.029 A 
ATOM     54  C   UNL A   1      45.604  25.724  29.606  1.00  0.00     0.049 A 
ATOM     55  H   UNL A   1      43.746  26.713  29.457  1.00  0.00     0.167 HD
ATOM     56  C   UNL A   1      45.996  27.931  30.662  1.00  0.00     0.074 A 
ATOM     57  C   UNL A   1      46.827  28.904  31.341  1.00  0.00     0.031 C 
ATOM     58  C   UNL A   1      46.416  26.697  30.289  1.00  0.00     0.031 A 
BRANCH  45  59
ATOM     59  C   UNL A   1      42.045  23.284  27.570  1.00  0.00    -0.014 A 
ATOM     60  C   UNL A   1      41.469  22.267  28.346  1.00  0.00     0.009 A 
ATOM     61  C   UNL A   1      42.235  23.066  26.196  1.00  0.00     0.009 A 
ATOM     62  C   UNL A   1      41.124  21.045  27.765  1.00  0.00     0.001 A 
ATOM     63  C   UNL A   1      41.865  21.853  25.613  1.00  0.00     0.001 A 
ATOM     64  C   UNL A   1      41.318  20.840  26.399  1.00  0.00     0.000 A 
ENDBRANCH  45  59
BRANCH  46  65
ATOM     65  C   UNL A   1      44.106  32.095  31.754  1.00  0.00    -0.014 A 
ATOM     66  C   UNL A   1      44.687  33.144  31.028  1.00  0.00     0.009 A 
ATOM     67  C   UNL A   1      43.820  32.287  33.116  1.00  0.00     0.009 A 
ATOM     68  C   UNL A   1      44.993  34.353  31.657  1.00  0.00     0.001 A 
ATOM     69  C   UNL A   1      44.104  33.505  33.734  1.00  0.00     0.001 A 
ATOM     70  C   UNL A   1      44.697  34.535  33.006  1.00  0.00     0.000 A 
ENDBRANCH  46  65
BRANCH  58  71
ATOM     71  C   UNL A   1      47.845  26.338  30.585  1.00  0.00    -0.014 A 
ATOM     72  C   UNL A   1      48.873  26.628  29.674  1.00  0.00     0.009 A 
ATOM     73  C   UNL A   1      48.172  25.736  31.810  1.00  0.00     0.009 A 
ATOM     74  C   UNL A   1      50.196  26.293  29.972  1.00  0.00     0.001 A 
ATOM     75  C   UNL A   1      49.498  25.428  32.117  1.00  0.00     0.001 A 
ATOM     76  C   UNL A   1      50.507  25.698  31.194  1.00  0.00     0.000 A 
ENDBRANCH  58  71
ENDBRANCH  32  33
ENDBRANCH  25  27
ENDBRANCH  24  25
ENDBRANCH  23  24
ENDBRANCH  22  23
ENDBRANCH   1  22
TORSDOF 16
ENDMDL
