MODEL 1
REMARK VINA RESULT:     -10.7      0.000      0.000
REMARK SMILES CC(C)(C)OC(=O)N1CCC[C@H]1C(=O)N[C@@H](Cc1ccccc1)C(=O)OCCOCCOC(=O)c1ccc(-c2c3nc(c(-c4ccccc4)c4ccc([nH]4)c(-c4ccccc4)c4nc(c(-c5ccccc5)c5ccc2[nH]5)C=C4)C=C3)cc1
REMARK SMILES IDX 27 1 26 2 24 3 25 4 16 5 15 6 13 7 14 8 12 10 8 11 9 12
REMARK SMILES IDX 10 13 11 14 6 15 7 16 5 17 2 18 1 19 3 20 4 21 17 22 18 23
REMARK SMILES IDX 19 24 23 25 20 26 22 27 21 28 28 29 29 30 30 31 31 32 32 33
REMARK SMILES IDX 33 34 34 35 35 36 36 37 82 38 37 39 81 40 38 41 39 42 40 43
REMARK SMILES IDX 75 44 41 45 80 46 74 47 76 48 42 49 79 50 73 51 72 52 43 54
REMARK SMILES IDX 65 55 50 56 64 57 51 58 54 59 63 60 77 61 52 62 53 63 62 65
REMARK SMILES IDX 78 66 55 67 44 68 45 69 49 70 46 71 48 72 47 73 66 74 67 75
REMARK SMILES IDX 71 76 68 77 70 78 69 79 56 80 57 81 61 82 58 83 60 84 59 85
REMARK H PARENT 15 9 76 53 54 64
REMARK Flexibility Score: inf
ROOT
ATOM      1  C   UNL A   1      37.015  23.350  24.825  1.00  0.00     0.261 C 
ENDROOT
BRANCH   1   2
ATOM      2  O   UNL A   1      35.604  23.518  25.031  1.00  0.00    -0.462 OA
BRANCH   2   3
ATOM      3  C   UNL A   1      34.894  23.893  23.931  1.00  0.00     0.329 C 
ATOM      4  O   UNL A   1      35.207  23.641  22.772  1.00  0.00    -0.250 OA
BRANCH   3   5
ATOM      5  C   UNL A   1      33.697  24.791  24.281  1.00  0.00     0.196 C 
BRANCH   5   6
ATOM      6  N   UNL A   1      32.371  24.250  23.940  1.00  0.00    -0.341 N 
ATOM      7  C   UNL A   1      31.409  24.728  23.092  1.00  0.00     0.243 C 
ATOM      8  O   UNL A   1      30.312  24.162  23.087  1.00  0.00    -0.273 OA
ATOM      9  H   UNL A   1      32.138  23.409  24.397  1.00  0.00     0.164 HD
BRANCH   7  10
ATOM     10  C   UNL A   1      31.695  25.983  22.236  1.00  0.00     0.178 C 
ATOM     11  N   UNL A   1      31.329  27.235  22.900  1.00  0.00    -0.296 N 
ATOM     12  C   UNL A   1      32.467  28.104  23.095  1.00  0.00     0.124 C 
ATOM     13  C   UNL A   1      33.441  27.638  22.027  1.00  0.00     0.024 C 
ATOM     14  C   UNL A   1      33.194  26.131  21.957  1.00  0.00     0.037 C 
BRANCH  11  15
ATOM     15  C   UNL A   1      30.012  27.546  23.103  1.00  0.00     0.410 C 
ATOM     16  O   UNL A   1      29.364  27.029  24.002  1.00  0.00    -0.224 OA
BRANCH  15  17
ATOM     17  O   UNL A   1      29.510  28.409  22.187  1.00  0.00    -0.444 OA
BRANCH  17  18
ATOM     18  C   UNL A   1      28.984  29.709  22.582  1.00  0.00     0.106 C 
ATOM     19  C   UNL A   1      27.524  29.448  22.976  1.00  0.00     0.056 C 
ATOM     20  C   UNL A   1      29.030  30.635  21.364  1.00  0.00     0.056 C 
ATOM     21  C   UNL A   1      29.681  30.363  23.788  1.00  0.00     0.056 C 
ENDBRANCH  17  18
ENDBRANCH  15  17
ENDBRANCH  11  15
ENDBRANCH   7  10
ENDBRANCH   5   6
BRANCH   5  22
ATOM     22  C   UNL A   1      33.788  25.142  25.781  1.00  0.00     0.072 C 
BRANCH  22  23
ATOM     23  C   UNL A   1      33.168  26.479  26.134  1.00  0.00    -0.045 A 
ATOM     24  C   UNL A   1      31.809  26.569  26.467  1.00  0.00     0.004 A 
ATOM     25  C   UNL A   1      33.959  27.637  26.191  1.00  0.00     0.004 A 
ATOM     26  C   UNL A   1      31.259  27.786  26.870  1.00  0.00     0.000 A 
ATOM     27  C   UNL A   1      33.404  28.854  26.591  1.00  0.00     0.000 A 
ATOM     28  C   UNL A   1      32.056  28.927  26.935  1.00  0.00     0.000 A 
ENDBRANCH  22  23
ENDBRANCH   5  22
ENDBRANCH   3   5
ENDBRANCH   2   3
ENDBRANCH   1   2
BRANCH   1  29
ATOM     29  C   UNL A   1      37.551  22.116  25.554  1.00  0.00     0.202 C 
BRANCH  29  30
ATOM     30  O   UNL A   1      37.236  20.848  24.993  1.00  0.00    -0.374 OA
BRANCH  30  31
ATOM     31  C   UNL A   1      38.256  19.849  24.975  1.00  0.00     0.202 C 
BRANCH  31  32
ATOM     32  C   UNL A   1      39.575  20.145  25.706  1.00  0.00     0.261 C 
BRANCH  32  33
ATOM     33  O   UNL A   1      40.514  19.060  25.682  1.00  0.00    -0.460 OA
BRANCH  33  34
ATOM     34  C   UNL A   1      41.788  19.423  25.954  1.00  0.00     0.338 C 
ATOM     35  O   UNL A   1      42.814  18.809  25.716  1.00  0.00    -0.246 OA
BRANCH  34  36
ATOM     36  C   UNL A   1      41.807  20.796  26.478  1.00  0.00     0.060 A 
ATOM     37  C   UNL A   1      42.150  21.822  25.588  1.00  0.00     0.016 A 
ATOM     38  C   UNL A   1      41.605  21.058  27.833  1.00  0.00     0.016 A 
ATOM     39  C   UNL A   1      42.342  23.114  26.066  1.00  0.00     0.010 A 
ATOM     40  C   UNL A   1      41.807  22.355  28.313  1.00  0.00     0.010 A 
ATOM     41  C   UNL A   1      42.212  23.378  27.436  1.00  0.00    -0.014 A 
BRANCH  41  42
ATOM     42  C   UNL A   1      42.650  24.690  27.964  1.00  0.00     0.031 A 
ATOM     43  C   UNL A   1      41.622  25.765  28.184  1.00  0.00     0.074 A 
ATOM     44  C   UNL A   1      43.936  24.897  28.295  1.00  0.00     0.049 A 
ATOM     45  N   UNL A   1      41.783  26.984  28.632  1.00  0.00    -0.248 NA
ATOM     46  C   UNL A   1      40.226  25.420  27.863  1.00  0.00     0.031 C 
ATOM     47  C   UNL A   1      45.010  23.910  28.180  1.00  0.00     0.029 A 
ATOM     48  N   UNL A   1      44.553  26.010  28.802  1.00  0.00    -0.354 N 
ATOM     49  C   UNL A   1      40.513  27.548  28.651  1.00  0.00     0.074 A 
ATOM     50  C   UNL A   1      39.597  26.552  28.139  1.00  0.00     0.031 C 
ATOM     51  C   UNL A   1      46.157  24.464  28.608  1.00  0.00     0.029 A 
ATOM     52  C   UNL A   1      45.904  25.851  28.994  1.00  0.00     0.049 A 
ATOM     53  H   UNL A   1      44.075  26.846  29.010  1.00  0.00     0.167 HD
ATOM     54  C   UNL A   1      40.141  28.780  29.069  1.00  0.00     0.031 A 
ATOM     55  C   UNL A   1      46.829  26.733  29.416  1.00  0.00     0.031 A 
ATOM     56  C   UNL A   1      41.054  29.777  29.560  1.00  0.00     0.049 A 
ATOM     57  C   UNL A   1      46.401  28.130  29.778  1.00  0.00     0.074 A 
ATOM     58  C   UNL A   1      40.779  31.064  29.988  1.00  0.00     0.029 A 
ATOM     59  N   UNL A   1      42.422  29.595  29.686  1.00  0.00    -0.354 N 
ATOM     60  N   UNL A   1      45.196  28.650  29.795  1.00  0.00    -0.248 NA
ATOM     61  C   UNL A   1      47.463  29.062  30.184  1.00  0.00     0.031 C 
ATOM     62  C   UNL A   1      41.988  31.676  30.334  1.00  0.00     0.029 A 
ATOM     63  C   UNL A   1      43.007  30.751  30.170  1.00  0.00     0.049 A 
ATOM     64  H   UNL A   1      42.905  28.766  29.465  1.00  0.00     0.167 HD
ATOM     65  C   UNL A   1      45.353  29.954  30.245  1.00  0.00     0.074 A 
ATOM     66  C   UNL A   1      46.766  30.143  30.502  1.00  0.00     0.031 C 
ATOM     67  C   UNL A   1      44.414  30.914  30.430  1.00  0.00     0.031 A 
BRANCH  54  68
ATOM     68  C   UNL A   1      38.681  29.128  28.996  1.00  0.00    -0.014 A 
ATOM     69  C   UNL A   1      37.856  29.022  30.128  1.00  0.00     0.009 A 
ATOM     70  C   UNL A   1      38.134  29.609  27.797  1.00  0.00     0.009 A 
ATOM     71  C   UNL A   1      36.507  29.373  30.052  1.00  0.00     0.001 A 
ATOM     72  C   UNL A   1      36.790  29.981  27.731  1.00  0.00     0.001 A 
ATOM     73  C   UNL A   1      35.976  29.857  28.857  1.00  0.00     0.000 A 
ENDBRANCH  54  68
BRANCH  55  74
ATOM     74  C   UNL A   1      48.261  26.342  29.497  1.00  0.00    -0.014 A 
ATOM     75  C   UNL A   1      48.792  25.809  30.681  1.00  0.00     0.009 A 
ATOM     76  C   UNL A   1      49.115  26.547  28.403  1.00  0.00     0.009 A 
ATOM     77  C   UNL A   1      50.156  25.525  30.780  1.00  0.00     0.001 A 
ATOM     78  C   UNL A   1      50.473  26.234  28.494  1.00  0.00     0.001 A 
ATOM     79  C   UNL A   1      50.995  25.736  29.686  1.00  0.00     0.000 A 
ENDBRANCH  55  74
BRANCH  67  80
ATOM     80  C   UNL A   1      44.878  32.233  30.978  1.00  0.00    -0.014 A 
ATOM     81  C   UNL A   1      45.193  33.305  30.130  1.00  0.00     0.009 A 
ATOM     82  C   UNL A   1      44.962  32.413  32.367  1.00  0.00     0.009 A 
ATOM     83  C   UNL A   1      45.620  34.522  30.664  1.00  0.00     0.001 A 
ATOM     84  C   UNL A   1      45.361  33.640  32.899  1.00  0.00     0.001 A 
ATOM     85  C   UNL A   1      45.699  34.690  32.046  1.00  0.00     0.000 A 
ENDBRANCH  67  80
ENDBRANCH  41  42
ENDBRANCH  34  36
ENDBRANCH  33  34
ENDBRANCH  32  33
ENDBRANCH  31  32
ENDBRANCH  30  31
ENDBRANCH  29  30
ENDBRANCH   1  29
TORSDOF 21
ENDMDL
MODEL 2
REMARK VINA RESULT:     -10.7      3.635      7.899
REMARK SMILES CC(C)(C)OC(=O)N1CCC[C@H]1C(=O)N[C@@H](Cc1ccccc1)C(=O)OCCOCCOC(=O)c1ccc(-c2c3nc(c(-c4ccccc4)c4ccc([nH]4)c(-c4ccccc4)c4nc(c(-c5ccccc5)c5ccc2[nH]5)C=C4)C=C3)cc1
REMARK SMILES IDX 27 1 26 2 24 3 25 4 16 5 15 6 13 7 14 8 12 10 8 11 9 12
REMARK SMILES IDX 10 13 11 14 6 15 7 16 5 17 2 18 1 19 3 20 4 21 17 22 18 23
REMARK SMILES IDX 19 24 23 25 20 26 22 27 21 28 28 29 29 30 30 31 31 32 32 33
REMARK SMILES IDX 33 34 34 35 35 36 36 37 82 38 37 39 81 40 38 41 39 42 40 43
REMARK SMILES IDX 75 44 41 45 80 46 74 47 76 48 42 49 79 50 73 51 72 52 43 54
REMARK SMILES IDX 65 55 50 56 64 57 51 58 54 59 63 60 77 61 52 62 53 63 62 65
REMARK SMILES IDX 78 66 55 67 44 68 45 69 49 70 46 71 48 72 47 73 66 74 67 75
REMARK SMILES IDX 71 76 68 77 70 78 69 79 56 80 57 81 61 82 58 83 60 84 59 85
REMARK H PARENT 15 9 76 53 54 64
REMARK Flexibility Score: inf
ROOT
ATOM      1  C   UNL A   1      31.462  27.409  26.499  1.00  0.00     0.261 C 
ENDROOT
BRANCH   1   2
ATOM      2  O   UNL A   1      31.429  25.978  26.613  1.00  0.00    -0.462 OA
BRANCH   2   3
ATOM      3  C   UNL A   1      30.339  25.373  26.066  1.00  0.00     0.329 C 
ATOM      4  O   UNL A   1      29.536  24.679  26.681  1.00  0.00    -0.250 OA
BRANCH   3   5
ATOM      5  C   UNL A   1      30.273  25.546  24.540  1.00  0.00     0.196 C 
BRANCH   5   6
ATOM      6  N   UNL A   1      30.388  24.309  23.751  1.00  0.00    -0.341 N 
ATOM      7  C   UNL A   1      31.436  23.442  23.608  1.00  0.00     0.243 C 
ATOM      8  O   UNL A   1      31.332  22.544  22.768  1.00  0.00    -0.273 OA
ATOM      9  H   UNL A   1      29.579  24.066  23.244  1.00  0.00     0.164 HD
BRANCH   7  10
ATOM     10  C   UNL A   1      32.726  23.654  24.435  1.00  0.00     0.178 C 
ATOM     11  N   UNL A   1      33.533  22.442  24.575  1.00  0.00    -0.296 N 
ATOM     12  C   UNL A   1      34.849  22.590  23.996  1.00  0.00     0.124 C 
ATOM     13  C   UNL A   1      35.062  24.094  24.012  1.00  0.00     0.024 C 
ATOM     14  C   UNL A   1      33.664  24.652  23.748  1.00  0.00     0.037 C 
BRANCH  11  15
ATOM     15  C   UNL A   1      33.085  21.403  25.345  1.00  0.00     0.410 C 
ATOM     16  O   UNL A   1      32.086  21.508  26.042  1.00  0.00    -0.224 OA
BRANCH  15  17
ATOM     17  O   UNL A   1      33.885  20.310  25.300  1.00  0.00    -0.444 OA
BRANCH  17  18
ATOM     18  C   UNL A   1      33.395  19.036  24.788  1.00  0.00     0.106 C 
ATOM     19  C   UNL A   1      34.655  18.252  24.395  1.00  0.00     0.056 C 
ATOM     20  C   UNL A   1      32.552  19.313  23.540  1.00  0.00     0.056 C 
ATOM     21  C   UNL A   1      32.609  18.179  25.796  1.00  0.00     0.056 C 
ENDBRANCH  17  18
ENDBRANCH  15  17
ENDBRANCH  11  15
ENDBRANCH   7  10
ENDBRANCH   5   6
BRANCH   5  22
ATOM     22  C   UNL A   1      28.972  26.305  24.204  1.00  0.00     0.072 C 
BRANCH  22  23
ATOM     23  C   UNL A   1      29.196  27.590  23.434  1.00  0.00    -0.045 A 
ATOM     24  C   UNL A   1      30.481  27.950  23.005  1.00  0.00     0.004 A 
ATOM     25  C   UNL A   1      28.110  28.410  23.088  1.00  0.00     0.004 A 
ATOM     26  C   UNL A   1      30.672  29.094  22.228  1.00  0.00     0.000 A 
ATOM     27  C   UNL A   1      28.306  29.555  22.314  1.00  0.00     0.000 A 
ATOM     28  C   UNL A   1      29.586  29.893  21.880  1.00  0.00     0.000 A 
ENDBRANCH  22  23
ENDBRANCH   5  22
ENDBRANCH   3   5
ENDBRANCH   2   3
ENDBRANCH   1   2
BRANCH   1  29
ATOM     29  C   UNL A   1      32.850  27.914  26.101  1.00  0.00     0.202 C 
BRANCH  29  30
ATOM     30  O   UNL A   1      32.925  29.216  25.531  1.00  0.00    -0.374 OA
BRANCH  30  31
ATOM     31  C   UNL A   1      31.766  30.047  25.601  1.00  0.00     0.202 C 
BRANCH  31  32
ATOM     32  C   UNL A   1      31.824  31.299  26.490  1.00  0.00     0.261 C 
BRANCH  32  33
ATOM     33  O   UNL A   1      32.743  31.194  27.588  1.00  0.00    -0.460 OA
BRANCH  33  34
ATOM     34  C   UNL A   1      33.626  32.216  27.671  1.00  0.00     0.338 C 
ATOM     35  O   UNL A   1      33.401  33.413  27.614  1.00  0.00    -0.246 OA
BRANCH  34  36
ATOM     36  C   UNL A   1      34.959  31.689  27.997  1.00  0.00     0.060 A 
ATOM     37  C   UNL A   1      35.078  30.307  28.187  1.00  0.00     0.016 A 
ATOM     38  C   UNL A   1      36.040  32.542  28.224  1.00  0.00     0.016 A 
ATOM     39  C   UNL A   1      36.274  29.776  28.656  1.00  0.00     0.010 A 
ATOM     40  C   UNL A   1      37.238  32.007  28.703  1.00  0.00     0.010 A 
ATOM     41  C   UNL A   1      37.346  30.627  28.956  1.00  0.00    -0.014 A 
BRANCH  41  42
ATOM     42  C   UNL A   1      38.521  30.085  29.675  1.00  0.00     0.031 A 
ATOM     43  C   UNL A   1      38.717  30.441  31.123  1.00  0.00     0.074 A 
ATOM     44  C   UNL A   1      39.367  29.241  29.058  1.00  0.00     0.049 A 
ATOM     45  N   UNL A   1      39.675  30.083  31.940  1.00  0.00    -0.248 NA
ATOM     46  C   UNL A   1      37.697  31.310  31.732  1.00  0.00     0.031 C 
ATOM     47  C   UNL A   1      39.246  28.779  27.675  1.00  0.00     0.029 A 
ATOM     48  N   UNL A   1      40.496  28.620  29.524  1.00  0.00    -0.354 N 
ATOM     49  C   UNL A   1      39.369  30.678  33.158  1.00  0.00     0.074 A 
ATOM     50  C   UNL A   1      38.159  31.447  32.966  1.00  0.00     0.031 C 
ATOM     51  C   UNL A   1      40.262  27.943  27.406  1.00  0.00     0.029 A 
ATOM     52  C   UNL A   1      41.122  27.839  28.583  1.00  0.00     0.049 A 
ATOM     53  H   UNL A   1      40.828  28.722  30.446  1.00  0.00     0.167 HD
ATOM     54  C   UNL A   1      40.032  30.583  34.335  1.00  0.00     0.031 A 
ATOM     55  C   UNL A   1      42.267  27.136  28.664  1.00  0.00     0.031 A 
ATOM     56  C   UNL A   1      41.245  29.835  34.521  1.00  0.00     0.049 A 
ATOM     57  C   UNL A   1      43.037  27.131  29.957  1.00  0.00     0.074 A 
ATOM     58  C   UNL A   1      42.005  29.693  35.669  1.00  0.00     0.029 A 
ATOM     59  N   UNL A   1      41.877  29.102  33.528  1.00  0.00    -0.354 N 
ATOM     60  N   UNL A   1      42.736  27.695  31.103  1.00  0.00    -0.248 NA
ATOM     61  C   UNL A   1      44.305  26.386  29.968  1.00  0.00     0.031 C 
ATOM     62  C   UNL A   1      43.121  28.908  35.360  1.00  0.00     0.029 A 
ATOM     63  C   UNL A   1      43.026  28.520  34.033  1.00  0.00     0.049 A 
ATOM     64  H   UNL A   1      41.555  29.010  32.602  1.00  0.00     0.167 HD
ATOM     65  C   UNL A   1      43.757  27.345  31.977  1.00  0.00     0.074 A 
ATOM     66  C   UNL A   1      44.679  26.510  31.233  1.00  0.00     0.031 C 
ATOM     67  C   UNL A   1      43.922  27.683  33.279  1.00  0.00     0.031 A 
BRANCH  54  68
ATOM     68  C   UNL A   1      39.465  31.323  35.513  1.00  0.00    -0.014 A 
ATOM     69  C   UNL A   1      39.966  32.581  35.885  1.00  0.00     0.009 A 
ATOM     70  C   UNL A   1      38.389  30.779  36.231  1.00  0.00     0.009 A 
ATOM     71  C   UNL A   1      39.412  33.269  36.966  1.00  0.00     0.001 A 
ATOM     72  C   UNL A   1      37.822  31.481  37.296  1.00  0.00     0.001 A 
ATOM     73  C   UNL A   1      38.338  32.722  37.667  1.00  0.00     0.000 A 
ENDBRANCH  54  68
BRANCH  55  74
ATOM     74  C   UNL A   1      42.781  26.396  27.481  1.00  0.00    -0.014 A 
ATOM     75  C   UNL A   1      43.610  27.031  26.544  1.00  0.00     0.009 A 
ATOM     76  C   UNL A   1      42.404  25.063  27.260  1.00  0.00     0.009 A 
ATOM     77  C   UNL A   1      44.019  26.357  25.391  1.00  0.00     0.001 A 
ATOM     78  C   UNL A   1      42.839  24.382  26.121  1.00  0.00     0.001 A 
ATOM     79  C   UNL A   1      43.635  25.034  25.181  1.00  0.00     0.000 A 
ENDBRANCH  55  74
BRANCH  67  80
ATOM     80  C   UNL A   1      45.114  27.111  33.992  1.00  0.00    -0.014 A 
ATOM     81  C   UNL A   1      46.366  27.742  33.942  1.00  0.00     0.009 A 
ATOM     82  C   UNL A   1      44.968  25.943  34.756  1.00  0.00     0.009 A 
ATOM     83  C   UNL A   1      47.458  27.192  34.615  1.00  0.00     0.001 A 
ATOM     84  C   UNL A   1      46.055  25.412  35.451  1.00  0.00     0.001 A 
ATOM     85  C   UNL A   1      47.302  26.032  35.372  1.00  0.00     0.000 A 
ENDBRANCH  67  80
ENDBRANCH  41  42
ENDBRANCH  34  36
ENDBRANCH  33  34
ENDBRANCH  32  33
ENDBRANCH  31  32
ENDBRANCH  30  31
ENDBRANCH  29  30
ENDBRANCH   1  29
TORSDOF 21
ENDMDL
MODEL 3
REMARK VINA RESULT:     -10.7      0.445      5.677
REMARK SMILES CC(C)(C)OC(=O)N1CCC[C@H]1C(=O)N[C@@H](Cc1ccccc1)C(=O)OCCOCCOC(=O)c1ccc(-c2c3nc(c(-c4ccccc4)c4ccc([nH]4)c(-c4ccccc4)c4nc(c(-c5ccccc5)c5ccc2[nH]5)C=C4)C=C3)cc1
REMARK SMILES IDX 27 1 26 2 24 3 25 4 16 5 15 6 13 7 14 8 12 10 8 11 9 12
REMARK SMILES IDX 10 13 11 14 6 15 7 16 5 17 2 18 1 19 3 20 4 21 17 22 18 23
REMARK SMILES IDX 19 24 23 25 20 26 22 27 21 28 28 29 29 30 30 31 31 32 32 33
REMARK SMILES IDX 33 34 34 35 35 36 36 37 82 38 37 39 81 40 38 41 39 42 40 43
REMARK SMILES IDX 75 44 41 45 80 46 74 47 76 48 42 49 79 50 73 51 72 52 43 54
REMARK SMILES IDX 65 55 50 56 64 57 51 58 54 59 63 60 77 61 52 62 53 63 62 65
REMARK SMILES IDX 78 66 55 67 44 68 45 69 49 70 46 71 48 72 47 73 66 74 67 75
REMARK SMILES IDX 71 76 68 77 70 78 69 79 56 80 57 81 61 82 58 83 60 84 59 85
REMARK H PARENT 15 9 76 53 54 64
REMARK Flexibility Score: inf
ROOT
ATOM      1  C   UNL A   1      37.069  23.159  24.554  1.00  0.00     0.261 C 
ENDROOT
BRANCH   1   2
ATOM      2  O   UNL A   1      35.774  23.663  24.916  1.00  0.00    -0.462 OA
BRANCH   2   3
ATOM      3  C   UNL A   1      34.918  23.873  23.877  1.00  0.00     0.329 C 
ATOM      4  O   UNL A   1      35.093  23.478  22.729  1.00  0.00    -0.250 OA
BRANCH   3   5
ATOM      5  C   UNL A   1      33.739  24.782  24.261  1.00  0.00     0.196 C 
BRANCH   5   6
ATOM      6  N   UNL A   1      32.402  24.277  23.909  1.00  0.00    -0.341 N 
ATOM      7  C   UNL A   1      31.446  24.798  23.081  1.00  0.00     0.243 C 
ATOM      8  O   UNL A   1      30.339  24.254  23.062  1.00  0.00    -0.273 OA
ATOM      9  H   UNL A   1      32.155  23.427  24.341  1.00  0.00     0.164 HD
BRANCH   7  10
ATOM     10  C   UNL A   1      31.753  26.074  22.263  1.00  0.00     0.178 C 
ATOM     11  N   UNL A   1      31.379  27.310  22.951  1.00  0.00    -0.296 N 
ATOM     12  C   UNL A   1      32.516  28.170  23.190  1.00  0.00     0.124 C 
ATOM     13  C   UNL A   1      33.509  27.727  22.129  1.00  0.00     0.024 C 
ATOM     14  C   UNL A   1      33.258  26.223  22.015  1.00  0.00     0.037 C 
BRANCH  11  15
ATOM     15  C   UNL A   1      30.060  27.621  23.137  1.00  0.00     0.410 C 
ATOM     16  O   UNL A   1      29.408  27.128  24.046  1.00  0.00    -0.224 OA
BRANCH  15  17
ATOM     17  O   UNL A   1      29.559  28.455  22.192  1.00  0.00    -0.444 OA
BRANCH  17  18
ATOM     18  C   UNL A   1      28.969  29.737  22.553  1.00  0.00     0.106 C 
ATOM     19  C   UNL A   1      27.504  29.423  22.890  1.00  0.00     0.056 C 
ATOM     20  C   UNL A   1      29.029  30.654  21.328  1.00  0.00     0.056 C 
ATOM     21  C   UNL A   1      29.590  30.427  23.780  1.00  0.00     0.056 C 
ENDBRANCH  17  18
ENDBRANCH  15  17
ENDBRANCH  11  15
ENDBRANCH   7  10
ENDBRANCH   5   6
BRANCH   5  22
ATOM     22  C   UNL A   1      33.843  25.083  25.771  1.00  0.00     0.072 C 
BRANCH  22  23
ATOM     23  C   UNL A   1      33.244  26.416  26.171  1.00  0.00    -0.045 A 
ATOM     24  C   UNL A   1      31.886  26.517  26.506  1.00  0.00     0.004 A 
ATOM     25  C   UNL A   1      34.053  27.559  26.269  1.00  0.00     0.004 A 
ATOM     26  C   UNL A   1      31.356  27.728  26.950  1.00  0.00     0.000 A 
ATOM     27  C   UNL A   1      33.519  28.770  26.710  1.00  0.00     0.000 A 
ATOM     28  C   UNL A   1      32.172  28.853  27.056  1.00  0.00     0.000 A 
ENDBRANCH  22  23
ENDBRANCH   5  22
ENDBRANCH   3   5
ENDBRANCH   2   3
ENDBRANCH   1   2
BRANCH   1  29
ATOM     29  C   UNL A   1      37.401  21.863  25.295  1.00  0.00     0.202 C 
BRANCH  29  30
ATOM     30  O   UNL A   1      37.402  20.663  24.530  1.00  0.00    -0.374 OA
BRANCH  30  31
ATOM     31  C   UNL A   1      38.242  19.593  24.961  1.00  0.00     0.202 C 
BRANCH  31  32
ATOM     32  C   UNL A   1      39.532  19.943  25.719  1.00  0.00     0.261 C 
BRANCH  32  33
ATOM     33  O   UNL A   1      40.523  18.904  25.697  1.00  0.00    -0.460 OA
BRANCH  33  34
ATOM     34  C   UNL A   1      41.750  19.301  26.105  1.00  0.00     0.338 C 
ATOM     35  O   UNL A   1      42.807  18.700  26.012  1.00  0.00    -0.246 OA
BRANCH  34  36
ATOM     36  C   UNL A   1      41.685  20.690  26.581  1.00  0.00     0.060 A 
ATOM     37  C   UNL A   1      41.901  21.705  25.641  1.00  0.00     0.016 A 
ATOM     38  C   UNL A   1      41.530  20.986  27.936  1.00  0.00     0.016 A 
ATOM     39  C   UNL A   1      42.012  23.025  26.064  1.00  0.00     0.010 A 
ATOM     40  C   UNL A   1      41.651  22.312  28.360  1.00  0.00     0.010 A 
ATOM     41  C   UNL A   1      41.930  23.330  27.429  1.00  0.00    -0.014 A 
BRANCH  41  42
ATOM     42  C   UNL A   1      42.287  24.691  27.889  1.00  0.00     0.031 A 
ATOM     43  C   UNL A   1      43.736  25.033  28.098  1.00  0.00     0.074 A 
ATOM     44  C   UNL A   1      41.334  25.623  28.062  1.00  0.00     0.049 A 
ATOM     45  N   UNL A   1      44.271  26.157  28.500  1.00  0.00    -0.248 NA
ATOM     46  C   UNL A   1      44.713  23.968  27.811  1.00  0.00     0.031 C 
ATOM     47  C   UNL A   1      39.902  25.425  27.834  1.00  0.00     0.029 A 
ATOM     48  N   UNL A   1      41.433  26.929  28.465  1.00  0.00    -0.354 N 
ATOM     49  C   UNL A   1      45.643  25.938  28.509  1.00  0.00     0.074 A 
ATOM     50  C   UNL A   1      45.858  24.565  28.106  1.00  0.00     0.031 C 
ATOM     51  C   UNL A   1      39.256  26.572  28.100  1.00  0.00     0.029 A 
ATOM     52  C   UNL A   1      40.223  27.572  28.548  1.00  0.00     0.049 A 
ATOM     53  H   UNL A   1      42.290  27.366  28.676  1.00  0.00     0.167 HD
ATOM     54  C   UNL A   1      46.636  26.806  28.814  1.00  0.00     0.031 A 
ATOM     55  C   UNL A   1      39.932  28.822  28.957  1.00  0.00     0.031 A 
ATOM     56  C   UNL A   1      46.422  28.164  29.233  1.00  0.00     0.049 A 
ATOM     57  C   UNL A   1      41.050  29.733  29.388  1.00  0.00     0.074 A 
ATOM     58  C   UNL A   1      47.361  29.118  29.585  1.00  0.00     0.029 A 
ATOM     59  N   UNL A   1      45.177  28.761  29.357  1.00  0.00    -0.354 N 
ATOM     60  N   UNL A   1      42.343  29.515  29.387  1.00  0.00    -0.248 NA
ATOM     61  C   UNL A   1      40.665  31.068  29.870  1.00  0.00     0.031 C 
ATOM     62  C   UNL A   1      46.682  30.280  29.963  1.00  0.00     0.029 A 
ATOM     63  C   UNL A   1      45.323  30.065  29.796  1.00  0.00     0.049 A 
ATOM     64  H   UNL A   1      44.318  28.322  29.162  1.00  0.00     0.167 HD
ATOM     65  C   UNL A   1      42.926  30.693  29.836  1.00  0.00     0.074 A 
ATOM     66  C   UNL A   1      41.847  31.627  30.086  1.00  0.00     0.031 C 
ATOM     67  C   UNL A   1      44.237  30.981  30.027  1.00  0.00     0.031 A 
BRANCH  54  68
ATOM     68  C   UNL A   1      48.050  26.304  28.722  1.00  0.00    -0.014 A 
ATOM     69  C   UNL A   1      48.690  25.741  29.837  1.00  0.00     0.009 A 
ATOM     70  C   UNL A   1      48.732  26.354  27.496  1.00  0.00     0.009 A 
ATOM     71  C   UNL A   1      49.995  25.255  29.730  1.00  0.00     0.001 A 
ATOM     72  C   UNL A   1      50.028  25.846  27.388  1.00  0.00     0.001 A 
ATOM     73  C   UNL A   1      50.660  25.303  28.506  1.00  0.00     0.000 A 
ENDBRANCH  54  68
BRANCH  55  74
ATOM     74  C   UNL A   1      38.521  29.288  29.010  1.00  0.00    -0.014 A 
ATOM     75  C   UNL A   1      37.927  29.901  27.897  1.00  0.00     0.009 A 
ATOM     76  C   UNL A   1      37.777  29.164  30.193  1.00  0.00     0.009 A 
ATOM     77  C   UNL A   1      36.631  30.415  27.980  1.00  0.00     0.001 A 
ATOM     78  C   UNL A   1      36.471  29.652  30.265  1.00  0.00     0.001 A 
ATOM     79  C   UNL A   1      35.903  30.289  29.162  1.00  0.00     0.000 A 
ENDBRANCH  55  74
BRANCH  67  80
ATOM     80  C   UNL A   1      44.576  32.371  30.482  1.00  0.00    -0.014 A 
ATOM     81  C   UNL A   1      44.709  32.681  31.843  1.00  0.00     0.009 A 
ATOM     82  C   UNL A   1      44.804  33.375  29.527  1.00  0.00     0.009 A 
ATOM     83  C   UNL A   1      45.027  33.981  32.241  1.00  0.00     0.001 A 
ATOM     84  C   UNL A   1      45.150  34.666  29.927  1.00  0.00     0.001 A 
ATOM     85  C   UNL A   1      45.252  34.970  31.284  1.00  0.00     0.000 A 
ENDBRANCH  67  80
ENDBRANCH  41  42
ENDBRANCH  34  36
ENDBRANCH  33  34
ENDBRANCH  32  33
ENDBRANCH  31  32
ENDBRANCH  30  31
ENDBRANCH  29  30
ENDBRANCH   1  29
TORSDOF 21
ENDMDL
