MODEL 1
REMARK VINA RESULT:     -11.5      0.000      0.000
REMARK SMILES COc1cc(C)c(S(=O)(=O)Nc2cc(C(=O)OCCOCCOC(=O)c3ccc(-c4c5nc(c(-c6ccccc6)c6ccc([nH]6)c(-c6ccccc6)c6nc(c(-c7ccccc7)c7ccc4[nH]7)C=C6)C=C5)cc3)ccc2F)cc1OC
REMARK SMILES IDX 19 1 18 2 17 3 15 4 16 5 14 6 12 7 13 8 76 9 75 10 77 11
REMARK SMILES IDX 74 12 11 13 8 15 9 16 10 17 7 18 3 19 4 20 79 21 5 22 78 23
REMARK SMILES IDX 6 24 2 25 1 26 80 27 81 28 20 29 21 30 22 31 23 32 24 33
REMARK SMILES IDX 25 34 26 35 27 36 73 37 28 38 72 39 29 40 30 41 31 42 66 43
REMARK SMILES IDX 32 44 71 45 65 46 67 47 33 48 70 49 64 50 63 51 34 53 56 54
REMARK SMILES IDX 41 55 55 56 42 57 45 58 54 59 68 60 43 61 44 62 53 64 69 65
REMARK SMILES IDX 46 66 35 67 36 68 40 69 37 70 39 71 38 72 57 73 58 74 62 75
REMARK SMILES IDX 59 76 61 77 60 78 47 79 48 80 52 81 49 82 51 83 50 84
REMARK H PARENT 11 14 67 52 45 63
REMARK Flexibility Score: inf
ROOT
ATOM      1  C   UNL A   1      32.053  32.839  27.034  1.00  0.00     0.202 C 
ENDROOT
BRANCH   1   2
ATOM      2  C   UNL A   1      31.499  31.586  26.521  1.00  0.00     0.261 C 
BRANCH   2   3
ATOM      3  O   UNL A   1      32.357  30.453  26.622  1.00  0.00    -0.460 OA
BRANCH   3   4
ATOM      4  C   UNL A   1      32.070  29.139  26.613  1.00  0.00     0.338 C 
ATOM      5  O   UNL A   1      31.371  28.576  27.444  1.00  0.00    -0.246 OA
BRANCH   4   6
ATOM      6  C   UNL A   1      33.141  28.441  25.894  1.00  0.00     0.062 A 
ATOM      7  C   UNL A   1      33.684  26.173  25.536  1.00  0.00     0.085 A 
ATOM      8  C   UNL A   1      33.564  27.221  26.396  1.00  0.00     0.045 A 
ATOM      9  C   UNL A   1      33.858  26.436  24.177  1.00  0.00     0.147 A 
ATOM     10  C   UNL A   1      33.709  27.738  23.681  1.00  0.00     0.042 A 
ATOM     11  F   UNL A   1      34.095  25.435  23.323  1.00  0.00    -0.205 F 
ATOM     12  C   UNL A   1      33.271  28.740  24.539  1.00  0.00     0.019 A 
BRANCH   7  13
ATOM     13  N   UNL A   1      33.472  24.895  26.135  1.00  0.00    -0.277 N 
ATOM     14  H   UNL A   1      34.241  24.400  26.500  1.00  0.00     0.180 HD
BRANCH  13  15
ATOM     15  S   UNL A   1      31.895  24.196  26.235  1.00  0.00     0.262 S 
ATOM     16  O   UNL A   1      31.039  25.205  25.634  1.00  0.00    -0.201 OA
ATOM     17  O   UNL A   1      31.744  23.858  27.637  1.00  0.00    -0.201 OA
BRANCH  15  18
ATOM     18  C   UNL A   1      31.471  22.452  25.140  1.00  0.00     0.094 A 
ATOM     19  C   UNL A   1      32.466  19.511  23.156  1.00  0.00     0.161 A 
ATOM     20  C   UNL A   1      31.873  21.102  21.994  1.00  0.00     0.055 A 
ATOM     21  C   UNL A   1      32.886  19.269  25.121  1.00  0.00     0.162 A 
ATOM     22  C   UNL A   1      31.243  22.682  23.134  1.00  0.00    -0.027 A 
ATOM     23  C   UNL A   1      32.552  21.038  26.133  1.00  0.00     0.073 A 
ATOM     24  C   UNL A   1      31.604  24.099  22.569  1.00  0.00     0.046 C 
BRANCH  19  25
ATOM     25  O   UNL A   1      32.088  18.205  22.700  1.00  0.00    -0.493 OA
ATOM     26  C   UNL A   1      33.236  17.496  22.387  1.00  0.00     0.278 C 
ENDBRANCH  19  25
BRANCH  21  27
ATOM     27  O   UNL A   1      33.492  18.241  25.786  1.00  0.00    -0.493 OA
ATOM     28  C   UNL A   1      32.729  17.048  25.865  1.00  0.00     0.278 C 
ENDBRANCH  21  27
ENDBRANCH  15  18
ENDBRANCH  13  15
ENDBRANCH   7  13
ENDBRANCH   4   6
ENDBRANCH   3   4
ENDBRANCH   2   3
ENDBRANCH   1   2
BRANCH   1  29
ATOM     29  O   UNL A   1      33.174  32.494  27.803  1.00  0.00    -0.374 OA
BRANCH  29  30
ATOM     30  C   UNL A   1      33.953  33.532  28.299  1.00  0.00     0.202 C 
BRANCH  30  31
ATOM     31  C   UNL A   1      35.398  33.187  27.974  1.00  0.00     0.261 C 
BRANCH  31  32
ATOM     32  O   UNL A   1      36.080  32.862  29.244  1.00  0.00    -0.460 OA
BRANCH  32  33
ATOM     33  C   UNL A   1      35.735  31.735  29.966  1.00  0.00     0.338 C 
ATOM     34  O   UNL A   1      35.128  31.767  31.028  1.00  0.00    -0.246 OA
BRANCH  33  35
ATOM     35  C   UNL A   1      36.496  30.483  29.479  1.00  0.00     0.060 A 
ATOM     36  C   UNL A   1      36.899  29.441  30.318  1.00  0.00     0.016 A 
ATOM     37  C   UNL A   1      37.322  30.647  28.398  1.00  0.00     0.016 A 
ATOM     38  C   UNL A   1      38.258  28.918  30.243  1.00  0.00     0.010 A 
ATOM     39  C   UNL A   1      38.718  30.372  28.582  1.00  0.00     0.010 A 
ATOM     40  C   UNL A   1      39.324  29.649  29.656  1.00  0.00    -0.014 A 
BRANCH  40  41
ATOM     41  C   UNL A   1      41.120  29.482  29.691  1.00  0.00     0.031 A 
ATOM     42  C   UNL A   1      40.674  27.617  29.182  1.00  0.00     0.074 A 
ATOM     43  C   UNL A   1      42.884  30.042  30.074  1.00  0.00     0.049 A 
ATOM     44  N   UNL A   1      41.505  26.603  28.909  1.00  0.00    -0.248 NA
ATOM     45  C   UNL A   1      39.322  26.877  28.947  1.00  0.00     0.031 C 
ATOM     46  C   UNL A   1      44.588  29.158  29.648  1.00  0.00     0.029 A 
ATOM     47  N   UNL A   1      44.349  31.037  29.912  1.00  0.00    -0.354 N 
ATOM     48  C   UNL A   1      40.967  25.364  28.588  1.00  0.00     0.074 A 
ATOM     49  C   UNL A   1      39.577  25.627  28.489  1.00  0.00     0.031 C 
ATOM     50  C   UNL A   1      45.715  29.650  30.226  1.00  0.00     0.029 A 
ATOM     51  C   UNL A   1      45.073  30.681  30.912  1.00  0.00     0.049 A 
ATOM     52  H   UNL A   1      44.556  31.703  29.218  1.00  0.00     0.167 HD
ATOM     53  C   UNL A   1      41.764  24.246  28.464  1.00  0.00     0.031 A 
ATOM     54  C   UNL A   1      43.885  30.396  31.566  1.00  0.00     0.031 A 
ATOM     55  C   UNL A   1      43.117  24.515  28.975  1.00  0.00     0.049 A 
ATOM     56  C   UNL A   1      44.612  28.896  32.298  1.00  0.00     0.074 A 
ATOM     57  C   UNL A   1      44.188  25.138  28.371  1.00  0.00     0.029 A 
ATOM     58  N   UNL A   1      43.447  24.385  30.325  1.00  0.00    -0.354 N 
ATOM     59  N   UNL A   1      44.688  27.749  31.644  1.00  0.00    -0.248 NA
ATOM     60  C   UNL A   1      45.383  28.837  33.537  1.00  0.00     0.031 C 
ATOM     61  C   UNL A   1      45.075  25.562  29.400  1.00  0.00     0.029 A 
ATOM     62  C   UNL A   1      44.590  25.153  30.640  1.00  0.00     0.049 A 
ATOM     63  H   UNL A   1      42.951  23.832  30.969  1.00  0.00     0.167 HD
ATOM     64  C   UNL A   1      45.250  26.780  32.389  1.00  0.00     0.074 A 
ATOM     65  C   UNL A   1      45.741  27.533  33.547  1.00  0.00     0.031 C 
ATOM     66  C   UNL A   1      44.980  25.470  32.058  1.00  0.00     0.031 A 
BRANCH  53  67
ATOM     67  C   UNL A   1      41.501  22.921  27.705  1.00  0.00    -0.014 A 
ATOM     68  C   UNL A   1      42.654  22.241  27.227  1.00  0.00     0.009 A 
ATOM     69  C   UNL A   1      40.281  22.321  27.337  1.00  0.00     0.009 A 
ATOM     70  C   UNL A   1      42.619  21.107  26.399  1.00  0.00     0.001 A 
ATOM     71  C   UNL A   1      40.238  21.163  26.506  1.00  0.00     0.001 A 
ATOM     72  C   UNL A   1      41.404  20.568  26.025  1.00  0.00     0.000 A 
ENDBRANCH  53  67
BRANCH  54  73
ATOM     73  C   UNL A   1      41.715  30.952  31.353  1.00  0.00    -0.014 A 
ATOM     74  C   UNL A   1      41.109  32.457  30.717  1.00  0.00     0.009 A 
ATOM     75  C   UNL A   1      40.553  30.942  32.379  1.00  0.00     0.009 A 
ATOM     76  C   UNL A   1      39.971  33.308  30.838  1.00  0.00     0.001 A 
ATOM     77  C   UNL A   1      39.388  31.866  32.559  1.00  0.00     0.001 A 
ATOM     78  C   UNL A   1      39.044  32.936  31.739  1.00  0.00     0.000 A 
ENDBRANCH  54  73
BRANCH  66  79
ATOM     79  C   UNL A   1      44.841  24.463  33.169  1.00  0.00    -0.014 A 
ATOM     80  C   UNL A   1      45.919  23.692  33.639  1.00  0.00     0.009 A 
ATOM     81  C   UNL A   1      43.636  24.342  33.875  1.00  0.00     0.009 A 
ATOM     82  C   UNL A   1      45.746  22.675  34.574  1.00  0.00     0.001 A 
ATOM     83  C   UNL A   1      43.482  23.396  34.891  1.00  0.00     0.001 A 
ATOM     84  C   UNL A   1      44.514  22.513  35.184  1.00  0.00     0.000 A 
ENDBRANCH  66  79
ENDBRANCH  40  41
ENDBRANCH  33  35
ENDBRANCH  32  33
ENDBRANCH  31  32
ENDBRANCH  30  31
ENDBRANCH  29  30
ENDBRANCH   1  29
TORSDOF 19
ENDMDL
MODEL 2
REMARK VINA RESULT:     -11.5      1.767      2.440
REMARK SMILES COc1cc(C)c(S(=O)(=O)Nc2cc(C(=O)OCCOCCOC(=O)c3ccc(-c4c5nc(c(-c6ccccc6)c6ccc([nH]6)c(-c6ccccc6)c6nc(c(-c7ccccc7)c7ccc4[nH]7)C=C6)C=C5)cc3)ccc2F)cc1OC
REMARK SMILES IDX 19 1 18 2 17 3 15 4 16 5 14 6 12 7 13 8 76 9 75 10 77 11
REMARK SMILES IDX 74 12 11 13 8 15 9 16 10 17 7 18 3 19 4 20 79 21 5 22 78 23
REMARK SMILES IDX 6 24 2 25 1 26 80 27 81 28 20 29 21 30 22 31 23 32 24 33
REMARK SMILES IDX 25 34 26 35 27 36 73 37 28 38 72 39 29 40 30 41 31 42 66 43
REMARK SMILES IDX 32 44 71 45 65 46 67 47 33 48 70 49 64 50 63 51 34 53 56 54
REMARK SMILES IDX 41 55 55 56 42 57 45 58 54 59 68 60 43 61 44 62 53 64 69 65
REMARK SMILES IDX 46 66 35 67 36 68 40 69 37 70 39 71 38 72 57 73 58 74 62 75
REMARK SMILES IDX 59 76 61 77 60 78 47 79 48 80 52 81 49 82 51 83 50 84
REMARK H PARENT 11 14 67 52 45 63
REMARK Flexibility Score: inf
ROOT
ATOM      1  C   UNL A   1      31.657  31.307  26.637  1.00  0.00     0.202 C 
ENDROOT
BRANCH   1   2
ATOM      2  C   UNL A   1      32.335  30.231  25.916  1.00  0.00     0.261 C 
BRANCH   2   3
ATOM      3  O   UNL A   1      31.496  29.161  25.489  1.00  0.00    -0.460 OA
BRANCH   3   4
ATOM      4  C   UNL A   1      30.854  28.970  24.322  1.00  0.00     0.338 C 
ATOM      5  O   UNL A   1      30.384  29.867  23.635  1.00  0.00    -0.246 OA
BRANCH   4   6
ATOM      6  C   UNL A   1      30.294  27.614  24.324  1.00  0.00     0.062 A 
ATOM      7  C   UNL A   1      30.755  25.637  23.124  1.00  0.00     0.085 A 
ATOM      8  C   UNL A   1      30.295  26.917  23.126  1.00  0.00     0.045 A 
ATOM      9  C   UNL A   1      30.749  24.917  24.320  1.00  0.00     0.147 A 
ATOM     10  C   UNL A   1      30.468  25.560  25.532  1.00  0.00     0.042 A 
ATOM     11  F   UNL A   1      31.086  23.624  24.329  1.00  0.00    -0.205 F 
ATOM     12  C   UNL A   1      30.312  26.941  25.544  1.00  0.00     0.019 A 
BRANCH   7  13
ATOM     13  N   UNL A   1      31.334  25.224  21.886  1.00  0.00    -0.277 N 
ATOM     14  H   UNL A   1      30.762  25.151  21.087  1.00  0.00     0.180 HD
BRANCH  13  15
ATOM     15  S   UNL A   1      33.015  24.848  21.756  1.00  0.00     0.262 S 
ATOM     16  O   UNL A   1      33.662  25.946  22.453  1.00  0.00    -0.201 OA
ATOM     17  O   UNL A   1      33.230  24.664  20.333  1.00  0.00    -0.201 OA
BRANCH  15  18
ATOM     18  C   UNL A   1      33.761  23.129  22.711  1.00  0.00     0.094 A 
ATOM     19  C   UNL A   1      33.421  20.213  24.937  1.00  0.00     0.161 A 
ATOM     20  C   UNL A   1      34.291  21.833  25.860  1.00  0.00     0.055 A 
ATOM     21  C   UNL A   1      32.466  19.930  23.175  1.00  0.00     0.162 A 
ATOM     22  C   UNL A   1      34.545  23.399  24.566  1.00  0.00    -0.027 A 
ATOM     23  C   UNL A   1      32.468  21.683  22.085  1.00  0.00     0.073 A 
ATOM     24  C   UNL A   1      34.334  24.821  25.190  1.00  0.00     0.046 C 
BRANCH  19  25
ATOM     25  O   UNL A   1      33.935  18.921  25.285  1.00  0.00    -0.493 OA
ATOM     26  C   UNL A   1      32.988  18.259  26.048  1.00  0.00     0.278 C 
ENDBRANCH  19  25
BRANCH  21  27
ATOM     27  O   UNL A   1      31.714  18.882  22.723  1.00  0.00    -0.493 OA
ATOM     28  C   UNL A   1      32.451  17.841  22.103  1.00  0.00     0.278 C 
ENDBRANCH  21  27
ENDBRANCH  15  18
ENDBRANCH  13  15
ENDBRANCH   7  13
ENDBRANCH   4   6
ENDBRANCH   3   4
ENDBRANCH   2   3
ENDBRANCH   1   2
BRANCH   1  29
ATOM     29  O   UNL A   1      32.551  31.754  27.620  1.00  0.00    -0.374 OA
BRANCH  29  30
ATOM     30  C   UNL A   1      33.866  31.309  27.538  1.00  0.00     0.202 C 
BRANCH  30  31
ATOM     31  C   UNL A   1      34.730  32.381  28.184  1.00  0.00     0.261 C 
BRANCH  31  32
ATOM     32  O   UNL A   1      34.752  32.125  29.639  1.00  0.00    -0.460 OA
BRANCH  32  33
ATOM     33  C   UNL A   1      35.949  32.035  30.325  1.00  0.00     0.338 C 
ATOM     34  O   UNL A   1      36.458  32.970  30.929  1.00  0.00    -0.246 OA
BRANCH  33  35
ATOM     35  C   UNL A   1      36.733  30.757  29.953  1.00  0.00     0.060 A 
ATOM     36  C   UNL A   1      37.087  29.766  30.872  1.00  0.00     0.016 A 
ATOM     37  C   UNL A   1      37.615  30.859  28.911  1.00  0.00     0.016 A 
ATOM     38  C   UNL A   1      38.447  29.240  30.901  1.00  0.00     0.010 A 
ATOM     39  C   UNL A   1      38.999  30.596  29.185  1.00  0.00     0.010 A 
ATOM     40  C   UNL A   1      39.544  29.937  30.330  1.00  0.00    -0.014 A 
BRANCH  40  41
ATOM     41  C   UNL A   1      41.336  29.773  30.471  1.00  0.00     0.031 A 
ATOM     42  C   UNL A   1      40.956  28.007  29.652  1.00  0.00     0.074 A 
ATOM     43  C   UNL A   1      43.059  30.275  31.064  1.00  0.00     0.049 A 
ATOM     44  N   UNL A   1      41.819  27.050  29.290  1.00  0.00    -0.248 NA
ATOM     45  C   UNL A   1      39.635  27.306  29.209  1.00  0.00     0.031 C 
ATOM     46  C   UNL A   1      44.803  29.473  30.634  1.00  0.00     0.029 A 
ATOM     47  N   UNL A   1      44.517  31.288  31.163  1.00  0.00    -0.354 N 
ATOM     48  C   UNL A   1      41.325  25.872  28.745  1.00  0.00     0.074 A 
ATOM     49  C   UNL A   1      39.941  26.142  28.586  1.00  0.00     0.031 C 
ATOM     50  C   UNL A   1      45.877  29.875  31.362  1.00  0.00     0.029 A 
ATOM     51  C   UNL A   1      45.172  30.786  32.148  1.00  0.00     0.049 A 
ATOM     52  H   UNL A   1      44.764  32.054  30.596  1.00  0.00     0.167 HD
ATOM     53  C   UNL A   1      42.145  24.789  28.511  1.00  0.00     0.031 A 
ATOM     54  C   UNL A   1      43.944  30.401  32.661  1.00  0.00     0.031 A 
ATOM     55  C   UNL A   1      43.454  24.982  29.156  1.00  0.00     0.049 A 
ATOM     56  C   UNL A   1      44.639  28.809  33.208  1.00  0.00     0.074 A 
ATOM     57  C   UNL A   1      44.556  25.694  28.734  1.00  0.00     0.029 A 
ATOM     58  N   UNL A   1      43.688  24.648  30.490  1.00  0.00    -0.354 N 
ATOM     59  N   UNL A   1      44.779  27.775  32.394  1.00  0.00    -0.248 NA
ATOM     60  C   UNL A   1      45.320  28.564  34.476  1.00  0.00     0.031 C 
ATOM     61  C   UNL A   1      45.360  25.959  29.877  1.00  0.00     0.029 A 
ATOM     62  C   UNL A   1      44.793  25.363  31.002  1.00  0.00     0.049 A 
ATOM     63  H   UNL A   1      43.155  24.001  31.005  1.00  0.00     0.167 HD
ATOM     64  C   UNL A   1      45.301  26.706  33.023  1.00  0.00     0.074 A 
ATOM     65  C   UNL A   1      45.695  27.275  34.314  1.00  0.00     0.031 C 
ATOM     66  C   UNL A   1      45.075  25.461  32.477  1.00  0.00     0.031 A 
BRANCH  53  67
ATOM     67  C   UNL A   1      41.957  23.595  27.542  1.00  0.00    -0.014 A 
ATOM     68  C   UNL A   1      40.880  22.717  27.843  1.00  0.00     0.009 A 
ATOM     69  C   UNL A   1      42.746  23.191  26.448  1.00  0.00     0.009 A 
ATOM     70  C   UNL A   1      40.634  21.507  27.173  1.00  0.00     0.001 A 
ATOM     71  C   UNL A   1      42.495  21.969  25.756  1.00  0.00     0.001 A 
ATOM     72  C   UNL A   1      41.452  21.122  26.129  1.00  0.00     0.000 A 
ENDBRANCH  53  67
BRANCH  54  73
ATOM     73  C   UNL A   1      41.787  30.974  32.377  1.00  0.00    -0.014 A 
ATOM     74  C   UNL A   1      41.208  32.549  31.908  1.00  0.00     0.009 A 
ATOM     75  C   UNL A   1      40.560  30.824  33.311  1.00  0.00     0.009 A 
ATOM     76  C   UNL A   1      40.054  33.373  32.063  1.00  0.00     0.001 A 
ATOM     77  C   UNL A   1      39.374  31.712  33.532  1.00  0.00     0.001 A 
ATOM     78  C   UNL A   1      39.073  32.882  32.841  1.00  0.00     0.000 A 
ENDBRANCH  54  73
BRANCH  66  79
ATOM     79  C   UNL A   1      44.871  24.296  33.408  1.00  0.00    -0.014 A 
ATOM     80  C   UNL A   1      43.683  24.101  34.136  1.00  0.00     0.009 A 
ATOM     81  C   UNL A   1      45.827  23.274  33.493  1.00  0.00     0.009 A 
ATOM     82  C   UNL A   1      43.560  23.094  35.090  1.00  0.00     0.001 A 
ATOM     83  C   UNL A   1      45.665  22.200  34.371  1.00  0.00     0.001 A 
ATOM     84  C   UNL A   1      44.568  22.155  35.223  1.00  0.00     0.000 A 
ENDBRANCH  66  79
ENDBRANCH  40  41
ENDBRANCH  33  35
ENDBRANCH  32  33
ENDBRANCH  31  32
ENDBRANCH  30  31
ENDBRANCH  29  30
ENDBRANCH   1  29
TORSDOF 19
ENDMDL
MODEL 3
REMARK VINA RESULT:     -11.4      2.995      3.984
REMARK SMILES COc1cc(C)c(S(=O)(=O)Nc2cc(C(=O)OCCOCCOC(=O)c3ccc(-c4c5nc(c(-c6ccccc6)c6ccc([nH]6)c(-c6ccccc6)c6nc(c(-c7ccccc7)c7ccc4[nH]7)C=C6)C=C5)cc3)ccc2F)cc1OC
REMARK SMILES IDX 19 1 18 2 17 3 15 4 16 5 14 6 12 7 13 8 76 9 75 10 77 11
REMARK SMILES IDX 74 12 11 13 8 15 9 16 10 17 7 18 3 19 4 20 79 21 5 22 78 23
REMARK SMILES IDX 6 24 2 25 1 26 80 27 81 28 20 29 21 30 22 31 23 32 24 33
REMARK SMILES IDX 25 34 26 35 27 36 73 37 28 38 72 39 29 40 30 41 31 42 66 43
REMARK SMILES IDX 32 44 71 45 65 46 67 47 33 48 70 49 64 50 63 51 34 53 56 54
REMARK SMILES IDX 41 55 55 56 42 57 45 58 54 59 68 60 43 61 44 62 53 64 69 65
REMARK SMILES IDX 46 66 35 67 36 68 40 69 37 70 39 71 38 72 57 73 58 74 62 75
REMARK SMILES IDX 59 76 61 77 60 78 47 79 48 80 52 81 49 82 51 83 50 84
REMARK H PARENT 11 14 67 52 45 63
REMARK Flexibility Score: inf
ROOT
ATOM      1  C   UNL A   1      36.114  30.944  27.778  1.00  0.00     0.202 C 
ENDROOT
BRANCH   1   2
ATOM      2  C   UNL A   1      34.746  30.556  27.436  1.00  0.00     0.261 C 
BRANCH   2   3
ATOM      3  O   UNL A   1      34.622  29.333  26.713  1.00  0.00    -0.460 OA
BRANCH   3   4
ATOM      4  C   UNL A   1      33.527  28.628  26.377  1.00  0.00     0.338 C 
ATOM      5  O   UNL A   1      33.382  27.431  26.584  1.00  0.00    -0.246 OA
BRANCH   4   6
ATOM      6  C   UNL A   1      32.868  29.311  25.257  1.00  0.00     0.062 A 
ATOM      7  C   UNL A   1      32.402  28.736  23.018  1.00  0.00     0.085 A 
ATOM      8  C   UNL A   1      33.320  29.030  23.978  1.00  0.00     0.045 A 
ATOM      9  C   UNL A   1      31.089  29.180  23.184  1.00  0.00     0.147 A 
ATOM     10  C   UNL A   1      30.678  29.736  24.402  1.00  0.00     0.042 A 
ATOM     11  F   UNL A   1      30.192  29.008  22.208  1.00  0.00    -0.205 F 
ATOM     12  C   UNL A   1      31.558  29.733  25.477  1.00  0.00     0.019 A 
BRANCH   7  13
ATOM     13  N   UNL A   1      32.882  27.864  21.994  1.00  0.00    -0.277 N 
ATOM     14  H   UNL A   1      33.371  28.244  21.229  1.00  0.00     0.180 HD
BRANCH  13  15
ATOM     15  S   UNL A   1      32.624  26.158  22.069  1.00  0.00     0.262 S 
ATOM     16  O   UNL A   1      33.671  25.619  21.216  1.00  0.00    -0.201 OA
ATOM     17  O   UNL A   1      31.231  25.992  21.700  1.00  0.00    -0.201 OA
BRANCH  15  18
ATOM     18  C   UNL A   1      32.892  25.155  23.898  1.00  0.00     0.094 A 
ATOM     19  C   UNL A   1      32.515  22.238  26.116  1.00  0.00     0.161 A 
ATOM     20  C   UNL A   1      31.080  23.677  26.430  1.00  0.00     0.055 A 
ATOM     21  C   UNL A   1      33.925  21.927  24.697  1.00  0.00     0.162 A 
ATOM     22  C   UNL A   1      31.377  25.319  25.243  1.00  0.00    -0.027 A 
ATOM     23  C   UNL A   1      33.904  23.478  23.335  1.00  0.00     0.073 A 
ATOM     24  C   UNL A   1      30.071  26.005  24.713  1.00  0.00     0.046 C 
BRANCH  19  25
ATOM     25  O   UNL A   1      33.011  21.560  27.278  1.00  0.00    -0.493 OA
ATOM     26  C   UNL A   1      33.871  22.410  27.953  1.00  0.00     0.278 C 
ENDBRANCH  19  25
BRANCH  21  27
ATOM     27  O   UNL A   1      34.695  20.831  24.426  1.00  0.00    -0.493 OA
ATOM     28  C   UNL A   1      35.948  20.802  25.089  1.00  0.00     0.278 C 
ENDBRANCH  21  27
ENDBRANCH  15  18
ENDBRANCH  13  15
ENDBRANCH   7  13
ENDBRANCH   4   6
ENDBRANCH   3   4
ENDBRANCH   2   3
ENDBRANCH   1   2
BRANCH   1  29
ATOM     29  O   UNL A   1      36.012  31.973  28.725  1.00  0.00    -0.374 OA
BRANCH  29  30
ATOM     30  C   UNL A   1      35.156  31.768  29.802  1.00  0.00     0.202 C 
BRANCH  30  31
ATOM     31  C   UNL A   1      36.034  31.492  31.011  1.00  0.00     0.261 C 
BRANCH  31  32
ATOM     32  O   UNL A   1      36.154  30.026  31.155  1.00  0.00    -0.460 OA
BRANCH  32  33
ATOM     33  C   UNL A   1      37.124  29.471  31.970  1.00  0.00     0.338 C 
ATOM     34  O   UNL A   1      37.358  29.856  33.107  1.00  0.00    -0.246 OA
BRANCH  33  35
ATOM     35  C   UNL A   1      38.097  28.571  31.177  1.00  0.00     0.060 A 
ATOM     36  C   UNL A   1      39.290  28.065  31.700  1.00  0.00     0.016 A 
ATOM     37  C   UNL A   1      38.147  28.765  29.822  1.00  0.00     0.016 A 
ATOM     38  C   UNL A   1      40.528  28.160  30.935  1.00  0.00     0.010 A 
ATOM     39  C   UNL A   1      39.405  29.160  29.255  1.00  0.00     0.010 A 
ATOM     40  C   UNL A   1      40.695  29.080  29.866  1.00  0.00    -0.014 A 
BRANCH  40  41
ATOM     41  C   UNL A   1      42.129  29.696  28.962  1.00  0.00     0.031 A 
ATOM     42  C   UNL A   1      42.338  27.769  28.541  1.00  0.00     0.074 A 
ATOM     43  C   UNL A   1      43.403  30.997  28.454  1.00  0.00     0.049 A 
ATOM     44  N   UNL A   1      43.257  27.176  27.769  1.00  0.00    -0.248 NA
ATOM     45  C   UNL A   1      41.525  26.501  28.945  1.00  0.00     0.031 C 
ATOM     46  C   UNL A   1      44.843  30.870  27.120  1.00  0.00     0.029 A 
ATOM     47  N   UNL A   1      43.991  32.487  27.683  1.00  0.00    -0.354 N 
ATOM     48  C   UNL A   1      43.224  25.796  27.627  1.00  0.00     0.074 A 
ATOM     49  C   UNL A   1      42.020  25.429  28.281  1.00  0.00     0.031 C 
ATOM     50  C   UNL A   1      45.768  31.866  27.096  1.00  0.00     0.029 A 
ATOM     51  C   UNL A   1      45.191  32.608  28.126  1.00  0.00     0.049 A 
ATOM     52  H   UNL A   1      43.510  33.080  27.062  1.00  0.00     0.167 HD
ATOM     53  C   UNL A   1      44.238  25.115  26.987  1.00  0.00     0.031 A 
ATOM     54  C   UNL A   1      44.754  31.936  29.256  1.00  0.00     0.031 A 
ATOM     55  C   UNL A   1      45.394  25.998  26.764  1.00  0.00     0.049 A 
ATOM     56  C   UNL A   1      46.312  30.998  29.339  1.00  0.00     0.074 A 
ATOM     57  C   UNL A   1      45.624  26.929  25.775  1.00  0.00     0.029 A 
ATOM     58  N   UNL A   1      46.379  26.200  27.732  1.00  0.00    -0.354 N 
ATOM     59  N   UNL A   1      46.530  29.915  28.610  1.00  0.00    -0.248 NA
ATOM     60  C   UNL A   1      47.540  31.436  29.995  1.00  0.00     0.031 C 
ATOM     61  C   UNL A   1      46.626  27.822  26.248  1.00  0.00     0.029 A 
ATOM     62  C   UNL A   1      47.064  27.415  27.507  1.00  0.00     0.049 A 
ATOM     63  H   UNL A   1      46.570  25.580  28.471  1.00  0.00     0.167 HD
ATOM     64  C   UNL A   1      47.744  29.385  28.849  1.00  0.00     0.074 A 
ATOM     65  C   UNL A   1      48.373  30.421  29.672  1.00  0.00     0.031 C 
ATOM     66  C   UNL A   1      47.937  28.052  28.553  1.00  0.00     0.031 A 
BRANCH  53  67
ATOM     67  C   UNL A   1      44.226  23.715  26.322  1.00  0.00    -0.014 A 
ATOM     68  C   UNL A   1      45.472  23.032  26.294  1.00  0.00     0.009 A 
ATOM     69  C   UNL A   1      43.182  23.043  25.658  1.00  0.00     0.009 A 
ATOM     70  C   UNL A   1      45.698  21.824  25.615  1.00  0.00     0.001 A 
ATOM     71  C   UNL A   1      43.401  21.810  24.976  1.00  0.00     0.001 A 
ATOM     72  C   UNL A   1      44.660  21.211  24.941  1.00  0.00     0.000 A 
ENDBRANCH  53  67
BRANCH  54  73
ATOM     73  C   UNL A   1      42.783  31.486  30.244  1.00  0.00    -0.014 A 
ATOM     74  C   UNL A   1      41.357  32.486  30.171  1.00  0.00     0.009 A 
ATOM     75  C   UNL A   1      42.434  31.134  31.713  1.00  0.00     0.009 A 
ATOM     76  C   UNL A   1      40.198  32.784  30.945  1.00  0.00     0.001 A 
ATOM     77  C   UNL A   1      41.252  31.494  32.560  1.00  0.00     0.001 A 
ATOM     78  C   UNL A   1      40.119  32.189  32.150  1.00  0.00     0.000 A 
ENDBRANCH  54  73
BRANCH  66  79
ATOM     79  C   UNL A   1      48.825  27.239  29.456  1.00  0.00    -0.014 A 
ATOM     80  C   UNL A   1      48.412  26.780  30.720  1.00  0.00     0.009 A 
ATOM     81  C   UNL A   1      50.079  26.794  29.013  1.00  0.00     0.009 A 
ATOM     82  C   UNL A   1      49.287  26.143  31.595  1.00  0.00     0.001 A 
ATOM     83  C   UNL A   1      50.925  26.061  29.847  1.00  0.00     0.001 A 
ATOM     84  C   UNL A   1      50.558  25.805  31.163  1.00  0.00     0.000 A 
ENDBRANCH  66  79
ENDBRANCH  40  41
ENDBRANCH  33  35
ENDBRANCH  32  33
ENDBRANCH  31  32
ENDBRANCH  30  31
ENDBRANCH  29  30
ENDBRANCH   1  29
TORSDOF 19
ENDMDL
