MODEL 1
REMARK VINA RESULT:     -11.7      0.000      0.000
REMARK SMILES Cc1ccc2[nH]cc([C@@H](C(=O)OCCOCCOC(=O)c3ccc(-c4c5nc(c(-c6ccccc6)c6ccc([nH]6)c(-c6ccccc6)c6nc(c(-c7ccccc7)c7ccc4[nH]7)C=C6)C=C5)cc3)[NH+]3CCN(c4ccc(F)cc4)CC3)c2c1
REMARK SMILES IDX 15 1 14 2 13 3 12 4 10 5 11 6 9 7 8 8 1 9 2 10 3 11 83 12
REMARK SMILES IDX 4 13 82 14 5 15 6 16 7 17 69 19 70 20 81 21 71 23 80 24
REMARK SMILES IDX 72 25 73 26 74 27 79 28 75 29 78 30 76 31 77 32 16 33 17 34
REMARK SMILES IDX 18 35 19 36 20 37 21 38 22 39 68 40 23 41 67 42 24 43 25 44
REMARK SMILES IDX 26 45 61 46 27 47 66 48 60 49 62 50 28 51 65 52 59 53 58 54
REMARK SMILES IDX 29 56 51 57 36 58 50 59 37 60 40 61 49 62 63 63 38 64 39 65
REMARK SMILES IDX 48 67 64 68 41 69 30 70 31 71 35 72 32 73 34 74 33 75 52 76
REMARK SMILES IDX 53 77 57 78 54 79 56 80 55 81 42 82 43 83 47 84 44 85 46 86
REMARK SMILES IDX 45 87
REMARK H PARENT 6 18 69 22 62 55 40 66
REMARK Flexibility Score: inf
ROOT
ATOM      1  O   UNL A   1      31.570  28.645  24.229  1.00  0.00    -0.374 OA
ENDROOT
BRANCH   1   2
ATOM      2  C   UNL A   1      30.415  28.046  23.642  1.00  0.00     0.202 C 
BRANCH   2   3
ATOM      3  C   UNL A   1      29.985  26.684  24.196  1.00  0.00     0.261 C 
BRANCH   3   4
ATOM      4  O   UNL A   1      30.792  25.587  23.715  1.00  0.00    -0.459 OA
BRANCH   4   5
ATOM      5  C   UNL A   1      31.104  24.638  24.647  1.00  0.00     0.370 C 
ATOM      6  O   UNL A   1      30.619  24.629  25.778  1.00  0.00    -0.245 OA
BRANCH   5   7
ATOM      7  C   UNL A   1      32.166  23.613  24.193  1.00  0.00     0.328 C 
BRANCH   7   8
ATOM      8  C   UNL A   1      32.392  22.379  25.037  1.00  0.00     0.046 A 
ATOM      9  C   UNL A   1      32.138  18.477  21.708  1.00  0.00     0.044 C 
ATOM     10  C   UNL A   1      32.440  19.079  23.050  1.00  0.00    -0.050 A 
ATOM     11  C   UNL A   1      32.915  18.291  24.102  1.00  0.00     0.005 A 
ATOM     12  C   UNL A   1      32.231  20.454  23.252  1.00  0.00     0.014 A 
ATOM     13  C   UNL A   1      33.145  18.833  25.370  1.00  0.00     0.027 A 
ATOM     14  C   UNL A   1      32.455  21.032  24.522  1.00  0.00     0.009 A 
ATOM     15  C   UNL A   1      32.882  20.196  25.554  1.00  0.00     0.046 A 
ATOM     16  N   UNL A   1      32.977  20.972  26.681  1.00  0.00    -0.361 N 
ATOM     17  C   UNL A   1      32.627  22.266  26.397  1.00  0.00     0.094 A 
ATOM     18  H   UNL A   1      33.256  20.646  27.567  1.00  0.00     0.166 HD
ENDBRANCH   7   8
BRANCH   7  19
ATOM     19  N   UNL A   1      33.428  24.294  23.813  1.00  0.00    -0.316 N 
ATOM     20  C   UNL A   1      34.070  25.211  24.758  1.00  0.00     0.284 C 
ATOM     21  C   UNL A   1      34.409  23.492  23.076  1.00  0.00     0.284 C 
ATOM     22  H   UNL A   1      32.995  24.930  23.144  1.00  0.00     0.349 HD
ATOM     23  C   UNL A   1      35.236  24.657  25.611  1.00  0.00     0.178 C 
ATOM     24  C   UNL A   1      35.523  22.843  23.925  1.00  0.00     0.178 C 
ATOM     25  N   UNL A   1      36.152  23.833  24.816  1.00  0.00    -0.360 N 
BRANCH  25  26
ATOM     26  C   UNL A   1      37.314  23.389  25.445  1.00  0.00     0.037 A 
ATOM     27  C   UNL A   1      38.069  24.203  26.301  1.00  0.00     0.029 A 
ATOM     28  C   UNL A   1      37.734  22.068  25.235  1.00  0.00     0.029 A 
ATOM     29  C   UNL A   1      39.224  23.715  26.919  1.00  0.00     0.041 A 
ATOM     30  C   UNL A   1      38.889  21.577  25.846  1.00  0.00     0.041 A 
ATOM     31  C   UNL A   1      39.624  22.407  26.681  1.00  0.00     0.123 A 
ATOM     32  F   UNL A   1      40.732  21.939  27.270  1.00  0.00    -0.207 F 
ENDBRANCH  25  26
ENDBRANCH   7  19
ENDBRANCH   5   7
ENDBRANCH   4   5
ENDBRANCH   3   4
ENDBRANCH   2   3
ENDBRANCH   1   2
BRANCH   1  33
ATOM     33  C   UNL A   1      31.543  28.873  25.636  1.00  0.00     0.202 C 
BRANCH  33  34
ATOM     34  C   UNL A   1      31.915  30.289  26.083  1.00  0.00     0.261 C 
BRANCH  34  35
ATOM     35  O   UNL A   1      32.750  30.255  27.252  1.00  0.00    -0.460 OA
BRANCH  35  36
ATOM     36  C   UNL A   1      33.476  31.374  27.448  1.00  0.00     0.338 C 
ATOM     37  O   UNL A   1      33.054  32.520  27.569  1.00  0.00    -0.246 OA
BRANCH  36  38
ATOM     38  C   UNL A   1      34.885  31.033  27.690  1.00  0.00     0.060 A 
ATOM     39  C   UNL A   1      35.213  29.675  27.760  1.00  0.00     0.016 A 
ATOM     40  C   UNL A   1      35.837  32.013  27.979  1.00  0.00     0.016 A 
ATOM     41  C   UNL A   1      36.478  29.287  28.192  1.00  0.00     0.010 A 
ATOM     42  C   UNL A   1      37.107  31.621  28.422  1.00  0.00     0.010 A 
ATOM     43  C   UNL A   1      37.413  30.257  28.579  1.00  0.00    -0.014 A 
BRANCH  43  44
ATOM     44  C   UNL A   1      38.622  29.817  29.320  1.00  0.00     0.031 A 
ATOM     45  C   UNL A   1      38.783  30.227  30.761  1.00  0.00     0.074 A 
ATOM     46  C   UNL A   1      39.520  28.992  28.755  1.00  0.00     0.049 A 
ATOM     47  N   UNL A   1      39.703  29.878  31.624  1.00  0.00    -0.248 NA
ATOM     48  C   UNL A   1      37.765  31.143  31.301  1.00  0.00     0.031 C 
ATOM     49  C   UNL A   1      39.461  28.486  27.385  1.00  0.00     0.029 A 
ATOM     50  N   UNL A   1      40.651  28.418  29.280  1.00  0.00    -0.354 N 
ATOM     51  C   UNL A   1      39.371  30.526  32.809  1.00  0.00     0.074 A 
ATOM     52  C   UNL A   1      38.188  31.315  32.544  1.00  0.00     0.031 C 
ATOM     53  C   UNL A   1      40.508  27.668  27.179  1.00  0.00     0.029 A 
ATOM     54  C   UNL A   1      41.317  27.607  28.395  1.00  0.00     0.049 A 
ATOM     55  H   UNL A   1      40.956  28.573  30.203  1.00  0.00     0.167 HD
ATOM     56  C   UNL A   1      39.988  30.463  34.013  1.00  0.00     0.031 A 
ATOM     57  C   UNL A   1      42.451  26.896  28.548  1.00  0.00     0.031 A 
ATOM     58  C   UNL A   1      41.173  29.694  34.283  1.00  0.00     0.049 A 
ATOM     59  C   UNL A   1      43.157  26.897  29.878  1.00  0.00     0.074 A 
ATOM     60  C   UNL A   1      41.865  29.564  35.474  1.00  0.00     0.029 A 
ATOM     61  N   UNL A   1      41.846  28.930  33.343  1.00  0.00    -0.354 N 
ATOM     62  N   UNL A   1      42.813  27.487  30.997  1.00  0.00    -0.248 NA
ATOM     63  C   UNL A   1      44.400  26.116  29.966  1.00  0.00     0.031 C 
ATOM     64  C   UNL A   1      42.985  28.759  35.243  1.00  0.00     0.029 A 
ATOM     65  C   UNL A   1      42.960  28.346  33.920  1.00  0.00     0.049 A 
ATOM     66  H   UNL A   1      41.572  28.820  32.403  1.00  0.00     0.167 HD
ATOM     67  C   UNL A   1      43.782  27.129  31.927  1.00  0.00     0.074 A 
ATOM     68  C   UNL A   1      44.718  26.259  31.245  1.00  0.00     0.031 C 
ATOM     69  C   UNL A   1      43.885  27.486  33.231  1.00  0.00     0.031 A 
BRANCH  56  70
ATOM     70  C   UNL A   1      39.400  31.278  35.129  1.00  0.00    -0.014 A 
ATOM     71  C   UNL A   1      38.442  30.735  36.002  1.00  0.00     0.009 A 
ATOM     72  C   UNL A   1      39.829  32.599  35.329  1.00  0.00     0.009 A 
ATOM     73  C   UNL A   1      37.904  31.510  37.031  1.00  0.00     0.001 A 
ATOM     74  C   UNL A   1      39.307  33.364  36.373  1.00  0.00     0.001 A 
ATOM     75  C   UNL A   1      38.340  32.822  37.218  1.00  0.00     0.000 A 
ENDBRANCH  56  70
BRANCH  57  76
ATOM     76  C   UNL A   1      43.002  26.121  27.406  1.00  0.00    -0.014 A 
ATOM     77  C   UNL A   1      43.845  26.728  26.465  1.00  0.00     0.009 A 
ATOM     78  C   UNL A   1      42.663  24.768  27.243  1.00  0.00     0.009 A 
ATOM     79  C   UNL A   1      44.320  26.003  25.369  1.00  0.00     0.001 A 
ATOM     80  C   UNL A   1      43.160  24.039  26.162  1.00  0.00     0.001 A 
ATOM     81  C   UNL A   1      43.980  24.659  25.221  1.00  0.00     0.000 A 
ENDBRANCH  57  76
BRANCH  69  82
ATOM     82  C   UNL A   1      45.031  26.910  34.014  1.00  0.00    -0.014 A 
ATOM     83  C   UNL A   1      46.279  27.550  34.056  1.00  0.00     0.009 A 
ATOM     84  C   UNL A   1      44.847  25.729  34.749  1.00  0.00     0.009 A 
ATOM     85  C   UNL A   1      47.332  26.998  34.791  1.00  0.00     0.001 A 
ATOM     86  C   UNL A   1      45.892  25.194  35.504  1.00  0.00     0.001 A 
ATOM     87  C   UNL A   1      47.136  25.823  35.517  1.00  0.00     0.000 A 
ENDBRANCH  69  82
ENDBRANCH  43  44
ENDBRANCH  36  38
ENDBRANCH  35  36
ENDBRANCH  34  35
ENDBRANCH  33  34
ENDBRANCH   1  33
TORSDOF 17
ENDMDL
MODEL 2
REMARK VINA RESULT:     -11.6      3.555      7.370
REMARK SMILES Cc1ccc2[nH]cc([C@@H](C(=O)OCCOCCOC(=O)c3ccc(-c4c5nc(c(-c6ccccc6)c6ccc([nH]6)c(-c6ccccc6)c6nc(c(-c7ccccc7)c7ccc4[nH]7)C=C6)C=C5)cc3)[NH+]3CCN(c4ccc(F)cc4)CC3)c2c1
REMARK SMILES IDX 15 1 14 2 13 3 12 4 10 5 11 6 9 7 8 8 1 9 2 10 3 11 83 12
REMARK SMILES IDX 4 13 82 14 5 15 6 16 7 17 69 19 70 20 81 21 71 23 80 24
REMARK SMILES IDX 72 25 73 26 74 27 79 28 75 29 78 30 76 31 77 32 16 33 17 34
REMARK SMILES IDX 18 35 19 36 20 37 21 38 22 39 68 40 23 41 67 42 24 43 25 44
REMARK SMILES IDX 26 45 61 46 27 47 66 48 60 49 62 50 28 51 65 52 59 53 58 54
REMARK SMILES IDX 29 56 51 57 36 58 50 59 37 60 40 61 49 62 63 63 38 64 39 65
REMARK SMILES IDX 48 67 64 68 41 69 30 70 31 71 35 72 32 73 34 74 33 75 52 76
REMARK SMILES IDX 53 77 57 78 54 79 56 80 55 81 42 82 43 83 47 84 44 85 46 86
REMARK SMILES IDX 45 87
REMARK H PARENT 6 18 69 22 62 55 40 66
REMARK Flexibility Score: inf
ROOT
ATOM      1  O   UNL A   1      33.894  29.132  25.731  1.00  0.00    -0.374 OA
ENDROOT
BRANCH   1   2
ATOM      2  C   UNL A   1      33.898  27.842  26.342  1.00  0.00     0.202 C 
BRANCH   2   3
ATOM      3  C   UNL A   1      33.570  26.648  25.439  1.00  0.00     0.261 C 
BRANCH   3   4
ATOM      4  O   UNL A   1      34.046  26.805  24.084  1.00  0.00    -0.459 OA
BRANCH   4   5
ATOM      5  C   UNL A   1      33.791  25.753  23.250  1.00  0.00     0.370 C 
ATOM      6  O   UNL A   1      34.257  25.676  22.113  1.00  0.00    -0.245 OA
BRANCH   5   7
ATOM      7  C   UNL A   1      32.819  24.697  23.820  1.00  0.00     0.328 C 
BRANCH   7   8
ATOM      8  C   UNL A   1      33.274  23.258  23.899  1.00  0.00     0.046 A 
ATOM      9  C   UNL A   1      37.972  23.502  25.957  1.00  0.00     0.044 C 
ATOM     10  C   UNL A   1      36.743  22.770  25.503  1.00  0.00    -0.050 A 
ATOM     11  C   UNL A   1      36.649  21.381  25.615  1.00  0.00     0.005 A 
ATOM     12  C   UNL A   1      35.675  23.495  24.946  1.00  0.00     0.014 A 
ATOM     13  C   UNL A   1      35.531  20.687  25.142  1.00  0.00     0.027 A 
ATOM     14  C   UNL A   1      34.531  22.823  24.461  1.00  0.00     0.009 A 
ATOM     15  C   UNL A   1      34.505  21.432  24.549  1.00  0.00     0.046 A 
ATOM     16  N   UNL A   1      33.330  21.018  23.973  1.00  0.00    -0.361 N 
ATOM     17  C   UNL A   1      32.616  22.099  23.525  1.00  0.00     0.094 A 
ATOM     18  H   UNL A   1      33.042  20.080  23.892  1.00  0.00     0.166 HD
ENDBRANCH   7   8
BRANCH   7  19
ATOM     19  N   UNL A   1      31.470  24.847  23.223  1.00  0.00    -0.316 N 
ATOM     20  C   UNL A   1      30.302  24.990  24.096  1.00  0.00     0.284 C 
ATOM     21  C   UNL A   1      31.370  25.698  22.033  1.00  0.00     0.284 C 
ATOM     22  H   UNL A   1      31.396  23.879  22.908  1.00  0.00     0.349 HD
ATOM     23  C   UNL A   1      29.776  26.421  24.357  1.00  0.00     0.178 C 
ATOM     24  C   UNL A   1      30.946  27.161  22.284  1.00  0.00     0.178 C 
ATOM     25  N   UNL A   1      29.743  27.223  23.131  1.00  0.00    -0.360 N 
BRANCH  25  26
ATOM     26  C   UNL A   1      29.161  28.487  23.215  1.00  0.00     0.037 A 
ATOM     27  C   UNL A   1      27.791  28.705  23.005  1.00  0.00     0.029 A 
ATOM     28  C   UNL A   1      29.968  29.583  23.549  1.00  0.00     0.029 A 
ATOM     29  C   UNL A   1      27.246  29.987  23.108  1.00  0.00     0.041 A 
ATOM     30  C   UNL A   1      29.429  30.867  23.649  1.00  0.00     0.041 A 
ATOM     31  C   UNL A   1      28.073  31.057  23.426  1.00  0.00     0.123 A 
ATOM     32  F   UNL A   1      27.552  32.286  23.522  1.00  0.00    -0.207 F 
ENDBRANCH  25  26
ENDBRANCH   7  19
ENDBRANCH   5   7
ENDBRANCH   4   5
ENDBRANCH   3   4
ENDBRANCH   2   3
ENDBRANCH   1   2
BRANCH   1  33
ATOM     33  C   UNL A   1      32.830  30.015  26.078  1.00  0.00     0.202 C 
BRANCH  33  34
ATOM     34  C   UNL A   1      33.073  30.889  27.310  1.00  0.00     0.261 C 
BRANCH  34  35
ATOM     35  O   UNL A   1      34.432  31.355  27.348  1.00  0.00    -0.460 OA
BRANCH  35  36
ATOM     36  C   UNL A   1      34.959  31.430  28.588  1.00  0.00     0.338 C 
ATOM     37  O   UNL A   1      34.488  32.012  29.560  1.00  0.00    -0.246 OA
BRANCH  36  38
ATOM     38  C   UNL A   1      36.128  30.546  28.699  1.00  0.00     0.060 A 
ATOM     39  C   UNL A   1      36.532  30.176  29.987  1.00  0.00     0.016 A 
ATOM     40  C   UNL A   1      36.893  30.198  27.583  1.00  0.00     0.016 A 
ATOM     41  C   UNL A   1      37.745  29.519  30.172  1.00  0.00     0.010 A 
ATOM     42  C   UNL A   1      38.117  29.545  27.773  1.00  0.00     0.010 A 
ATOM     43  C   UNL A   1      38.571  29.250  29.072  1.00  0.00    -0.014 A 
BRANCH  43  44
ATOM     44  C   UNL A   1      39.974  28.838  29.324  1.00  0.00     0.031 A 
ATOM     45  C   UNL A   1      40.420  27.465  28.891  1.00  0.00     0.074 A 
ATOM     46  C   UNL A   1      40.866  29.697  29.845  1.00  0.00     0.049 A 
ATOM     47  N   UNL A   1      41.616  26.934  28.921  1.00  0.00    -0.248 NA
ATOM     48  C   UNL A   1      39.379  26.579  28.343  1.00  0.00     0.031 C 
ATOM     49  C   UNL A   1      40.577  31.067  30.266  1.00  0.00     0.029 A 
ATOM     50  N   UNL A   1      42.209  29.544  30.090  1.00  0.00    -0.354 N 
ATOM     51  C   UNL A   1      41.472  25.656  28.392  1.00  0.00     0.074 A 
ATOM     52  C   UNL A   1      40.071  25.480  28.081  1.00  0.00     0.031 C 
ATOM     53  C   UNL A   1      41.713  31.633  30.710  1.00  0.00     0.029 A 
ATOM     54  C   UNL A   1      42.802  30.662  30.620  1.00  0.00     0.049 A 
ATOM     55  H   UNL A   1      42.699  28.711  29.902  1.00  0.00     0.167 HD
ATOM     56  C   UNL A   1      42.423  24.717  28.171  1.00  0.00     0.031 A 
ATOM     57  C   UNL A   1      44.078  30.878  30.992  1.00  0.00     0.031 A 
ATOM     58  C   UNL A   1      43.816  24.876  28.491  1.00  0.00     0.049 A 
ATOM     59  C   UNL A   1      45.103  29.792  30.800  1.00  0.00     0.074 A 
ATOM     60  C   UNL A   1      44.854  23.981  28.298  1.00  0.00     0.029 A 
ATOM     61  N   UNL A   1      44.365  26.005  29.078  1.00  0.00    -0.354 N 
ATOM     62  N   UNL A   1      44.960  28.603  30.268  1.00  0.00    -0.248 NA
ATOM     63  C   UNL A   1      46.472  30.090  31.249  1.00  0.00     0.031 C 
ATOM     64  C   UNL A   1      46.023  24.550  28.813  1.00  0.00     0.029 A 
ATOM     65  C   UNL A   1      45.722  25.820  29.278  1.00  0.00     0.049 A 
ATOM     66  H   UNL A   1      43.863  26.818  29.317  1.00  0.00     0.167 HD
ATOM     67  C   UNL A   1      46.223  28.022  30.293  1.00  0.00     0.074 A 
ATOM     68  C   UNL A   1      47.122  28.994  30.880  1.00  0.00     0.031 C 
ATOM     69  C   UNL A   1      46.604  26.793  29.865  1.00  0.00     0.031 A 
BRANCH  56  70
ATOM     70  C   UNL A   1      41.974  23.412  27.578  1.00  0.00    -0.014 A 
ATOM     71  C   UNL A   1      42.105  23.153  26.204  1.00  0.00     0.009 A 
ATOM     72  C   UNL A   1      41.437  22.416  28.409  1.00  0.00     0.009 A 
ATOM     73  C   UNL A   1      41.678  21.936  25.670  1.00  0.00     0.001 A 
ATOM     74  C   UNL A   1      41.034  21.191  27.876  1.00  0.00     0.001 A 
ATOM     75  C   UNL A   1      41.147  20.954  26.507  1.00  0.00     0.000 A 
ENDBRANCH  56  70
BRANCH  57  76
ATOM     76  C   UNL A   1      44.467  32.180  31.592  1.00  0.00    -0.014 A 
ATOM     77  C   UNL A   1      44.427  32.374  32.980  1.00  0.00     0.009 A 
ATOM     78  C   UNL A   1      44.860  33.248  30.769  1.00  0.00     0.009 A 
ATOM     79  C   UNL A   1      44.750  33.616  33.531  1.00  0.00     0.001 A 
ATOM     80  C   UNL A   1      45.207  34.480  31.323  1.00  0.00     0.001 A 
ATOM     81  C   UNL A   1      45.142  34.666  32.702  1.00  0.00     0.000 A 
ENDBRANCH  57  76
BRANCH  69  82
ATOM     82  C   UNL A   1      48.060  26.444  29.985  1.00  0.00    -0.014 A 
ATOM     83  C   UNL A   1      48.566  25.814  31.133  1.00  0.00     0.009 A 
ATOM     84  C   UNL A   1      48.931  26.716  28.919  1.00  0.00     0.009 A 
ATOM     85  C   UNL A   1      49.924  25.497  31.224  1.00  0.00     0.001 A 
ATOM     86  C   UNL A   1      50.282  26.375  29.002  1.00  0.00     0.001 A 
ATOM     87  C   UNL A   1      50.780  25.774  30.157  1.00  0.00     0.000 A 
ENDBRANCH  69  82
ENDBRANCH  43  44
ENDBRANCH  36  38
ENDBRANCH  35  36
ENDBRANCH  34  35
ENDBRANCH  33  34
ENDBRANCH   1  33
TORSDOF 17
ENDMDL
MODEL 3
REMARK VINA RESULT:     -11.6      2.085      4.529
REMARK SMILES Cc1ccc2[nH]cc([C@@H](C(=O)OCCOCCOC(=O)c3ccc(-c4c5nc(c(-c6ccccc6)c6ccc([nH]6)c(-c6ccccc6)c6nc(c(-c7ccccc7)c7ccc4[nH]7)C=C6)C=C5)cc3)[NH+]3CCN(c4ccc(F)cc4)CC3)c2c1
REMARK SMILES IDX 15 1 14 2 13 3 12 4 10 5 11 6 9 7 8 8 1 9 2 10 3 11 83 12
REMARK SMILES IDX 4 13 82 14 5 15 6 16 7 17 69 19 70 20 81 21 71 23 80 24
REMARK SMILES IDX 72 25 73 26 74 27 79 28 75 29 78 30 76 31 77 32 16 33 17 34
REMARK SMILES IDX 18 35 19 36 20 37 21 38 22 39 68 40 23 41 67 42 24 43 25 44
REMARK SMILES IDX 26 45 61 46 27 47 66 48 60 49 62 50 28 51 65 52 59 53 58 54
REMARK SMILES IDX 29 56 51 57 36 58 50 59 37 60 40 61 49 62 63 63 38 64 39 65
REMARK SMILES IDX 48 67 64 68 41 69 30 70 31 71 35 72 32 73 34 74 33 75 52 76
REMARK SMILES IDX 53 77 57 78 54 79 56 80 55 81 42 82 43 83 47 84 44 85 46 86
REMARK SMILES IDX 45 87
REMARK H PARENT 6 18 69 22 62 55 40 66
REMARK Flexibility Score: inf
ROOT
ATOM      1  O   UNL A   1      32.607  30.401  25.780  1.00  0.00    -0.374 OA
ENDROOT
BRANCH   1   2
ATOM      2  C   UNL A   1      33.637  29.502  26.187  1.00  0.00     0.202 C 
BRANCH   2   3
ATOM      3  C   UNL A   1      33.268  28.462  27.249  1.00  0.00     0.261 C 
BRANCH   3   4
ATOM      4  O   UNL A   1      33.051  27.140  26.709  1.00  0.00    -0.459 OA
BRANCH   4   5
ATOM      5  C   UNL A   1      31.855  26.956  26.075  1.00  0.00     0.370 C 
ATOM      6  O   UNL A   1      30.772  27.044  26.654  1.00  0.00    -0.245 OA
BRANCH   5   7
ATOM      7  C   UNL A   1      31.967  26.565  24.585  1.00  0.00     0.328 C 
BRANCH   7   8
ATOM      8  C   UNL A   1      31.741  27.629  23.535  1.00  0.00     0.046 A 
ATOM      9  C   UNL A   1      26.650  28.288  23.441  1.00  0.00     0.044 C 
ATOM     10  C   UNL A   1      28.058  28.665  23.084  1.00  0.00    -0.050 A 
ATOM     11  C   UNL A   1      28.325  29.775  22.279  1.00  0.00     0.005 A 
ATOM     12  C   UNL A   1      29.123  27.879  23.558  1.00  0.00     0.014 A 
ATOM     13  C   UNL A   1      29.630  30.099  21.896  1.00  0.00     0.027 A 
ATOM     14  C   UNL A   1      30.453  28.182  23.189  1.00  0.00     0.009 A 
ATOM     15  C   UNL A   1      30.665  29.271  22.344  1.00  0.00     0.046 A 
ATOM     16  N   UNL A   1      32.014  29.325  22.095  1.00  0.00    -0.361 N 
ATOM     17  C   UNL A   1      32.658  28.310  22.753  1.00  0.00     0.094 A 
ATOM     18  H   UNL A   1      32.454  29.996  21.526  1.00  0.00     0.166 HD
ENDBRANCH   7   8
BRANCH   7  19
ATOM     19  N   UNL A   1      31.220  25.313  24.312  1.00  0.00    -0.316 N 
ATOM     20  C   UNL A   1      31.466  24.578  23.068  1.00  0.00     0.284 C 
ATOM     21  C   UNL A   1      31.016  24.410  25.449  1.00  0.00     0.284 C 
ATOM     22  H   UNL A   1      30.328  25.771  24.128  1.00  0.00     0.349 HD
ATOM     23  C   UNL A   1      32.435  23.373  23.130  1.00  0.00     0.178 C 
ATOM     24  C   UNL A   1      32.036  23.260  25.588  1.00  0.00     0.178 C 
ATOM     25  N   UNL A   1      32.198  22.541  24.313  1.00  0.00    -0.360 N 
BRANCH  25  26
ATOM     26  C   UNL A   1      32.919  21.352  24.407  1.00  0.00     0.037 A 
ATOM     27  C   UNL A   1      32.333  20.094  24.203  1.00  0.00     0.029 A 
ATOM     28  C   UNL A   1      34.290  21.413  24.691  1.00  0.00     0.029 A 
ATOM     29  C   UNL A   1      33.095  18.926  24.298  1.00  0.00     0.041 A 
ATOM     30  C   UNL A   1      35.054  20.249  24.791  1.00  0.00     0.041 A 
ATOM     31  C   UNL A   1      34.448  19.016  24.595  1.00  0.00     0.123 A 
ATOM     32  F   UNL A   1      35.178  17.898  24.688  1.00  0.00    -0.207 F 
ENDBRANCH  25  26
ENDBRANCH   7  19
ENDBRANCH   5   7
ENDBRANCH   4   5
ENDBRANCH   3   4
ENDBRANCH   2   3
ENDBRANCH   1   2
BRANCH   1  33
ATOM     33  C   UNL A   1      31.753  30.919  26.797  1.00  0.00     0.202 C 
BRANCH  33  34
ATOM     34  C   UNL A   1      31.793  32.438  26.982  1.00  0.00     0.261 C 
BRANCH  34  35
ATOM     35  O   UNL A   1      33.142  32.895  27.173  1.00  0.00    -0.460 OA
BRANCH  35  36
ATOM     36  C   UNL A   1      33.281  33.829  28.136  1.00  0.00     0.338 C 
ATOM     37  O   UNL A   1      32.509  34.747  28.395  1.00  0.00    -0.246 OA
BRANCH  36  38
ATOM     38  C   UNL A   1      34.426  33.505  28.999  1.00  0.00     0.060 A 
ATOM     39  C   UNL A   1      35.681  33.983  28.606  1.00  0.00     0.016 A 
ATOM     40  C   UNL A   1      34.300  32.643  30.091  1.00  0.00     0.016 A 
ATOM     41  C   UNL A   1      36.828  33.540  29.258  1.00  0.00     0.010 A 
ATOM     42  C   UNL A   1      35.456  32.191  30.740  1.00  0.00     0.010 A 
ATOM     43  C   UNL A   1      36.726  32.599  30.292  1.00  0.00    -0.014 A 
BRANCH  43  44
ATOM     44  C   UNL A   1      37.962  31.918  30.753  1.00  0.00     0.031 A 
ATOM     45  C   UNL A   1      38.519  32.260  32.110  1.00  0.00     0.074 A 
ATOM     46  C   UNL A   1      38.531  30.944  30.022  1.00  0.00     0.049 A 
ATOM     47  N   UNL A   1      39.524  31.723  32.753  1.00  0.00    -0.248 NA
ATOM     48  C   UNL A   1      37.847  33.347  32.841  1.00  0.00     0.031 C 
ATOM     49  C   UNL A   1      38.068  30.486  28.714  1.00  0.00     0.029 A 
ATOM     50  N   UNL A   1      39.618  30.151  30.294  1.00  0.00    -0.354 N 
ATOM     51  C   UNL A   1      39.601  32.400  33.965  1.00  0.00     0.074 A 
ATOM     52  C   UNL A   1      38.565  33.409  33.953  1.00  0.00     0.031 C 
ATOM     53  C   UNL A   1      38.863  29.484  28.299  1.00  0.00     0.029 A 
ATOM     54  C   UNL A   1      39.897  29.243  29.303  1.00  0.00     0.049 A 
ATOM     55  H   UNL A   1      40.148  30.226  31.121  1.00  0.00     0.167 HD
ATOM     56  C   UNL A   1      40.448  32.195  35.001  1.00  0.00     0.031 A 
ATOM     57  C   UNL A   1      40.876  28.322  29.215  1.00  0.00     0.031 A 
ATOM     58  C   UNL A   1      41.492  31.205  35.017  1.00  0.00     0.049 A 
ATOM     59  C   UNL A   1      41.850  28.160  30.352  1.00  0.00     0.074 A 
ATOM     60  C   UNL A   1      42.396  30.920  36.026  1.00  0.00     0.029 A 
ATOM     61  N   UNL A   1      41.774  30.343  33.970  1.00  0.00    -0.354 N 
ATOM     62  N   UNL A   1      41.889  28.784  31.504  1.00  0.00    -0.248 NA
ATOM     63  C   UNL A   1      42.906  27.151  30.179  1.00  0.00     0.031 C 
ATOM     64  C   UNL A   1      43.257  29.917  35.569  1.00  0.00     0.029 A 
ATOM     65  C   UNL A   1      42.854  29.542  34.297  1.00  0.00     0.049 A 
ATOM     66  H   UNL A   1      41.279  30.305  33.119  1.00  0.00     0.167 HD
ATOM     67  C   UNL A   1      42.954  28.226  32.202  1.00  0.00     0.074 A 
ATOM     68  C   UNL A   1      43.525  27.204  31.349  1.00  0.00     0.031 C 
ATOM     69  C   UNL A   1      43.415  28.531  33.439  1.00  0.00     0.031 A 
BRANCH  56  70
ATOM     70  C   UNL A   1      40.297  33.088  36.200  1.00  0.00    -0.014 A 
ATOM     71  C   UNL A   1      41.009  34.294  36.304  1.00  0.00     0.009 A 
ATOM     72  C   UNL A   1      39.409  32.731  37.227  1.00  0.00     0.009 A 
ATOM     73  C   UNL A   1      40.858  35.108  37.428  1.00  0.00     0.001 A 
ATOM     74  C   UNL A   1      39.242  33.560  38.338  1.00  0.00     0.001 A 
ATOM     75  C   UNL A   1      39.971  34.742  38.442  1.00  0.00     0.000 A 
ENDBRANCH  56  70
BRANCH  57  76
ATOM     76  C   UNL A   1      40.994  27.477  27.999  1.00  0.00    -0.014 A 
ATOM     77  C   UNL A   1      41.724  27.916  26.885  1.00  0.00     0.009 A 
ATOM     78  C   UNL A   1      40.353  26.229  27.942  1.00  0.00     0.009 A 
ATOM     79  C   UNL A   1      41.790  27.134  25.730  1.00  0.00     0.001 A 
ATOM     80  C   UNL A   1      40.442  25.438  26.796  1.00  0.00     0.001 A 
ATOM     81  C   UNL A   1      41.152  25.895  25.688  1.00  0.00     0.000 A 
ENDBRANCH  57  76
BRANCH  69  82
ATOM     82  C   UNL A   1      44.574  27.729  33.959  1.00  0.00    -0.014 A 
ATOM     83  C   UNL A   1      45.899  28.142  33.750  1.00  0.00     0.009 A 
ATOM     84  C   UNL A   1      44.335  26.561  34.700  1.00  0.00     0.009 A 
ATOM     85  C   UNL A   1      46.962  27.381  34.243  1.00  0.00     0.001 A 
ATOM     86  C   UNL A   1      45.398  25.816  35.213  1.00  0.00     0.001 A 
ATOM     87  C   UNL A   1      46.711  26.221  34.977  1.00  0.00     0.000 A 
ENDBRANCH  69  82
ENDBRANCH  43  44
ENDBRANCH  36  38
ENDBRANCH  35  36
ENDBRANCH  34  35
ENDBRANCH  33  34
ENDBRANCH   1  33
TORSDOF 17
ENDMDL
