MODEL 1
REMARK VINA RESULT:     -12.3      0.000      0.000
REMARK SMILES COc1cc([C@@H]2CC(=O)Nc3c(C(=O)OCCOCCOC(=O)c4ccc(-c5c6nc(c(-c7ccccc7)c7ccc([nH]7)c(-c7ccccc7)c7nc(c(-c8ccccc8)c8ccc5[nH]8)C=C7)C=C6)cc4)cn(-c4ccc(F)cc4)c32)c(OC)c2c1OCO2
REMARK SMILES IDX 18 1 17 2 16 3 15 4 13 5 14 6 12 7 6 8 7 9 81 10 8 11 11 12
REMARK SMILES IDX 73 13 9 14 10 15 72 16 5 18 3 19 4 20 86 21 85 22 87 23
REMARK SMILES IDX 82 24 89 25 88 26 2 27 1 28 83 29 84 30 74 31 75 32 80 33
REMARK SMILES IDX 76 34 79 35 77 36 78 37 19 38 20 39 21 40 22 41 23 42 24 43
REMARK SMILES IDX 25 44 71 45 26 46 70 47 27 48 28 49 29 50 64 51 30 52 69 53
REMARK SMILES IDX 63 54 65 55 31 56 68 57 62 58 61 59 32 61 54 62 39 63 53 64
REMARK SMILES IDX 40 65 43 66 52 67 66 68 41 69 42 70 51 72 67 73 44 74 33 75
REMARK SMILES IDX 34 76 38 77 35 78 37 79 36 80 55 81 56 82 60 83 57 84 59 85
REMARK SMILES IDX 58 86 45 87 46 88 50 89 47 90 49 91 48 92
REMARK H PARENT 10 17 65 60 43 71
REMARK Flexibility Score: inf
ROOT
ATOM      1  O   UNL A   1      36.906  21.783  25.751  1.00  0.00    -0.374 OA
ENDROOT
BRANCH   1   2
ATOM      2  C   UNL A   1      35.813  21.018  25.248  1.00  0.00     0.202 C 
BRANCH   2   3
ATOM      3  C   UNL A   1      34.392  21.460  25.611  1.00  0.00     0.261 C 
BRANCH   3   4
ATOM      4  O   UNL A   1      34.007  22.666  24.934  1.00  0.00    -0.460 OA
BRANCH   4   5
ATOM      5  C   UNL A   1      33.199  23.486  25.659  1.00  0.00     0.341 C 
ATOM      6  O   UNL A   1      32.503  23.124  26.611  1.00  0.00    -0.246 OA
BRANCH   5   7
ATOM      7  C   UNL A   1      33.320  24.880  25.282  1.00  0.00     0.102 A 
ATOM      8  C   UNL A   1      32.764  27.770  23.077  1.00  0.00     0.082 C 
ATOM      9  C   UNL A   1      33.318  27.218  21.752  1.00  0.00     0.115 C 
ATOM     10  C   UNL A   1      33.129  26.835  24.188  1.00  0.00     0.055 A 
ATOM     11  C   UNL A   1      33.281  25.699  21.609  1.00  0.00     0.225 C 
ATOM     12  C   UNL A   1      33.349  25.488  24.010  1.00  0.00     0.078 A 
ATOM     13  N   UNL A   1      33.279  27.117  25.529  1.00  0.00    -0.317 N 
ATOM     14  O   UNL A   1      33.260  25.160  20.501  1.00  0.00    -0.275 OA
ATOM     15  N   UNL A   1      33.391  24.939  22.749  1.00  0.00    -0.324 N 
ATOM     16  C   UNL A   1      33.416  25.922  26.195  1.00  0.00     0.109 A 
ATOM     17  H   UNL A   1      33.504  23.966  22.661  1.00  0.00     0.170 HD
BRANCH   8  18
ATOM     18  C   UNL A   1      31.253  28.061  23.015  1.00  0.00     0.012 A 
ATOM     19  C   UNL A   1      29.520  29.742  22.551  1.00  0.00     0.165 A 
ATOM     20  C   UNL A   1      30.852  29.324  22.504  1.00  0.00     0.059 A 
ATOM     21  C   UNL A   1      28.578  28.845  23.014  1.00  0.00     0.211 A 
ATOM     22  C   UNL A   1      28.937  27.592  23.467  1.00  0.00     0.211 A 
ATOM     23  O   UNL A   1      27.231  29.046  23.077  1.00  0.00    -0.449 OA
ATOM     24  C   UNL A   1      30.259  27.172  23.493  1.00  0.00     0.168 A 
ATOM     25  O   UNL A   1      27.848  26.881  23.879  1.00  0.00    -0.449 OA
ATOM     26  C   UNL A   1      26.774  27.768  23.542  1.00  0.00     0.468 C 
BRANCH  19  27
ATOM     27  O   UNL A   1      29.261  31.007  22.109  1.00  0.00    -0.493 OA
ATOM     28  C   UNL A   1      28.710  31.858  23.113  1.00  0.00     0.278 C 
ENDBRANCH  19  27
BRANCH  24  29
ATOM     29  O   UNL A   1      30.691  25.967  23.953  1.00  0.00    -0.492 OA
ATOM     30  C   UNL A   1      30.087  24.767  23.500  1.00  0.00     0.278 C 
ENDBRANCH  24  29
ENDBRANCH   8  18
BRANCH  13  31
ATOM     31  C   UNL A   1      33.232  28.374  26.161  1.00  0.00     0.046 A 
ATOM     32  C   UNL A   1      32.006  29.031  26.284  1.00  0.00     0.029 A 
ATOM     33  C   UNL A   1      34.406  28.938  26.671  1.00  0.00     0.029 A 
ATOM     34  C   UNL A   1      31.962  30.305  26.844  1.00  0.00     0.041 A 
ATOM     35  C   UNL A   1      34.353  30.216  27.232  1.00  0.00     0.041 A 
ATOM     36  C   UNL A   1      33.137  30.891  27.301  1.00  0.00     0.123 A 
ATOM     37  F   UNL A   1      33.094  32.125  27.821  1.00  0.00    -0.207 F 
ENDBRANCH  13  31
ENDBRANCH   5   7
ENDBRANCH   4   5
ENDBRANCH   3   4
ENDBRANCH   2   3
ENDBRANCH   1   2
BRANCH   1  38
ATOM     38  C   UNL A   1      38.239  21.456  25.386  1.00  0.00     0.202 C 
BRANCH  38  39
ATOM     39  C   UNL A   1      39.367  21.756  26.360  1.00  0.00     0.261 C 
BRANCH  39  40
ATOM     40  O   UNL A   1      39.599  23.145  26.540  1.00  0.00    -0.460 OA
BRANCH  40  41
ATOM     41  C   UNL A   1      40.649  23.412  27.346  1.00  0.00     0.338 C 
ATOM     42  O   UNL A   1      41.575  22.662  27.628  1.00  0.00    -0.246 OA
BRANCH  41  43
ATOM     43  C   UNL A   1      40.430  24.704  27.997  1.00  0.00     0.060 A 
ATOM     44  C   UNL A   1      39.282  25.409  27.631  1.00  0.00     0.016 A 
ATOM     45  C   UNL A   1      41.463  25.301  28.735  1.00  0.00     0.016 A 
ATOM     46  C   UNL A   1      39.250  26.768  27.853  1.00  0.00     0.010 A 
ATOM     47  C   UNL A   1      41.435  26.659  28.944  1.00  0.00     0.010 A 
ATOM     48  C   UNL A   1      40.365  27.388  28.436  1.00  0.00    -0.014 A 
BRANCH  48  49
ATOM     49  C   UNL A   1      40.318  28.817  28.655  1.00  0.00     0.031 A 
ATOM     50  C   UNL A   1      41.544  29.486  28.175  1.00  0.00     0.074 A 
ATOM     51  C   UNL A   1      39.245  29.462  29.153  1.00  0.00     0.049 A 
ATOM     52  N   UNL A   1      42.484  29.980  28.905  1.00  0.00    -0.248 NA
ATOM     53  C   UNL A   1      41.862  29.422  26.739  1.00  0.00     0.031 C 
ATOM     54  C   UNL A   1      37.912  28.914  29.429  1.00  0.00     0.029 A 
ATOM     55  N   UNL A   1      39.095  30.786  29.439  1.00  0.00    -0.354 N 
ATOM     56  C   UNL A   1      43.409  30.504  28.010  1.00  0.00     0.074 A 
ATOM     57  C   UNL A   1      43.083  29.959  26.719  1.00  0.00     0.031 C 
ATOM     58  C   UNL A   1      37.041  29.931  29.626  1.00  0.00     0.029 A 
ATOM     59  C   UNL A   1      37.778  31.183  29.643  1.00  0.00     0.049 A 
ATOM     60  H   UNL A   1      39.855  31.408  29.496  1.00  0.00     0.167 HD
ATOM     61  C   UNL A   1      44.147  31.592  28.356  1.00  0.00     0.031 A 
ATOM     62  C   UNL A   1      37.337  32.454  29.804  1.00  0.00     0.031 A 
ATOM     63  C   UNL A   1      44.078  31.838  29.774  1.00  0.00     0.049 A 
ATOM     64  C   UNL A   1      38.482  33.263  30.266  1.00  0.00     0.074 A 
ATOM     65  C   UNL A   1      44.608  31.284  30.917  1.00  0.00     0.029 A 
ATOM     66  N   UNL A   1      42.990  32.587  30.144  1.00  0.00    -0.354 N 
ATOM     67  N   UNL A   1      39.017  33.114  31.441  1.00  0.00    -0.248 NA
ATOM     68  C   UNL A   1      39.280  34.011  29.302  1.00  0.00     0.031 C 
ATOM     69  C   UNL A   1      43.675  31.566  31.960  1.00  0.00     0.029 A 
ATOM     70  C   UNL A   1      42.629  32.326  31.437  1.00  0.00     0.049 A 
ATOM     71  H   UNL A   1      42.529  33.227  29.556  1.00  0.00     0.167 HD
ATOM     72  C   UNL A   1      40.363  33.330  31.226  1.00  0.00     0.074 A 
ATOM     73  C   UNL A   1      40.440  34.060  29.966  1.00  0.00     0.031 C 
ATOM     74  C   UNL A   1      41.297  32.618  31.918  1.00  0.00     0.031 A 
BRANCH  61  75
ATOM     75  C   UNL A   1      44.434  32.723  27.393  1.00  0.00    -0.014 A 
ATOM     76  C   UNL A   1      45.682  32.742  26.742  1.00  0.00     0.009 A 
ATOM     77  C   UNL A   1      43.680  33.912  27.342  1.00  0.00     0.009 A 
ATOM     78  C   UNL A   1      46.170  33.905  26.134  1.00  0.00     0.001 A 
ATOM     79  C   UNL A   1      44.150  35.065  26.708  1.00  0.00     0.001 A 
ATOM     80  C   UNL A   1      45.407  35.068  26.125  1.00  0.00     0.000 A 
ENDBRANCH  61  75
BRANCH  62  81
ATOM     81  C   UNL A   1      36.050  33.095  29.467  1.00  0.00    -0.014 A 
ATOM     82  C   UNL A   1      35.101  33.372  30.468  1.00  0.00     0.009 A 
ATOM     83  C   UNL A   1      35.894  33.726  28.222  1.00  0.00     0.009 A 
ATOM     84  C   UNL A   1      34.069  34.293  30.249  1.00  0.00     0.001 A 
ATOM     85  C   UNL A   1      34.864  34.649  28.005  1.00  0.00     0.001 A 
ATOM     86  C   UNL A   1      33.963  34.947  29.023  1.00  0.00     0.000 A 
ENDBRANCH  62  81
BRANCH  74  87
ATOM     87  C   UNL A   1      40.843  31.944  33.183  1.00  0.00    -0.014 A 
ATOM     88  C   UNL A   1      40.237  30.676  33.214  1.00  0.00     0.009 A 
ATOM     89  C   UNL A   1      41.105  32.593  34.397  1.00  0.00     0.009 A 
ATOM     90  C   UNL A   1      39.882  30.089  34.432  1.00  0.00     0.001 A 
ATOM     91  C   UNL A   1      40.769  31.999  35.611  1.00  0.00     0.001 A 
ATOM     92  C   UNL A   1      40.152  30.749  35.630  1.00  0.00     0.000 A 
ENDBRANCH  74  87
ENDBRANCH  48  49
ENDBRANCH  41  43
ENDBRANCH  40  41
ENDBRANCH  39  40
ENDBRANCH  38  39
ENDBRANCH   1  38
TORSDOF 18
ENDMDL
MODEL 2
REMARK VINA RESULT:     -11.3      1.212      1.610
REMARK SMILES COc1cc([C@@H]2CC(=O)Nc3c(C(=O)OCCOCCOC(=O)c4ccc(-c5c6nc(c(-c7ccccc7)c7ccc([nH]7)c(-c7ccccc7)c7nc(c(-c8ccccc8)c8ccc5[nH]8)C=C7)C=C6)cc4)cn(-c4ccc(F)cc4)c32)c(OC)c2c1OCO2
REMARK SMILES IDX 18 1 17 2 16 3 15 4 13 5 14 6 12 7 6 8 7 9 81 10 8 11 11 12
REMARK SMILES IDX 73 13 9 14 10 15 72 16 5 18 3 19 4 20 86 21 85 22 87 23
REMARK SMILES IDX 82 24 89 25 88 26 2 27 1 28 83 29 84 30 74 31 75 32 80 33
REMARK SMILES IDX 76 34 79 35 77 36 78 37 19 38 20 39 21 40 22 41 23 42 24 43
REMARK SMILES IDX 25 44 71 45 26 46 70 47 27 48 28 49 29 50 64 51 30 52 69 53
REMARK SMILES IDX 63 54 65 55 31 56 68 57 62 58 61 59 32 61 54 62 39 63 53 64
REMARK SMILES IDX 40 65 43 66 52 67 66 68 41 69 42 70 51 72 67 73 44 74 33 75
REMARK SMILES IDX 34 76 38 77 35 78 37 79 36 80 55 81 56 82 60 83 57 84 59 85
REMARK SMILES IDX 58 86 45 87 46 88 50 89 47 90 49 91 48 92
REMARK H PARENT 10 17 65 60 43 71
REMARK Flexibility Score: inf
ROOT
ATOM      1  O   UNL A   1      37.009  21.946  25.644  1.00  0.00    -0.374 OA
ENDROOT
BRANCH   1   2
ATOM      2  C   UNL A   1      35.842  22.673  25.266  1.00  0.00     0.202 C 
BRANCH   2   3
ATOM      3  C   UNL A   1      34.530  21.900  25.104  1.00  0.00     0.261 C 
BRANCH   3   4
ATOM      4  O   UNL A   1      33.448  22.743  24.683  1.00  0.00    -0.460 OA
BRANCH   4   5
ATOM      5  C   UNL A   1      33.005  23.611  25.633  1.00  0.00     0.341 C 
ATOM      6  O   UNL A   1      32.594  23.282  26.747  1.00  0.00    -0.246 OA
BRANCH   5   7
ATOM      7  C   UNL A   1      33.175  25.000  25.256  1.00  0.00     0.102 A 
ATOM      8  C   UNL A   1      32.711  27.911  23.055  1.00  0.00     0.082 C 
ATOM      9  C   UNL A   1      33.235  27.340  21.727  1.00  0.00     0.115 C 
ATOM     10  C   UNL A   1      33.049  26.962  24.164  1.00  0.00     0.055 A 
ATOM     11  C   UNL A   1      33.142  25.823  21.583  1.00  0.00     0.225 C 
ATOM     12  C   UNL A   1      33.218  25.607  23.983  1.00  0.00     0.078 A 
ATOM     13  N   UNL A   1      33.217  27.237  25.503  1.00  0.00    -0.317 N 
ATOM     14  O   UNL A   1      33.093  25.285  20.475  1.00  0.00    -0.275 OA
ATOM     15  N   UNL A   1      33.231  25.059  22.722  1.00  0.00    -0.324 N 
ATOM     16  C   UNL A   1      33.315  26.037  26.168  1.00  0.00     0.109 A 
ATOM     17  H   UNL A   1      33.307  24.082  22.633  1.00  0.00     0.170 HD
BRANCH   8  18
ATOM     18  C   UNL A   1      31.211  28.257  23.003  1.00  0.00     0.012 A 
ATOM     19  C   UNL A   1      29.540  30.030  22.674  1.00  0.00     0.165 A 
ATOM     20  C   UNL A   1      30.858  29.573  22.603  1.00  0.00     0.059 A 
ATOM     21  C   UNL A   1      28.563  29.127  23.045  1.00  0.00     0.211 A 
ATOM     22  C   UNL A   1      28.875  27.828  23.388  1.00  0.00     0.211 A 
ATOM     23  O   UNL A   1      27.223  29.367  23.111  1.00  0.00    -0.449 OA
ATOM     24  C   UNL A   1      30.182  27.362  23.390  1.00  0.00     0.168 A 
ATOM     25  O   UNL A   1      27.757  27.119  23.722  1.00  0.00    -0.449 OA
ATOM     26  C   UNL A   1      26.718  28.069  23.455  1.00  0.00     0.468 C 
BRANCH  19  27
ATOM     27  O   UNL A   1      29.329  31.337  22.344  1.00  0.00    -0.493 OA
ATOM     28  C   UNL A   1      28.949  32.149  23.455  1.00  0.00     0.278 C 
ENDBRANCH  19  27
BRANCH  24  29
ATOM     29  O   UNL A   1      30.569  26.107  23.745  1.00  0.00    -0.492 OA
ATOM     30  C   UNL A   1      29.855  25.391  24.739  1.00  0.00     0.278 C 
ENDBRANCH  24  29
ENDBRANCH   8  18
BRANCH  13  31
ATOM     31  C   UNL A   1      33.221  28.494  26.137  1.00  0.00     0.046 A 
ATOM     32  C   UNL A   1      32.015  29.178  26.304  1.00  0.00     0.029 A 
ATOM     33  C   UNL A   1      34.425  29.032  26.604  1.00  0.00     0.029 A 
ATOM     34  C   UNL A   1      32.019  30.452  26.865  1.00  0.00     0.041 A 
ATOM     35  C   UNL A   1      34.420  30.311  27.166  1.00  0.00     0.041 A 
ATOM     36  C   UNL A   1      33.222  31.013  27.278  1.00  0.00     0.123 A 
ATOM     37  F   UNL A   1      33.225  32.247  27.800  1.00  0.00    -0.207 F 
ENDBRANCH  13  31
ENDBRANCH   5   7
ENDBRANCH   4   5
ENDBRANCH   3   4
ENDBRANCH   2   3
ENDBRANCH   1   2
BRANCH   1  38
ATOM     38  C   UNL A   1      38.256  22.614  25.784  1.00  0.00     0.202 C 
BRANCH  38  39
ATOM     39  C   UNL A   1      39.500  21.798  26.092  1.00  0.00     0.261 C 
BRANCH  39  40
ATOM     40  O   UNL A   1      40.174  22.223  27.267  1.00  0.00    -0.460 OA
BRANCH  40  41
ATOM     41  C   UNL A   1      41.225  23.034  27.018  1.00  0.00     0.338 C 
ATOM     42  O   UNL A   1      42.199  22.788  26.320  1.00  0.00    -0.246 OA
BRANCH  41  43
ATOM     43  C   UNL A   1      41.118  24.222  27.866  1.00  0.00     0.060 A 
ATOM     44  C   UNL A   1      39.964  24.997  27.726  1.00  0.00     0.016 A 
ATOM     45  C   UNL A   1      42.240  24.683  28.570  1.00  0.00     0.016 A 
ATOM     46  C   UNL A   1      40.003  26.309  28.143  1.00  0.00     0.010 A 
ATOM     47  C   UNL A   1      42.281  25.997  28.974  1.00  0.00     0.010 A 
ATOM     48  C   UNL A   1      41.191  26.814  28.690  1.00  0.00    -0.014 A 
BRANCH  48  49
ATOM     49  C   UNL A   1      41.217  28.196  29.115  1.00  0.00     0.031 A 
ATOM     50  C   UNL A   1      42.321  28.944  28.480  1.00  0.00     0.074 A 
ATOM     51  C   UNL A   1      40.289  28.748  29.921  1.00  0.00     0.049 A 
ATOM     52  N   UNL A   1      43.405  29.344  29.051  1.00  0.00    -0.248 NA
ATOM     53  C   UNL A   1      42.318  29.091  27.015  1.00  0.00     0.031 C 
ATOM     54  C   UNL A   1      39.039  28.146  30.399  1.00  0.00     0.029 A 
ATOM     55  N   UNL A   1      40.227  30.015  30.418  1.00  0.00    -0.354 N 
ATOM     56  C   UNL A   1      44.122  30.003  28.061  1.00  0.00     0.074 A 
ATOM     57  C   UNL A   1      43.515  29.643  26.807  1.00  0.00     0.031 C 
ATOM     58  C   UNL A   1      38.248  29.112  30.923  1.00  0.00     0.029 A 
ATOM     59  C   UNL A   1      38.993  30.360  30.957  1.00  0.00     0.049 A 
ATOM     60  H   UNL A   1      40.992  30.634  30.396  1.00  0.00     0.167 HD
ATOM     61  C   UNL A   1      44.936  31.042  28.389  1.00  0.00     0.031 A 
ATOM     62  C   UNL A   1      38.618  31.588  31.389  1.00  0.00     0.031 A 
ATOM     63  C   UNL A   1      45.181  31.082  29.808  1.00  0.00     0.049 A 
ATOM     64  C   UNL A   1      39.850  32.339  31.702  1.00  0.00     0.074 A 
ATOM     65  C   UNL A   1      45.936  30.378  30.718  1.00  0.00     0.029 A 
ATOM     66  N   UNL A   1      44.211  31.754  30.509  1.00  0.00    -0.354 N 
ATOM     67  N   UNL A   1      40.625  32.033  32.700  1.00  0.00    -0.248 NA
ATOM     68  C   UNL A   1      40.432  33.229  30.704  1.00  0.00     0.031 C 
ATOM     69  C   UNL A   1      45.257  30.495  31.968  1.00  0.00     0.029 A 
ATOM     70  C   UNL A   1      44.136  31.306  31.799  1.00  0.00     0.049 A 
ATOM     71  H   UNL A   1      43.645  32.465  30.132  1.00  0.00     0.167 HD
ATOM     72  C   UNL A   1      41.895  32.297  32.230  1.00  0.00     0.074 A 
ATOM     73  C   UNL A   1      41.709  33.199  31.100  1.00  0.00     0.031 C 
ATOM     74  C   UNL A   1      42.945  31.507  32.595  1.00  0.00     0.031 A 
BRANCH  61  75
ATOM     75  C   UNL A   1      45.026  32.302  27.558  1.00  0.00    -0.014 A 
ATOM     76  C   UNL A   1      45.948  33.292  27.948  1.00  0.00     0.009 A 
ATOM     77  C   UNL A   1      44.048  32.689  26.621  1.00  0.00     0.009 A 
ATOM     78  C   UNL A   1      45.850  34.607  27.476  1.00  0.00     0.001 A 
ATOM     79  C   UNL A   1      43.967  33.992  26.123  1.00  0.00     0.001 A 
ATOM     80  C   UNL A   1      44.855  34.957  26.570  1.00  0.00     0.000 A 
ENDBRANCH  61  75
BRANCH  62  81
ATOM     81  C   UNL A   1      37.300  32.251  31.436  1.00  0.00    -0.014 A 
ATOM     82  C   UNL A   1      36.515  32.374  30.275  1.00  0.00     0.009 A 
ATOM     83  C   UNL A   1      36.677  32.470  32.675  1.00  0.00     0.009 A 
ATOM     84  C   UNL A   1      35.144  32.647  30.356  1.00  0.00     0.001 A 
ATOM     85  C   UNL A   1      35.305  32.739  32.756  1.00  0.00     0.001 A 
ATOM     86  C   UNL A   1      34.535  32.808  31.598  1.00  0.00     0.000 A 
ENDBRANCH  62  81
BRANCH  74  87
ATOM     87  C   UNL A   1      42.766  30.653  33.818  1.00  0.00    -0.014 A 
ATOM     88  C   UNL A   1      43.109  31.071  35.116  1.00  0.00     0.009 A 
ATOM     89  C   UNL A   1      42.159  29.401  33.655  1.00  0.00     0.009 A 
ATOM     90  C   UNL A   1      42.872  30.241  36.215  1.00  0.00     0.001 A 
ATOM     91  C   UNL A   1      41.905  28.582  34.754  1.00  0.00     0.001 A 
ATOM     92  C   UNL A   1      42.266  28.999  36.033  1.00  0.00     0.000 A 
ENDBRANCH  74  87
ENDBRANCH  48  49
ENDBRANCH  41  43
ENDBRANCH  40  41
ENDBRANCH  39  40
ENDBRANCH  38  39
ENDBRANCH   1  38
TORSDOF 18
ENDMDL
MODEL 3
REMARK VINA RESULT:     -10.7      9.789     15.898
REMARK SMILES COc1cc([C@@H]2CC(=O)Nc3c(C(=O)OCCOCCOC(=O)c4ccc(-c5c6nc(c(-c7ccccc7)c7ccc([nH]7)c(-c7ccccc7)c7nc(c(-c8ccccc8)c8ccc5[nH]8)C=C7)C=C6)cc4)cn(-c4ccc(F)cc4)c32)c(OC)c2c1OCO2
REMARK SMILES IDX 18 1 17 2 16 3 15 4 13 5 14 6 12 7 6 8 7 9 81 10 8 11 11 12
REMARK SMILES IDX 73 13 9 14 10 15 72 16 5 18 3 19 4 20 86 21 85 22 87 23
REMARK SMILES IDX 82 24 89 25 88 26 2 27 1 28 83 29 84 30 74 31 75 32 80 33
REMARK SMILES IDX 76 34 79 35 77 36 78 37 19 38 20 39 21 40 22 41 23 42 24 43
REMARK SMILES IDX 25 44 71 45 26 46 70 47 27 48 28 49 29 50 64 51 30 52 69 53
REMARK SMILES IDX 63 54 65 55 31 56 68 57 62 58 61 59 32 61 54 62 39 63 53 64
REMARK SMILES IDX 40 65 43 66 52 67 66 68 41 69 42 70 51 72 67 73 44 74 33 75
REMARK SMILES IDX 34 76 38 77 35 78 37 79 36 80 55 81 56 82 60 83 57 84 59 85
REMARK SMILES IDX 58 86 45 87 46 88 50 89 47 90 49 91 48 92
REMARK H PARENT 10 17 65 60 43 71
REMARK Flexibility Score: inf
ROOT
ATOM      1  O   UNL A   1      44.204  41.877  26.040  1.00  0.00    -0.374 OA
ENDROOT
BRANCH   1   2
ATOM      2  C   UNL A   1      45.164  42.548  25.226  1.00  0.00     0.202 C 
BRANCH   2   3
ATOM      3  C   UNL A   1      44.972  44.045  24.969  1.00  0.00     0.261 C 
BRANCH   3   4
ATOM      4  O   UNL A   1      46.042  44.833  25.511  1.00  0.00    -0.460 OA
BRANCH   4   5
ATOM      5  C   UNL A   1      47.236  44.678  24.877  1.00  0.00     0.341 C 
ATOM      6  O   UNL A   1      48.259  44.235  25.404  1.00  0.00    -0.246 OA
BRANCH   5   7
ATOM      7  C   UNL A   1      47.169  44.974  23.460  1.00  0.00     0.102 A 
ATOM      8  C   UNL A   1      46.370  44.202  19.954  1.00  0.00     0.082 C 
ATOM      9  C   UNL A   1      47.126  42.873  19.784  1.00  0.00     0.115 C 
ATOM     10  C   UNL A   1      46.773  44.833  21.251  1.00  0.00     0.055 A 
ATOM     11  C   UNL A   1      47.346  42.075  21.066  1.00  0.00     0.225 C 
ATOM     12  C   UNL A   1      47.220  44.119  22.340  1.00  0.00     0.078 A 
ATOM     13  N   UNL A   1      46.749  46.166  21.597  1.00  0.00    -0.317 N 
ATOM     14  O   UNL A   1      47.515  40.855  21.041  1.00  0.00    -0.275 OA
ATOM     15  N   UNL A   1      47.467  42.769  22.247  1.00  0.00    -0.324 N 
ATOM     16  C   UNL A   1      47.011  46.254  22.944  1.00  0.00     0.109 A 
ATOM     17  H   UNL A   1      47.741  42.282  23.057  1.00  0.00     0.170 HD
BRANCH   8  18
ATOM     18  C   UNL A   1      44.845  44.039  19.819  1.00  0.00     0.012 A 
ATOM     19  C   UNL A   1      42.830  42.927  20.685  1.00  0.00     0.165 A 
ATOM     20  C   UNL A   1      44.181  43.262  20.804  1.00  0.00     0.059 A 
ATOM     21  C   UNL A   1      42.123  43.466  19.628  1.00  0.00     0.211 A 
ATOM     22  C   UNL A   1      42.734  44.267  18.686  1.00  0.00     0.211 A 
ATOM     23  O   UNL A   1      40.792  43.307  19.380  1.00  0.00    -0.449 OA
ATOM     24  C   UNL A   1      44.089  44.565  18.742  1.00  0.00     0.168 A 
ATOM     25  O   UNL A   1      41.848  44.682  17.735  1.00  0.00    -0.449 OA
ATOM     26  C   UNL A   1      40.614  44.149  18.233  1.00  0.00     0.468 C 
BRANCH  19  27
ATOM     27  O   UNL A   1      42.317  42.106  21.647  1.00  0.00    -0.493 OA
ATOM     28  C   UNL A   1      42.053  42.773  22.881  1.00  0.00     0.278 C 
ENDBRANCH  19  27
BRANCH  24  29
ATOM     29  O   UNL A   1      44.765  45.320  17.835  1.00  0.00    -0.492 OA
ATOM     30  C   UNL A   1      44.330  46.634  17.528  1.00  0.00     0.278 C 
ENDBRANCH  24  29
ENDBRANCH   8  18
BRANCH  13  31
ATOM     31  C   UNL A   1      46.444  47.270  20.778  1.00  0.00     0.046 A 
ATOM     32  C   UNL A   1      47.395  47.726  19.864  1.00  0.00     0.029 A 
ATOM     33  C   UNL A   1      45.190  47.882  20.879  1.00  0.00     0.029 A 
ATOM     34  C   UNL A   1      47.128  48.859  19.100  1.00  0.00     0.041 A 
ATOM     35  C   UNL A   1      44.930  49.018  20.109  1.00  0.00     0.041 A 
ATOM     36  C   UNL A   1      45.904  49.503  19.239  1.00  0.00     0.123 A 
ATOM     37  F   UNL A   1      45.658  50.604  18.518  1.00  0.00    -0.207 F 
ENDBRANCH  13  31
ENDBRANCH   5   7
ENDBRANCH   4   5
ENDBRANCH   3   4
ENDBRANCH   2   3
ENDBRANCH   1   2
BRANCH   1  38
ATOM     38  C   UNL A   1      44.601  40.799  26.877  1.00  0.00     0.202 C 
BRANCH  38  39
ATOM     39  C   UNL A   1      43.546  40.071  27.693  1.00  0.00     0.261 C 
BRANCH  39  40
ATOM     40  O   UNL A   1      43.081  38.880  27.076  1.00  0.00    -0.460 OA
BRANCH  40  41
ATOM     41  C   UNL A   1      43.796  37.785  27.418  1.00  0.00     0.338 C 
ATOM     42  O   UNL A   1      44.899  37.462  27.000  1.00  0.00    -0.246 OA
BRANCH  41  43
ATOM     43  C   UNL A   1      42.965  36.921  28.257  1.00  0.00     0.060 A 
ATOM     44  C   UNL A   1      43.499  36.531  29.487  1.00  0.00     0.016 A 
ATOM     45  C   UNL A   1      41.821  36.313  27.719  1.00  0.00     0.016 A 
ATOM     46  C   UNL A   1      42.986  35.406  30.096  1.00  0.00     0.010 A 
ATOM     47  C   UNL A   1      41.319  35.183  28.322  1.00  0.00     0.010 A 
ATOM     48  C   UNL A   1      41.954  34.701  29.461  1.00  0.00    -0.014 A 
BRANCH  48  49
ATOM     49  C   UNL A   1      41.433  33.517  30.110  1.00  0.00     0.031 A 
ATOM     50  C   UNL A   1      42.286  32.337  29.863  1.00  0.00     0.074 A 
ATOM     51  C   UNL A   1      40.352  33.520  30.914  1.00  0.00     0.049 A 
ATOM     52  N   UNL A   1      42.012  31.341  29.093  1.00  0.00    -0.248 NA
ATOM     53  C   UNL A   1      43.671  32.356  30.361  1.00  0.00     0.031 C 
ATOM     54  C   UNL A   1      39.595  34.678  31.402  1.00  0.00     0.029 A 
ATOM     55  N   UNL A   1      39.749  32.474  31.544  1.00  0.00    -0.354 N 
ATOM     56  C   UNL A   1      43.103  30.486  29.194  1.00  0.00     0.074 A 
ATOM     57  C   UNL A   1      44.160  31.243  29.810  1.00  0.00     0.031 C 
ATOM     58  C   UNL A   1      38.785  34.291  32.415  1.00  0.00     0.029 A 
ATOM     59  C   UNL A   1      38.853  32.844  32.542  1.00  0.00     0.049 A 
ATOM     60  H   UNL A   1      39.931  31.535  31.313  1.00  0.00     0.167 HD
ATOM     61  C   UNL A   1      42.928  29.144  29.065  1.00  0.00     0.031 A 
ATOM     62  C   UNL A   1      38.226  32.014  33.410  1.00  0.00     0.031 A 
ATOM     63  C   UNL A   1      41.638  28.839  28.500  1.00  0.00     0.049 A 
ATOM     64  C   UNL A   1      38.210  30.670  32.800  1.00  0.00     0.074 A 
ATOM     65  C   UNL A   1      41.045  28.899  27.260  1.00  0.00     0.029 A 
ATOM     66  N   UNL A   1      40.635  28.777  29.434  1.00  0.00    -0.354 N 
ATOM     67  N   UNL A   1      37.504  30.386  31.746  1.00  0.00    -0.248 NA
ATOM     68  C   UNL A   1      39.249  29.705  33.137  1.00  0.00     0.031 C 
ATOM     69  C   UNL A   1      39.648  29.074  27.499  1.00  0.00     0.029 A 
ATOM     70  C   UNL A   1      39.421  29.066  28.874  1.00  0.00     0.049 A 
ATOM     71  H   UNL A   1      40.772  28.554  30.383  1.00  0.00     0.167 HD
ATOM     72  C   UNL A   1      38.289  29.491  31.047  1.00  0.00     0.074 A 
ATOM     73  C   UNL A   1      39.235  28.965  32.024  1.00  0.00     0.031 C 
ATOM     74  C   UNL A   1      38.307  29.505  29.685  1.00  0.00     0.031 A 
BRANCH  61  75
ATOM     75  C   UNL A   1      43.636  28.140  29.948  1.00  0.00    -0.014 A 
ATOM     76  C   UNL A   1      44.220  27.014  29.339  1.00  0.00     0.009 A 
ATOM     77  C   UNL A   1      43.481  28.089  31.347  1.00  0.00     0.009 A 
ATOM     78  C   UNL A   1      44.566  25.879  30.083  1.00  0.00     0.001 A 
ATOM     79  C   UNL A   1      43.856  26.971  32.097  1.00  0.00     0.001 A 
ATOM     80  C   UNL A   1      44.377  25.856  31.460  1.00  0.00     0.000 A 
ENDBRANCH  61  75
BRANCH  62  81
ATOM     81  C   UNL A   1      37.751  32.218  34.793  1.00  0.00    -0.014 A 
ATOM     82  C   UNL A   1      38.142  31.345  35.824  1.00  0.00     0.009 A 
ATOM     83  C   UNL A   1      37.183  33.450  35.156  1.00  0.00     0.009 A 
ATOM     84  C   UNL A   1      38.022  31.718  37.169  1.00  0.00     0.001 A 
ATOM     85  C   UNL A   1      37.067  33.824  36.501  1.00  0.00     0.001 A 
ATOM     86  C   UNL A   1      37.504  32.966  37.506  1.00  0.00     0.000 A 
ENDBRANCH  62  81
BRANCH  74  87
ATOM     87  C   UNL A   1      37.163  30.190  28.992  1.00  0.00    -0.014 A 
ATOM     88  C   UNL A   1      37.114  31.575  28.755  1.00  0.00     0.009 A 
ATOM     89  C   UNL A   1      36.125  29.388  28.499  1.00  0.00     0.009 A 
ATOM     90  C   UNL A   1      36.038  32.140  28.063  1.00  0.00     0.001 A 
ATOM     91  C   UNL A   1      35.063  29.949  27.792  1.00  0.00     0.001 A 
ATOM     92  C   UNL A   1      35.016  31.326  27.579  1.00  0.00     0.000 A 
ENDBRANCH  74  87
ENDBRANCH  48  49
ENDBRANCH  41  43
ENDBRANCH  40  41
ENDBRANCH  39  40
ENDBRANCH  38  39
ENDBRANCH   1  38
TORSDOF 18
ENDMDL
