MODEL 1
REMARK VINA RESULT:      -9.7      0.000      0.000
REMARK SMILES CN1C(=O)C(=Cc2ccc(OCc3cccc(C(=O)OCCOCCOC(=O)c4ccc(-c5c6nc(c(-c7ccccc7)c7ccc([nH]7)c(-c7ccccc7)c7nc(c(-c8ccccc8)c8ccc5[nH]8)C=C7)C=C6)cc4)c3)c(Cl)c2)C(=O)N(C)C1=S
REMARK SMILES IDX 22 1 21 2 20 3 18 4 19 5 17 6 13 7 14 8 77 9 15 10 16 11
REMARK SMILES IDX 12 12 11 13 10 14 7 15 8 16 80 17 9 18 78 19 79 20 6 21 1 22
REMARK SMILES IDX 2 23 3 24 85 25 4 26 5 27 83 28 86 29 81 30 84 31 82 32
REMARK SMILES IDX 23 33 24 34 25 35 26 36 27 37 28 38 29 39 30 40 76 41 31 42
REMARK SMILES IDX 75 43 32 44 33 45 34 46 69 47 35 48 74 49 68 50 70 51 36 52
REMARK SMILES IDX 73 53 67 54 66 55 37 57 59 58 44 59 58 60 45 61 48 62 57 63
REMARK SMILES IDX 71 64 46 65 47 66 56 68 72 69 49 70 38 71 39 72 43 73 40 74
REMARK SMILES IDX 42 75 41 76 60 77 61 78 65 79 62 80 64 81 63 82 50 83 51 84
REMARK SMILES IDX 55 85 52 86 54 87 53 88
REMARK H PARENT 70 56 48 67
REMARK Flexibility Score: inf
ROOT
ATOM      1  C   UNL A   1      32.901  36.032  30.368  1.00  0.00     0.202 C 
ENDROOT
BRANCH   1   2
ATOM      2  C   UNL A   1      32.396  35.990  31.814  1.00  0.00     0.261 C 
BRANCH   2   3
ATOM      3  O   UNL A   1      33.069  34.965  32.562  1.00  0.00    -0.460 OA
BRANCH   3   4
ATOM      4  C   UNL A   1      34.355  35.231  32.908  1.00  0.00     0.338 C 
ATOM      5  O   UNL A   1      34.794  36.291  33.318  1.00  0.00    -0.246 OA
BRANCH   4   6
ATOM      6  C   UNL A   1      35.164  33.982  32.845  1.00  0.00     0.060 A 
ATOM      7  C   UNL A   1      37.158  32.686  33.435  1.00  0.00    -0.010 A 
ATOM      8  C   UNL A   1      36.662  31.631  32.655  1.00  0.00     0.007 A 
ATOM      9  C   UNL A   1      36.402  33.868  33.489  1.00  0.00     0.023 A 
ATOM     10  C   UNL A   1      35.449  31.751  31.968  1.00  0.00     0.001 A 
ATOM     11  C   UNL A   1      34.695  32.920  32.072  1.00  0.00     0.016 A 
BRANCH   7  12
ATOM     12  C   UNL A   1      38.515  32.567  34.112  1.00  0.00     0.265 C 
BRANCH  12  13
ATOM     13  O   UNL A   1      38.739  31.419  34.944  1.00  0.00    -0.487 OA
BRANCH  13  14
ATOM     14  C   UNL A   1      39.790  30.595  34.653  1.00  0.00     0.138 A 
ATOM     15  C   UNL A   1      41.672  28.641  33.946  1.00  0.00    -0.023 A 
ATOM     16  C   UNL A   1      40.453  28.715  33.266  1.00  0.00     0.012 A 
ATOM     17  C   UNL A   1      41.972  29.577  34.936  1.00  0.00     0.032 A 
ATOM     18  C   UNL A   1      39.519  29.688  33.622  1.00  0.00     0.048 A 
ATOM     19  C   UNL A   1      41.057  30.586  35.254  1.00  0.00     0.083 A 
ATOM     20  Cl  UNL A   1      41.596  31.775  36.385  1.00  0.00    -0.080 Cl
BRANCH  15  21
ATOM     21  C   UNL A   1      42.680  27.672  33.518  1.00  0.00     0.027 C 
ATOM     22  C   UNL A   1      42.334  25.870  37.760  1.00  0.00     0.156 C 
ATOM     23  N   UNL A   1      42.954  25.716  36.440  1.00  0.00    -0.288 N 
ATOM     24  C   UNL A   1      42.164  26.155  35.390  1.00  0.00     0.265 C 
ATOM     25  C   UNL A   1      44.238  25.153  36.281  1.00  0.00     0.185 C 
ATOM     26  O   UNL A   1      40.939  26.225  35.425  1.00  0.00    -0.268 OA
ATOM     27  C   UNL A   1      42.930  26.539  34.202  1.00  0.00     0.106 C 
ATOM     28  N   UNL A   1      44.771  25.208  34.971  1.00  0.00    -0.288 N 
ATOM     29  S   UNL A   1      45.063  24.443  37.580  1.00  0.00    -0.040 S 
ATOM     30  C   UNL A   1      44.140  25.790  33.867  1.00  0.00     0.265 C 
ATOM     31  C   UNL A   1      46.109  24.713  34.641  1.00  0.00     0.156 C 
ATOM     32  O   UNL A   1      44.575  25.761  32.719  1.00  0.00    -0.268 OA
ENDBRANCH  15  21
ENDBRANCH  13  14
ENDBRANCH  12  13
ENDBRANCH   7  12
ENDBRANCH   4   6
ENDBRANCH   3   4
ENDBRANCH   2   3
ENDBRANCH   1   2
BRANCH   1  33
ATOM     33  O   UNL A   1      32.919  34.783  29.676  1.00  0.00    -0.374 OA
BRANCH  33  34
ATOM     34  C   UNL A   1      33.951  34.601  28.706  1.00  0.00     0.202 C 
BRANCH  34  35
ATOM     35  C   UNL A   1      33.955  33.257  27.969  1.00  0.00     0.261 C 
BRANCH  35  36
ATOM     36  O   UNL A   1      34.745  32.271  28.654  1.00  0.00    -0.460 OA
BRANCH  36  37
ATOM     37  C   UNL A   1      34.593  31.007  28.192  1.00  0.00     0.338 C 
ATOM     38  O   UNL A   1      33.623  30.535  27.629  1.00  0.00    -0.246 OA
BRANCH  37  39
ATOM     39  C   UNL A   1      35.868  30.275  28.319  1.00  0.00     0.060 A 
ATOM     40  C   UNL A   1      36.145  29.669  29.551  1.00  0.00     0.016 A 
ATOM     41  C   UNL A   1      36.806  30.246  27.285  1.00  0.00     0.016 A 
ATOM     42  C   UNL A   1      37.386  29.079  29.774  1.00  0.00     0.010 A 
ATOM     43  C   UNL A   1      38.052  29.658  27.512  1.00  0.00     0.010 A 
ATOM     44  C   UNL A   1      38.362  29.106  28.769  1.00  0.00    -0.014 A 
BRANCH  44  45
ATOM     45  C   UNL A   1      39.750  28.686  29.073  1.00  0.00     0.031 A 
ATOM     46  C   UNL A   1      40.662  29.641  29.794  1.00  0.00     0.074 A 
ATOM     47  C   UNL A   1      40.192  27.467  28.721  1.00  0.00     0.049 A 
ATOM     48  N   UNL A   1      41.927  29.508  30.103  1.00  0.00    -0.248 NA
ATOM     49  C   UNL A   1      40.068  30.920  30.219  1.00  0.00     0.031 C 
ATOM     50  C   UNL A   1      39.394  26.435  28.061  1.00  0.00     0.029 A 
ATOM     51  N   UNL A   1      41.432  26.896  28.865  1.00  0.00    -0.354 N 
ATOM     52  C   UNL A   1      42.284  30.688  30.743  1.00  0.00     0.074 A 
ATOM     53  C   UNL A   1      41.111  31.536  30.753  1.00  0.00     0.031 C 
ATOM     54  C   UNL A   1      40.169  25.358  27.847  1.00  0.00     0.029 A 
ATOM     55  C   UNL A   1      41.523  25.640  28.317  1.00  0.00     0.049 A 
ATOM     56  H   UNL A   1      42.182  27.344  29.317  1.00  0.00     0.167 HD
ATOM     57  C   UNL A   1      43.480  31.034  31.278  1.00  0.00     0.031 A 
ATOM     58  C   UNL A   1      42.587  24.825  28.186  1.00  0.00     0.031 A 
ATOM     59  C   UNL A   1      44.649  30.197  31.252  1.00  0.00     0.049 A 
ATOM     60  C   UNL A   1      43.927  25.265  28.711  1.00  0.00     0.074 A 
ATOM     61  C   UNL A   1      45.903  30.449  31.781  1.00  0.00     0.029 A 
ATOM     62  N   UNL A   1      44.710  28.946  30.656  1.00  0.00    -0.354 N 
ATOM     63  N   UNL A   1      44.249  26.374  29.336  1.00  0.00    -0.248 NA
ATOM     64  C   UNL A   1      45.051  24.338  28.519  1.00  0.00     0.031 C 
ATOM     65  C   UNL A   1      46.740  29.380  31.449  1.00  0.00     0.029 A 
ATOM     66  C   UNL A   1      45.989  28.428  30.777  1.00  0.00     0.049 A 
ATOM     67  H   UNL A   1      43.957  28.494  30.213  1.00  0.00     0.167 HD
ATOM     68  C   UNL A   1      45.601  26.262  29.637  1.00  0.00     0.074 A 
ATOM     69  C   UNL A   1      46.036  24.973  29.138  1.00  0.00     0.031 C 
ATOM     70  C   UNL A   1      46.409  27.144  30.276  1.00  0.00     0.031 A 
BRANCH  57  71
ATOM     71  C   UNL A   1      43.590  32.400  31.899  1.00  0.00    -0.014 A 
ATOM     72  C   UNL A   1      43.292  32.617  33.254  1.00  0.00     0.009 A 
ATOM     73  C   UNL A   1      44.025  33.484  31.120  1.00  0.00     0.009 A 
ATOM     74  C   UNL A   1      43.391  33.897  33.804  1.00  0.00     0.001 A 
ATOM     75  C   UNL A   1      44.152  34.756  31.680  1.00  0.00     0.001 A 
ATOM     76  C   UNL A   1      43.824  34.964  33.018  1.00  0.00     0.000 A 
ENDBRANCH  57  71
BRANCH  58  77
ATOM     77  C   UNL A   1      42.432  23.511  27.505  1.00  0.00    -0.014 A 
ATOM     78  C   UNL A   1      42.076  22.366  28.234  1.00  0.00     0.009 A 
ATOM     79  C   UNL A   1      42.652  23.394  26.123  1.00  0.00     0.009 A 
ATOM     80  C   UNL A   1      41.969  21.127  27.596  1.00  0.00     0.001 A 
ATOM     81  C   UNL A   1      42.517  22.160  25.483  1.00  0.00     0.001 A 
ATOM     82  C   UNL A   1      42.185  21.026  26.222  1.00  0.00     0.000 A 
ENDBRANCH  58  77
BRANCH  70  83
ATOM     83  C   UNL A   1      47.836  26.732  30.517  1.00  0.00    -0.014 A 
ATOM     84  C   UNL A   1      48.203  25.983  31.646  1.00  0.00     0.009 A 
ATOM     85  C   UNL A   1      48.818  27.053  29.567  1.00  0.00     0.009 A 
ATOM     86  C   UNL A   1      49.532  25.594  31.834  1.00  0.00     0.001 A 
ATOM     87  C   UNL A   1      50.139  26.637  29.741  1.00  0.00     0.001 A 
ATOM     88  C   UNL A   1      50.496  25.915  30.877  1.00  0.00     0.000 A 
ENDBRANCH  70  83
ENDBRANCH  44  45
ENDBRANCH  37  39
ENDBRANCH  36  37
ENDBRANCH  35  36
ENDBRANCH  34  35
ENDBRANCH  33  34
ENDBRANCH   1  33
TORSDOF 18
ENDMDL
MODEL 2
REMARK VINA RESULT:      -9.3      5.612     12.312
REMARK SMILES CN1C(=O)C(=Cc2ccc(OCc3cccc(C(=O)OCCOCCOC(=O)c4ccc(-c5c6nc(c(-c7ccccc7)c7ccc([nH]7)c(-c7ccccc7)c7nc(c(-c8ccccc8)c8ccc5[nH]8)C=C7)C=C6)cc4)c3)c(Cl)c2)C(=O)N(C)C1=S
REMARK SMILES IDX 22 1 21 2 20 3 18 4 19 5 17 6 13 7 14 8 77 9 15 10 16 11
REMARK SMILES IDX 12 12 11 13 10 14 7 15 8 16 80 17 9 18 78 19 79 20 6 21 1 22
REMARK SMILES IDX 2 23 3 24 85 25 4 26 5 27 83 28 86 29 81 30 84 31 82 32
REMARK SMILES IDX 23 33 24 34 25 35 26 36 27 37 28 38 29 39 30 40 76 41 31 42
REMARK SMILES IDX 75 43 32 44 33 45 34 46 69 47 35 48 74 49 68 50 70 51 36 52
REMARK SMILES IDX 73 53 67 54 66 55 37 57 59 58 44 59 58 60 45 61 48 62 57 63
REMARK SMILES IDX 71 64 46 65 47 66 56 68 72 69 49 70 38 71 39 72 43 73 40 74
REMARK SMILES IDX 42 75 41 76 60 77 61 78 65 79 62 80 64 81 63 82 50 83 51 84
REMARK SMILES IDX 55 85 52 86 54 87 53 88
REMARK H PARENT 70 56 48 67
REMARK Flexibility Score: inf
ROOT
ATOM      1  C   UNL A   1      41.544  21.510  27.440  1.00  0.00     0.202 C 
ENDROOT
BRANCH   1   2
ATOM      2  C   UNL A   1      40.057  21.881  27.452  1.00  0.00     0.261 C 
BRANCH   2   3
ATOM      3  O   UNL A   1      39.576  22.114  26.119  1.00  0.00    -0.460 OA
BRANCH   3   4
ATOM      4  C   UNL A   1      38.468  22.894  26.016  1.00  0.00     0.338 C 
ATOM      5  O   UNL A   1      38.432  24.111  26.031  1.00  0.00    -0.246 OA
BRANCH   4   6
ATOM      6  C   UNL A   1      37.277  22.044  25.740  1.00  0.00     0.060 A 
ATOM      7  C   UNL A   1      34.897  21.532  26.019  1.00  0.00    -0.010 A 
ATOM      8  C   UNL A   1      35.084  20.389  25.228  1.00  0.00     0.007 A 
ATOM      9  C   UNL A   1      36.020  22.331  26.288  1.00  0.00     0.023 A 
ATOM     10  C   UNL A   1      36.346  20.067  24.715  1.00  0.00     0.001 A 
ATOM     11  C   UNL A   1      37.438  20.899  24.961  1.00  0.00     0.016 A 
BRANCH   7  12
ATOM     12  C   UNL A   1      33.537  21.825  26.633  1.00  0.00     0.265 C 
BRANCH  12  13
ATOM     13  O   UNL A   1      32.386  21.689  25.785  1.00  0.00    -0.487 OA
BRANCH  13  14
ATOM     14  C   UNL A   1      31.951  22.782  25.090  1.00  0.00     0.138 A 
ATOM     15  C   UNL A   1      30.799  25.075  23.960  1.00  0.00    -0.023 A 
ATOM     16  C   UNL A   1      30.850  24.931  25.350  1.00  0.00     0.012 A 
ATOM     17  C   UNL A   1      31.375  24.103  23.141  1.00  0.00     0.032 A 
ATOM     18  C   UNL A   1      31.422  23.789  25.908  1.00  0.00     0.048 A 
ATOM     19  C   UNL A   1      31.998  22.985  23.703  1.00  0.00     0.083 A 
ATOM     20  Cl  UNL A   1      32.805  21.927  22.602  1.00  0.00    -0.080 Cl
BRANCH  15  21
ATOM     21  C   UNL A   1      30.271  26.309  23.380  1.00  0.00     0.027 C 
ATOM     22  C   UNL A   1      33.067  28.541  26.306  1.00  0.00     0.156 C 
ATOM     23  N   UNL A   1      32.117  28.700  25.200  1.00  0.00    -0.288 N 
ATOM     24  C   UNL A   1      32.124  27.651  24.295  1.00  0.00     0.265 C 
ATOM     25  C   UNL A   1      31.292  29.839  25.084  1.00  0.00     0.185 C 
ATOM     26  O   UNL A   1      33.079  26.903  24.106  1.00  0.00    -0.268 OA
ATOM     27  C   UNL A   1      30.865  27.504  23.561  1.00  0.00     0.106 C 
ATOM     28  N   UNL A   1      30.320  29.786  24.057  1.00  0.00    -0.288 N 
ATOM     29  S   UNL A   1      31.482  31.180  26.103  1.00  0.00    -0.040 S 
ATOM     30  C   UNL A   1      30.113  28.704  23.196  1.00  0.00     0.265 C 
ATOM     31  C   UNL A   1      29.352  30.862  23.830  1.00  0.00     0.156 C 
ATOM     32  O   UNL A   1      29.322  28.700  22.257  1.00  0.00    -0.268 OA
ENDBRANCH  15  21
ENDBRANCH  13  14
ENDBRANCH  12  13
ENDBRANCH   7  12
ENDBRANCH   4   6
ENDBRANCH   3   4
ENDBRANCH   2   3
ENDBRANCH   1   2
BRANCH   1  33
ATOM     33  O   UNL A   1      41.897  20.373  26.651  1.00  0.00    -0.374 OA
BRANCH  33  34
ATOM     34  C   UNL A   1      42.870  20.579  25.626  1.00  0.00     0.202 C 
BRANCH  34  35
ATOM     35  C   UNL A   1      43.687  21.872  25.721  1.00  0.00     0.261 C 
BRANCH  35  36
ATOM     36  O   UNL A   1      43.077  22.948  24.989  1.00  0.00    -0.460 OA
BRANCH  36  37
ATOM     37  C   UNL A   1      43.771  24.111  25.014  1.00  0.00     0.338 C 
ATOM     38  O   UNL A   1      44.730  24.418  24.330  1.00  0.00    -0.246 OA
BRANCH  37  39
ATOM     39  C   UNL A   1      43.097  25.072  25.908  1.00  0.00     0.060 A 
ATOM     40  C   UNL A   1      43.738  26.296  26.141  1.00  0.00     0.016 A 
ATOM     41  C   UNL A   1      41.907  24.755  26.566  1.00  0.00     0.016 A 
ATOM     42  C   UNL A   1      43.218  27.187  27.078  1.00  0.00     0.010 A 
ATOM     43  C   UNL A   1      41.390  25.648  27.507  1.00  0.00     0.010 A 
ATOM     44  C   UNL A   1      42.064  26.849  27.796  1.00  0.00    -0.014 A 
BRANCH  44  45
ATOM     45  C   UNL A   1      41.637  27.682  28.944  1.00  0.00     0.031 A 
ATOM     46  C   UNL A   1      42.376  27.564  30.249  1.00  0.00     0.074 A 
ATOM     47  C   UNL A   1      40.610  28.542  28.826  1.00  0.00     0.049 A 
ATOM     48  N   UNL A   1      42.134  28.145  31.397  1.00  0.00    -0.248 NA
ATOM     49  C   UNL A   1      43.541  26.664  30.263  1.00  0.00     0.031 C 
ATOM     50  C   UNL A   1      39.844  28.783  27.604  1.00  0.00     0.029 A 
ATOM     51  N   UNL A   1      40.031  29.366  29.758  1.00  0.00    -0.354 N 
ATOM     52  C   UNL A   1      43.105  27.672  32.270  1.00  0.00     0.074 A 
ATOM     53  C   UNL A   1      43.921  26.734  31.529  1.00  0.00     0.031 C 
ATOM     54  C   UNL A   1      38.886  29.688  27.865  1.00  0.00     0.029 A 
ATOM     55  C   UNL A   1      38.946  30.058  29.277  1.00  0.00     0.049 A 
ATOM     56  H   UNL A   1      40.360  29.452  30.681  1.00  0.00     0.167 HD
ATOM     57  C   UNL A   1      43.301  27.990  33.572  1.00  0.00     0.031 A 
ATOM     58  C   UNL A   1      38.084  30.874  29.913  1.00  0.00     0.031 A 
ATOM     59  C   UNL A   1      42.479  28.910  34.313  1.00  0.00     0.049 A 
ATOM     60  C   UNL A   1      38.271  31.148  31.382  1.00  0.00     0.074 A 
ATOM     61  C   UNL A   1      42.605  29.313  35.630  1.00  0.00     0.029 A 
ATOM     62  N   UNL A   1      41.369  29.563  33.799  1.00  0.00    -0.354 N 
ATOM     63  N   UNL A   1      39.206  30.713  32.194  1.00  0.00    -0.248 NA
ATOM     64  C   UNL A   1      37.286  32.032  32.022  1.00  0.00     0.031 C 
ATOM     65  C   UNL A   1      41.535  30.159  35.933  1.00  0.00     0.029 A 
ATOM     66  C   UNL A   1      40.783  30.342  34.783  1.00  0.00     0.049 A 
ATOM     67  H   UNL A   1      41.045  29.485  32.873  1.00  0.00     0.167 HD
ATOM     68  C   UNL A   1      38.939  31.295  33.428  1.00  0.00     0.074 A 
ATOM     69  C   UNL A   1      37.762  32.121  33.255  1.00  0.00     0.031 C 
ATOM     70  C   UNL A   1      39.612  31.161  34.598  1.00  0.00     0.031 A 
BRANCH  57  71
ATOM     71  C   UNL A   1      44.430  27.302  34.290  1.00  0.00    -0.014 A 
ATOM     72  C   UNL A   1      45.708  27.878  34.371  1.00  0.00     0.009 A 
ATOM     73  C   UNL A   1      44.203  26.067  34.918  1.00  0.00     0.009 A 
ATOM     74  C   UNL A   1      46.743  27.213  35.032  1.00  0.00     0.001 A 
ATOM     75  C   UNL A   1      45.231  25.420  35.605  1.00  0.00     0.001 A 
ATOM     76  C   UNL A   1      46.503  25.987  35.652  1.00  0.00     0.000 A 
ENDBRANCH  57  71
BRANCH  58  77
ATOM     77  C   UNL A   1      36.948  31.477  29.167  1.00  0.00    -0.014 A 
ATOM     78  C   UNL A   1      37.018  32.800  28.704  1.00  0.00     0.009 A 
ATOM     79  C   UNL A   1      35.781  30.735  28.924  1.00  0.00     0.009 A 
ATOM     80  C   UNL A   1      35.933  33.374  28.037  1.00  0.00     0.001 A 
ATOM     81  C   UNL A   1      34.708  31.302  28.231  1.00  0.00     0.001 A 
ATOM     82  C   UNL A   1      34.782  32.624  27.797  1.00  0.00     0.000 A 
ENDBRANCH  58  77
BRANCH  70  83
ATOM     83  C   UNL A   1      39.124  31.961  35.776  1.00  0.00    -0.014 A 
ATOM     84  C   UNL A   1      39.553  33.279  35.996  1.00  0.00     0.009 A 
ATOM     85  C   UNL A   1      38.177  31.401  36.647  1.00  0.00     0.009 A 
ATOM     86  C   UNL A   1      39.067  34.007  37.085  1.00  0.00     0.001 A 
ATOM     87  C   UNL A   1      37.669  32.141  37.716  1.00  0.00     0.001 A 
ATOM     88  C   UNL A   1      38.120  33.440  37.939  1.00  0.00     0.000 A 
ENDBRANCH  70  83
ENDBRANCH  44  45
ENDBRANCH  37  39
ENDBRANCH  36  37
ENDBRANCH  35  36
ENDBRANCH  34  35
ENDBRANCH  33  34
ENDBRANCH   1  33
TORSDOF 18
ENDMDL
MODEL 3
REMARK VINA RESULT:      -9.2      5.258      8.383
REMARK SMILES CN1C(=O)C(=Cc2ccc(OCc3cccc(C(=O)OCCOCCOC(=O)c4ccc(-c5c6nc(c(-c7ccccc7)c7ccc([nH]7)c(-c7ccccc7)c7nc(c(-c8ccccc8)c8ccc5[nH]8)C=C7)C=C6)cc4)c3)c(Cl)c2)C(=O)N(C)C1=S
REMARK SMILES IDX 22 1 21 2 20 3 18 4 19 5 17 6 13 7 14 8 77 9 15 10 16 11
REMARK SMILES IDX 12 12 11 13 10 14 7 15 8 16 80 17 9 18 78 19 79 20 6 21 1 22
REMARK SMILES IDX 2 23 3 24 85 25 4 26 5 27 83 28 86 29 81 30 84 31 82 32
REMARK SMILES IDX 23 33 24 34 25 35 26 36 27 37 28 38 29 39 30 40 76 41 31 42
REMARK SMILES IDX 75 43 32 44 33 45 34 46 69 47 35 48 74 49 68 50 70 51 36 52
REMARK SMILES IDX 73 53 67 54 66 55 37 57 59 58 44 59 58 60 45 61 48 62 57 63
REMARK SMILES IDX 71 64 46 65 47 66 56 68 72 69 49 70 38 71 39 72 43 73 40 74
REMARK SMILES IDX 42 75 41 76 60 77 61 78 65 79 62 80 64 81 63 82 50 83 51 84
REMARK SMILES IDX 55 85 52 86 54 87 53 88
REMARK H PARENT 70 56 48 67
REMARK Flexibility Score: inf
ROOT
ATOM      1  C   UNL A   1      33.616  33.619  28.000  1.00  0.00     0.202 C 
ENDROOT
BRANCH   1   2
ATOM      2  C   UNL A   1      34.172  32.228  27.677  1.00  0.00     0.261 C 
BRANCH   2   3
ATOM      3  O   UNL A   1      33.187  31.212  27.922  1.00  0.00    -0.460 OA
BRANCH   3   4
ATOM      4  C   UNL A   1      32.382  30.900  26.874  1.00  0.00     0.338 C 
ATOM      5  O   UNL A   1      31.463  31.571  26.438  1.00  0.00    -0.246 OA
BRANCH   4   6
ATOM      6  C   UNL A   1      32.865  29.652  26.220  1.00  0.00     0.060 A 
ATOM      7  C   UNL A   1      33.150  28.244  24.236  1.00  0.00    -0.010 A 
ATOM      8  C   UNL A   1      33.748  27.272  25.053  1.00  0.00     0.007 A 
ATOM      9  C   UNL A   1      32.686  29.418  24.851  1.00  0.00     0.023 A 
ATOM     10  C   UNL A   1      33.888  27.476  26.429  1.00  0.00     0.001 A 
ATOM     11  C   UNL A   1      33.458  28.669  27.011  1.00  0.00     0.016 A 
BRANCH   7  12
ATOM     12  C   UNL A   1      32.936  27.973  22.755  1.00  0.00     0.265 C 
BRANCH  12  13
ATOM     13  O   UNL A   1      31.833  27.129  22.391  1.00  0.00    -0.487 OA
BRANCH  13  14
ATOM     14  C   UNL A   1      31.825  25.836  22.831  1.00  0.00     0.138 A 
ATOM     15  C   UNL A   1      31.944  23.088  23.376  1.00  0.00    -0.023 A 
ATOM     16  C   UNL A   1      32.855  23.663  22.486  1.00  0.00     0.012 A 
ATOM     17  C   UNL A   1      31.015  23.893  24.036  1.00  0.00     0.032 A 
ATOM     18  C   UNL A   1      32.792  25.030  22.216  1.00  0.00     0.048 A 
ATOM     19  C   UNL A   1      30.989  25.273  23.807  1.00  0.00     0.083 A 
ATOM     20  Cl  UNL A   1      29.901  26.188  24.788  1.00  0.00    -0.080 Cl
BRANCH  15  21
ATOM     21  C   UNL A   1      32.064  21.671  23.717  1.00  0.00     0.027 C 
ATOM     22  C   UNL A   1      36.338  22.676  25.162  1.00  0.00     0.156 C 
ATOM     23  N   UNL A   1      35.324  21.621  25.062  1.00  0.00    -0.288 N 
ATOM     24  C   UNL A   1      34.020  22.079  25.159  1.00  0.00     0.265 C 
ATOM     25  C   UNL A   1      35.674  20.264  24.898  1.00  0.00     0.185 C 
ATOM     26  O   UNL A   1      33.689  23.118  25.724  1.00  0.00    -0.268 OA
ATOM     27  C   UNL A   1      33.041  21.200  24.515  1.00  0.00     0.106 C 
ATOM     28  N   UNL A   1      34.595  19.379  24.663  1.00  0.00    -0.288 N 
ATOM     29  S   UNL A   1      37.285  19.744  24.999  1.00  0.00    -0.040 S 
ATOM     30  C   UNL A   1      33.252  19.754  24.559  1.00  0.00     0.265 C 
ATOM     31  C   UNL A   1      34.786  17.947  24.423  1.00  0.00     0.156 C 
ATOM     32  O   UNL A   1      32.316  18.969  24.436  1.00  0.00    -0.268 OA
ENDBRANCH  15  21
ENDBRANCH  13  14
ENDBRANCH  12  13
ENDBRANCH   7  12
ENDBRANCH   4   6
ENDBRANCH   3   4
ENDBRANCH   2   3
ENDBRANCH   1   2
BRANCH   1  33
ATOM     33  O   UNL A   1      33.235  33.838  29.359  1.00  0.00    -0.374 OA
BRANCH  33  34
ATOM     34  C   UNL A   1      33.965  34.832  30.079  1.00  0.00     0.202 C 
BRANCH  34  35
ATOM     35  C   UNL A   1      34.914  34.318  31.167  1.00  0.00     0.261 C 
BRANCH  35  36
ATOM     36  O   UNL A   1      35.863  33.371  30.648  1.00  0.00    -0.460 OA
BRANCH  36  37
ATOM     37  C   UNL A   1      35.905  32.193  31.314  1.00  0.00     0.338 C 
ATOM     38  O   UNL A   1      35.111  31.779  32.138  1.00  0.00    -0.246 OA
BRANCH  37  39
ATOM     39  C   UNL A   1      37.002  31.361  30.784  1.00  0.00     0.060 A 
ATOM     40  C   UNL A   1      37.884  30.789  31.710  1.00  0.00     0.016 A 
ATOM     41  C   UNL A   1      37.211  31.207  29.412  1.00  0.00     0.016 A 
ATOM     42  C   UNL A   1      39.013  30.105  31.265  1.00  0.00     0.010 A 
ATOM     43  C   UNL A   1      38.347  30.525  28.969  1.00  0.00     0.010 A 
ATOM     44  C   UNL A   1      39.272  30.005  29.892  1.00  0.00    -0.014 A 
BRANCH  44  45
ATOM     45  C   UNL A   1      40.576  29.482  29.422  1.00  0.00     0.031 A 
ATOM     46  C   UNL A   1      41.748  30.420  29.319  1.00  0.00     0.074 A 
ATOM     47  C   UNL A   1      40.721  28.185  29.098  1.00  0.00     0.049 A 
ATOM     48  N   UNL A   1      42.957  30.194  28.872  1.00  0.00    -0.248 NA
ATOM     49  C   UNL A   1      41.523  31.801  29.778  1.00  0.00     0.031 C 
ATOM     50  C   UNL A   1      39.677  27.167  29.198  1.00  0.00     0.029 A 
ATOM     51  N   UNL A   1      41.809  27.508  28.608  1.00  0.00    -0.354 N 
ATOM     52  C   UNL A   1      43.631  31.403  28.982  1.00  0.00     0.074 A 
ATOM     53  C   UNL A   1      42.689  32.367  29.509  1.00  0.00     0.031 C 
ATOM     54  C   UNL A   1      40.173  25.993  28.771  1.00  0.00     0.029 A 
ATOM     55  C   UNL A   1      41.553  26.187  28.332  1.00  0.00     0.049 A 
ATOM     56  H   UNL A   1      42.688  27.929  28.468  1.00  0.00     0.167 HD
ATOM     57  C   UNL A   1      44.919  31.687  28.673  1.00  0.00     0.031 A 
ATOM     58  C   UNL A   1      42.336  25.251  27.763  1.00  0.00     0.031 A 
ATOM     59  C   UNL A   1      45.850  30.732  28.133  1.00  0.00     0.049 A 
ATOM     60  C   UNL A   1      43.738  25.611  27.349  1.00  0.00     0.074 A 
ATOM     61  C   UNL A   1      47.181  30.915  27.803  1.00  0.00     0.029 A 
ATOM     62  N   UNL A   1      45.542  29.413  27.835  1.00  0.00    -0.354 N 
ATOM     63  N   UNL A   1      44.374  26.751  27.477  1.00  0.00    -0.248 NA
ATOM     64  C   UNL A   1      44.535  24.549  26.716  1.00  0.00     0.031 C 
ATOM     65  C   UNL A   1      47.661  29.727  27.245  1.00  0.00     0.029 A 
ATOM     66  C   UNL A   1      46.650  28.780  27.295  1.00  0.00     0.049 A 
ATOM     67  H   UNL A   1      44.666  28.990  27.984  1.00  0.00     0.167 HD
ATOM     68  C   UNL A   1      45.650  26.535  26.971  1.00  0.00     0.074 A 
ATOM     69  C   UNL A   1      45.703  25.152  26.545  1.00  0.00     0.031 C 
ATOM     70  C   UNL A   1      46.688  27.403  26.875  1.00  0.00     0.031 A 
BRANCH  57  71
ATOM     71  C   UNL A   1      45.383  33.104  28.874  1.00  0.00    -0.014 A 
ATOM     72  C   UNL A   1      45.942  33.527  30.091  1.00  0.00     0.009 A 
ATOM     73  C   UNL A   1      45.283  34.024  27.819  1.00  0.00     0.009 A 
ATOM     74  C   UNL A   1      46.354  34.851  30.257  1.00  0.00     0.001 A 
ATOM     75  C   UNL A   1      45.724  35.339  27.978  1.00  0.00     0.001 A 
ATOM     76  C   UNL A   1      46.249  35.755  29.200  1.00  0.00     0.000 A 
ENDBRANCH  57  71
BRANCH  58  77
ATOM     77  C   UNL A   1      41.803  23.882  27.530  1.00  0.00    -0.014 A 
ATOM     78  C   UNL A   1      41.175  23.557  26.318  1.00  0.00     0.009 A 
ATOM     79  C   UNL A   1      41.908  22.898  28.525  1.00  0.00     0.009 A 
ATOM     80  C   UNL A   1      40.641  22.280  26.119  1.00  0.00     0.001 A 
ATOM     81  C   UNL A   1      41.399  21.614  28.313  1.00  0.00     0.001 A 
ATOM     82  C   UNL A   1      40.758  21.310  27.114  1.00  0.00     0.000 A 
ENDBRANCH  58  77
BRANCH  70  83
ATOM     83  C   UNL A   1      47.988  26.874  26.330  1.00  0.00    -0.014 A 
ATOM     84  C   UNL A   1      48.271  26.897  24.956  1.00  0.00     0.009 A 
ATOM     85  C   UNL A   1      48.966  26.396  27.216  1.00  0.00     0.009 A 
ATOM     86  C   UNL A   1      49.495  26.421  24.479  1.00  0.00     0.001 A 
ATOM     87  C   UNL A   1      50.200  25.950  26.741  1.00  0.00     0.001 A 
ATOM     88  C   UNL A   1      50.460  25.955  25.372  1.00  0.00     0.000 A 
ENDBRANCH  70  83
ENDBRANCH  44  45
ENDBRANCH  37  39
ENDBRANCH  36  37
ENDBRANCH  35  36
ENDBRANCH  34  35
ENDBRANCH  33  34
ENDBRANCH   1  33
TORSDOF 18
ENDMDL
