MODEL 1
REMARK VINA RESULT:      -9.9      0.000      0.000
REMARK SMILES C[C@@H](C(=O)OCCOCCOC(=O)c1ccc(-c2c3nc(c(-c4ccccc4)c4ccc([nH]4)c(-c4ccccc4)c4nc(c(-c5ccccc5)c5ccc2[nH]5)C=C4)C=C3)cc1)c1ccc(C(=O)c2cccs2)cc1
REMARK SMILES IDX 7 1 6 2 5 3 3 4 4 5 2 6 1 7 62 8 63 9 74 10 64 11 73 12
REMARK SMILES IDX 65 13 66 14 67 15 68 16 69 17 72 18 70 19 71 20 8 21 9 22
REMARK SMILES IDX 10 23 11 24 12 25 13 26 14 27 15 28 61 29 16 30 60 31 17 32
REMARK SMILES IDX 18 33 19 34 54 35 20 36 59 37 53 38 55 39 21 40 58 41 52 42
REMARK SMILES IDX 51 43 22 45 44 46 29 47 43 48 30 49 33 50 42 51 56 52 31 53
REMARK SMILES IDX 32 54 41 56 57 57 34 58 23 59 24 60 28 61 25 62 27 63 26 64
REMARK SMILES IDX 45 65 46 66 50 67 47 68 49 69 48 70 35 71 36 72 40 73 37 74
REMARK SMILES IDX 39 75 38 76
REMARK H PARENT 55 44 33 55
REMARK Flexibility Score: inf
ROOT
ATOM      1  C   UNL A   1      44.581  20.904  25.292  1.00  0.00     0.202 C 
ENDROOT
BRANCH   1   2
ATOM      2  C   UNL A   1      44.050  19.482  25.101  1.00  0.00     0.261 C 
BRANCH   2   3
ATOM      3  O   UNL A   1      42.615  19.471  25.065  1.00  0.00    -0.463 OA
BRANCH   3   4
ATOM      4  C   UNL A   1      41.993  19.629  26.267  1.00  0.00     0.313 C 
ATOM      5  O   UNL A   1      42.026  18.797  27.167  1.00  0.00    -0.252 OA
BRANCH   4   6
ATOM      6  C   UNL A   1      41.279  20.984  26.393  1.00  0.00     0.126 C 
ATOM      7  C   UNL A   1      41.503  21.616  27.776  1.00  0.00     0.025 C 
BRANCH   6   8
ATOM      8  C   UNL A   1      39.815  20.949  25.927  1.00  0.00    -0.034 A 
ATOM      9  C   UNL A   1      38.992  22.073  26.113  1.00  0.00     0.005 A 
ATOM     10  C   UNL A   1      39.214  19.802  25.378  1.00  0.00     0.005 A 
ATOM     11  C   UNL A   1      37.639  22.061  25.751  1.00  0.00     0.012 A 
ATOM     12  C   UNL A   1      37.855  19.784  25.018  1.00  0.00     0.012 A 
ATOM     13  C   UNL A   1      37.051  20.914  25.209  1.00  0.00     0.023 A 
BRANCH  13  14
ATOM     14  C   UNL A   1      35.605  20.972  24.814  1.00  0.00     0.202 C 
ATOM     15  O   UNL A   1      34.973  19.916  24.807  1.00  0.00    -0.288 OA
BRANCH  14  16
ATOM     16  C   UNL A   1      34.998  22.247  24.470  1.00  0.00     0.075 A 
ATOM     17  C   UNL A   1      35.156  23.029  23.341  1.00  0.00     0.024 A 
ATOM     18  S   UNL A   1      33.862  22.933  25.555  1.00  0.00    -0.140 S 
ATOM     19  C   UNL A   1      34.361  24.213  23.388  1.00  0.00     0.012 A 
ATOM     20  C   UNL A   1      33.617  24.289  24.545  1.00  0.00     0.065 A 
ENDBRANCH  14  16
ENDBRANCH  13  14
ENDBRANCH   6   8
ENDBRANCH   4   6
ENDBRANCH   3   4
ENDBRANCH   2   3
ENDBRANCH   1   2
BRANCH   1  21
ATOM     21  O   UNL A   1      45.813  21.208  24.641  1.00  0.00    -0.374 OA
BRANCH  21  22
ATOM     22  C   UNL A   1      46.207  22.581  24.569  1.00  0.00     0.202 C 
BRANCH  22  23
ATOM     23  C   UNL A   1      45.778  23.480  25.736  1.00  0.00     0.261 C 
BRANCH  23  24
ATOM     24  O   UNL A   1      45.038  24.638  25.303  1.00  0.00    -0.460 OA
BRANCH  24  25
ATOM     25  C   UNL A   1      43.702  24.448  25.188  1.00  0.00     0.338 C 
ATOM     26  O   UNL A   1      43.129  23.562  24.569  1.00  0.00    -0.246 OA
BRANCH  25  27
ATOM     27  C   UNL A   1      42.968  25.374  26.069  1.00  0.00     0.060 A 
ATOM     28  C   UNL A   1      43.516  26.648  26.272  1.00  0.00     0.016 A 
ATOM     29  C   UNL A   1      41.831  24.971  26.772  1.00  0.00     0.016 A 
ATOM     30  C   UNL A   1      42.955  27.508  27.213  1.00  0.00     0.010 A 
ATOM     31  C   UNL A   1      41.275  25.834  27.725  1.00  0.00     0.010 A 
ATOM     32  C   UNL A   1      41.856  27.091  27.975  1.00  0.00    -0.014 A 
BRANCH  32  33
ATOM     33  C   UNL A   1      41.416  27.913  29.129  1.00  0.00     0.031 A 
ATOM     34  C   UNL A   1      42.163  27.807  30.432  1.00  0.00     0.074 A 
ATOM     35  C   UNL A   1      40.390  28.775  29.013  1.00  0.00     0.049 A 
ATOM     36  N   UNL A   1      41.947  28.428  31.565  1.00  0.00    -0.248 NA
ATOM     37  C   UNL A   1      43.306  26.882  30.460  1.00  0.00     0.031 C 
ATOM     38  C   UNL A   1      39.614  29.007  27.796  1.00  0.00     0.029 A 
ATOM     39  N   UNL A   1      39.829  29.617  29.939  1.00  0.00    -0.354 N 
ATOM     40  C   UNL A   1      42.924  27.969  32.438  1.00  0.00     0.074 A 
ATOM     41  C   UNL A   1      43.716  26.996  31.715  1.00  0.00     0.031 C 
ATOM     42  C   UNL A   1      38.669  29.929  28.054  1.00  0.00     0.029 A 
ATOM     43  C   UNL A   1      38.758  30.328  29.457  1.00  0.00     0.049 A 
ATOM     44  H   UNL A   1      40.161  29.703  30.861  1.00  0.00     0.167 HD
ATOM     45  C   UNL A   1      43.150  28.327  33.724  1.00  0.00     0.031 A 
ATOM     46  C   UNL A   1      37.932  31.190  30.080  1.00  0.00     0.031 A 
ATOM     47  C   UNL A   1      42.358  29.281  34.453  1.00  0.00     0.049 A 
ATOM     48  C   UNL A   1      38.153  31.514  31.533  1.00  0.00     0.074 A 
ATOM     49  C   UNL A   1      42.514  29.713  35.760  1.00  0.00     0.029 A 
ATOM     50  N   UNL A   1      41.257  29.946  33.940  1.00  0.00    -0.354 N 
ATOM     51  N   UNL A   1      39.093  31.086  32.342  1.00  0.00    -0.248 NA
ATOM     52  C   UNL A   1      37.202  32.447  32.157  1.00  0.00     0.031 C 
ATOM     53  C   UNL A   1      41.475  30.603  36.053  1.00  0.00     0.029 A 
ATOM     54  C   UNL A   1      40.706  30.766  34.912  1.00  0.00     0.049 A 
ATOM     55  H   UNL A   1      40.915  29.850  33.023  1.00  0.00     0.167 HD
ATOM     56  C   UNL A   1      38.861  31.715  33.559  1.00  0.00     0.074 A 
ATOM     57  C   UNL A   1      37.701  32.563  33.380  1.00  0.00     0.031 C 
ATOM     58  C   UNL A   1      39.550  31.602  34.721  1.00  0.00     0.031 A 
BRANCH  45  59
ATOM     59  C   UNL A   1      44.290  27.656  34.435  1.00  0.00    -0.014 A 
ATOM     60  C   UNL A   1      44.110  26.438  35.111  1.00  0.00     0.009 A 
ATOM     61  C   UNL A   1      45.569  28.234  34.404  1.00  0.00     0.009 A 
ATOM     62  C   UNL A   1      45.181  25.830  35.768  1.00  0.00     0.001 A 
ATOM     63  C   UNL A   1      46.643  27.610  35.041  1.00  0.00     0.001 A 
ATOM     64  C   UNL A   1      46.447  26.414  35.730  1.00  0.00     0.000 A 
ENDBRANCH  45  59
BRANCH  46  65
ATOM     65  C   UNL A   1      36.795  31.797  29.339  1.00  0.00    -0.014 A 
ATOM     66  C   UNL A   1      35.558  31.141  29.258  1.00  0.00     0.009 A 
ATOM     67  C   UNL A   1      36.952  33.033  28.692  1.00  0.00     0.009 A 
ATOM     68  C   UNL A   1      34.509  31.699  28.525  1.00  0.00     0.001 A 
ATOM     69  C   UNL A   1      35.894  33.602  27.983  1.00  0.00     0.001 A 
ATOM     70  C   UNL A   1      34.675  32.930  27.892  1.00  0.00     0.000 A 
ENDBRANCH  46  65
BRANCH  58  71
ATOM     71  C   UNL A   1      39.087  32.437  35.881  1.00  0.00    -0.014 A 
ATOM     72  C   UNL A   1      38.104  31.970  36.767  1.00  0.00     0.009 A 
ATOM     73  C   UNL A   1      39.675  33.690  36.114  1.00  0.00     0.009 A 
ATOM     74  C   UNL A   1      37.697  32.758  37.847  1.00  0.00     0.001 A 
ATOM     75  C   UNL A   1      39.286  34.463  37.209  1.00  0.00     0.001 A 
ATOM     76  C   UNL A   1      38.291  34.000  38.069  1.00  0.00     0.000 A 
ENDBRANCH  58  71
ENDBRANCH  32  33
ENDBRANCH  25  27
ENDBRANCH  24  25
ENDBRANCH  23  24
ENDBRANCH  22  23
ENDBRANCH  21  22
ENDBRANCH   1  21
TORSDOF 17
ENDMDL
MODEL 2
REMARK VINA RESULT:      -9.9      4.282      9.480
REMARK SMILES C[C@@H](C(=O)OCCOCCOC(=O)c1ccc(-c2c3nc(c(-c4ccccc4)c4ccc([nH]4)c(-c4ccccc4)c4nc(c(-c5ccccc5)c5ccc2[nH]5)C=C4)C=C3)cc1)c1ccc(C(=O)c2cccs2)cc1
REMARK SMILES IDX 7 1 6 2 5 3 3 4 4 5 2 6 1 7 62 8 63 9 74 10 64 11 73 12
REMARK SMILES IDX 65 13 66 14 67 15 68 16 69 17 72 18 70 19 71 20 8 21 9 22
REMARK SMILES IDX 10 23 11 24 12 25 13 26 14 27 15 28 61 29 16 30 60 31 17 32
REMARK SMILES IDX 18 33 19 34 54 35 20 36 59 37 53 38 55 39 21 40 58 41 52 42
REMARK SMILES IDX 51 43 22 45 44 46 29 47 43 48 30 49 33 50 42 51 56 52 31 53
REMARK SMILES IDX 32 54 41 56 57 57 34 58 23 59 24 60 28 61 25 62 27 63 26 64
REMARK SMILES IDX 45 65 46 66 50 67 47 68 49 69 48 70 35 71 36 72 40 73 37 74
REMARK SMILES IDX 39 75 38 76
REMARK H PARENT 55 44 33 55
REMARK Flexibility Score: inf
ROOT
ATOM      1  C   UNL A   1      33.682  33.105  27.999  1.00  0.00     0.202 C 
ENDROOT
BRANCH   1   2
ATOM      2  C   UNL A   1      34.023  31.615  28.068  1.00  0.00     0.261 C 
BRANCH   2   3
ATOM      3  O   UNL A   1      33.548  30.925  26.902  1.00  0.00    -0.463 OA
BRANCH   3   4
ATOM      4  C   UNL A   1      33.877  29.606  26.821  1.00  0.00     0.313 C 
ATOM      5  O   UNL A   1      34.975  29.156  27.132  1.00  0.00    -0.252 OA
BRANCH   4   6
ATOM      6  C   UNL A   1      32.710  28.730  26.338  1.00  0.00     0.126 C 
ATOM      7  C   UNL A   1      31.699  28.460  27.465  1.00  0.00     0.025 C 
BRANCH   6   8
ATOM      8  C   UNL A   1      33.162  27.484  25.561  1.00  0.00    -0.034 A 
ATOM      9  C   UNL A   1      33.335  27.550  24.168  1.00  0.00     0.005 A 
ATOM     10  C   UNL A   1      33.346  26.229  26.168  1.00  0.00     0.005 A 
ATOM     11  C   UNL A   1      33.694  26.424  23.418  1.00  0.00     0.012 A 
ATOM     12  C   UNL A   1      33.702  25.094  25.418  1.00  0.00     0.012 A 
ATOM     13  C   UNL A   1      33.871  25.179  24.031  1.00  0.00     0.023 A 
BRANCH  13  14
ATOM     14  C   UNL A   1      34.284  24.016  23.178  1.00  0.00     0.202 C 
ATOM     15  O   UNL A   1      33.820  23.951  22.040  1.00  0.00    -0.288 OA
BRANCH  14  16
ATOM     16  C   UNL A   1      35.210  23.026  23.701  1.00  0.00     0.075 A 
ATOM     17  C   UNL A   1      36.581  22.928  23.552  1.00  0.00     0.024 A 
ATOM     18  S   UNL A   1      34.597  21.782  24.708  1.00  0.00    -0.140 S 
ATOM     19  C   UNL A   1      37.120  21.803  24.244  1.00  0.00     0.012 A 
ATOM     20  C   UNL A   1      36.147  21.088  24.905  1.00  0.00     0.065 A 
ENDBRANCH  14  16
ENDBRANCH  13  14
ENDBRANCH   6   8
ENDBRANCH   4   6
ENDBRANCH   3   4
ENDBRANCH   2   3
ENDBRANCH   1   2
BRANCH   1  21
ATOM     21  O   UNL A   1      34.635  33.996  28.575  1.00  0.00    -0.374 OA
BRANCH  21  22
ATOM     22  C   UNL A   1      34.285  35.379  28.663  1.00  0.00     0.202 C 
BRANCH  22  23
ATOM     23  C   UNL A   1      32.884  35.700  29.199  1.00  0.00     0.261 C 
BRANCH  23  24
ATOM     24  O   UNL A   1      32.560  34.956  30.390  1.00  0.00    -0.460 OA
BRANCH  24  25
ATOM     25  C   UNL A   1      32.882  35.575  31.551  1.00  0.00     0.338 C 
ATOM     26  O   UNL A   1      32.273  36.482  32.103  1.00  0.00    -0.246 OA
BRANCH  25  27
ATOM     27  C   UNL A   1      34.015  34.897  32.204  1.00  0.00     0.060 A 
ATOM     28  C   UNL A   1      35.267  35.526  32.149  1.00  0.00     0.016 A 
ATOM     29  C   UNL A   1      33.887  33.624  32.761  1.00  0.00     0.016 A 
ATOM     30  C   UNL A   1      36.403  34.863  32.608  1.00  0.00     0.010 A 
ATOM     31  C   UNL A   1      35.032  32.955  33.212  1.00  0.00     0.010 A 
ATOM     32  C   UNL A   1      36.299  33.557  33.104  1.00  0.00    -0.014 A 
BRANCH  32  33
ATOM     33  C   UNL A   1      37.533  32.778  33.369  1.00  0.00     0.031 A 
ATOM     34  C   UNL A   1      38.292  33.017  34.647  1.00  0.00     0.074 A 
ATOM     35  C   UNL A   1      37.956  31.838  32.504  1.00  0.00     0.049 A 
ATOM     36  N   UNL A   1      39.393  32.452  35.075  1.00  0.00    -0.248 NA
ATOM     37  C   UNL A   1      37.733  34.022  35.564  1.00  0.00     0.031 C 
ATOM     38  C   UNL A   1      37.289  31.476  31.255  1.00  0.00     0.029 A 
ATOM     39  N   UNL A   1      39.053  31.016  32.553  1.00  0.00    -0.354 N 
ATOM     40  C   UNL A   1      39.659  33.033  36.309  1.00  0.00     0.074 A 
ATOM     41  C   UNL A   1      38.621  34.015  36.547  1.00  0.00     0.031 C 
ATOM     42  C   UNL A   1      37.997  30.506  30.650  1.00  0.00     0.029 A 
ATOM     43  C   UNL A   1      39.178  30.201  31.455  1.00  0.00     0.049 A 
ATOM     44  H   UNL A   1      39.691  31.011  33.302  1.00  0.00     0.167 HD
ATOM     45  C   UNL A   1      40.669  32.772  37.171  1.00  0.00     0.031 A 
ATOM     46  C   UNL A   1      40.143  29.321  31.127  1.00  0.00     0.031 A 
ATOM     47  C   UNL A   1      41.712  31.810  36.934  1.00  0.00     0.049 A 
ATOM     48  C   UNL A   1      41.301  29.104  32.065  1.00  0.00     0.074 A 
ATOM     49  C   UNL A   1      42.776  31.471  37.752  1.00  0.00     0.029 A 
ATOM     50  N   UNL A   1      41.824  31.036  35.790  1.00  0.00    -0.354 N 
ATOM     51  N   UNL A   1      41.529  29.647  33.236  1.00  0.00    -0.248 NA
ATOM     52  C   UNL A   1      42.331  28.145  31.636  1.00  0.00     0.031 C 
ATOM     53  C   UNL A   1      43.561  30.528  37.081  1.00  0.00     0.029 A 
ATOM     54  C   UNL A   1      42.955  30.240  35.868  1.00  0.00     0.049 A 
ATOM     55  H   UNL A   1      41.196  31.051  35.033  1.00  0.00     0.167 HD
ATOM     56  C   UNL A   1      42.712  29.079  33.694  1.00  0.00     0.074 A 
ATOM     57  C   UNL A   1      43.146  28.140  32.681  1.00  0.00     0.031 C 
ATOM     58  C   UNL A   1      43.377  29.313  34.852  1.00  0.00     0.031 A 
BRANCH  45  59
ATOM     59  C   UNL A   1      40.710  33.566  38.445  1.00  0.00    -0.014 A 
ATOM     60  C   UNL A   1      41.388  34.793  38.516  1.00  0.00     0.009 A 
ATOM     61  C   UNL A   1      40.035  33.095  39.582  1.00  0.00     0.009 A 
ATOM     62  C   UNL A   1      41.416  35.517  39.709  1.00  0.00     0.001 A 
ATOM     63  C   UNL A   1      40.045  33.833  40.767  1.00  0.00     0.001 A 
ATOM     64  C   UNL A   1      40.742  35.039  40.833  1.00  0.00     0.000 A 
ENDBRANCH  45  59
BRANCH  46  65
ATOM     65  C   UNL A   1      40.075  28.589  29.836  1.00  0.00    -0.014 A 
ATOM     66  C   UNL A   1      39.463  27.329  29.756  1.00  0.00     0.009 A 
ATOM     67  C   UNL A   1      40.641  29.144  28.677  1.00  0.00     0.009 A 
ATOM     68  C   UNL A   1      39.440  26.631  28.547  1.00  0.00     0.001 A 
ATOM     69  C   UNL A   1      40.593  28.456  27.465  1.00  0.00     0.001 A 
ATOM     70  C   UNL A   1      40.001  27.195  27.402  1.00  0.00     0.000 A 
ENDBRANCH  46  65
BRANCH  58  71
ATOM     71  C   UNL A   1      44.629  28.519  35.100  1.00  0.00    -0.014 A 
ATOM     72  C   UNL A   1      45.885  28.996  34.697  1.00  0.00     0.009 A 
ATOM     73  C   UNL A   1      44.552  27.297  35.786  1.00  0.00     0.009 A 
ATOM     74  C   UNL A   1      47.037  28.248  34.949  1.00  0.00     0.001 A 
ATOM     75  C   UNL A   1      45.708  26.564  36.060  1.00  0.00     0.001 A 
ATOM     76  C   UNL A   1      46.948  27.036  35.634  1.00  0.00     0.000 A 
ENDBRANCH  58  71
ENDBRANCH  32  33
ENDBRANCH  25  27
ENDBRANCH  24  25
ENDBRANCH  23  24
ENDBRANCH  22  23
ENDBRANCH  21  22
ENDBRANCH   1  21
TORSDOF 17
ENDMDL
MODEL 3
REMARK VINA RESULT:      -9.9      5.352     11.791
REMARK SMILES C[C@@H](C(=O)OCCOCCOC(=O)c1ccc(-c2c3nc(c(-c4ccccc4)c4ccc([nH]4)c(-c4ccccc4)c4nc(c(-c5ccccc5)c5ccc2[nH]5)C=C4)C=C3)cc1)c1ccc(C(=O)c2cccs2)cc1
REMARK SMILES IDX 7 1 6 2 5 3 3 4 4 5 2 6 1 7 62 8 63 9 74 10 64 11 73 12
REMARK SMILES IDX 65 13 66 14 67 15 68 16 69 17 72 18 70 19 71 20 8 21 9 22
REMARK SMILES IDX 10 23 11 24 12 25 13 26 14 27 15 28 61 29 16 30 60 31 17 32
REMARK SMILES IDX 18 33 19 34 54 35 20 36 59 37 53 38 55 39 21 40 58 41 52 42
REMARK SMILES IDX 51 43 22 45 44 46 29 47 43 48 30 49 33 50 42 51 56 52 31 53
REMARK SMILES IDX 32 54 41 56 57 57 34 58 23 59 24 60 28 61 25 62 27 63 26 64
REMARK SMILES IDX 45 65 46 66 50 67 47 68 49 69 48 70 35 71 36 72 40 73 37 74
REMARK SMILES IDX 39 75 38 76
REMARK H PARENT 55 44 33 55
REMARK Flexibility Score: inf
ROOT
ATOM      1  C   UNL A   1      35.670  35.131  33.310  1.00  0.00     0.202 C 
ENDROOT
BRANCH   1   2
ATOM      2  C   UNL A   1      36.256  33.956  34.095  1.00  0.00     0.261 C 
BRANCH   2   3
ATOM      3  O   UNL A   1      37.209  34.412  35.067  1.00  0.00    -0.463 OA
BRANCH   3   4
ATOM      4  C   UNL A   1      37.132  33.821  36.292  1.00  0.00     0.313 C 
ATOM      5  O   UNL A   1      36.081  33.466  36.814  1.00  0.00    -0.252 OA
BRANCH   4   6
ATOM      6  C   UNL A   1      38.512  33.605  36.935  1.00  0.00     0.126 C 
ATOM      7  C   UNL A   1      39.277  34.929  37.095  1.00  0.00     0.025 C 
BRANCH   6   8
ATOM      8  C   UNL A   1      39.315  32.466  36.288  1.00  0.00    -0.034 A 
ATOM      9  C   UNL A   1      40.527  32.046  36.865  1.00  0.00     0.005 A 
ATOM     10  C   UNL A   1      38.938  31.853  35.080  1.00  0.00     0.005 A 
ATOM     11  C   UNL A   1      41.314  31.049  36.277  1.00  0.00     0.012 A 
ATOM     12  C   UNL A   1      39.729  30.855  34.483  1.00  0.00     0.012 A 
ATOM     13  C   UNL A   1      40.931  30.449  35.072  1.00  0.00     0.023 A 
BRANCH  13  14
ATOM     14  C   UNL A   1      41.802  29.367  34.507  1.00  0.00     0.202 C 
ATOM     15  O   UNL A   1      41.566  28.987  33.360  1.00  0.00    -0.288 OA
BRANCH  14  16
ATOM     16  C   UNL A   1      42.885  28.816  35.304  1.00  0.00     0.075 A 
ATOM     17  C   UNL A   1      44.184  29.263  35.466  1.00  0.00     0.024 A 
ATOM     18  S   UNL A   1      42.576  27.428  36.259  1.00  0.00    -0.140 S 
ATOM     19  C   UNL A   1      44.933  28.437  36.355  1.00  0.00     0.012 A 
ATOM     20  C   UNL A   1      44.180  27.395  36.849  1.00  0.00     0.065 A 
ENDBRANCH  14  16
ENDBRANCH  13  14
ENDBRANCH   6   8
ENDBRANCH   4   6
ENDBRANCH   3   4
ENDBRANCH   2   3
ENDBRANCH   1   2
BRANCH   1  21
ATOM     21  O   UNL A   1      34.314  35.465  33.596  1.00  0.00    -0.374 OA
BRANCH  21  22
ATOM     22  C   UNL A   1      33.737  36.569  32.895  1.00  0.00     0.202 C 
BRANCH  22  23
ATOM     23  C   UNL A   1      33.637  36.437  31.370  1.00  0.00     0.261 C 
BRANCH  23  24
ATOM     24  O   UNL A   1      33.008  35.207  30.958  1.00  0.00    -0.460 OA
BRANCH  24  25
ATOM     25  C   UNL A   1      33.264  34.838  29.681  1.00  0.00     0.338 C 
ATOM     26  O   UNL A   1      32.708  35.236  28.666  1.00  0.00    -0.246 OA
BRANCH  25  27
ATOM     27  C   UNL A   1      34.461  33.980  29.618  1.00  0.00     0.060 A 
ATOM     28  C   UNL A   1      34.621  33.016  30.623  1.00  0.00     0.016 A 
ATOM     29  C   UNL A   1      35.462  34.185  28.667  1.00  0.00     0.016 A 
ATOM     30  C   UNL A   1      35.804  32.285  30.707  1.00  0.00     0.010 A 
ATOM     31  C   UNL A   1      36.655  33.456  28.761  1.00  0.00     0.010 A 
ATOM     32  C   UNL A   1      36.844  32.529  29.802  1.00  0.00    -0.014 A 
BRANCH  32  33
ATOM     33  C   UNL A   1      38.177  31.921  30.042  1.00  0.00     0.031 A 
ATOM     34  C   UNL A   1      39.173  32.653  30.901  1.00  0.00     0.074 A 
ATOM     35  C   UNL A   1      38.486  30.714  29.537  1.00  0.00     0.049 A 
ATOM     36  N   UNL A   1      40.391  32.307  31.236  1.00  0.00    -0.248 NA
ATOM     37  C   UNL A   1      38.736  33.942  31.461  1.00  0.00     0.031 C 
ATOM     38  C   UNL A   1      37.597  29.881  28.728  1.00  0.00     0.029 A 
ATOM     39  N   UNL A   1      39.641  29.980  29.635  1.00  0.00    -0.354 N 
ATOM     40  C   UNL A   1      40.865  33.334  32.042  1.00  0.00     0.074 A 
ATOM     41  C   UNL A   1      39.816  34.329  32.122  1.00  0.00     0.031 C 
ATOM     42  C   UNL A   1      38.245  28.750  28.397  1.00  0.00     0.029 A 
ATOM     43  C   UNL A   1      39.598  28.793  28.946  1.00  0.00     0.049 A 
ATOM     44  H   UNL A   1      40.426  30.276  30.149  1.00  0.00     0.167 HD
ATOM     45  C   UNL A   1      42.062  33.440  32.666  1.00  0.00     0.031 A 
ATOM     46  C   UNL A   1      40.548  27.856  28.764  1.00  0.00     0.031 A 
ATOM     47  C   UNL A   1      43.114  32.464  32.577  1.00  0.00     0.049 A 
ATOM     48  C   UNL A   1      41.900  28.033  29.402  1.00  0.00     0.074 A 
ATOM     49  C   UNL A   1      44.361  32.482  33.179  1.00  0.00     0.029 A 
ATOM     50  N   UNL A   1      43.045  31.297  31.834  1.00  0.00    -0.354 N 
ATOM     51  N   UNL A   1      42.328  29.000  30.177  1.00  0.00    -0.248 NA
ATOM     52  C   UNL A   1      42.897  26.982  29.145  1.00  0.00     0.031 C 
ATOM     53  C   UNL A   1      45.066  31.349  32.760  1.00  0.00     0.029 A 
ATOM     54  C   UNL A   1      44.237  30.599  31.940  1.00  0.00     0.049 A 
ATOM     55  H   UNL A   1      42.266  31.007  31.308  1.00  0.00     0.167 HD
ATOM     56  C   UNL A   1      43.632  28.663  30.518  1.00  0.00     0.074 A 
ATOM     57  C   UNL A   1      43.920  27.396  29.878  1.00  0.00     0.031 C 
ATOM     58  C   UNL A   1      44.511  29.342  31.296  1.00  0.00     0.031 A 
BRANCH  45  59
ATOM     59  C   UNL A   1      42.307  34.679  33.480  1.00  0.00    -0.014 A 
ATOM     60  C   UNL A   1      41.992  34.725  34.847  1.00  0.00     0.009 A 
ATOM     61  C   UNL A   1      42.887  35.806  32.877  1.00  0.00     0.009 A 
ATOM     62  C   UNL A   1      42.225  35.886  35.586  1.00  0.00     0.001 A 
ATOM     63  C   UNL A   1      43.141  36.957  33.625  1.00  0.00     0.001 A 
ATOM     64  C   UNL A   1      42.802  36.999  34.977  1.00  0.00     0.000 A 
ENDBRANCH  45  59
BRANCH  46  65
ATOM     65  C   UNL A   1      40.266  26.667  27.917  1.00  0.00    -0.014 A 
ATOM     66  C   UNL A   1      39.547  25.576  28.427  1.00  0.00     0.009 A 
ATOM     67  C   UNL A   1      40.735  26.614  26.595  1.00  0.00     0.009 A 
ATOM     68  C   UNL A   1      39.323  24.446  27.637  1.00  0.00     0.001 A 
ATOM     69  C   UNL A   1      40.487  25.495  25.799  1.00  0.00     0.001 A 
ATOM     70  C   UNL A   1      39.789  24.407  26.324  1.00  0.00     0.000 A 
ENDBRANCH  46  65
BRANCH  58  71
ATOM     71  C   UNL A   1      45.858  28.714  31.523  1.00  0.00    -0.014 A 
ATOM     72  C   UNL A   1      46.077  27.827  32.588  1.00  0.00     0.009 A 
ATOM     73  C   UNL A   1      46.908  28.982  30.632  1.00  0.00     0.009 A 
ATOM     74  C   UNL A   1      47.334  27.245  32.773  1.00  0.00     0.001 A 
ATOM     75  C   UNL A   1      48.155  28.379  30.804  1.00  0.00     0.001 A 
ATOM     76  C   UNL A   1      48.368  27.517  31.879  1.00  0.00     0.000 A 
ENDBRANCH  58  71
ENDBRANCH  32  33
ENDBRANCH  25  27
ENDBRANCH  24  25
ENDBRANCH  23  24
ENDBRANCH  22  23
ENDBRANCH  21  22
ENDBRANCH   1  21
TORSDOF 17
ENDMDL
