MODEL 1
REMARK VINA RESULT:     -11.9      0.000      0.000
REMARK SMILES O=C(OCCOCCOC(=O)c1ccc(-c2c3nc(c(-c4ccccc4)c4ccc([nH]4)c(-c4ccccc4)c4nc(c(-c5ccccc5)c5ccc2[nH]5)C=C4)C=C3)cc1)C1=Cc2cc(Cl)cc(Cl)c2O[C@@H]1C(F)(F)F
REMARK SMILES IDX 7 1 6 2 5 3 4 4 3 5 2 6 1 7 60 8 61 9 71 10 62 11 70 12
REMARK SMILES IDX 63 13 69 14 64 15 67 16 65 17 66 18 68 19 72 20 73 21 74 22
REMARK SMILES IDX 75 23 8 24 9 25 10 26 11 27 12 28 13 29 59 30 14 31 58 32
REMARK SMILES IDX 15 33 16 34 17 35 52 36 18 37 57 38 51 39 53 40 19 41 56 42
REMARK SMILES IDX 50 43 49 44 20 46 42 47 27 48 41 49 28 50 31 51 40 52 54 53
REMARK SMILES IDX 29 54 30 55 39 57 55 58 32 59 21 60 22 61 26 62 23 63 25 64
REMARK SMILES IDX 24 65 43 66 44 67 48 68 45 69 47 70 46 71 33 72 34 73 38 74
REMARK SMILES IDX 35 75 37 76 36 77
REMARK H PARENT 53 45 31 56
REMARK Flexibility Score: inf
ROOT
ATOM      1  C   UNL A   1      42.674  20.335  26.246  1.00  0.00     0.202 C 
ENDROOT
BRANCH   1   2
ATOM      2  O   UNL A   1      41.266  20.302  25.964  1.00  0.00    -0.374 OA
BRANCH   2   3
ATOM      3  C   UNL A   1      40.063  21.336  26.154  1.00  0.00     0.202 C 
BRANCH   3   4
ATOM      4  C   UNL A   1      38.060  21.442  25.320  1.00  0.00     0.261 C 
BRANCH   4   5
ATOM      5  O   UNL A   1      36.929  22.379  25.750  1.00  0.00    -0.460 OA
BRANCH   5   6
ATOM      6  C   UNL A   1      36.367  23.013  24.717  1.00  0.00     0.338 C 
ATOM      7  O   UNL A   1      36.893  23.561  23.784  1.00  0.00    -0.246 OA
BRANCH   6   8
ATOM      8  C   UNL A   1      35.052  23.140  25.312  1.00  0.00     0.087 C 
ATOM      9  C   UNL A   1      34.780  24.529  25.772  1.00  0.00     0.027 C 
ATOM     10  C   UNL A   1      34.108  22.255  23.873  1.00  0.00     0.316 C 
ATOM     11  C   UNL A   1      33.676  25.682  24.897  1.00  0.00     0.020 A 
ATOM     12  O   UNL A   1      32.990  23.479  22.891  1.00  0.00    -0.474 OA
ATOM     13  C   UNL A   1      33.653  27.000  25.264  1.00  0.00     0.032 A 
ATOM     14  C   UNL A   1      32.873  25.220  23.427  1.00  0.00     0.146 A 
ATOM     15  C   UNL A   1      33.031  27.862  24.342  1.00  0.00     0.043 A 
ATOM     16  C   UNL A   1      32.460  26.158  22.527  1.00  0.00     0.085 A 
ATOM     17  Cl  UNL A   1      32.959  29.543  24.770  1.00  0.00    -0.084 Cl
ATOM     18  C   UNL A   1      32.516  27.479  23.034  1.00  0.00     0.045 A 
ATOM     19  Cl  UNL A   1      32.265  25.819  20.870  1.00  0.00    -0.080 Cl
BRANCH  10  20
ATOM     20  C   UNL A   1      33.762  20.902  24.624  1.00  0.00     0.430 C 
ATOM     21  F   UNL A   1      33.214  21.033  25.845  1.00  0.00    -0.167 F 
ATOM     22  F   UNL A   1      32.808  20.267  23.879  1.00  0.00    -0.167 F 
ATOM     23  F   UNL A   1      34.781  20.015  24.691  1.00  0.00    -0.167 F 
ENDBRANCH  10  20
ENDBRANCH   6   8
ENDBRANCH   5   6
ENDBRANCH   4   5
ENDBRANCH   3   4
ENDBRANCH   2   3
ENDBRANCH   1   2
BRANCH   1  24
ATOM     24  C   UNL A   1      43.573  21.203  25.377  1.00  0.00     0.261 C 
BRANCH  24  25
ATOM     25  O   UNL A   1      42.970  22.424  24.983  1.00  0.00    -0.460 OA
BRANCH  25  26
ATOM     26  C   UNL A   1      43.806  23.486  25.006  1.00  0.00     0.338 C 
ATOM     27  O   UNL A   1      44.752  23.712  24.276  1.00  0.00    -0.246 OA
BRANCH  26  28
ATOM     28  C   UNL A   1      43.351  24.387  26.076  1.00  0.00     0.060 A 
ATOM     29  C   UNL A   1      43.894  25.673  26.131  1.00  0.00     0.016 A 
ATOM     30  C   UNL A   1      42.343  23.992  26.967  1.00  0.00     0.016 A 
ATOM     31  C   UNL A   1      43.376  26.598  27.033  1.00  0.00     0.010 A 
ATOM     32  C   UNL A   1      41.829  24.916  27.870  1.00  0.00     0.010 A 
ATOM     33  C   UNL A   1      42.335  26.225  27.895  1.00  0.00    -0.014 A 
BRANCH  33  34
ATOM     34  C   UNL A   1      41.867  27.149  28.944  1.00  0.00     0.031 A 
ATOM     35  C   UNL A   1      42.600  27.141  30.246  1.00  0.00     0.074 A 
ATOM     36  C   UNL A   1      40.799  27.945  28.752  1.00  0.00     0.049 A 
ATOM     37  N   UNL A   1      42.358  27.828  31.329  1.00  0.00    -0.248 NA
ATOM     38  C   UNL A   1      43.760  26.237  30.342  1.00  0.00     0.031 C 
ATOM     39  C   UNL A   1      40.029  28.049  27.516  1.00  0.00     0.029 A 
ATOM     40  N   UNL A   1      40.166  28.810  29.608  1.00  0.00    -0.354 N 
ATOM     41  C   UNL A   1      43.339  27.447  32.231  1.00  0.00     0.074 A 
ATOM     42  C   UNL A   1      44.158  26.445  31.587  1.00  0.00     0.031 C 
ATOM     43  C   UNL A   1      39.014  28.910  27.696  1.00  0.00     0.029 A 
ATOM     44  C   UNL A   1      39.044  29.396  29.071  1.00  0.00     0.049 A 
ATOM     45  H   UNL A   1      40.484  28.992  30.522  1.00  0.00     0.167 HD
ATOM     46  C   UNL A   1      43.539  27.904  33.486  1.00  0.00     0.031 A 
ATOM     47  C   UNL A   1      38.134  30.212  29.636  1.00  0.00     0.031 A 
ATOM     48  C   UNL A   1      42.695  28.870  34.130  1.00  0.00     0.049 A 
ATOM     49  C   UNL A   1      38.330  30.621  31.073  1.00  0.00     0.074 A 
ATOM     50  C   UNL A   1      42.825  29.414  35.394  1.00  0.00     0.029 A 
ATOM     51  N   UNL A   1      41.552  29.418  33.568  1.00  0.00    -0.354 N 
ATOM     52  N   UNL A   1      39.309  30.320  31.894  1.00  0.00    -0.248 NA
ATOM     53  C   UNL A   1      37.303  31.494  31.660  1.00  0.00     0.031 C 
ATOM     54  C   UNL A   1      41.715  30.228  35.629  1.00  0.00     0.029 A 
ATOM     55  C   UNL A   1      40.940  30.258  34.481  1.00  0.00     0.049 A 
ATOM     56  H   UNL A   1      41.225  29.237  32.657  1.00  0.00     0.167 HD
ATOM     57  C   UNL A   1      39.032  30.992  33.076  1.00  0.00     0.074 A 
ATOM     58  C   UNL A   1      37.811  31.739  32.859  1.00  0.00     0.031 C 
ATOM     59  C   UNL A   1      39.723  30.991  34.243  1.00  0.00     0.031 A 
BRANCH  46  60
ATOM     60  C   UNL A   1      44.691  27.330  34.256  1.00  0.00    -0.014 A 
ATOM     61  C   UNL A   1      45.956  27.936  34.237  1.00  0.00     0.009 A 
ATOM     62  C   UNL A   1      44.490  26.191  35.051  1.00  0.00     0.009 A 
ATOM     63  C   UNL A   1      47.003  27.403  34.990  1.00  0.00     0.001 A 
ATOM     64  C   UNL A   1      45.529  25.679  35.826  1.00  0.00     0.001 A 
ATOM     65  C   UNL A   1      46.786  26.282  35.791  1.00  0.00     0.000 A 
ENDBRANCH  46  60
BRANCH  47  66
ATOM     66  C   UNL A   1      36.940  30.677  28.876  1.00  0.00    -0.014 A 
ATOM     67  C   UNL A   1      36.783  32.030  28.538  1.00  0.00     0.009 A 
ATOM     68  C   UNL A   1      35.913  29.778  28.546  1.00  0.00     0.009 A 
ATOM     69  C   UNL A   1      35.602  32.480  27.939  1.00  0.00     0.001 A 
ATOM     70  C   UNL A   1      34.750  30.224  27.913  1.00  0.00     0.001 A 
ATOM     71  C   UNL A   1      34.588  31.578  27.627  1.00  0.00     0.000 A 
ENDBRANCH  47  66
BRANCH  59  72
ATOM     72  C   UNL A   1      39.192  31.844  35.361  1.00  0.00    -0.014 A 
ATOM     73  C   UNL A   1      39.503  33.210  35.450  1.00  0.00     0.009 A 
ATOM     74  C   UNL A   1      38.325  31.282  36.311  1.00  0.00     0.009 A 
ATOM     75  C   UNL A   1      38.988  33.985  36.489  1.00  0.00     0.001 A 
ATOM     76  C   UNL A   1      37.778  32.067  37.325  1.00  0.00     0.001 A 
ATOM     77  C   UNL A   1      38.119  33.416  37.420  1.00  0.00     0.000 A 
ENDBRANCH  59  72
ENDBRANCH  33  34
ENDBRANCH  26  28
ENDBRANCH  25  26
ENDBRANCH  24  25
ENDBRANCH   1  24
TORSDOF 15
ENDMDL
MODEL 2
REMARK VINA RESULT:     -11.7      4.131      6.184
REMARK SMILES O=C(OCCOCCOC(=O)c1ccc(-c2c3nc(c(-c4ccccc4)c4ccc([nH]4)c(-c4ccccc4)c4nc(c(-c5ccccc5)c5ccc2[nH]5)C=C4)C=C3)cc1)C1=Cc2cc(Cl)cc(Cl)c2O[C@@H]1C(F)(F)F
REMARK SMILES IDX 7 1 6 2 5 3 4 4 3 5 2 6 1 7 60 8 61 9 71 10 62 11 70 12
REMARK SMILES IDX 63 13 69 14 64 15 67 16 65 17 66 18 68 19 72 20 73 21 74 22
REMARK SMILES IDX 75 23 8 24 9 25 10 26 11 27 12 28 13 29 59 30 14 31 58 32
REMARK SMILES IDX 15 33 16 34 17 35 52 36 18 37 57 38 51 39 53 40 19 41 56 42
REMARK SMILES IDX 50 43 49 44 20 46 42 47 27 48 41 49 28 50 31 51 40 52 54 53
REMARK SMILES IDX 29 54 30 55 39 57 55 58 32 59 21 60 22 61 26 62 23 63 25 64
REMARK SMILES IDX 24 65 43 66 44 67 48 68 45 69 47 70 46 71 33 72 34 73 38 74
REMARK SMILES IDX 35 75 37 76 36 77
REMARK H PARENT 53 45 31 56
REMARK Flexibility Score: inf
ROOT
ATOM      1  C   UNL A   1      42.058  19.327  26.336  1.00  0.00     0.202 C 
ENDROOT
BRANCH   1   2
ATOM      2  O   UNL A   1      41.620  20.593  25.821  1.00  0.00    -0.374 OA
BRANCH   2   3
ATOM      3  C   UNL A   1      40.399  21.571  26.144  1.00  0.00     0.202 C 
BRANCH   3   4
ATOM      4  C   UNL A   1      38.297  21.542  25.598  1.00  0.00     0.261 C 
BRANCH   4   5
ATOM      5  O   UNL A   1      37.280  22.673  25.776  1.00  0.00    -0.460 OA
BRANCH   5   6
ATOM      6  C   UNL A   1      36.612  22.943  24.651  1.00  0.00     0.338 C 
ATOM      7  O   UNL A   1      37.035  23.290  23.580  1.00  0.00    -0.246 OA
BRANCH   6   8
ATOM      8  C   UNL A   1      35.308  23.060  25.273  1.00  0.00     0.087 C 
ATOM      9  C   UNL A   1      35.019  24.455  25.704  1.00  0.00     0.027 C 
ATOM     10  C   UNL A   1      34.350  22.122  23.878  1.00  0.00     0.316 C 
ATOM     11  C   UNL A   1      33.873  25.564  24.827  1.00  0.00     0.020 A 
ATOM     12  O   UNL A   1      33.186  23.299  22.892  1.00  0.00    -0.474 OA
ATOM     13  C   UNL A   1      33.833  26.891  25.162  1.00  0.00     0.032 A 
ATOM     14  C   UNL A   1      33.047  25.050  23.388  1.00  0.00     0.146 A 
ATOM     15  C   UNL A   1      33.173  27.717  24.233  1.00  0.00     0.043 A 
ATOM     16  C   UNL A   1      32.595  25.957  22.474  1.00  0.00     0.085 A 
ATOM     17  Cl  UNL A   1      33.077  29.406  24.621  1.00  0.00    -0.084 Cl
ATOM     18  C   UNL A   1      32.637  27.291  22.947  1.00  0.00     0.045 A 
ATOM     19  Cl  UNL A   1      32.370  25.573  20.831  1.00  0.00    -0.080 Cl
BRANCH  10  20
ATOM     20  C   UNL A   1      34.048  20.781  24.670  1.00  0.00     0.430 C 
ATOM     21  F   UNL A   1      33.369  20.922  25.822  1.00  0.00    -0.167 F 
ATOM     22  F   UNL A   1      33.232  20.025  23.874  1.00  0.00    -0.167 F 
ATOM     23  F   UNL A   1      35.127  19.996  24.887  1.00  0.00    -0.167 F 
ENDBRANCH  10  20
ENDBRANCH   6   8
ENDBRANCH   5   6
ENDBRANCH   4   5
ENDBRANCH   3   4
ENDBRANCH   2   3
ENDBRANCH   1   2
BRANCH   1  24
ATOM     24  C   UNL A   1      43.230  18.628  25.659  1.00  0.00     0.261 C 
BRANCH  24  25
ATOM     25  O   UNL A   1      43.562  19.177  24.395  1.00  0.00    -0.460 OA
BRANCH  25  26
ATOM     26  C   UNL A   1      44.856  19.544  24.275  1.00  0.00     0.338 C 
ATOM     27  O   UNL A   1      45.788  18.885  23.853  1.00  0.00    -0.246 OA
BRANCH  26  28
ATOM     28  C   UNL A   1      44.965  20.943  24.718  1.00  0.00     0.060 A 
ATOM     29  C   UNL A   1      44.613  21.950  23.815  1.00  0.00     0.016 A 
ATOM     30  C   UNL A   1      45.336  21.253  26.034  1.00  0.00     0.016 A 
ATOM     31  C   UNL A   1      44.559  23.271  24.250  1.00  0.00     0.010 A 
ATOM     32  C   UNL A   1      45.284  22.573  26.466  1.00  0.00     0.010 A 
ATOM     33  C   UNL A   1      44.882  23.584  25.578  1.00  0.00    -0.014 A 
BRANCH  33  34
ATOM     34  C   UNL A   1      44.957  24.989  26.017  1.00  0.00     0.031 A 
ATOM     35  C   UNL A   1      46.301  25.643  26.004  1.00  0.00     0.074 A 
ATOM     36  C   UNL A   1      43.866  25.649  26.448  1.00  0.00     0.049 A 
ATOM     37  N   UNL A   1      46.631  26.849  26.379  1.00  0.00    -0.248 NA
ATOM     38  C   UNL A   1      47.423  24.829  25.504  1.00  0.00     0.031 C 
ATOM     39  C   UNL A   1      42.509  25.114  26.480  1.00  0.00     0.029 A 
ATOM     40  N   UNL A   1      43.735  26.914  26.960  1.00  0.00    -0.354 N 
ATOM     41  C   UNL A   1      47.994  26.943  26.151  1.00  0.00     0.074 A 
ATOM     42  C   UNL A   1      48.441  25.666  25.642  1.00  0.00     0.031 C 
ATOM     43  C   UNL A   1      41.680  26.034  27.003  1.00  0.00     0.029 A 
ATOM     44  C   UNL A   1      42.456  27.212  27.372  1.00  0.00     0.049 A 
ATOM     45  H   UNL A   1      44.484  27.549  27.028  1.00  0.00     0.167 HD
ATOM     46  C   UNL A   1      48.800  28.009  26.346  1.00  0.00     0.031 A 
ATOM     47  C   UNL A   1      41.978  28.304  27.998  1.00  0.00     0.031 A 
ATOM     48  C   UNL A   1      48.354  29.260  26.890  1.00  0.00     0.049 A 
ATOM     49  C   UNL A   1      42.926  29.437  28.296  1.00  0.00     0.074 A 
ATOM     50  C   UNL A   1      49.088  30.411  27.107  1.00  0.00     0.029 A 
ATOM     51  N   UNL A   1      47.062  29.516  27.324  1.00  0.00    -0.354 N 
ATOM     52  N   UNL A   1      44.200  29.549  28.001  1.00  0.00    -0.248 NA
ATOM     53  C   UNL A   1      42.369  30.600  29.000  1.00  0.00     0.031 C 
ATOM     54  C   UNL A   1      48.262  31.334  27.750  1.00  0.00     0.029 A 
ATOM     55  C   UNL A   1      46.991  30.791  27.855  1.00  0.00     0.049 A 
ATOM     56  H   UNL A   1      46.308  28.885  27.264  1.00  0.00     0.167 HD
ATOM     57  C   UNL A   1      44.585  30.804  28.452  1.00  0.00     0.074 A 
ATOM     58  C   UNL A   1      43.405  31.427  29.015  1.00  0.00     0.031 C 
ATOM     59  C   UNL A   1      45.806  31.391  28.411  1.00  0.00     0.031 A 
BRANCH  46  60
ATOM     60  C   UNL A   1      50.252  27.850  26.006  1.00  0.00    -0.014 A 
ATOM     61  C   UNL A   1      50.707  27.946  24.682  1.00  0.00     0.009 A 
ATOM     62  C   UNL A   1      51.184  27.652  27.036  1.00  0.00     0.009 A 
ATOM     63  C   UNL A   1      52.068  27.830  24.395  1.00  0.00     0.001 A 
ATOM     64  C   UNL A   1      52.545  27.568  26.750  1.00  0.00     0.001 A 
ATOM     65  C   UNL A   1      52.986  27.652  25.429  1.00  0.00     0.000 A 
ENDBRANCH  46  60
BRANCH  47  66
ATOM     66  C   UNL A   1      40.552  28.384  28.422  1.00  0.00    -0.014 A 
ATOM     67  C   UNL A   1      39.593  29.010  27.610  1.00  0.00     0.009 A 
ATOM     68  C   UNL A   1      40.154  27.897  29.678  1.00  0.00     0.009 A 
ATOM     69  C   UNL A   1      38.285  29.196  28.069  1.00  0.00     0.001 A 
ATOM     70  C   UNL A   1      38.837  28.049  30.118  1.00  0.00     0.001 A 
ATOM     71  C   UNL A   1      37.908  28.715  29.321  1.00  0.00     0.000 A 
ENDBRANCH  47  66
BRANCH  59  72
ATOM     72  C   UNL A   1      45.921  32.785  28.960  1.00  0.00    -0.014 A 
ATOM     73  C   UNL A   1      46.237  33.017  30.308  1.00  0.00     0.009 A 
ATOM     74  C   UNL A   1      45.758  33.885  28.102  1.00  0.00     0.009 A 
ATOM     75  C   UNL A   1      46.351  34.321  30.792  1.00  0.00     0.001 A 
ATOM     76  C   UNL A   1      45.913  35.186  28.579  1.00  0.00     0.001 A 
ATOM     77  C   UNL A   1      46.198  35.403  29.926  1.00  0.00     0.000 A 
ENDBRANCH  59  72
ENDBRANCH  33  34
ENDBRANCH  26  28
ENDBRANCH  25  26
ENDBRANCH  24  25
ENDBRANCH   1  24
TORSDOF 15
ENDMDL
MODEL 3
REMARK VINA RESULT:     -11.3      3.506      7.190
REMARK SMILES O=C(OCCOCCOC(=O)c1ccc(-c2c3nc(c(-c4ccccc4)c4ccc([nH]4)c(-c4ccccc4)c4nc(c(-c5ccccc5)c5ccc2[nH]5)C=C4)C=C3)cc1)C1=Cc2cc(Cl)cc(Cl)c2O[C@@H]1C(F)(F)F
REMARK SMILES IDX 7 1 6 2 5 3 4 4 3 5 2 6 1 7 60 8 61 9 71 10 62 11 70 12
REMARK SMILES IDX 63 13 69 14 64 15 67 16 65 17 66 18 68 19 72 20 73 21 74 22
REMARK SMILES IDX 75 23 8 24 9 25 10 26 11 27 12 28 13 29 59 30 14 31 58 32
REMARK SMILES IDX 15 33 16 34 17 35 52 36 18 37 57 38 51 39 53 40 19 41 56 42
REMARK SMILES IDX 50 43 49 44 20 46 42 47 27 48 41 49 28 50 31 51 40 52 54 53
REMARK SMILES IDX 29 54 30 55 39 57 55 58 32 59 21 60 22 61 26 62 23 63 25 64
REMARK SMILES IDX 24 65 43 66 44 67 48 68 45 69 47 70 46 71 33 72 34 73 38 74
REMARK SMILES IDX 35 75 37 76 36 77
REMARK H PARENT 53 45 31 56
REMARK Flexibility Score: inf
ROOT
ATOM      1  C   UNL A   1      38.667  21.043  25.648  1.00  0.00     0.202 C 
ENDROOT
BRANCH   1   2
ATOM      2  O   UNL A   1      37.503  21.209  24.824  1.00  0.00    -0.374 OA
BRANCH   2   3
ATOM      3  C   UNL A   1      35.960  20.823  24.977  1.00  0.00     0.202 C 
BRANCH   3   4
ATOM      4  C   UNL A   1      34.478  21.233  26.511  1.00  0.00     0.261 C 
BRANCH   4   5
ATOM      5  O   UNL A   1      33.428  22.347  26.506  1.00  0.00    -0.460 OA
BRANCH   5   6
ATOM      6  C   UNL A   1      33.892  23.487  25.988  1.00  0.00     0.338 C 
ATOM      7  O   UNL A   1      34.921  24.066  26.223  1.00  0.00    -0.246 OA
BRANCH   6   8
ATOM      8  C   UNL A   1      32.631  23.923  25.423  1.00  0.00     0.087 C 
ATOM      9  C   UNL A   1      32.062  25.083  26.161  1.00  0.00     0.027 C 
ATOM     10  C   UNL A   1      33.257  23.986  23.593  1.00  0.00     0.316 C 
ATOM     11  C   UNL A   1      32.081  26.789  25.526  1.00  0.00     0.020 A 
ATOM     12  O   UNL A   1      33.353  25.793  22.930  1.00  0.00    -0.474 OA
ATOM     13  C   UNL A   1      31.735  27.820  26.358  1.00  0.00     0.032 A 
ATOM     14  C   UNL A   1      32.803  27.171  23.993  1.00  0.00     0.146 A 
ATOM     15  C   UNL A   1      32.086  29.101  25.892  1.00  0.00     0.043 A 
ATOM     16  C   UNL A   1      33.258  28.429  23.724  1.00  0.00     0.085 A 
ATOM     17  Cl  UNL A   1      31.651  30.444  26.901  1.00  0.00    -0.084 Cl
ATOM     18  C   UNL A   1      32.846  29.387  24.682  1.00  0.00     0.045 A 
ATOM     19  Cl  UNL A   1      34.488  28.739  22.588  1.00  0.00    -0.080 Cl
BRANCH  10  20
ATOM     20  C   UNL A   1      32.486  22.714  23.043  1.00  0.00     0.430 C 
ATOM     21  F   UNL A   1      31.144  22.780  23.086  1.00  0.00    -0.167 F 
ATOM     22  F   UNL A   1      32.788  22.611  21.713  1.00  0.00    -0.167 F 
ATOM     23  F   UNL A   1      32.887  21.536  23.572  1.00  0.00    -0.167 F 
ENDBRANCH  10  20
ENDBRANCH   6   8
ENDBRANCH   5   6
ENDBRANCH   4   5
ENDBRANCH   3   4
ENDBRANCH   2   3
ENDBRANCH   1   2
BRANCH   1  24
ATOM     24  C   UNL A   1      39.445  19.737  25.559  1.00  0.00     0.261 C 
BRANCH  24  25
ATOM     25  O   UNL A   1      40.492  19.636  26.509  1.00  0.00    -0.460 OA
BRANCH  25  26
ATOM     26  C   UNL A   1      41.716  19.922  26.013  1.00  0.00     0.338 C 
ATOM     27  O   UNL A   1      42.371  19.280  25.214  1.00  0.00    -0.246 OA
BRANCH  26  28
ATOM     28  C   UNL A   1      42.138  21.210  26.587  1.00  0.00     0.060 A 
ATOM     29  C   UNL A   1      42.518  22.229  25.709  1.00  0.00     0.016 A 
ATOM     30  C   UNL A   1      42.087  21.431  27.969  1.00  0.00     0.016 A 
ATOM     31  C   UNL A   1      42.776  23.502  26.209  1.00  0.00     0.010 A 
ATOM     32  C   UNL A   1      42.347  22.703  28.468  1.00  0.00     0.010 A 
ATOM     33  C   UNL A   1      42.679  23.745  27.587  1.00  0.00    -0.014 A 
BRANCH  33  34
ATOM     34  C   UNL A   1      43.076  25.050  28.145  1.00  0.00     0.031 A 
ATOM     35  C   UNL A   1      42.002  26.071  28.339  1.00  0.00     0.074 A 
ATOM     36  C   UNL A   1      44.360  25.328  28.436  1.00  0.00     0.049 A 
ATOM     37  N   UNL A   1      42.103  27.297  28.774  1.00  0.00    -0.248 NA
ATOM     38  C   UNL A   1      40.630  25.655  27.997  1.00  0.00     0.031 C 
ATOM     39  C   UNL A   1      45.479  24.400  28.306  1.00  0.00     0.029 A 
ATOM     40  N   UNL A   1      44.942  26.485  28.885  1.00  0.00    -0.354 N 
ATOM     41  C   UNL A   1      40.811  27.796  28.767  1.00  0.00     0.074 A 
ATOM     42  C   UNL A   1      39.945  26.759  28.252  1.00  0.00     0.031 C 
ATOM     43  C   UNL A   1      46.618  25.025  28.648  1.00  0.00     0.029 A 
ATOM     44  C   UNL A   1      46.312  26.409  28.991  1.00  0.00     0.049 A 
ATOM     45  H   UNL A   1      44.428  27.295  29.111  1.00  0.00     0.167 HD
ATOM     46  C   UNL A   1      40.387  29.015  29.163  1.00  0.00     0.031 A 
ATOM     47  C   UNL A   1      47.213  27.359  29.305  1.00  0.00     0.031 A 
ATOM     48  C   UNL A   1      41.260  30.053  29.634  1.00  0.00     0.049 A 
ATOM     49  C   UNL A   1      46.714  28.741  29.642  1.00  0.00     0.074 A 
ATOM     50  C   UNL A   1      40.926  31.317  30.081  1.00  0.00     0.029 A 
ATOM     51  N   UNL A   1      42.642  29.952  29.699  1.00  0.00    -0.354 N 
ATOM     52  N   UNL A   1      45.480  29.181  29.713  1.00  0.00    -0.248 NA
ATOM     53  C   UNL A   1      47.731  29.755  29.957  1.00  0.00     0.031 C 
ATOM     54  C   UNL A   1      42.111  32.012  30.335  1.00  0.00     0.029 A 
ATOM     55  C   UNL A   1      43.178  31.152  30.130  1.00  0.00     0.049 A 
ATOM     56  H   UNL A   1      43.163  29.148  29.471  1.00  0.00     0.167 HD
ATOM     57  C   UNL A   1      45.573  30.507  30.111  1.00  0.00     0.074 A 
ATOM     58  C   UNL A   1      46.980  30.793  30.295  1.00  0.00     0.031 C 
ATOM     59  C   UNL A   1      44.583  31.414  30.305  1.00  0.00     0.031 A 
BRANCH  46  60
ATOM     60  C   UNL A   1      38.918  29.304  29.063  1.00  0.00    -0.014 A 
ATOM     61  C   UNL A   1      38.340  29.737  27.861  1.00  0.00     0.009 A 
ATOM     62  C   UNL A   1      38.096  29.088  30.179  1.00  0.00     0.009 A 
ATOM     63  C   UNL A   1      36.965  29.966  27.783  1.00  0.00     0.001 A 
ATOM     64  C   UNL A   1      36.719  29.287  30.090  1.00  0.00     0.001 A 
ATOM     65  C   UNL A   1      36.155  29.730  28.894  1.00  0.00     0.000 A 
ENDBRANCH  46  60
BRANCH  47  66
ATOM     66  C   UNL A   1      48.674  27.069  29.288  1.00  0.00    -0.014 A 
ATOM     67  C   UNL A   1      49.338  26.642  30.449  1.00  0.00     0.009 A 
ATOM     68  C   UNL A   1      49.429  27.287  28.124  1.00  0.00     0.009 A 
ATOM     69  C   UNL A   1      50.728  26.495  30.460  1.00  0.00     0.001 A 
ATOM     70  C   UNL A   1      50.814  27.102  28.127  1.00  0.00     0.001 A 
ATOM     71  C   UNL A   1      51.465  26.724  29.299  1.00  0.00     0.000 A 
ENDBRANCH  47  66
BRANCH  59  72
ATOM     72  C   UNL A   1      44.986  32.787  30.767  1.00  0.00    -0.014 A 
ATOM     73  C   UNL A   1      45.136  33.085  32.130  1.00  0.00     0.009 A 
ATOM     74  C   UNL A   1      45.267  33.783  29.818  1.00  0.00     0.009 A 
ATOM     75  C   UNL A   1      45.523  34.363  32.534  1.00  0.00     0.001 A 
ATOM     76  C   UNL A   1      45.693  35.047  30.223  1.00  0.00     0.001 A 
ATOM     77  C   UNL A   1      45.810  35.340  31.581  1.00  0.00     0.000 A 
ENDBRANCH  59  72
ENDBRANCH  33  34
ENDBRANCH  26  28
ENDBRANCH  25  26
ENDBRANCH  24  25
ENDBRANCH   1  24
TORSDOF 15
ENDMDL
