MODEL 1
REMARK VINA RESULT:      -9.3      0.000      0.000
REMARK SMILES C[C@H]([C@H](C)C(=O)OCCOCCOC(=O)c1ccc(-c2c3nc(c(-c4ccccc4)c4ccc([nH]4)c(-c4ccccc4)c4nc(c(-c5ccccc5)c5ccc2[nH]5)C=C4)C=C3)cc1)[C@H](O)c1cncn1C1CC1
REMARK SMILES IDX 9 1 8 2 7 3 5 4 6 5 3 6 4 7 2 8 1 9 64 10 66 11 67 12 70 13
REMARK SMILES IDX 68 14 69 15 71 16 72 17 73 18 65 19 10 21 11 22 12 23 13 24
REMARK SMILES IDX 14 25 15 26 16 27 17 28 63 29 18 30 62 31 19 32 20 33 21 34
REMARK SMILES IDX 56 35 22 36 61 37 55 38 57 39 23 40 60 41 54 42 53 43 24 45
REMARK SMILES IDX 46 46 31 47 45 48 32 49 35 50 44 51 58 52 33 53 34 54 43 56
REMARK SMILES IDX 59 57 36 58 25 59 26 60 30 61 27 62 29 63 28 64 47 65 48 66
REMARK SMILES IDX 52 67 49 68 51 69 50 70 37 71 38 72 42 73 39 74 41 75 40 76
REMARK H PARENT 65 20 57 44 35 55
REMARK Flexibility Score: inf
ROOT
ATOM      1  C   UNL A   1      35.172  21.453  26.200  1.00  0.00     0.202 C 
ENDROOT
BRANCH   1   2
ATOM      2  C   UNL A   1      33.944  22.258  25.738  1.00  0.00     0.261 C 
BRANCH   2   3
ATOM      3  O   UNL A   1      32.821  22.488  26.617  1.00  0.00    -0.463 OA
BRANCH   3   4
ATOM      4  C   UNL A   1      32.014  23.559  26.466  1.00  0.00     0.309 C 
ATOM      5  O   UNL A   1      31.297  24.060  27.320  1.00  0.00    -0.252 OA
BRANCH   4   6
ATOM      6  C   UNL A   1      32.146  24.167  25.097  1.00  0.00     0.102 C 
ATOM      7  C   UNL A   1      30.918  23.739  24.272  1.00  0.00     0.020 C 
BRANCH   6   8
ATOM      8  C   UNL A   1      32.534  25.672  25.027  1.00  0.00     0.035 C 
ATOM      9  C   UNL A   1      33.859  25.973  25.769  1.00  0.00     0.012 C 
BRANCH   8  10
ATOM     10  C   UNL A   1      32.556  26.482  23.690  1.00  0.00     0.166 C 
BRANCH  10  11
ATOM     11  C   UNL A   1      31.549  27.517  23.343  1.00  0.00     0.067 A 
ATOM     12  C   UNL A   1      30.664  27.588  22.273  1.00  0.00     0.137 A 
ATOM     13  N   UNL A   1      31.192  28.619  24.108  1.00  0.00    -0.329 N 
ATOM     14  N   UNL A   1      29.893  28.717  22.311  1.00  0.00    -0.245 NA
ATOM     15  C   UNL A   1      30.242  29.323  23.417  1.00  0.00     0.199 A 
BRANCH  13  16
ATOM     16  C   UNL A   1      31.609  29.074  25.424  1.00  0.00     0.088 C 
ATOM     17  C   UNL A   1      32.932  29.775  25.667  1.00  0.00     0.027 C 
ATOM     18  C   UNL A   1      31.652  30.514  25.886  1.00  0.00     0.027 C 
ENDBRANCH  13  16
ENDBRANCH  10  11
BRANCH  10  19
ATOM     19  O   UNL A   1      33.823  27.145  23.597  1.00  0.00    -0.387 OA
ATOM     20  H   UNL A   1      33.763  28.016  24.018  1.00  0.00     0.211 HD
ENDBRANCH  10  19
ENDBRANCH   8  10
ENDBRANCH   6   8
ENDBRANCH   4   6
ENDBRANCH   3   4
ENDBRANCH   2   3
ENDBRANCH   1   2
BRANCH   1  21
ATOM     21  O   UNL A   1      35.894  20.757  25.187  1.00  0.00    -0.374 OA
BRANCH  21  22
ATOM     22  C   UNL A   1      37.182  21.242  24.832  1.00  0.00     0.202 C 
BRANCH  22  23
ATOM     23  C   UNL A   1      38.238  20.173  25.112  1.00  0.00     0.261 C 
BRANCH  23  24
ATOM     24  O   UNL A   1      39.033  20.533  26.256  1.00  0.00    -0.460 OA
BRANCH  24  25
ATOM     25  C   UNL A   1      40.339  20.173  26.149  1.00  0.00     0.338 C 
ATOM     26  O   UNL A   1      40.796  19.153  25.667  1.00  0.00    -0.246 OA
BRANCH  25  27
ATOM     27  C   UNL A   1      41.201  21.256  26.657  1.00  0.00     0.060 A 
ATOM     28  C   UNL A   1      41.247  21.474  28.040  1.00  0.00     0.016 A 
ATOM     29  C   UNL A   1      41.876  22.106  25.778  1.00  0.00     0.016 A 
ATOM     30  C   UNL A   1      41.904  22.595  28.544  1.00  0.00     0.010 A 
ATOM     31  C   UNL A   1      42.527  23.231  26.282  1.00  0.00     0.010 A 
ATOM     32  C   UNL A   1      42.496  23.506  27.661  1.00  0.00    -0.014 A 
BRANCH  32  33
ATOM     33  C   UNL A   1      42.907  24.841  28.149  1.00  0.00     0.031 A 
ATOM     34  C   UNL A   1      41.845  25.882  28.375  1.00  0.00     0.074 A 
ATOM     35  C   UNL A   1      44.197  25.115  28.407  1.00  0.00     0.049 A 
ATOM     36  N   UNL A   1      41.970  27.123  28.768  1.00  0.00    -0.248 NA
ATOM     37  C   UNL A   1      40.453  25.468  28.125  1.00  0.00     0.031 C 
ATOM     38  C   UNL A   1      45.306  24.172  28.277  1.00  0.00     0.029 A 
ATOM     39  N   UNL A   1      44.785  26.276  28.838  1.00  0.00    -0.354 N 
ATOM     40  C   UNL A   1      40.680  27.640  28.800  1.00  0.00     0.074 A 
ATOM     41  C   UNL A   1      39.789  26.589  28.363  1.00  0.00     0.031 C 
ATOM     42  C   UNL A   1      46.446  24.793  28.629  1.00  0.00     0.029 A 
ATOM     43  C   UNL A   1      46.149  26.183  28.972  1.00  0.00     0.049 A 
ATOM     44  H   UNL A   1      44.280  27.098  29.032  1.00  0.00     0.167 HD
ATOM     45  C   UNL A   1      40.274  28.879  29.163  1.00  0.00     0.031 A 
ATOM     46  C   UNL A   1      47.052  27.119  29.318  1.00  0.00     0.031 A 
ATOM     47  C   UNL A   1      41.164  29.925  29.591  1.00  0.00     0.049 A 
ATOM     48  C   UNL A   1      46.582  28.513  29.640  1.00  0.00     0.074 A 
ATOM     49  C   UNL A   1      40.850  31.209  29.997  1.00  0.00     0.029 A 
ATOM     50  N   UNL A   1      42.543  29.807  29.658  1.00  0.00    -0.354 N 
ATOM     51  N   UNL A   1      45.360  28.986  29.680  1.00  0.00    -0.248 NA
ATOM     52  C   UNL A   1      47.621  29.500  29.967  1.00  0.00     0.031 C 
ATOM     53  C   UNL A   1      42.045  31.888  30.254  1.00  0.00     0.029 A 
ATOM     54  C   UNL A   1      43.099  31.005  30.071  1.00  0.00     0.049 A 
ATOM     55  H   UNL A   1      43.052  28.991  29.445  1.00  0.00     0.167 HD
ATOM     56  C   UNL A   1      45.480  30.315  30.068  1.00  0.00     0.074 A 
ATOM     57  C   UNL A   1      46.892  30.569  30.260  1.00  0.00     0.031 C 
ATOM     58  C   UNL A   1      44.507  31.241  30.254  1.00  0.00     0.031 A 
BRANCH  45  59
ATOM     59  C   UNL A   1      38.805  29.183  29.076  1.00  0.00    -0.014 A 
ATOM     60  C   UNL A   1      37.963  29.063  30.193  1.00  0.00     0.009 A 
ATOM     61  C   UNL A   1      38.264  29.641  27.864  1.00  0.00     0.009 A 
ATOM     62  C   UNL A   1      36.603  29.367  30.088  1.00  0.00     0.001 A 
ATOM     63  C   UNL A   1      36.911  29.970  27.770  1.00  0.00     0.001 A 
ATOM     64  C   UNL A   1      36.081  29.827  28.881  1.00  0.00     0.000 A 
ENDBRANCH  45  59
BRANCH  46  65
ATOM     65  C   UNL A   1      48.496  26.773  29.380  1.00  0.00    -0.014 A 
ATOM     66  C   UNL A   1      49.317  26.936  28.254  1.00  0.00     0.009 A 
ATOM     67  C   UNL A   1      49.059  26.268  30.563  1.00  0.00     0.009 A 
ATOM     68  C   UNL A   1      50.667  26.581  28.306  1.00  0.00     0.001 A 
ATOM     69  C   UNL A   1      50.415  25.942  30.620  1.00  0.00     0.001 A 
ATOM     70  C   UNL A   1      51.216  26.090  29.489  1.00  0.00     0.000 A 
ENDBRANCH  46  65
BRANCH  58  71
ATOM     71  C   UNL A   1      44.931  32.604  30.726  1.00  0.00    -0.014 A 
ATOM     72  C   UNL A   1      45.184  33.646  29.821  1.00  0.00     0.009 A 
ATOM     73  C   UNL A   1      45.029  32.859  32.104  1.00  0.00     0.009 A 
ATOM     74  C   UNL A   1      45.559  34.908  30.287  1.00  0.00     0.001 A 
ATOM     75  C   UNL A   1      45.374  34.129  32.566  1.00  0.00     0.001 A 
ATOM     76  C   UNL A   1      45.648  35.150  31.658  1.00  0.00     0.000 A 
ENDBRANCH  58  71
ENDBRANCH  32  33
ENDBRANCH  25  27
ENDBRANCH  24  25
ENDBRANCH  23  24
ENDBRANCH  22  23
ENDBRANCH  21  22
ENDBRANCH   1  21
TORSDOF 19
ENDMDL
MODEL 2
REMARK VINA RESULT:      -9.2      4.122      8.090
REMARK SMILES C[C@H]([C@H](C)C(=O)OCCOCCOC(=O)c1ccc(-c2c3nc(c(-c4ccccc4)c4ccc([nH]4)c(-c4ccccc4)c4nc(c(-c5ccccc5)c5ccc2[nH]5)C=C4)C=C3)cc1)[C@H](O)c1cncn1C1CC1
REMARK SMILES IDX 9 1 8 2 7 3 5 4 6 5 3 6 4 7 2 8 1 9 64 10 66 11 67 12 70 13
REMARK SMILES IDX 68 14 69 15 71 16 72 17 73 18 65 19 10 21 11 22 12 23 13 24
REMARK SMILES IDX 14 25 15 26 16 27 17 28 63 29 18 30 62 31 19 32 20 33 21 34
REMARK SMILES IDX 56 35 22 36 61 37 55 38 57 39 23 40 60 41 54 42 53 43 24 45
REMARK SMILES IDX 46 46 31 47 45 48 32 49 35 50 44 51 58 52 33 53 34 54 43 56
REMARK SMILES IDX 59 57 36 58 25 59 26 60 30 61 27 62 29 63 28 64 47 65 48 66
REMARK SMILES IDX 52 67 49 68 51 69 50 70 37 71 38 72 42 73 39 74 41 75 40 76
REMARK H PARENT 65 20 57 44 35 55
REMARK Flexibility Score: inf
ROOT
ATOM      1  C   UNL A   1      32.371  29.458  26.258  1.00  0.00     0.202 C 
ENDROOT
BRANCH   1   2
ATOM      2  C   UNL A   1      31.452  28.892  25.161  1.00  0.00     0.261 C 
BRANCH   2   3
ATOM      3  O   UNL A   1      31.877  28.830  23.782  1.00  0.00    -0.463 OA
BRANCH   3   4
ATOM      4  C   UNL A   1      31.720  27.710  23.045  1.00  0.00     0.309 C 
ATOM      5  O   UNL A   1      30.663  27.170  22.751  1.00  0.00    -0.252 OA
BRANCH   4   6
ATOM      6  C   UNL A   1      33.033  27.203  22.517  1.00  0.00     0.102 C 
ATOM      7  C   UNL A   1      34.003  28.397  22.443  1.00  0.00     0.020 C 
BRANCH   6   8
ATOM      8  C   UNL A   1      33.592  25.897  23.149  1.00  0.00     0.035 C 
ATOM      9  C   UNL A   1      34.025  26.094  24.622  1.00  0.00     0.012 C 
BRANCH   8  10
ATOM     10  C   UNL A   1      32.847  24.525  23.065  1.00  0.00     0.166 C 
BRANCH  10  11
ATOM     11  C   UNL A   1      32.104  23.924  24.203  1.00  0.00     0.067 A 
ATOM     12  C   UNL A   1      31.063  24.437  24.967  1.00  0.00     0.137 A 
ATOM     13  N   UNL A   1      32.230  22.629  24.685  1.00  0.00    -0.329 N 
ATOM     14  N   UNL A   1      30.650  23.562  25.935  1.00  0.00    -0.245 NA
ATOM     15  C   UNL A   1      31.379  22.491  25.750  1.00  0.00     0.199 A 
BRANCH  13  16
ATOM     16  C   UNL A   1      33.027  21.494  24.249  1.00  0.00     0.088 C 
ATOM     17  C   UNL A   1      34.469  21.295  24.672  1.00  0.00     0.027 C 
ATOM     18  C   UNL A   1      33.428  20.316  25.110  1.00  0.00     0.027 C 
ENDBRANCH  13  16
ENDBRANCH  10  11
BRANCH  10  19
ATOM     19  O   UNL A   1      31.897  24.604  21.996  1.00  0.00    -0.387 OA
ATOM     20  H   UNL A   1      31.393  25.429  22.072  1.00  0.00     0.211 HD
ENDBRANCH  10  19
ENDBRANCH   8  10
ENDBRANCH   6   8
ENDBRANCH   4   6
ENDBRANCH   3   4
ENDBRANCH   2   3
ENDBRANCH   1   2
BRANCH   1  21
ATOM     21  O   UNL A   1      31.875  30.576  26.990  1.00  0.00    -0.374 OA
BRANCH  21  22
ATOM     22  C   UNL A   1      31.375  31.686  26.258  1.00  0.00     0.202 C 
BRANCH  22  23
ATOM     23  C   UNL A   1      31.881  32.990  26.876  1.00  0.00     0.261 C 
BRANCH  23  24
ATOM     24  O   UNL A   1      32.822  32.721  27.931  1.00  0.00    -0.460 OA
BRANCH  24  25
ATOM     25  C   UNL A   1      33.900  33.548  27.924  1.00  0.00     0.338 C 
ATOM     26  O   UNL A   1      33.912  34.760  27.808  1.00  0.00    -0.246 OA
BRANCH  25  27
ATOM     27  C   UNL A   1      35.131  32.769  28.153  1.00  0.00     0.060 A 
ATOM     28  C   UNL A   1      35.025  31.374  28.249  1.00  0.00     0.016 A 
ATOM     29  C   UNL A   1      36.354  33.408  28.366  1.00  0.00     0.016 A 
ATOM     30  C   UNL A   1      36.130  30.621  28.641  1.00  0.00     0.010 A 
ATOM     31  C   UNL A   1      37.457  32.655  28.766  1.00  0.00     0.010 A 
ATOM     32  C   UNL A   1      37.332  31.267  28.956  1.00  0.00    -0.014 A 
BRANCH  32  33
ATOM     33  C   UNL A   1      38.397  30.529  29.672  1.00  0.00     0.031 A 
ATOM     34  C   UNL A   1      38.555  30.752  31.151  1.00  0.00     0.074 A 
ATOM     35  C   UNL A   1      39.192  29.661  29.024  1.00  0.00     0.049 A 
ATOM     36  N   UNL A   1      39.432  30.243  31.978  1.00  0.00    -0.248 NA
ATOM     37  C   UNL A   1      37.596  31.674  31.785  1.00  0.00     0.031 C 
ATOM     38  C   UNL A   1      39.098  29.324  27.605  1.00  0.00     0.029 A 
ATOM     39  N   UNL A   1      40.237  28.904  29.487  1.00  0.00    -0.354 N 
ATOM     40  C   UNL A   1      39.139  30.791  33.221  1.00  0.00     0.074 A 
ATOM     41  C   UNL A   1      38.021  31.690  33.039  1.00  0.00     0.031 C 
ATOM     42  C   UNL A   1      40.046  28.416  27.312  1.00  0.00     0.029 A 
ATOM     43  C   UNL A   1      40.833  28.141  28.513  1.00  0.00     0.049 A 
ATOM     44  H   UNL A   1      40.532  28.907  30.426  1.00  0.00     0.167 HD
ATOM     45  C   UNL A   1      39.746  30.562  34.410  1.00  0.00     0.031 A 
ATOM     46  C   UNL A   1      41.902  27.325  28.585  1.00  0.00     0.031 A 
ATOM     47  C   UNL A   1      40.862  29.673  34.587  1.00  0.00     0.049 A 
ATOM     48  C   UNL A   1      42.609  27.151  29.903  1.00  0.00     0.074 A 
ATOM     49  C   UNL A   1      41.536  29.359  35.753  1.00  0.00     0.029 A 
ATOM     50  N   UNL A   1      41.471  28.963  33.565  1.00  0.00    -0.354 N 
ATOM     51  N   UNL A   1      42.314  27.662  31.074  1.00  0.00    -0.248 NA
ATOM     52  C   UNL A   1      43.794  26.283  29.905  1.00  0.00     0.031 C 
ATOM     53  C   UNL A   1      42.592  28.503  35.428  1.00  0.00     0.029 A 
ATOM     54  C   UNL A   1      42.535  28.233  34.069  1.00  0.00     0.049 A 
ATOM     55  H   UNL A   1      41.190  28.974  32.621  1.00  0.00     0.167 HD
ATOM     56  C   UNL A   1      43.258  27.152  31.958  1.00  0.00     0.074 A 
ATOM     57  C   UNL A   1      44.126  26.285  31.190  1.00  0.00     0.031 C 
ATOM     58  C   UNL A   1      43.390  27.377  33.288  1.00  0.00     0.031 A 
BRANCH  45  59
ATOM     59  C   UNL A   1      39.238  31.317  35.606  1.00  0.00    -0.014 A 
ATOM     60  C   UNL A   1      38.167  30.838  36.376  1.00  0.00     0.009 A 
ATOM     61  C   UNL A   1      39.874  32.508  35.993  1.00  0.00     0.009 A 
ATOM     62  C   UNL A   1      37.725  31.552  37.493  1.00  0.00     0.001 A 
ATOM     63  C   UNL A   1      39.448  33.204  37.126  1.00  0.00     0.001 A 
ATOM     64  C   UNL A   1      38.370  32.729  37.870  1.00  0.00     0.000 A 
ENDBRANCH  45  59
BRANCH  46  65
ATOM     65  C   UNL A   1      42.373  26.608  27.371  1.00  0.00    -0.014 A 
ATOM     66  C   UNL A   1      41.879  25.332  27.061  1.00  0.00     0.009 A 
ATOM     67  C   UNL A   1      43.325  27.192  26.521  1.00  0.00     0.009 A 
ATOM     68  C   UNL A   1      42.345  24.648  25.936  1.00  0.00     0.001 A 
ATOM     69  C   UNL A   1      43.767  26.518  25.382  1.00  0.00     0.001 A 
ATOM     70  C   UNL A   1      43.283  25.243  25.095  1.00  0.00     0.000 A 
ENDBRANCH  46  65
BRANCH  58  71
ATOM     71  C   UNL A   1      44.489  26.645  34.008  1.00  0.00    -0.014 A 
ATOM     72  C   UNL A   1      44.297  25.348  34.507  1.00  0.00     0.009 A 
ATOM     73  C   UNL A   1      45.750  27.247  34.142  1.00  0.00     0.009 A 
ATOM     74  C   UNL A   1      45.340  24.682  35.156  1.00  0.00     0.001 A 
ATOM     75  C   UNL A   1      46.798  26.567  34.762  1.00  0.00     0.001 A 
ATOM     76  C   UNL A   1      46.590  25.289  35.278  1.00  0.00     0.000 A 
ENDBRANCH  58  71
ENDBRANCH  32  33
ENDBRANCH  25  27
ENDBRANCH  24  25
ENDBRANCH  23  24
ENDBRANCH  22  23
ENDBRANCH  21  22
ENDBRANCH   1  21
TORSDOF 19
ENDMDL
MODEL 3
REMARK VINA RESULT:      -9.2      2.480      3.751
REMARK SMILES C[C@H]([C@H](C)C(=O)OCCOCCOC(=O)c1ccc(-c2c3nc(c(-c4ccccc4)c4ccc([nH]4)c(-c4ccccc4)c4nc(c(-c5ccccc5)c5ccc2[nH]5)C=C4)C=C3)cc1)[C@H](O)c1cncn1C1CC1
REMARK SMILES IDX 9 1 8 2 7 3 5 4 6 5 3 6 4 7 2 8 1 9 64 10 66 11 67 12 70 13
REMARK SMILES IDX 68 14 69 15 71 16 72 17 73 18 65 19 10 21 11 22 12 23 13 24
REMARK SMILES IDX 14 25 15 26 16 27 17 28 63 29 18 30 62 31 19 32 20 33 21 34
REMARK SMILES IDX 56 35 22 36 61 37 55 38 57 39 23 40 60 41 54 42 53 43 24 45
REMARK SMILES IDX 46 46 31 47 45 48 32 49 35 50 44 51 58 52 33 53 34 54 43 56
REMARK SMILES IDX 59 57 36 58 25 59 26 60 30 61 27 62 29 63 28 64 47 65 48 66
REMARK SMILES IDX 52 67 49 68 51 69 50 70 37 71 38 72 42 73 39 74 41 75 40 76
REMARK H PARENT 65 20 57 44 35 55
REMARK Flexibility Score: inf
ROOT
ATOM      1  C   UNL A   1      34.578  23.318  25.858  1.00  0.00     0.202 C 
ENDROOT
BRANCH   1   2
ATOM      2  C   UNL A   1      34.681  24.798  25.449  1.00  0.00     0.261 C 
BRANCH   2   3
ATOM      3  O   UNL A   1      33.613  25.457  24.735  1.00  0.00    -0.463 OA
BRANCH   3   4
ATOM      4  C   UNL A   1      33.501  26.802  24.716  1.00  0.00     0.309 C 
ATOM      5  O   UNL A   1      34.120  27.597  25.408  1.00  0.00    -0.252 OA
BRANCH   4   6
ATOM      6  C   UNL A   1      32.552  27.267  23.646  1.00  0.00     0.102 C 
ATOM      7  C   UNL A   1      33.037  26.690  22.303  1.00  0.00     0.020 C 
BRANCH   6   8
ATOM      8  C   UNL A   1      31.031  27.136  23.945  1.00  0.00     0.035 C 
ATOM      9  C   UNL A   1      30.179  28.118  23.105  1.00  0.00     0.012 C 
BRANCH   8  10
ATOM     10  C   UNL A   1      30.283  25.763  23.955  1.00  0.00     0.166 C 
BRANCH  10  11
ATOM     11  C   UNL A   1      30.511  24.713  24.979  1.00  0.00     0.067 A 
ATOM     12  C   UNL A   1      30.249  24.716  26.344  1.00  0.00     0.137 A 
ATOM     13  N   UNL A   1      30.952  23.416  24.755  1.00  0.00    -0.329 N 
ATOM     14  N   UNL A   1      30.611  23.541  26.945  1.00  0.00    -0.245 NA
ATOM     15  C   UNL A   1      31.043  22.785  25.968  1.00  0.00     0.199 A 
BRANCH  13  16
ATOM     16  C   UNL A   1      31.266  22.685  23.539  1.00  0.00     0.088 C 
ATOM     17  C   UNL A   1      32.542  22.914  22.752  1.00  0.00     0.027 C 
ATOM     18  C   UNL A   1      32.307  21.594  23.410  1.00  0.00     0.027 C 
ENDBRANCH  13  16
ENDBRANCH  10  11
BRANCH  10  19
ATOM     19  O   UNL A   1      28.876  26.029  23.996  1.00  0.00    -0.387 OA
ATOM     20  H   UNL A   1      28.424  25.307  24.461  1.00  0.00     0.211 HD
ENDBRANCH  10  19
ENDBRANCH   8  10
ENDBRANCH   6   8
ENDBRANCH   4   6
ENDBRANCH   3   4
ENDBRANCH   2   3
ENDBRANCH   1   2
BRANCH   1  21
ATOM     21  O   UNL A   1      35.780  22.555  25.796  1.00  0.00    -0.374 OA
BRANCH  21  22
ATOM     22  C   UNL A   1      35.673  21.158  25.555  1.00  0.00     0.202 C 
BRANCH  22  23
ATOM     23  C   UNL A   1      37.014  20.607  25.069  1.00  0.00     0.261 C 
BRANCH  23  24
ATOM     24  O   UNL A   1      38.022  21.633  25.093  1.00  0.00    -0.460 OA
BRANCH  24  25
ATOM     25  C   UNL A   1      39.063  21.357  25.923  1.00  0.00     0.338 C 
ATOM     26  O   UNL A   1      39.616  20.287  26.097  1.00  0.00    -0.246 OA
BRANCH  25  27
ATOM     27  C   UNL A   1      39.518  22.593  26.584  1.00  0.00     0.060 A 
ATOM     28  C   UNL A   1      38.911  23.803  26.220  1.00  0.00     0.016 A 
ATOM     29  C   UNL A   1      40.591  22.574  27.478  1.00  0.00     0.016 A 
ATOM     30  C   UNL A   1      39.433  25.008  26.686  1.00  0.00     0.010 A 
ATOM     31  C   UNL A   1      41.117  23.780  27.938  1.00  0.00     0.010 A 
ATOM     32  C   UNL A   1      40.573  25.001  27.501  1.00  0.00    -0.014 A 
BRANCH  32  33
ATOM     33  C   UNL A   1      41.317  26.258  27.735  1.00  0.00     0.031 A 
ATOM     34  C   UNL A   1      40.700  27.303  28.625  1.00  0.00     0.074 A 
ATOM     35  C   UNL A   1      42.526  26.458  27.186  1.00  0.00     0.049 A 
ATOM     36  N   UNL A   1      41.151  28.487  28.949  1.00  0.00    -0.248 NA
ATOM     37  C   UNL A   1      39.401  26.966  29.233  1.00  0.00     0.031 C 
ATOM     38  C   UNL A   1      43.247  25.499  26.350  1.00  0.00     0.029 A 
ATOM     39  N   UNL A   1      43.361  27.544  27.255  1.00  0.00    -0.354 N 
ATOM     40  C   UNL A   1      40.187  29.040  29.784  1.00  0.00     0.074 A 
ATOM     41  C   UNL A   1      39.116  28.075  29.899  1.00  0.00     0.031 C 
ATOM     42  C   UNL A   1      44.425  26.037  25.989  1.00  0.00     0.029 A 
ATOM     43  C   UNL A   1      44.521  27.390  26.537  1.00  0.00     0.049 A 
ATOM     44  H   UNL A   1      43.149  28.355  27.770  1.00  0.00     0.167 HD
ATOM     45  C   UNL A   1      40.195  30.244  30.403  1.00  0.00     0.031 A 
ATOM     46  C   UNL A   1      45.536  28.251  26.335  1.00  0.00     0.031 A 
ATOM     47  C   UNL A   1      41.258  31.205  30.282  1.00  0.00     0.049 A 
ATOM     48  C   UNL A   1      45.482  29.615  26.969  1.00  0.00     0.074 A 
ATOM     49  C   UNL A   1      41.369  32.446  30.883  1.00  0.00     0.029 A 
ATOM     50  N   UNL A   1      42.388  31.034  29.499  1.00  0.00    -0.354 N 
ATOM     51  N   UNL A   1      44.574  30.121  27.768  1.00  0.00    -0.248 NA
ATOM     52  C   UNL A   1      46.599  30.524  26.674  1.00  0.00     0.031 C 
ATOM     53  C   UNL A   1      42.540  33.052  30.417  1.00  0.00     0.029 A 
ATOM     54  C   UNL A   1      43.189  32.160  29.577  1.00  0.00     0.049 A 
ATOM     55  H   UNL A   1      42.591  30.230  28.967  1.00  0.00     0.167 HD
ATOM     56  C   UNL A   1      45.025  31.394  28.097  1.00  0.00     0.074 A 
ATOM     57  C   UNL A   1      46.292  31.578  27.419  1.00  0.00     0.031 C 
ATOM     58  C   UNL A   1      44.446  32.326  28.893  1.00  0.00     0.031 A 
BRANCH  45  59
ATOM     59  C   UNL A   1      38.998  30.606  31.237  1.00  0.00    -0.014 A 
ATOM     60  C   UNL A   1      37.882  31.249  30.679  1.00  0.00     0.009 A 
ATOM     61  C   UNL A   1      38.970  30.255  32.597  1.00  0.00     0.009 A 
ATOM     62  C   UNL A   1      36.775  31.560  31.473  1.00  0.00     0.001 A 
ATOM     63  C   UNL A   1      37.852  30.542  33.381  1.00  0.00     0.001 A 
ATOM     64  C   UNL A   1      36.758  31.200  32.820  1.00  0.00     0.000 A 
ENDBRANCH  45  59
BRANCH  46  65
ATOM     65  C   UNL A   1      46.694  27.851  25.493  1.00  0.00    -0.014 A 
ATOM     66  C   UNL A   1      46.662  28.036  24.102  1.00  0.00     0.009 A 
ATOM     67  C   UNL A   1      47.834  27.274  26.074  1.00  0.00     0.009 A 
ATOM     68  C   UNL A   1      47.739  27.632  23.310  1.00  0.00     0.001 A 
ATOM     69  C   UNL A   1      48.921  26.898  25.283  1.00  0.00     0.001 A 
ATOM     70  C   UNL A   1      48.869  27.069  23.901  1.00  0.00     0.000 A 
ENDBRANCH  46  65
BRANCH  58  71
ATOM     71  C   UNL A   1      45.193  33.612  29.109  1.00  0.00    -0.014 A 
ATOM     72  C   UNL A   1      46.142  33.744  30.134  1.00  0.00     0.009 A 
ATOM     73  C   UNL A   1      44.978  34.693  28.238  1.00  0.00     0.009 A 
ATOM     74  C   UNL A   1      46.836  34.944  30.302  1.00  0.00     0.001 A 
ATOM     75  C   UNL A   1      45.695  35.879  28.389  1.00  0.00     0.001 A 
ATOM     76  C   UNL A   1      46.616  36.008  29.427  1.00  0.00     0.000 A 
ENDBRANCH  58  71
ENDBRANCH  32  33
ENDBRANCH  25  27
ENDBRANCH  24  25
ENDBRANCH  23  24
ENDBRANCH  22  23
ENDBRANCH  21  22
ENDBRANCH   1  21
TORSDOF 19
ENDMDL
