MODEL 1
REMARK VINA RESULT:     -10.6      0.000      0.000
REMARK SMILES O=C(CCc1nc(-c2ccccc2)c(-c2ccccc2)o1)OCCOCCOC(=O)c1ccc(-c2c3nc(c(-c4ccccc4)c4ccc([nH]4)c(-c4ccccc4)c4nc(c(-c5ccccc5)c5ccc2[nH]5)C=C4)C=C3)cc1
REMARK SMILES IDX 24 1 23 2 22 3 2 4 1 5 3 6 4 7 5 8 6 9 21 10 7 11 14 12 8 13
REMARK SMILES IDX 9 14 13 15 10 16 12 17 11 18 15 19 16 20 20 21 17 22 19 23
REMARK SMILES IDX 18 24 25 25 26 26 27 27 28 28 29 29 30 30 31 31 32 32 78 33
REMARK SMILES IDX 33 34 77 35 34 36 35 37 36 38 71 39 37 40 76 41 70 42 72 43
REMARK SMILES IDX 38 44 75 45 69 46 68 47 39 49 61 50 46 51 60 52 47 53 50 54
REMARK SMILES IDX 59 55 73 56 48 57 49 58 58 60 74 61 51 62 40 63 41 64 45 65
REMARK SMILES IDX 42 66 44 67 43 68 62 69 63 70 67 71 64 72 66 73 65 74 52 75
REMARK SMILES IDX 53 76 57 77 54 78 56 79 55 80
REMARK H PARENT 72 48 50 59
REMARK Flexibility Score: inf
ROOT
ATOM      1  C   UNL A   1      32.860  28.145  24.568  1.00  0.00     0.202 C 
ENDROOT
BRANCH   1   2
ATOM      2  C   UNL A   1      33.628  27.343  25.624  1.00  0.00     0.261 C 
BRANCH   2   3
ATOM      3  O   UNL A   1      32.953  26.236  26.249  1.00  0.00    -0.463 OA
BRANCH   3   4
ATOM      4  C   UNL A   1      31.658  25.900  26.089  1.00  0.00     0.306 C 
ATOM      5  O   UNL A   1      30.814  26.314  26.882  1.00  0.00    -0.252 OA
BRANCH   4   6
ATOM      6  C   UNL A   1      31.295  24.882  25.043  1.00  0.00     0.132 C 
BRANCH   6   7
ATOM      7  C   UNL A   1      30.754  23.574  25.590  1.00  0.00     0.109 C 
BRANCH   7   8
ATOM      8  C   UNL A   1      31.704  22.437  25.484  1.00  0.00     0.196 A 
ATOM      9  N   UNL A   1      31.415  21.192  25.182  1.00  0.00    -0.213 NA
ATOM     10  O   UNL A   1      33.045  22.686  25.650  1.00  0.00    -0.440 OA
ATOM     11  C   UNL A   1      32.634  20.564  25.159  1.00  0.00     0.117 A 
ATOM     12  C   UNL A   1      33.653  21.476  25.379  1.00  0.00     0.162 A 
BRANCH  11  13
ATOM     13  C   UNL A   1      32.789  19.175  24.796  1.00  0.00     0.004 A 
ATOM     14  C   UNL A   1      32.901  18.178  25.773  1.00  0.00     0.010 A 
ATOM     15  C   UNL A   1      32.884  18.834  23.443  1.00  0.00     0.010 A 
ATOM     16  C   UNL A   1      33.155  16.858  25.398  1.00  0.00     0.001 A 
ATOM     17  C   UNL A   1      33.124  17.512  23.072  1.00  0.00     0.001 A 
ATOM     18  C   UNL A   1      33.276  16.529  24.049  1.00  0.00     0.000 A 
ENDBRANCH  11  13
BRANCH  12  19
ATOM     19  C   UNL A   1      35.112  21.455  25.267  1.00  0.00     0.020 A 
ATOM     20  C   UNL A   1      35.892  22.606  25.418  1.00  0.00     0.012 A 
ATOM     21  C   UNL A   1      35.778  20.243  25.008  1.00  0.00     0.012 A 
ATOM     22  C   UNL A   1      37.291  22.538  25.341  1.00  0.00     0.001 A 
ATOM     23  C   UNL A   1      37.172  20.170  24.954  1.00  0.00     0.001 A 
ATOM     24  C   UNL A   1      37.930  21.320  25.113  1.00  0.00     0.000 A 
ENDBRANCH  12  19
ENDBRANCH   7   8
ENDBRANCH   6   7
ENDBRANCH   4   6
ENDBRANCH   3   4
ENDBRANCH   2   3
ENDBRANCH   1   2
BRANCH   1  25
ATOM     25  O   UNL A   1      32.364  29.430  24.918  1.00  0.00    -0.374 OA
BRANCH  25  26
ATOM     26  C   UNL A   1      32.014  29.679  26.272  1.00  0.00     0.202 C 
BRANCH  26  27
ATOM     27  C   UNL A   1      32.906  30.678  27.002  1.00  0.00     0.261 C 
BRANCH  27  28
ATOM     28  O   UNL A   1      34.021  30.030  27.637  1.00  0.00    -0.460 OA
BRANCH  28  29
ATOM     29  C   UNL A   1      34.873  30.843  28.300  1.00  0.00     0.338 C 
ATOM     30  O   UNL A   1      34.621  31.899  28.866  1.00  0.00    -0.246 OA
BRANCH  29  31
ATOM     31  C   UNL A   1      36.179  30.178  28.393  1.00  0.00     0.060 A 
ATOM     32  C   UNL A   1      36.589  29.676  29.632  1.00  0.00     0.016 A 
ATOM     33  C   UNL A   1      37.011  30.087  27.276  1.00  0.00     0.016 A 
ATOM     34  C   UNL A   1      37.832  29.065  29.750  1.00  0.00     0.010 A 
ATOM     35  C   UNL A   1      38.271  29.496  27.408  1.00  0.00     0.010 A 
ATOM     36  C   UNL A   1      38.688  28.988  28.649  1.00  0.00    -0.014 A 
BRANCH  36  37
ATOM     37  C   UNL A   1      40.066  28.479  28.838  1.00  0.00     0.031 A 
ATOM     38  C   UNL A   1      41.132  29.426  29.302  1.00  0.00     0.074 A 
ATOM     39  C   UNL A   1      40.355  27.181  28.633  1.00  0.00     0.049 A 
ATOM     40  N   UNL A   1      42.424  29.243  29.367  1.00  0.00    -0.248 NA
ATOM     41  C   UNL A   1      40.682  30.752  29.757  1.00  0.00     0.031 C 
ATOM     42  C   UNL A   1      39.386  26.142  28.292  1.00  0.00     0.029 A 
ATOM     43  N   UNL A   1      41.559  26.522  28.672  1.00  0.00    -0.354 N 
ATOM     44  C   UNL A   1      42.947  30.445  29.823  1.00  0.00     0.074 A 
ATOM     45  C   UNL A   1      41.833  31.343  30.040  1.00  0.00     0.031 C 
ATOM     46  C   UNL A   1      40.039  24.980  28.126  1.00  0.00     0.029 A 
ATOM     47  C   UNL A   1      41.472  25.205  28.290  1.00  0.00     0.049 A 
ATOM     48  H   UNL A   1      42.402  26.950  28.946  1.00  0.00     0.167 HD
ATOM     49  C   UNL A   1      44.246  30.772  30.018  1.00  0.00     0.031 A 
ATOM     50  C   UNL A   1      42.438  24.301  28.039  1.00  0.00     0.031 A 
ATOM     51  C   UNL A   1      45.343  29.868  29.807  1.00  0.00     0.049 A 
ATOM     52  C   UNL A   1      43.879  24.722  28.166  1.00  0.00     0.074 A 
ATOM     53  C   UNL A   1      46.696  30.106  29.980  1.00  0.00     0.029 A 
ATOM     54  N   UNL A   1      45.217  28.560  29.371  1.00  0.00    -0.354 N 
ATOM     55  N   UNL A   1      44.372  25.867  28.574  1.00  0.00    -0.248 NA
ATOM     56  C   UNL A   1      44.897  23.736  27.774  1.00  0.00     0.031 C 
ATOM     57  C   UNL A   1      47.392  28.962  29.580  1.00  0.00     0.029 A 
ATOM     58  C   UNL A   1      46.470  27.992  29.224  1.00  0.00     0.049 A 
ATOM     59  H   UNL A   1      44.363  28.103  29.192  1.00  0.00     0.167 HD
ATOM     60  C   UNL A   1      45.752  25.735  28.495  1.00  0.00     0.074 A 
ATOM     61  C   UNL A   1      46.020  24.388  28.036  1.00  0.00     0.031 C 
ATOM     62  C   UNL A   1      46.715  26.649  28.766  1.00  0.00     0.031 A 
BRANCH  49  63
ATOM     63  C   UNL A   1      44.563  32.187  30.403  1.00  0.00    -0.014 A 
ATOM     64  C   UNL A   1      44.758  33.190  29.444  1.00  0.00     0.009 A 
ATOM     65  C   UNL A   1      44.596  32.528  31.765  1.00  0.00     0.009 A 
ATOM     66  C   UNL A   1      44.990  34.509  29.845  1.00  0.00     0.001 A 
ATOM     67  C   UNL A   1      44.801  33.849  32.161  1.00  0.00     0.001 A 
ATOM     68  C   UNL A   1      45.003  34.838  31.202  1.00  0.00     0.000 A 
ENDBRANCH  49  63
BRANCH  50  69
ATOM     69  C   UNL A   1      42.094  22.939  27.540  1.00  0.00    -0.014 A 
ATOM     70  C   UNL A   1      41.879  22.701  26.174  1.00  0.00     0.009 A 
ATOM     71  C   UNL A   1      41.921  21.878  28.444  1.00  0.00     0.009 A 
ATOM     72  C   UNL A   1      41.463  21.441  25.731  1.00  0.00     0.001 A 
ATOM     73  C   UNL A   1      41.545  20.611  27.995  1.00  0.00     0.001 A 
ATOM     74  C   UNL A   1      41.301  20.397  26.641  1.00  0.00     0.000 A 
ENDBRANCH  50  69
BRANCH  62  75
ATOM     75  C   UNL A   1      48.144  26.220  28.590  1.00  0.00    -0.014 A 
ATOM     76  C   UNL A   1      48.855  25.620  29.642  1.00  0.00     0.009 A 
ATOM     77  C   UNL A   1      48.769  26.367  27.342  1.00  0.00     0.009 A 
ATOM     78  C   UNL A   1      50.173  25.203  29.453  1.00  0.00     0.001 A 
ATOM     79  C   UNL A   1      50.075  25.918  27.147  1.00  0.00     0.001 A 
ATOM     80  C   UNL A   1      50.779  25.345  28.205  1.00  0.00     0.000 A 
ENDBRANCH  62  75
ENDBRANCH  36  37
ENDBRANCH  29  31
ENDBRANCH  28  29
ENDBRANCH  27  28
ENDBRANCH  26  27
ENDBRANCH  25  26
ENDBRANCH   1  25
TORSDOF 18
ENDMDL
MODEL 2
REMARK VINA RESULT:     -10.6      2.323      8.312
REMARK SMILES O=C(CCc1nc(-c2ccccc2)c(-c2ccccc2)o1)OCCOCCOC(=O)c1ccc(-c2c3nc(c(-c4ccccc4)c4ccc([nH]4)c(-c4ccccc4)c4nc(c(-c5ccccc5)c5ccc2[nH]5)C=C4)C=C3)cc1
REMARK SMILES IDX 24 1 23 2 22 3 2 4 1 5 3 6 4 7 5 8 6 9 21 10 7 11 14 12 8 13
REMARK SMILES IDX 9 14 13 15 10 16 12 17 11 18 15 19 16 20 20 21 17 22 19 23
REMARK SMILES IDX 18 24 25 25 26 26 27 27 28 28 29 29 30 30 31 31 32 32 78 33
REMARK SMILES IDX 33 34 77 35 34 36 35 37 36 38 71 39 37 40 76 41 70 42 72 43
REMARK SMILES IDX 38 44 75 45 69 46 68 47 39 49 61 50 46 51 60 52 47 53 50 54
REMARK SMILES IDX 59 55 73 56 48 57 49 58 58 60 74 61 51 62 40 63 41 64 45 65
REMARK SMILES IDX 42 66 44 67 43 68 62 69 63 70 67 71 64 72 66 73 65 74 52 75
REMARK SMILES IDX 53 76 57 77 54 78 56 79 55 80
REMARK H PARENT 72 48 50 59
REMARK Flexibility Score: inf
ROOT
ATOM      1  C   UNL A   1      36.216  20.240  24.981  1.00  0.00     0.202 C 
ENDROOT
BRANCH   1   2
ATOM      2  C   UNL A   1      35.172  21.211  25.543  1.00  0.00     0.261 C 
BRANCH   2   3
ATOM      3  O   UNL A   1      33.835  20.718  25.744  1.00  0.00    -0.463 OA
BRANCH   3   4
ATOM      4  C   UNL A   1      32.789  20.893  24.913  1.00  0.00     0.306 C 
ATOM      5  O   UNL A   1      31.796  20.174  25.016  1.00  0.00    -0.252 OA
BRANCH   4   6
ATOM      6  C   UNL A   1      32.927  21.850  23.761  1.00  0.00     0.132 C 
BRANCH   6   7
ATOM      7  C   UNL A   1      31.632  22.503  23.317  1.00  0.00     0.109 C 
BRANCH   7   8
ATOM      8  C   UNL A   1      31.399  23.845  23.909  1.00  0.00     0.196 A 
ATOM      9  N   UNL A   1      32.144  24.455  24.802  1.00  0.00    -0.213 NA
ATOM     10  O   UNL A   1      30.335  24.586  23.455  1.00  0.00    -0.440 OA
ATOM     11  C   UNL A   1      31.535  25.673  24.967  1.00  0.00     0.117 A 
ATOM     12  C   UNL A   1      30.462  25.799  24.102  1.00  0.00     0.162 A 
BRANCH  11  13
ATOM     13  C   UNL A   1      32.074  26.703  25.824  1.00  0.00     0.004 A 
ATOM     14  C   UNL A   1      31.246  27.440  26.681  1.00  0.00     0.010 A 
ATOM     15  C   UNL A   1      33.438  27.003  25.751  1.00  0.00     0.010 A 
ATOM     16  C   UNL A   1      31.773  28.500  27.419  1.00  0.00     0.001 A 
ATOM     17  C   UNL A   1      33.963  28.053  26.501  1.00  0.00     0.001 A 
ATOM     18  C   UNL A   1      33.128  28.811  27.322  1.00  0.00     0.000 A 
ENDBRANCH  11  13
BRANCH  12  19
ATOM     19  C   UNL A   1      29.590  26.895  23.677  1.00  0.00     0.020 A 
ATOM     20  C   UNL A   1      30.080  28.029  23.019  1.00  0.00     0.012 A 
ATOM     21  C   UNL A   1      28.206  26.825  23.916  1.00  0.00     0.012 A 
ATOM     22  C   UNL A   1      29.208  29.042  22.594  1.00  0.00     0.001 A 
ATOM     23  C   UNL A   1      27.334  27.822  23.472  1.00  0.00     0.001 A 
ATOM     24  C   UNL A   1      27.836  28.936  22.816  1.00  0.00     0.000 A 
ENDBRANCH  12  19
ENDBRANCH   7   8
ENDBRANCH   6   7
ENDBRANCH   4   6
ENDBRANCH   3   4
ENDBRANCH   2   3
ENDBRANCH   1   2
BRANCH   1  25
ATOM     25  O   UNL A   1      37.578  20.641  24.963  1.00  0.00    -0.374 OA
BRANCH  25  26
ATOM     26  C   UNL A   1      38.575  19.679  25.280  1.00  0.00     0.202 C 
BRANCH  26  27
ATOM     27  C   UNL A   1      39.829  20.236  25.946  1.00  0.00     0.261 C 
BRANCH  27  28
ATOM     28  O   UNL A   1      40.883  19.259  25.997  1.00  0.00    -0.460 OA
BRANCH  28  29
ATOM     29  C   UNL A   1      42.123  19.717  25.715  1.00  0.00     0.338 C 
ATOM     30  O   UNL A   1      42.953  19.231  24.959  1.00  0.00    -0.246 OA
BRANCH  29  31
ATOM     31  C   UNL A   1      42.290  21.032  26.348  1.00  0.00     0.060 A 
ATOM     32  C   UNL A   1      42.670  22.116  25.551  1.00  0.00     0.016 A 
ATOM     33  C   UNL A   1      42.116  21.185  27.724  1.00  0.00     0.016 A 
ATOM     34  C   UNL A   1      42.858  23.365  26.132  1.00  0.00     0.010 A 
ATOM     35  C   UNL A   1      42.335  22.437  28.306  1.00  0.00     0.010 A 
ATOM     36  C   UNL A   1      42.714  23.531  27.511  1.00  0.00    -0.014 A 
BRANCH  36  37
ATOM     37  C   UNL A   1      43.077  24.828  28.125  1.00  0.00     0.031 A 
ATOM     38  C   UNL A   1      41.990  25.813  28.437  1.00  0.00     0.074 A 
ATOM     39  C   UNL A   1      44.355  25.110  28.435  1.00  0.00     0.049 A 
ATOM     40  N   UNL A   1      42.092  27.061  28.811  1.00  0.00    -0.248 NA
ATOM     41  C   UNL A   1      40.606  25.326  28.318  1.00  0.00     0.031 C 
ATOM     42  C   UNL A   1      45.484  24.193  28.286  1.00  0.00     0.029 A 
ATOM     43  N   UNL A   1      44.917  26.261  28.929  1.00  0.00    -0.354 N 
ATOM     44  C   UNL A   1      40.788  27.524  28.923  1.00  0.00     0.074 A 
ATOM     45  C   UNL A   1      39.912  26.419  28.600  1.00  0.00     0.031 C 
ATOM     46  C   UNL A   1      46.608  24.829  28.656  1.00  0.00     0.029 A 
ATOM     47  C   UNL A   1      46.289  26.208  29.008  1.00  0.00     0.049 A 
ATOM     48  H   UNL A   1      44.392  27.048  29.199  1.00  0.00     0.167 HD
ATOM     49  C   UNL A   1      40.368  28.769  29.243  1.00  0.00     0.031 A 
ATOM     50  C   UNL A   1      47.188  27.175  29.272  1.00  0.00     0.031 A 
ATOM     51  C   UNL A   1      41.249  29.858  29.570  1.00  0.00     0.049 A 
ATOM     52  C   UNL A   1      46.696  28.577  29.526  1.00  0.00     0.074 A 
ATOM     53  C   UNL A   1      40.916  31.157  29.911  1.00  0.00     0.029 A 
ATOM     54  N   UNL A   1      42.631  29.777  29.589  1.00  0.00    -0.354 N 
ATOM     55  N   UNL A   1      45.463  29.017  29.608  1.00  0.00    -0.248 NA
ATOM     56  C   UNL A   1      47.718  29.619  29.699  1.00  0.00     0.031 C 
ATOM     57  C   UNL A   1      42.101  31.881  30.067  1.00  0.00     0.029 A 
ATOM     58  C   UNL A   1      43.169  31.015  29.891  1.00  0.00     0.049 A 
ATOM     59  H   UNL A   1      43.153  28.960  29.414  1.00  0.00     0.167 HD
ATOM     60  C   UNL A   1      45.564  30.381  29.849  1.00  0.00     0.074 A 
ATOM     61  C   UNL A   1      46.975  30.690  29.936  1.00  0.00     0.031 C 
ATOM     62  C   UNL A   1      44.577  31.301  29.973  1.00  0.00     0.031 A 
BRANCH  49  63
ATOM     63  C   UNL A   1      38.896  29.051  29.178  1.00  0.00    -0.014 A 
ATOM     64  C   UNL A   1      38.077  28.988  30.314  1.00  0.00     0.009 A 
ATOM     65  C   UNL A   1      38.337  29.460  27.955  1.00  0.00     0.009 A 
ATOM     66  C   UNL A   1      36.722  29.319  30.222  1.00  0.00     0.001 A 
ATOM     67  C   UNL A   1      36.992  29.814  27.873  1.00  0.00     0.001 A 
ATOM     68  C   UNL A   1      36.183  29.740  29.005  1.00  0.00     0.000 A 
ENDBRANCH  49  63
BRANCH  50  69
ATOM     69  C   UNL A   1      48.650  26.891  29.210  1.00  0.00    -0.014 A 
ATOM     70  C   UNL A   1      49.348  26.953  27.994  1.00  0.00     0.009 A 
ATOM     71  C   UNL A   1      49.344  26.497  30.366  1.00  0.00     0.009 A 
ATOM     72  C   UNL A   1      50.698  26.591  27.934  1.00  0.00     0.001 A 
ATOM     73  C   UNL A   1      50.701  26.176  30.310  1.00  0.00     0.001 A 
ATOM     74  C   UNL A   1      51.373  26.208  29.091  1.00  0.00     0.000 A 
ENDBRANCH  50  69
BRANCH  62  75
ATOM     75  C   UNL A   1      44.987  32.723  30.236  1.00  0.00    -0.014 A 
ATOM     76  C   UNL A   1      45.171  33.194  31.546  1.00  0.00     0.009 A 
ATOM     77  C   UNL A   1      45.247  33.584  29.159  1.00  0.00     0.009 A 
ATOM     78  C   UNL A   1      45.579  34.510  31.769  1.00  0.00     0.001 A 
ATOM     79  C   UNL A   1      45.687  34.888  29.385  1.00  0.00     0.001 A 
ATOM     80  C   UNL A   1      45.843  35.353  30.691  1.00  0.00     0.000 A 
ENDBRANCH  62  75
ENDBRANCH  36  37
ENDBRANCH  29  31
ENDBRANCH  28  29
ENDBRANCH  27  28
ENDBRANCH  26  27
ENDBRANCH  25  26
ENDBRANCH   1  25
TORSDOF 18
ENDMDL
MODEL 3
REMARK VINA RESULT:     -10.5      2.540      8.443
REMARK SMILES O=C(CCc1nc(-c2ccccc2)c(-c2ccccc2)o1)OCCOCCOC(=O)c1ccc(-c2c3nc(c(-c4ccccc4)c4ccc([nH]4)c(-c4ccccc4)c4nc(c(-c5ccccc5)c5ccc2[nH]5)C=C4)C=C3)cc1
REMARK SMILES IDX 24 1 23 2 22 3 2 4 1 5 3 6 4 7 5 8 6 9 21 10 7 11 14 12 8 13
REMARK SMILES IDX 9 14 13 15 10 16 12 17 11 18 15 19 16 20 20 21 17 22 19 23
REMARK SMILES IDX 18 24 25 25 26 26 27 27 28 28 29 29 30 30 31 31 32 32 78 33
REMARK SMILES IDX 33 34 77 35 34 36 35 37 36 38 71 39 37 40 76 41 70 42 72 43
REMARK SMILES IDX 38 44 75 45 69 46 68 47 39 49 61 50 46 51 60 52 47 53 50 54
REMARK SMILES IDX 59 55 73 56 48 57 49 58 58 60 74 61 51 62 40 63 41 64 45 65
REMARK SMILES IDX 42 66 44 67 43 68 62 69 63 70 67 71 64 72 66 73 65 74 52 75
REMARK SMILES IDX 53 76 57 77 54 78 56 79 55 80
REMARK H PARENT 72 48 50 59
REMARK Flexibility Score: inf
ROOT
ATOM      1  C   UNL A   1      37.004  22.828  24.422  1.00  0.00     0.202 C 
ENDROOT
BRANCH   1   2
ATOM      2  C   UNL A   1      36.339  23.102  23.069  1.00  0.00     0.261 C 
BRANCH   2   3
ATOM      3  O   UNL A   1      35.025  23.691  23.074  1.00  0.00    -0.463 OA
BRANCH   3   4
ATOM      4  C   UNL A   1      33.857  23.031  23.201  1.00  0.00     0.306 C 
ATOM      5  O   UNL A   1      33.823  21.952  23.789  1.00  0.00    -0.252 OA
BRANCH   4   6
ATOM      6  C   UNL A   1      32.649  23.543  22.465  1.00  0.00     0.132 C 
BRANCH   6   7
ATOM      7  C   UNL A   1      32.884  24.802  21.653  1.00  0.00     0.109 C 
BRANCH   7   8
ATOM      8  C   UNL A   1      32.258  26.018  22.232  1.00  0.00     0.196 A 
ATOM      9  N   UNL A   1      31.141  26.591  21.846  1.00  0.00    -0.213 NA
ATOM     10  O   UNL A   1      32.845  26.599  23.330  1.00  0.00    -0.440 OA
ATOM     11  C   UNL A   1      30.977  27.628  22.729  1.00  0.00     0.117 A 
ATOM     12  C   UNL A   1      31.977  27.611  23.687  1.00  0.00     0.162 A 
BRANCH  11  13
ATOM     13  C   UNL A   1      29.820  28.492  22.711  1.00  0.00     0.004 A 
ATOM     14  C   UNL A   1      29.942  29.864  22.455  1.00  0.00     0.010 A 
ATOM     15  C   UNL A   1      28.565  27.952  23.010  1.00  0.00     0.010 A 
ATOM     16  C   UNL A   1      28.825  30.693  22.547  1.00  0.00     0.001 A 
ATOM     17  C   UNL A   1      27.448  28.782  23.087  1.00  0.00     0.001 A 
ATOM     18  C   UNL A   1      27.581  30.154  22.872  1.00  0.00     0.000 A 
ENDBRANCH  11  13
BRANCH  12  19
ATOM     19  C   UNL A   1      32.214  28.298  24.958  1.00  0.00     0.020 A 
ATOM     20  C   UNL A   1      33.036  29.426  25.057  1.00  0.00     0.012 A 
ATOM     21  C   UNL A   1      31.595  27.834  26.133  1.00  0.00     0.012 A 
ATOM     22  C   UNL A   1      33.208  30.079  26.287  1.00  0.00     0.001 A 
ATOM     23  C   UNL A   1      31.747  28.497  27.352  1.00  0.00     0.001 A 
ATOM     24  C   UNL A   1      32.560  29.618  27.432  1.00  0.00     0.000 A 
ENDBRANCH  12  19
ENDBRANCH   7   8
ENDBRANCH   6   7
ENDBRANCH   4   6
ENDBRANCH   3   4
ENDBRANCH   2   3
ENDBRANCH   1   2
BRANCH   1  25
ATOM     25  O   UNL A   1      37.419  21.502  24.719  1.00  0.00    -0.374 OA
BRANCH  25  26
ATOM     26  C   UNL A   1      38.530  21.315  25.585  1.00  0.00     0.202 C 
BRANCH  26  27
ATOM     27  C   UNL A   1      39.294  20.009  25.390  1.00  0.00     0.261 C 
BRANCH  27  28
ATOM     28  O   UNL A   1      40.282  19.813  26.417  1.00  0.00    -0.460 OA
BRANCH  28  29
ATOM     29  C   UNL A   1      41.567  19.987  26.035  1.00  0.00     0.338 C 
ATOM     30  O   UNL A   1      42.223  19.300  25.263  1.00  0.00    -0.246 OA
BRANCH  29  31
ATOM     31  C   UNL A   1      42.046  21.265  26.575  1.00  0.00     0.060 A 
ATOM     32  C   UNL A   1      42.206  21.392  27.958  1.00  0.00     0.016 A 
ATOM     33  C   UNL A   1      42.295  22.346  25.727  1.00  0.00     0.016 A 
ATOM     34  C   UNL A   1      42.634  22.600  28.495  1.00  0.00     0.010 A 
ATOM     35  C   UNL A   1      42.698  23.567  26.276  1.00  0.00     0.010 A 
ATOM     36  C   UNL A   1      42.863  23.700  27.664  1.00  0.00    -0.014 A 
BRANCH  36  37
ATOM     37  C   UNL A   1      43.161  25.017  28.272  1.00  0.00     0.031 A 
ATOM     38  C   UNL A   1      42.031  25.965  28.537  1.00  0.00     0.074 A 
ATOM     39  C   UNL A   1      44.419  25.348  28.616  1.00  0.00     0.049 A 
ATOM     40  N   UNL A   1      42.077  27.221  28.897  1.00  0.00    -0.248 NA
ATOM     41  C   UNL A   1      40.669  25.427  28.382  1.00  0.00     0.031 C 
ATOM     42  C   UNL A   1      45.583  24.471  28.515  1.00  0.00     0.029 A 
ATOM     43  N   UNL A   1      44.923  26.525  29.112  1.00  0.00    -0.354 N 
ATOM     44  C   UNL A   1      40.754  27.638  28.963  1.00  0.00     0.074 A 
ATOM     45  C   UNL A   1      39.928  26.498  28.629  1.00  0.00     0.031 C 
ATOM     46  C   UNL A   1      46.672  25.151  28.910  1.00  0.00     0.029 A 
ATOM     47  C   UNL A   1      46.293  26.522  29.233  1.00  0.00     0.049 A 
ATOM     48  H   UNL A   1      44.362  27.295  29.355  1.00  0.00     0.167 HD
ATOM     49  C   UNL A   1      40.280  28.871  29.254  1.00  0.00     0.031 A 
ATOM     50  C   UNL A   1      47.148  27.524  29.512  1.00  0.00     0.031 A 
ATOM     51  C   UNL A   1      41.111  29.994  29.592  1.00  0.00     0.049 A 
ATOM     52  C   UNL A   1      46.599  28.910  29.732  1.00  0.00     0.074 A 
ATOM     53  C   UNL A   1      40.722  31.285  29.906  1.00  0.00     0.029 A 
ATOM     54  N   UNL A   1      42.494  29.963  29.654  1.00  0.00    -0.354 N 
ATOM     55  N   UNL A   1      45.349  29.307  29.770  1.00  0.00    -0.248 NA
ATOM     56  C   UNL A   1      47.578  29.991  29.921  1.00  0.00     0.031 C 
ATOM     57  C   UNL A   1      41.875  32.053  30.088  1.00  0.00     0.029 A 
ATOM     58  C   UNL A   1      42.978  31.224  29.956  1.00  0.00     0.049 A 
ATOM     59  H   UNL A   1      43.050  29.164  29.507  1.00  0.00     0.167 HD
ATOM     60  C   UNL A   1      45.394  30.676  29.995  1.00  0.00     0.074 A 
ATOM     61  C   UNL A   1      46.790  31.037  30.121  1.00  0.00     0.031 C 
ATOM     62  C   UNL A   1      44.372  31.562  30.077  1.00  0.00     0.031 A 
BRANCH  49  63
ATOM     63  C   UNL A   1      38.802  29.099  29.139  1.00  0.00    -0.014 A 
ATOM     64  C   UNL A   1      37.949  29.011  30.249  1.00  0.00     0.009 A 
ATOM     65  C   UNL A   1      38.268  29.482  27.898  1.00  0.00     0.009 A 
ATOM     66  C   UNL A   1      36.587  29.292  30.113  1.00  0.00     0.001 A 
ATOM     67  C   UNL A   1      36.914  29.787  27.770  1.00  0.00     0.001 A 
ATOM     68  C   UNL A   1      36.073  29.688  28.876  1.00  0.00     0.000 A 
ENDBRANCH  49  63
BRANCH  50  69
ATOM     69  C   UNL A   1      48.621  27.292  29.497  1.00  0.00    -0.014 A 
ATOM     70  C   UNL A   1      49.314  26.969  30.673  1.00  0.00     0.009 A 
ATOM     71  C   UNL A   1      49.351  27.454  28.308  1.00  0.00     0.009 A 
ATOM     72  C   UNL A   1      50.708  26.848  30.663  1.00  0.00     0.001 A 
ATOM     73  C   UNL A   1      50.737  27.293  28.292  1.00  0.00     0.001 A 
ATOM     74  C   UNL A   1      51.416  27.005  29.473  1.00  0.00     0.000 A 
ENDBRANCH  50  69
BRANCH  62  75
ATOM     75  C   UNL A   1      44.723  33.001  30.333  1.00  0.00    -0.014 A 
ATOM     76  C   UNL A   1      44.872  33.489  31.641  1.00  0.00     0.009 A 
ATOM     77  C   UNL A   1      44.961  33.863  29.252  1.00  0.00     0.009 A 
ATOM     78  C   UNL A   1      45.225  34.821  31.858  1.00  0.00     0.001 A 
ATOM     79  C   UNL A   1      45.348  35.185  29.473  1.00  0.00     0.001 A 
ATOM     80  C   UNL A   1      45.470  35.665  30.776  1.00  0.00     0.000 A 
ENDBRANCH  62  75
ENDBRANCH  36  37
ENDBRANCH  29  31
ENDBRANCH  28  29
ENDBRANCH  27  28
ENDBRANCH  26  27
ENDBRANCH  25  26
ENDBRANCH   1  25
TORSDOF 18
ENDMDL
