MODEL 1
REMARK VINA RESULT:      -9.3      0.000      0.000
REMARK SMILES COc1cc(C(=O)CCC(=O)OCCOCCOC(=O)c2ccc(-c3c4nc(c(-c5ccccc5)c5ccc([nH]5)c(-c5ccccc5)c5nc(c(-c6ccccc6)c6ccc3[nH]6)C=C5)C=C4)cc2)cc(OC)c1OC
REMARK SMILES IDX 14 1 13 2 12 3 10 4 11 5 9 6 8 7 6 8 7 9 5 10 3 11 4 12
REMARK SMILES IDX 73 13 70 14 69 15 2 16 1 17 74 18 75 19 71 20 72 21 15 22
REMARK SMILES IDX 16 23 17 24 18 25 19 26 20 27 21 28 22 29 68 30 23 31 67 32
REMARK SMILES IDX 24 33 25 34 26 35 61 36 27 37 66 38 60 39 62 40 28 41 65 42
REMARK SMILES IDX 59 43 58 44 29 46 51 47 36 48 50 49 37 50 40 51 49 52 63 53
REMARK SMILES IDX 38 54 39 55 48 57 64 58 41 59 30 60 31 61 35 62 32 63 34 64
REMARK SMILES IDX 33 65 52 66 53 67 57 68 54 69 56 70 55 71 42 72 43 73 47 74
REMARK SMILES IDX 44 75 46 76 45 77
REMARK H PARENT 62 45 40 56
REMARK Flexibility Score: inf
ROOT
ATOM      1  C   UNL A   1      36.596  21.869  25.751  1.00  0.00     0.202 C 
ENDROOT
BRANCH   1   2
ATOM      2  C   UNL A   1      35.099  21.625  26.004  1.00  0.00     0.261 C 
BRANCH   2   3
ATOM      3  O   UNL A   1      34.618  20.416  25.399  1.00  0.00    -0.463 OA
BRANCH   3   4
ATOM      4  C   UNL A   1      33.288  20.318  25.192  1.00  0.00     0.306 C 
ATOM      5  O   UNL A   1      32.662  19.264  25.130  1.00  0.00    -0.252 OA
BRANCH   4   6
ATOM      6  C   UNL A   1      32.672  21.680  24.993  1.00  0.00     0.131 C 
BRANCH   6   7
ATOM      7  C   UNL A   1      31.312  21.871  25.659  1.00  0.00     0.093 C 
BRANCH   7   8
ATOM      8  C   UNL A   1      31.153  23.199  26.382  1.00  0.00     0.163 C 
ATOM      9  O   UNL A   1      30.898  23.194  27.588  1.00  0.00    -0.294 OA
BRANCH   8  10
ATOM     10  C   UNL A   1      31.285  24.525  25.683  1.00  0.00     0.025 A 
ATOM     11  C   UNL A   1      31.865  26.849  25.790  1.00  0.00     0.165 A 
ATOM     12  C   UNL A   1      31.754  25.598  26.406  1.00  0.00     0.062 A 
ATOM     13  C   UNL A   1      31.537  27.103  24.428  1.00  0.00     0.203 A 
ATOM     14  C   UNL A   1      31.223  26.001  23.655  1.00  0.00     0.165 A 
ATOM     15  C   UNL A   1      31.080  24.747  24.322  1.00  0.00     0.062 A 
BRANCH  11  16
ATOM     16  O   UNL A   1      32.553  27.775  26.539  1.00  0.00    -0.493 OA
ATOM     17  C   UNL A   1      31.744  28.302  27.578  1.00  0.00     0.278 C 
ENDBRANCH  11  16
BRANCH  13  18
ATOM     18  O   UNL A   1      31.651  28.404  24.081  1.00  0.00    -0.490 OA
ATOM     19  C   UNL A   1      30.586  29.249  23.722  1.00  0.00     0.278 C 
ENDBRANCH  13  18
BRANCH  14  20
ATOM     20  O   UNL A   1      31.469  25.858  22.312  1.00  0.00    -0.493 OA
ATOM     21  C   UNL A   1      32.642  26.228  21.608  1.00  0.00     0.278 C 
ENDBRANCH  14  20
ENDBRANCH   8  10
ENDBRANCH   7   8
ENDBRANCH   6   7
ENDBRANCH   4   6
ENDBRANCH   3   4
ENDBRANCH   2   3
ENDBRANCH   1   2
BRANCH   1  22
ATOM     22  O   UNL A   1      37.301  21.193  24.717  1.00  0.00    -0.374 OA
BRANCH  22  23
ATOM     23  C   UNL A   1      37.989  19.964  25.014  1.00  0.00     0.202 C 
BRANCH  23  24
ATOM     24  C   UNL A   1      39.412  19.985  25.696  1.00  0.00     0.261 C 
BRANCH  24  25
ATOM     25  O   UNL A   1      40.308  18.849  25.418  1.00  0.00    -0.460 OA
BRANCH  25  26
ATOM     26  C   UNL A   1      41.545  18.884  26.022  1.00  0.00     0.338 C 
ATOM     27  O   UNL A   1      42.278  17.907  26.120  1.00  0.00    -0.246 OA
BRANCH  26  28
ATOM     28  C   UNL A   1      42.076  20.265  26.375  1.00  0.00     0.060 A 
ATOM     29  C   UNL A   1      41.842  20.708  27.688  1.00  0.00     0.016 A 
ATOM     30  C   UNL A   1      42.732  21.155  25.515  1.00  0.00     0.016 A 
ATOM     31  C   UNL A   1      42.313  21.954  28.163  1.00  0.00     0.010 A 
ATOM     32  C   UNL A   1      43.171  22.440  25.986  1.00  0.00     0.010 A 
ATOM     33  C   UNL A   1      42.987  22.854  27.328  1.00  0.00    -0.014 A 
BRANCH  33  34
ATOM     34  C   UNL A   1      43.171  24.281  27.817  1.00  0.00     0.031 A 
ATOM     35  C   UNL A   1      44.592  24.766  27.927  1.00  0.00     0.074 A 
ATOM     36  C   UNL A   1      42.214  25.234  27.957  1.00  0.00     0.049 A 
ATOM     37  N   UNL A   1      45.038  25.983  28.110  1.00  0.00    -0.248 NA
ATOM     38  C   UNL A   1      45.640  23.763  27.690  1.00  0.00     0.031 C 
ATOM     39  C   UNL A   1      40.818  25.072  27.621  1.00  0.00     0.029 A 
ATOM     40  N   UNL A   1      42.258  26.553  28.382  1.00  0.00    -0.354 N 
ATOM     41  C   UNL A   1      46.405  25.908  27.902  1.00  0.00     0.074 A 
ATOM     42  C   UNL A   1      46.725  24.520  27.647  1.00  0.00     0.031 C 
ATOM     43  C   UNL A   1      40.112  26.172  27.919  1.00  0.00     0.029 A 
ATOM     44  C   UNL A   1      41.018  27.166  28.463  1.00  0.00     0.049 A 
ATOM     45  H   UNL A   1      43.098  27.015  28.606  1.00  0.00     0.167 HD
ATOM     46  C   UNL A   1      47.319  26.904  27.891  1.00  0.00     0.031 A 
ATOM     47  C   UNL A   1      40.633  28.383  28.905  1.00  0.00     0.031 A 
ATOM     48  C   UNL A   1      47.052  28.267  28.255  1.00  0.00     0.049 A 
ATOM     49  C   UNL A   1      41.697  29.394  29.221  1.00  0.00     0.074 A 
ATOM     50  C   UNL A   1      47.953  29.303  28.419  1.00  0.00     0.029 A 
ATOM     51  N   UNL A   1      45.796  28.778  28.543  1.00  0.00    -0.354 N 
ATOM     52  N   UNL A   1      42.991  29.292  29.049  1.00  0.00    -0.248 NA
ATOM     53  C   UNL A   1      41.255  30.707  29.715  1.00  0.00     0.031 C 
ATOM     54  C   UNL A   1      47.252  30.425  28.872  1.00  0.00     0.029 A 
ATOM     55  C   UNL A   1      45.905  30.109  28.921  1.00  0.00     0.049 A 
ATOM     56  H   UNL A   1      44.953  28.273  28.489  1.00  0.00     0.167 HD
ATOM     57  C   UNL A   1      43.509  30.544  29.339  1.00  0.00     0.074 A 
ATOM     58  C   UNL A   1      42.390  31.391  29.699  1.00  0.00     0.031 C 
ATOM     59  C   UNL A   1      44.798  30.954  29.285  1.00  0.00     0.031 A 
BRANCH  46  60
ATOM     60  C   UNL A   1      48.717  26.499  27.539  1.00  0.00    -0.014 A 
ATOM     61  C   UNL A   1      49.625  26.100  28.534  1.00  0.00     0.009 A 
ATOM     62  C   UNL A   1      49.148  26.580  26.208  1.00  0.00     0.009 A 
ATOM     63  C   UNL A   1      50.952  25.823  28.203  1.00  0.00     0.001 A 
ATOM     64  C   UNL A   1      50.468  26.279  25.879  1.00  0.00     0.001 A 
ATOM     65  C   UNL A   1      51.371  25.912  26.875  1.00  0.00     0.000 A 
ENDBRANCH  46  60
BRANCH  47  66
ATOM     66  C   UNL A   1      39.189  28.745  29.086  1.00  0.00    -0.014 A 
ATOM     67  C   UNL A   1      38.470  29.443  28.101  1.00  0.00     0.009 A 
ATOM     68  C   UNL A   1      38.559  28.502  30.319  1.00  0.00     0.009 A 
ATOM     69  C   UNL A   1      37.185  29.936  28.364  1.00  0.00     0.001 A 
ATOM     70  C   UNL A   1      37.263  28.970  30.570  1.00  0.00     0.001 A 
ATOM     71  C   UNL A   1      36.583  29.701  29.599  1.00  0.00     0.000 A 
ENDBRANCH  47  66
BRANCH  59  72
ATOM     72  C   UNL A   1      45.068  32.402  29.577  1.00  0.00    -0.014 A 
ATOM     73  C   UNL A   1      45.368  32.847  30.874  1.00  0.00     0.009 A 
ATOM     74  C   UNL A   1      45.031  33.335  28.529  1.00  0.00     0.009 A 
ATOM     75  C   UNL A   1      45.574  34.205  31.124  1.00  0.00     0.001 A 
ATOM     76  C   UNL A   1      45.274  34.686  28.776  1.00  0.00     0.001 A 
ATOM     77  C   UNL A   1      45.531  35.123  30.074  1.00  0.00     0.000 A 
ENDBRANCH  59  72
ENDBRANCH  33  34
ENDBRANCH  26  28
ENDBRANCH  25  26
ENDBRANCH  24  25
ENDBRANCH  23  24
ENDBRANCH  22  23
ENDBRANCH   1  22
TORSDOF 20
ENDMDL
MODEL 2
REMARK VINA RESULT:      -9.3      4.260      7.818
REMARK SMILES COc1cc(C(=O)CCC(=O)OCCOCCOC(=O)c2ccc(-c3c4nc(c(-c5ccccc5)c5ccc([nH]5)c(-c5ccccc5)c5nc(c(-c6ccccc6)c6ccc3[nH]6)C=C5)C=C4)cc2)cc(OC)c1OC
REMARK SMILES IDX 14 1 13 2 12 3 10 4 11 5 9 6 8 7 6 8 7 9 5 10 3 11 4 12
REMARK SMILES IDX 73 13 70 14 69 15 2 16 1 17 74 18 75 19 71 20 72 21 15 22
REMARK SMILES IDX 16 23 17 24 18 25 19 26 20 27 21 28 22 29 68 30 23 31 67 32
REMARK SMILES IDX 24 33 25 34 26 35 61 36 27 37 66 38 60 39 62 40 28 41 65 42
REMARK SMILES IDX 59 43 58 44 29 46 51 47 36 48 50 49 37 50 40 51 49 52 63 53
REMARK SMILES IDX 38 54 39 55 48 57 64 58 41 59 30 60 31 61 35 62 32 63 34 64
REMARK SMILES IDX 33 65 52 66 53 67 57 68 54 69 56 70 55 71 42 72 43 73 47 74
REMARK SMILES IDX 44 75 46 76 45 77
REMARK H PARENT 62 45 40 56
REMARK Flexibility Score: inf
ROOT
ATOM      1  C   UNL A   1      40.997  20.883  26.512  1.00  0.00     0.202 C 
ENDROOT
BRANCH   1   2
ATOM      2  C   UNL A   1      39.653  21.551  26.173  1.00  0.00     0.261 C 
BRANCH   2   3
ATOM      3  O   UNL A   1      39.377  22.698  26.989  1.00  0.00    -0.463 OA
BRANCH   3   4
ATOM      4  C   UNL A   1      38.610  23.668  26.449  1.00  0.00     0.306 C 
ATOM      5  O   UNL A   1      38.954  24.837  26.304  1.00  0.00    -0.252 OA
BRANCH   4   6
ATOM      6  C   UNL A   1      37.245  23.138  26.090  1.00  0.00     0.131 C 
BRANCH   6   7
ATOM      7  C   UNL A   1      36.611  23.783  24.860  1.00  0.00     0.093 C 
BRANCH   7   8
ATOM      8  C   UNL A   1      35.099  23.642  24.792  1.00  0.00     0.163 C 
ATOM      9  O   UNL A   1      34.571  22.644  25.287  1.00  0.00    -0.294 OA
BRANCH   8  10
ATOM     10  C   UNL A   1      34.216  24.669  24.137  1.00  0.00     0.025 A 
ATOM     11  C   UNL A   1      32.923  26.679  24.323  1.00  0.00     0.165 A 
ATOM     12  C   UNL A   1      33.765  25.722  24.899  1.00  0.00     0.062 A 
ATOM     13  C   UNL A   1      32.497  26.658  22.965  1.00  0.00     0.203 A 
ATOM     14  C   UNL A   1      33.075  25.700  22.154  1.00  0.00     0.165 A 
ATOM     15  C   UNL A   1      33.897  24.716  22.779  1.00  0.00     0.062 A 
BRANCH  11  16
ATOM     16  O   UNL A   1      32.730  27.791  25.110  1.00  0.00    -0.493 OA
ATOM     17  C   UNL A   1      33.850  28.031  25.947  1.00  0.00     0.278 C 
ENDBRANCH  11  16
BRANCH  13  18
ATOM     18  O   UNL A   1      31.623  27.644  22.659  1.00  0.00    -0.490 OA
ATOM     19  C   UNL A   1      30.223  27.545  22.735  1.00  0.00     0.278 C 
ENDBRANCH  13  18
BRANCH  14  20
ATOM     20  O   UNL A   1      33.331  25.823  20.810  1.00  0.00    -0.493 OA
ATOM     21  C   UNL A   1      32.484  25.454  19.736  1.00  0.00     0.278 C 
ENDBRANCH  14  20
ENDBRANCH   8  10
ENDBRANCH   7   8
ENDBRANCH   6   7
ENDBRANCH   4   6
ENDBRANCH   3   4
ENDBRANCH   2   3
ENDBRANCH   1   2
BRANCH   1  22
ATOM     22  O   UNL A   1      41.902  20.464  25.497  1.00  0.00    -0.374 OA
BRANCH  22  23
ATOM     23  C   UNL A   1      43.314  20.438  25.772  1.00  0.00     0.202 C 
BRANCH  23  24
ATOM     24  C   UNL A   1      44.202  21.721  25.534  1.00  0.00     0.261 C 
BRANCH  24  25
ATOM     25  O   UNL A   1      43.524  22.922  25.015  1.00  0.00    -0.460 OA
BRANCH  25  26
ATOM     26  C   UNL A   1      44.137  24.128  25.269  1.00  0.00     0.338 C 
ATOM     27  O   UNL A   1      45.035  24.589  24.574  1.00  0.00    -0.246 OA
BRANCH  26  28
ATOM     28  C   UNL A   1      43.492  24.993  26.341  1.00  0.00     0.060 A 
ATOM     29  C   UNL A   1      44.089  26.242  26.582  1.00  0.00     0.016 A 
ATOM     30  C   UNL A   1      42.392  24.654  27.141  1.00  0.00     0.016 A 
ATOM     31  C   UNL A   1      43.571  27.161  27.522  1.00  0.00     0.010 A 
ATOM     32  C   UNL A   1      41.893  25.571  28.128  1.00  0.00     0.010 A 
ATOM     33  C   UNL A   1      42.463  26.853  28.321  1.00  0.00    -0.014 A 
BRANCH  33  34
ATOM     34  C   UNL A   1      42.172  27.749  29.514  1.00  0.00     0.031 A 
ATOM     35  C   UNL A   1      41.015  28.700  29.360  1.00  0.00     0.074 A 
ATOM     36  C   UNL A   1      42.682  27.645  30.767  1.00  0.00     0.049 A 
ATOM     37  N   UNL A   1      40.412  29.422  30.271  1.00  0.00    -0.248 NA
ATOM     38  C   UNL A   1      40.394  28.758  28.029  1.00  0.00     0.031 C 
ATOM     39  C   UNL A   1      43.590  26.614  31.216  1.00  0.00     0.029 A 
ATOM     40  N   UNL A   1      42.492  28.386  31.923  1.00  0.00    -0.354 N 
ATOM     41  C   UNL A   1      39.283  29.929  29.650  1.00  0.00     0.074 A 
ATOM     42  C   UNL A   1      39.319  29.491  28.271  1.00  0.00     0.031 C 
ATOM     43  C   UNL A   1      43.959  26.808  32.492  1.00  0.00     0.029 A 
ATOM     44  C   UNL A   1      43.286  27.994  32.988  1.00  0.00     0.049 A 
ATOM     45  H   UNL A   1      41.847  29.128  31.983  1.00  0.00     0.167 HD
ATOM     46  C   UNL A   1      38.282  30.668  30.178  1.00  0.00     0.031 A 
ATOM     47  C   UNL A   1      43.461  28.501  34.227  1.00  0.00     0.031 A 
ATOM     48  C   UNL A   1      38.278  31.214  31.505  1.00  0.00     0.049 A 
ATOM     49  C   UNL A   1      42.533  29.588  34.688  1.00  0.00     0.074 A 
ATOM     50  C   UNL A   1      37.376  32.101  32.065  1.00  0.00     0.029 A 
ATOM     51  N   UNL A   1      39.236  30.954  32.473  1.00  0.00    -0.354 N 
ATOM     52  N   UNL A   1      41.488  30.079  34.070  1.00  0.00    -0.248 NA
ATOM     53  C   UNL A   1      42.751  30.136  36.035  1.00  0.00     0.031 C 
ATOM     54  C   UNL A   1      37.824  32.431  33.348  1.00  0.00     0.029 A 
ATOM     55  C   UNL A   1      38.965  31.694  33.614  1.00  0.00     0.049 A 
ATOM     56  H   UNL A   1      39.995  30.336  32.365  1.00  0.00     0.167 HD
ATOM     57  C   UNL A   1      40.883  30.935  34.977  1.00  0.00     0.074 A 
ATOM     58  C   UNL A   1      41.676  30.897  36.188  1.00  0.00     0.031 C 
ATOM     59  C   UNL A   1      39.753  31.665  34.819  1.00  0.00     0.031 A 
BRANCH  46  60
ATOM     60  C   UNL A   1      37.147  30.981  29.252  1.00  0.00    -0.014 A 
ATOM     61  C   UNL A   1      36.965  32.279  28.747  1.00  0.00     0.009 A 
ATOM     62  C   UNL A   1      36.217  29.983  28.935  1.00  0.00     0.009 A 
ATOM     63  C   UNL A   1      35.847  32.578  27.967  1.00  0.00     0.001 A 
ATOM     64  C   UNL A   1      35.114  30.280  28.136  1.00  0.00     0.001 A 
ATOM     65  C   UNL A   1      34.924  31.577  27.662  1.00  0.00     0.000 A 
ENDBRANCH  46  60
BRANCH  47  66
ATOM     66  C   UNL A   1      44.545  28.016  35.143  1.00  0.00    -0.014 A 
ATOM     67  C   UNL A   1      44.306  27.031  36.117  1.00  0.00     0.009 A 
ATOM     68  C   UNL A   1      45.804  28.641  35.128  1.00  0.00     0.009 A 
ATOM     69  C   UNL A   1      45.275  26.727  37.083  1.00  0.00     0.001 A 
ATOM     70  C   UNL A   1      46.781  28.316  36.076  1.00  0.00     0.001 A 
ATOM     71  C   UNL A   1      46.511  27.371  37.063  1.00  0.00     0.000 A 
ENDBRANCH  47  66
BRANCH  59  72
ATOM     72  C   UNL A   1      39.276  32.451  36.006  1.00  0.00    -0.014 A 
ATOM     73  C   UNL A   1      39.711  33.763  36.243  1.00  0.00     0.009 A 
ATOM     74  C   UNL A   1      38.364  31.865  36.899  1.00  0.00     0.009 A 
ATOM     75  C   UNL A   1      39.283  34.456  37.377  1.00  0.00     0.001 A 
ATOM     76  C   UNL A   1      37.908  32.573  38.011  1.00  0.00     0.001 A 
ATOM     77  C   UNL A   1      38.378  33.862  38.258  1.00  0.00     0.000 A 
ENDBRANCH  59  72
ENDBRANCH  33  34
ENDBRANCH  26  28
ENDBRANCH  25  26
ENDBRANCH  24  25
ENDBRANCH  23  24
ENDBRANCH  22  23
ENDBRANCH   1  22
TORSDOF 20
ENDMDL
MODEL 3
REMARK VINA RESULT:      -8.6      5.800     10.963
REMARK SMILES COc1cc(C(=O)CCC(=O)OCCOCCOC(=O)c2ccc(-c3c4nc(c(-c5ccccc5)c5ccc([nH]5)c(-c5ccccc5)c5nc(c(-c6ccccc6)c6ccc3[nH]6)C=C5)C=C4)cc2)cc(OC)c1OC
REMARK SMILES IDX 14 1 13 2 12 3 10 4 11 5 9 6 8 7 6 8 7 9 5 10 3 11 4 12
REMARK SMILES IDX 73 13 70 14 69 15 2 16 1 17 74 18 75 19 71 20 72 21 15 22
REMARK SMILES IDX 16 23 17 24 18 25 19 26 20 27 21 28 22 29 68 30 23 31 67 32
REMARK SMILES IDX 24 33 25 34 26 35 61 36 27 37 66 38 60 39 62 40 28 41 65 42
REMARK SMILES IDX 59 43 58 44 29 46 51 47 36 48 50 49 37 50 40 51 49 52 63 53
REMARK SMILES IDX 38 54 39 55 48 57 64 58 41 59 30 60 31 61 35 62 32 63 34 64
REMARK SMILES IDX 33 65 52 66 53 67 57 68 54 69 56 70 55 71 42 72 43 73 47 74
REMARK SMILES IDX 44 75 46 76 45 77
REMARK H PARENT 62 45 40 56
REMARK Flexibility Score: inf
ROOT
ATOM      1  C   UNL A   1      33.735  34.037  28.526  1.00  0.00     0.202 C 
ENDROOT
BRANCH   1   2
ATOM      2  C   UNL A   1      34.488  32.765  28.951  1.00  0.00     0.261 C 
BRANCH   2   3
ATOM      3  O   UNL A   1      34.796  31.902  27.847  1.00  0.00    -0.463 OA
BRANCH   3   4
ATOM      4  C   UNL A   1      35.819  31.036  28.009  1.00  0.00     0.306 C 
ATOM      5  O   UNL A   1      36.965  31.352  28.313  1.00  0.00    -0.252 OA
BRANCH   4   6
ATOM      6  C   UNL A   1      35.380  29.624  27.716  1.00  0.00     0.131 C 
BRANCH   6   7
ATOM      7  C   UNL A   1      34.387  29.488  26.564  1.00  0.00     0.093 C 
BRANCH   7   8
ATOM      8  C   UNL A   1      33.565  28.211  26.597  1.00  0.00     0.163 C 
ATOM      9  O   UNL A   1      32.753  28.048  27.511  1.00  0.00    -0.294 OA
BRANCH   8  10
ATOM     10  C   UNL A   1      33.705  27.127  25.563  1.00  0.00     0.025 A 
ATOM     11  C   UNL A   1      33.586  26.461  23.263  1.00  0.00     0.165 A 
ATOM     12  C   UNL A   1      33.486  27.453  24.244  1.00  0.00     0.062 A 
ATOM     13  C   UNL A   1      33.923  25.103  23.528  1.00  0.00     0.203 A 
ATOM     14  C   UNL A   1      34.302  24.805  24.823  1.00  0.00     0.165 A 
ATOM     15  C   UNL A   1      34.151  25.828  25.806  1.00  0.00     0.062 A 
BRANCH  11  16
ATOM     16  O   UNL A   1      33.574  26.952  21.977  1.00  0.00    -0.493 OA
ATOM     17  C   UNL A   1      34.076  28.277  21.927  1.00  0.00     0.278 C 
ENDBRANCH  11  16
BRANCH  13  18
ATOM     18  O   UNL A   1      33.880  24.314  22.430  1.00  0.00    -0.490 OA
ATOM     19  C   UNL A   1      33.527  22.953  22.417  1.00  0.00     0.278 C 
ENDBRANCH  13  18
BRANCH  14  20
ATOM     20  O   UNL A   1      35.204  23.840  25.200  1.00  0.00    -0.493 OA
ATOM     21  C   UNL A   1      35.071  22.907  26.258  1.00  0.00     0.278 C 
ENDBRANCH  14  20
ENDBRANCH   8  10
ENDBRANCH   7   8
ENDBRANCH   6   7
ENDBRANCH   4   6
ENDBRANCH   3   4
ENDBRANCH   2   3
ENDBRANCH   1   2
BRANCH   1  22
ATOM     22  O   UNL A   1      32.748  34.637  29.358  1.00  0.00    -0.374 OA
BRANCH  22  23
ATOM     23  C   UNL A   1      32.727  36.067  29.515  1.00  0.00     0.202 C 
BRANCH  23  24
ATOM     24  C   UNL A   1      33.644  36.771  30.590  1.00  0.00     0.261 C 
BRANCH  24  25
ATOM     25  O   UNL A   1      33.125  36.852  31.967  1.00  0.00    -0.460 OA
BRANCH  25  26
ATOM     26  C   UNL A   1      32.717  35.667  32.536  1.00  0.00     0.338 C 
ATOM     27  O   UNL A   1      31.548  35.300  32.568  1.00  0.00    -0.246 OA
BRANCH  26  28
ATOM     28  C   UNL A   1      33.823  34.702  32.937  1.00  0.00     0.060 A 
ATOM     29  C   UNL A   1      34.622  35.085  34.027  1.00  0.00     0.016 A 
ATOM     30  C   UNL A   1      34.153  33.497  32.303  1.00  0.00     0.016 A 
ATOM     31  C   UNL A   1      35.660  34.268  34.530  1.00  0.00     0.010 A 
ATOM     32  C   UNL A   1      35.237  32.688  32.788  1.00  0.00     0.010 A 
ATOM     33  C   UNL A   1      35.998  33.051  33.926  1.00  0.00    -0.014 A 
BRANCH  33  34
ATOM     34  C   UNL A   1      37.313  32.399  34.320  1.00  0.00     0.031 A 
ATOM     35  C   UNL A   1      37.828  31.331  33.392  1.00  0.00     0.074 A 
ATOM     36  C   UNL A   1      38.181  32.809  35.281  1.00  0.00     0.049 A 
ATOM     37  N   UNL A   1      39.006  30.761  33.361  1.00  0.00    -0.248 NA
ATOM     38  C   UNL A   1      36.934  30.940  32.293  1.00  0.00     0.031 C 
ATOM     39  C   UNL A   1      38.026  33.991  36.097  1.00  0.00     0.029 A 
ATOM     40  N   UNL A   1      39.396  32.309  35.723  1.00  0.00    -0.354 N 
ATOM     41  C   UNL A   1      39.031  30.031  32.184  1.00  0.00     0.074 A 
ATOM     42  C   UNL A   1      37.731  30.175  31.564  1.00  0.00     0.031 C 
ATOM     43  C   UNL A   1      39.019  34.102  36.991  1.00  0.00     0.029 A 
ATOM     44  C   UNL A   1      39.929  32.987  36.807  1.00  0.00     0.049 A 
ATOM     45  H   UNL A   1      39.843  31.538  35.303  1.00  0.00     0.167 HD
ATOM     46  C   UNL A   1      40.048  29.327  31.642  1.00  0.00     0.031 A 
ATOM     47  C   UNL A   1      41.022  32.767  37.569  1.00  0.00     0.031 A 
ATOM     48  C   UNL A   1      41.305  29.071  32.287  1.00  0.00     0.049 A 
ATOM     49  C   UNL A   1      41.999  31.717  37.124  1.00  0.00     0.074 A 
ATOM     50  C   UNL A   1      42.329  28.239  31.872  1.00  0.00     0.029 A 
ATOM     51  N   UNL A   1      41.698  29.616  33.499  1.00  0.00    -0.354 N 
ATOM     52  N   UNL A   1      41.987  31.012  36.021  1.00  0.00    -0.248 NA
ATOM     53  C   UNL A   1      43.175  31.485  37.977  1.00  0.00     0.031 C 
ATOM     54  C   UNL A   1      43.314  28.227  32.865  1.00  0.00     0.029 A 
ATOM     55  C   UNL A   1      42.936  29.108  33.865  1.00  0.00     0.049 A 
ATOM     56  H   UNL A   1      41.177  30.267  34.023  1.00  0.00     0.167 HD
ATOM     57  C   UNL A   1      43.182  30.311  36.010  1.00  0.00     0.074 A 
ATOM     58  C   UNL A   1      43.897  30.674  37.216  1.00  0.00     0.031 C 
ATOM     59  C   UNL A   1      43.649  29.460  35.065  1.00  0.00     0.031 A 
BRANCH  46  60
ATOM     60  C   UNL A   1      39.778  28.723  30.299  1.00  0.00    -0.014 A 
ATOM     61  C   UNL A   1      39.353  27.389  30.179  1.00  0.00     0.009 A 
ATOM     62  C   UNL A   1      40.011  29.476  29.141  1.00  0.00     0.009 A 
ATOM     63  C   UNL A   1      39.202  26.811  28.918  1.00  0.00     0.001 A 
ATOM     64  C   UNL A   1      39.836  28.902  27.883  1.00  0.00     0.001 A 
ATOM     65  C   UNL A   1      39.443  27.569  27.772  1.00  0.00     0.000 A 
ENDBRANCH  46  60
BRANCH  47  66
ATOM     66  C   UNL A   1      41.281  33.533  38.832  1.00  0.00    -0.014 A 
ATOM     67  C   UNL A   1      40.716  33.150  40.061  1.00  0.00     0.009 A 
ATOM     68  C   UNL A   1      42.000  34.740  38.781  1.00  0.00     0.009 A 
ATOM     69  C   UNL A   1      40.815  33.979  41.186  1.00  0.00     0.001 A 
ATOM     70  C   UNL A   1      42.122  35.554  39.914  1.00  0.00     0.001 A 
ATOM     71  C   UNL A   1      41.516  35.181  41.112  1.00  0.00     0.000 A 
ENDBRANCH  47  66
BRANCH  59  72
ATOM     72  C   UNL A   1      45.026  28.897  35.272  1.00  0.00    -0.014 A 
ATOM     73  C   UNL A   1      46.171  29.570  34.821  1.00  0.00     0.009 A 
ATOM     74  C   UNL A   1      45.176  27.673  35.943  1.00  0.00     0.009 A 
ATOM     75  C   UNL A   1      47.436  29.003  34.991  1.00  0.00     0.001 A 
ATOM     76  C   UNL A   1      46.443  27.127  36.145  1.00  0.00     0.001 A 
ATOM     77  C   UNL A   1      47.571  27.785  35.657  1.00  0.00     0.000 A 
ENDBRANCH  59  72
ENDBRANCH  33  34
ENDBRANCH  26  28
ENDBRANCH  25  26
ENDBRANCH  24  25
ENDBRANCH  23  24
ENDBRANCH  22  23
ENDBRANCH   1  22
TORSDOF 20
ENDMDL
