MODEL 1
REMARK VINA RESULT:      -9.9      0.000      0.000
REMARK SMILES Cc1ccc2c(c1)O[C@@H](C(=O)OCCOCCOC(=O)c1ccc(-c3c4nc(c(-c5ccccc5)c5ccc([nH]5)c(-c5ccccc5)c5nc(c(-c6ccccc6)c6ccc3[nH]6)C=C5)C=C4)cc1)CC2=O
REMARK SMILES IDX 16 1 15 2 14 3 13 4 12 5 10 6 11 7 9 8 1 9 2 10 3 11 7 12
REMARK SMILES IDX 4 13 6 14 5 15 8 16 70 17 69 18 71 19 17 20 18 21 19 22
REMARK SMILES IDX 20 23 21 24 22 25 68 26 23 27 67 28 24 29 25 30 26 31 61 32
REMARK SMILES IDX 27 33 66 34 60 35 62 36 28 37 65 38 59 39 58 40 29 42 51 43
REMARK SMILES IDX 36 44 50 45 37 46 40 47 49 48 63 49 38 50 39 51 48 53 64 54
REMARK SMILES IDX 41 55 30 56 31 57 35 58 32 59 34 60 33 61 52 62 53 63 57 64
REMARK SMILES IDX 54 65 56 66 55 67 42 68 43 69 47 70 44 71 46 72 45 73
REMARK H PARENT 62 41 40 52
REMARK Flexibility Score: inf
ROOT
ATOM      1  C   UNL A   1      33.207  34.224  28.211  1.00  0.00     0.202 C 
ENDROOT
BRANCH   1   2
ATOM      2  O   UNL A   1      32.830  34.565  29.543  1.00  0.00    -0.374 OA
BRANCH   2   3
ATOM      3  C   UNL A   1      33.162  35.866  30.016  1.00  0.00     0.202 C 
BRANCH   3   4
ATOM      4  C   UNL A   1      32.771  36.206  31.457  1.00  0.00     0.261 C 
BRANCH   4   5
ATOM      5  O   UNL A   1      32.836  35.061  32.325  1.00  0.00    -0.460 OA
BRANCH   5   6
ATOM      6  C   UNL A   1      33.966  34.945  33.078  1.00  0.00     0.347 C 
ATOM      7  O   UNL A   1      34.593  35.889  33.544  1.00  0.00    -0.248 OA
BRANCH   6   8
ATOM      8  C   UNL A   1      34.404  33.482  33.257  1.00  0.00     0.290 C 
ATOM      9  C   UNL A   1      39.466  34.863  36.248  1.00  0.00     0.044 C 
ATOM     10  C   UNL A   1      38.649  34.464  35.055  1.00  0.00    -0.047 A 
ATOM     11  C   UNL A   1      39.224  34.434  33.777  1.00  0.00     0.004 A 
ATOM     12  C   UNL A   1      37.319  34.061  35.221  1.00  0.00     0.050 A 
ATOM     13  C   UNL A   1      38.474  34.022  32.673  1.00  0.00     0.016 A 
ATOM     14  C   UNL A   1      36.564  33.669  34.120  1.00  0.00     0.131 A 
ATOM     15  C   UNL A   1      37.144  33.637  32.853  1.00  0.00     0.060 A 
ATOM     16  O   UNL A   1      35.270  33.311  34.375  1.00  0.00    -0.477 OA
ATOM     17  C   UNL A   1      36.335  33.167  31.715  1.00  0.00     0.170 C 
ATOM     18  C   UNL A   1      34.918  32.768  32.016  1.00  0.00     0.138 C 
ATOM     19  O   UNL A   1      36.823  33.049  30.595  1.00  0.00    -0.294 OA
ENDBRANCH   6   8
ENDBRANCH   5   6
ENDBRANCH   4   5
ENDBRANCH   3   4
ENDBRANCH   2   3
ENDBRANCH   1   2
BRANCH   1  20
ATOM     20  C   UNL A   1      34.420  33.302  28.031  1.00  0.00     0.261 C 
BRANCH  20  21
ATOM     21  O   UNL A   1      34.242  32.033  28.683  1.00  0.00    -0.460 OA
BRANCH  21  22
ATOM     22  C   UNL A   1      34.407  30.943  27.897  1.00  0.00     0.338 C 
ATOM     23  O   UNL A   1      33.718  30.605  26.946  1.00  0.00    -0.246 OA
BRANCH  22  24
ATOM     24  C   UNL A   1      35.701  30.307  28.212  1.00  0.00     0.060 A 
ATOM     25  C   UNL A   1      36.737  30.264  27.279  1.00  0.00     0.016 A 
ATOM     26  C   UNL A   1      35.877  29.775  29.496  1.00  0.00     0.016 A 
ATOM     27  C   UNL A   1      37.967  29.711  27.648  1.00  0.00     0.010 A 
ATOM     28  C   UNL A   1      37.101  29.214  29.858  1.00  0.00     0.010 A 
ATOM     29  C   UNL A   1      38.163  29.197  28.943  1.00  0.00    -0.014 A 
BRANCH  29  30
ATOM     30  C   UNL A   1      39.509  28.758  29.385  1.00  0.00     0.031 A 
ATOM     31  C   UNL A   1      40.093  27.451  28.936  1.00  0.00     0.074 A 
ATOM     32  C   UNL A   1      40.193  29.545  30.237  1.00  0.00     0.049 A 
ATOM     33  N   UNL A   1      41.263  26.939  29.223  1.00  0.00    -0.248 NA
ATOM     34  C   UNL A   1      39.266  26.612  28.057  1.00  0.00     0.031 C 
ATOM     35  C   UNL A   1      39.714  30.825  30.758  1.00  0.00     0.029 A 
ATOM     36  N   UNL A   1      41.431  29.391  30.813  1.00  0.00    -0.354 N 
ATOM     37  C   UNL A   1      41.323  25.728  28.548  1.00  0.00     0.074 A 
ATOM     38  C   UNL A   1      40.054  25.558  27.874  1.00  0.00     0.031 C 
ATOM     39  C   UNL A   1      40.653  31.351  31.559  1.00  0.00     0.029 A 
ATOM     40  C   UNL A   1      41.782  30.428  31.644  1.00  0.00     0.049 A 
ATOM     41  H   UNL A   1      42.010  28.613  30.647  1.00  0.00     0.167 HD
ATOM     42  C   UNL A   1      42.354  24.853  28.488  1.00  0.00     0.031 A 
ATOM     43  C   UNL A   1      42.882  30.618  32.401  1.00  0.00     0.031 A 
ATOM     44  C   UNL A   1      43.607  25.023  29.180  1.00  0.00     0.049 A 
ATOM     45  C   UNL A   1      43.987  29.600  32.361  1.00  0.00     0.074 A 
ATOM     46  C   UNL A   1      44.720  24.199  29.144  1.00  0.00     0.029 A 
ATOM     47  N   UNL A   1      43.912  26.069  30.038  1.00  0.00    -0.354 N 
ATOM     48  N   UNL A   1      44.062  28.497  31.655  1.00  0.00    -0.248 NA
ATOM     49  C   UNL A   1      45.165  29.851  33.205  1.00  0.00     0.031 C 
ATOM     50  C   UNL A   1      45.665  24.703  30.037  1.00  0.00     0.029 A 
ATOM     51  C   UNL A   1      45.181  25.889  30.564  1.00  0.00     0.049 A 
ATOM     52  H   UNL A   1      43.317  26.826  30.240  1.00  0.00     0.167 HD
ATOM     53  C   UNL A   1      45.296  27.935  31.955  1.00  0.00     0.074 A 
ATOM     54  C   UNL A   1      45.948  28.826  32.890  1.00  0.00     0.031 C 
ATOM     55  C   UNL A   1      45.832  26.779  31.493  1.00  0.00     0.031 A 
BRANCH  42  56
ATOM     56  C   UNL A   1      42.207  23.626  27.628  1.00  0.00    -0.014 A 
ATOM     57  C   UNL A   1      41.704  22.438  28.183  1.00  0.00     0.009 A 
ATOM     58  C   UNL A   1      42.714  23.602  26.320  1.00  0.00     0.009 A 
ATOM     59  C   UNL A   1      41.744  21.244  27.460  1.00  0.00     0.001 A 
ATOM     60  C   UNL A   1      42.724  22.414  25.587  1.00  0.00     0.001 A 
ATOM     61  C   UNL A   1      42.254  21.234  26.162  1.00  0.00     0.000 A 
ENDBRANCH  42  56
BRANCH  43  62
ATOM     62  C   UNL A   1      42.979  31.840  33.244  1.00  0.00    -0.014 A 
ATOM     63  C   UNL A   1      42.505  31.831  34.568  1.00  0.00     0.009 A 
ATOM     64  C   UNL A   1      43.481  33.040  32.717  1.00  0.00     0.009 A 
ATOM     65  C   UNL A   1      42.499  33.000  35.330  1.00  0.00     0.001 A 
ATOM     66  C   UNL A   1      43.508  34.199  33.496  1.00  0.00     0.001 A 
ATOM     67  C   UNL A   1      43.004  34.182  34.796  1.00  0.00     0.000 A 
ENDBRANCH  43  62
BRANCH  55  68
ATOM     68  C   UNL A   1      47.202  26.380  31.972  1.00  0.00    -0.014 A 
ATOM     69  C   UNL A   1      48.325  26.643  31.168  1.00  0.00     0.009 A 
ATOM     70  C   UNL A   1      47.365  25.607  33.131  1.00  0.00     0.009 A 
ATOM     71  C   UNL A   1      49.574  26.107  31.494  1.00  0.00     0.001 A 
ATOM     72  C   UNL A   1      48.622  25.101  33.473  1.00  0.00     0.001 A 
ATOM     73  C   UNL A   1      49.720  25.337  32.645  1.00  0.00     0.000 A 
ENDBRANCH  55  68
ENDBRANCH  29  30
ENDBRANCH  22  24
ENDBRANCH  21  22
ENDBRANCH  20  21
ENDBRANCH   1  20
TORSDOF 14
ENDMDL
MODEL 2
REMARK VINA RESULT:      -9.9      0.390      6.067
REMARK SMILES Cc1ccc2c(c1)O[C@@H](C(=O)OCCOCCOC(=O)c1ccc(-c3c4nc(c(-c5ccccc5)c5ccc([nH]5)c(-c5ccccc5)c5nc(c(-c6ccccc6)c6ccc3[nH]6)C=C5)C=C4)cc1)CC2=O
REMARK SMILES IDX 16 1 15 2 14 3 13 4 12 5 10 6 11 7 9 8 1 9 2 10 3 11 7 12
REMARK SMILES IDX 4 13 6 14 5 15 8 16 70 17 69 18 71 19 17 20 18 21 19 22
REMARK SMILES IDX 20 23 21 24 22 25 68 26 23 27 67 28 24 29 25 30 26 31 61 32
REMARK SMILES IDX 27 33 66 34 60 35 62 36 28 37 65 38 59 39 58 40 29 42 51 43
REMARK SMILES IDX 36 44 50 45 37 46 40 47 49 48 63 49 38 50 39 51 48 53 64 54
REMARK SMILES IDX 41 55 30 56 31 57 35 58 32 59 34 60 33 61 52 62 53 63 57 64
REMARK SMILES IDX 54 65 56 66 55 67 42 68 43 69 47 70 44 71 46 72 45 73
REMARK H PARENT 62 41 40 52
REMARK Flexibility Score: inf
ROOT
ATOM      1  C   UNL A   1      34.323  34.452  28.930  1.00  0.00     0.202 C 
ENDROOT
BRANCH   1   2
ATOM      2  O   UNL A   1      33.205  34.542  29.810  1.00  0.00    -0.374 OA
BRANCH   2   3
ATOM      3  C   UNL A   1      32.815  35.835  30.262  1.00  0.00     0.202 C 
BRANCH   3   4
ATOM      4  C   UNL A   1      32.739  36.052  31.775  1.00  0.00     0.261 C 
BRANCH   4   5
ATOM      5  O   UNL A   1      32.980  34.841  32.514  1.00  0.00    -0.460 OA
BRANCH   5   6
ATOM      6  C   UNL A   1      34.136  34.800  33.234  1.00  0.00     0.347 C 
ATOM      7  O   UNL A   1      34.722  35.784  33.668  1.00  0.00    -0.248 OA
BRANCH   6   8
ATOM      8  C   UNL A   1      34.660  33.366  33.420  1.00  0.00     0.290 C 
ATOM      9  C   UNL A   1      39.821  35.084  36.045  1.00  0.00     0.044 C 
ATOM     10  C   UNL A   1      38.953  34.612  34.917  1.00  0.00    -0.047 A 
ATOM     11  C   UNL A   1      39.447  34.576  33.605  1.00  0.00     0.004 A 
ATOM     12  C   UNL A   1      37.659  34.147  35.178  1.00  0.00     0.050 A 
ATOM     13  C   UNL A   1      38.651  34.095  32.563  1.00  0.00     0.016 A 
ATOM     14  C   UNL A   1      36.858  33.686  34.137  1.00  0.00     0.131 A 
ATOM     15  C   UNL A   1      37.358  33.649  32.837  1.00  0.00     0.060 A 
ATOM     16  O   UNL A   1      35.602  33.270  34.483  1.00  0.00    -0.477 OA
ATOM     17  C   UNL A   1      36.504  33.107  31.765  1.00  0.00     0.170 C 
ATOM     18  C   UNL A   1      35.132  32.645  32.166  1.00  0.00     0.138 C 
ATOM     19  O   UNL A   1      36.926  32.984  30.619  1.00  0.00    -0.294 OA
ENDBRANCH   6   8
ENDBRANCH   5   6
ENDBRANCH   4   5
ENDBRANCH   3   4
ENDBRANCH   2   3
ENDBRANCH   1   2
BRANCH   1  20
ATOM     20  C   UNL A   1      34.408  33.223  28.015  1.00  0.00     0.261 C 
BRANCH  20  21
ATOM     21  O   UNL A   1      34.303  31.990  28.747  1.00  0.00    -0.460 OA
BRANCH  21  22
ATOM     22  C   UNL A   1      34.445  30.861  28.013  1.00  0.00     0.338 C 
ATOM     23  O   UNL A   1      33.715  30.462  27.117  1.00  0.00    -0.246 OA
BRANCH  22  24
ATOM     24  C   UNL A   1      35.761  30.258  28.297  1.00  0.00     0.060 A 
ATOM     25  C   UNL A   1      36.773  30.235  27.337  1.00  0.00     0.016 A 
ATOM     26  C   UNL A   1      35.985  29.739  29.578  1.00  0.00     0.016 A 
ATOM     27  C   UNL A   1      38.026  29.713  27.675  1.00  0.00     0.010 A 
ATOM     28  C   UNL A   1      37.232  29.210  29.911  1.00  0.00     0.010 A 
ATOM     29  C   UNL A   1      38.269  29.213  28.968  1.00  0.00    -0.014 A 
BRANCH  29  30
ATOM     30  C   UNL A   1      39.636  28.809  29.376  1.00  0.00     0.031 A 
ATOM     31  C   UNL A   1      40.503  29.709  30.206  1.00  0.00     0.074 A 
ATOM     32  C   UNL A   1      40.107  27.620  28.956  1.00  0.00     0.049 A 
ATOM     33  N   UNL A   1      41.713  29.489  30.656  1.00  0.00    -0.248 NA
ATOM     34  C   UNL A   1      39.951  31.020  30.577  1.00  0.00     0.031 C 
ATOM     35  C   UNL A   1      39.361  26.673  28.126  1.00  0.00     0.029 A 
ATOM     36  N   UNL A   1      41.316  27.002  29.164  1.00  0.00    -0.354 N 
ATOM     37  C   UNL A   1      42.060  30.621  31.379  1.00  0.00     0.074 A 
ATOM     38  C   UNL A   1      40.954  31.547  31.270  1.00  0.00     0.031 C 
ATOM     39  C   UNL A   1      40.118  25.587  27.913  1.00  0.00     0.029 A 
ATOM     40  C   UNL A   1      41.419  25.775  28.553  1.00  0.00     0.049 A 
ATOM     41  H   UNL A   1      42.040  27.400  29.699  1.00  0.00     0.167 HD
ATOM     42  C   UNL A   1      43.195  30.851  32.083  1.00  0.00     0.031 A 
ATOM     43  C   UNL A   1      42.442  24.899  28.500  1.00  0.00     0.031 A 
ATOM     44  C   UNL A   1      44.299  29.928  32.168  1.00  0.00     0.049 A 
ATOM     45  C   UNL A   1      43.713  25.206  29.241  1.00  0.00     0.074 A 
ATOM     46  C   UNL A   1      45.473  30.068  32.890  1.00  0.00     0.029 A 
ATOM     47  N   UNL A   1      44.378  28.711  31.509  1.00  0.00    -0.354 N 
ATOM     48  N   UNL A   1      43.997  26.247  29.986  1.00  0.00    -0.248 NA
ATOM     49  C   UNL A   1      44.800  24.220  29.151  1.00  0.00     0.031 C 
ATOM     50  C   UNL A   1      46.293  28.977  32.606  1.00  0.00     0.029 A 
ATOM     51  C   UNL A   1      45.598  28.110  31.778  1.00  0.00     0.049 A 
ATOM     52  H   UNL A   1      43.674  28.330  30.937  1.00  0.00     0.167 HD
ATOM     53  C   UNL A   1      45.283  26.034  30.467  1.00  0.00     0.074 A 
ATOM     54  C   UNL A   1      45.718  24.755  29.948  1.00  0.00     0.031 C 
ATOM     55  C   UNL A   1      46.030  26.835  31.265  1.00  0.00     0.031 A 
BRANCH  42  56
ATOM     56  C   UNL A   1      43.317  32.140  32.848  1.00  0.00    -0.014 A 
ATOM     57  C   UNL A   1      42.877  32.210  34.180  1.00  0.00     0.009 A 
ATOM     58  C   UNL A   1      43.716  33.322  32.202  1.00  0.00     0.009 A 
ATOM     59  C   UNL A   1      42.801  33.438  34.839  1.00  0.00     0.001 A 
ATOM     60  C   UNL A   1      43.668  34.545  32.875  1.00  0.00     0.001 A 
ATOM     61  C   UNL A   1      43.196  34.605  34.185  1.00  0.00     0.000 A 
ENDBRANCH  42  56
BRANCH  43  62
ATOM     62  C   UNL A   1      42.279  23.641  27.722  1.00  0.00    -0.014 A 
ATOM     63  C   UNL A   1      42.661  23.587  26.369  1.00  0.00     0.009 A 
ATOM     64  C   UNL A   1      41.682  22.510  28.298  1.00  0.00     0.009 A 
ATOM     65  C   UNL A   1      42.417  22.445  25.605  1.00  0.00     0.001 A 
ATOM     66  C   UNL A   1      41.474  21.354  27.540  1.00  0.00     0.001 A 
ATOM     67  C   UNL A   1      41.828  21.328  26.192  1.00  0.00     0.000 A 
ENDBRANCH  43  62
BRANCH  55  68
ATOM     68  C   UNL A   1      47.411  26.376  31.652  1.00  0.00    -0.014 A 
ATOM     69  C   UNL A   1      48.481  26.559  30.759  1.00  0.00     0.009 A 
ATOM     70  C   UNL A   1      47.622  25.625  32.817  1.00  0.00     0.009 A 
ATOM     71  C   UNL A   1      49.721  25.966  31.005  1.00  0.00     0.001 A 
ATOM     72  C   UNL A   1      48.874  25.062  33.078  1.00  0.00     0.001 A 
ATOM     73  C   UNL A   1      49.916  25.219  32.164  1.00  0.00     0.000 A 
ENDBRANCH  55  68
ENDBRANCH  29  30
ENDBRANCH  22  24
ENDBRANCH  21  22
ENDBRANCH  20  21
ENDBRANCH   1  20
TORSDOF 14
ENDMDL
MODEL 3
REMARK VINA RESULT:      -9.2      5.544     11.324
REMARK SMILES Cc1ccc2c(c1)O[C@@H](C(=O)OCCOCCOC(=O)c1ccc(-c3c4nc(c(-c5ccccc5)c5ccc([nH]5)c(-c5ccccc5)c5nc(c(-c6ccccc6)c6ccc3[nH]6)C=C5)C=C4)cc1)CC2=O
REMARK SMILES IDX 16 1 15 2 14 3 13 4 12 5 10 6 11 7 9 8 1 9 2 10 3 11 7 12
REMARK SMILES IDX 4 13 6 14 5 15 8 16 70 17 69 18 71 19 17 20 18 21 19 22
REMARK SMILES IDX 20 23 21 24 22 25 68 26 23 27 67 28 24 29 25 30 26 31 61 32
REMARK SMILES IDX 27 33 66 34 60 35 62 36 28 37 65 38 59 39 58 40 29 42 51 43
REMARK SMILES IDX 36 44 50 45 37 46 40 47 49 48 63 49 38 50 39 51 48 53 64 54
REMARK SMILES IDX 41 55 30 56 31 57 35 58 32 59 34 60 33 61 52 62 53 63 57 64
REMARK SMILES IDX 54 65 56 66 55 67 42 68 43 69 47 70 44 71 46 72 45 73
REMARK H PARENT 62 41 40 52
REMARK Flexibility Score: inf
ROOT
ATOM      1  C   UNL A   1      39.019  21.408  25.792  1.00  0.00     0.202 C 
ENDROOT
BRANCH   1   2
ATOM      2  O   UNL A   1      37.622  21.638  25.627  1.00  0.00    -0.374 OA
BRANCH   2   3
ATOM      3  C   UNL A   1      37.163  22.986  25.641  1.00  0.00     0.202 C 
BRANCH   3   4
ATOM      4  C   UNL A   1      35.696  23.220  26.012  1.00  0.00     0.261 C 
BRANCH   4   5
ATOM      5  O   UNL A   1      34.840  22.158  25.555  1.00  0.00    -0.460 OA
BRANCH   5   6
ATOM      6  C   UNL A   1      34.155  22.397  24.401  1.00  0.00     0.347 C 
ATOM      7  O   UNL A   1      34.658  22.818  23.366  1.00  0.00    -0.248 OA
BRANCH   6   8
ATOM      8  C   UNL A   1      32.651  22.114  24.543  1.00  0.00     0.290 C 
ATOM      9  C   UNL A   1      33.372  16.204  25.558  1.00  0.00     0.044 C 
ATOM     10  C   UNL A   1      33.058  17.422  24.741  1.00  0.00    -0.047 A 
ATOM     11  C   UNL A   1      32.900  17.326  23.351  1.00  0.00     0.004 A 
ATOM     12  C   UNL A   1      32.860  18.656  25.371  1.00  0.00     0.050 A 
ATOM     13  C   UNL A   1      32.566  18.453  22.597  1.00  0.00     0.016 A 
ATOM     14  C   UNL A   1      32.546  19.784  24.620  1.00  0.00     0.131 A 
ATOM     15  C   UNL A   1      32.387  19.679  23.239  1.00  0.00     0.060 A 
ATOM     16  O   UNL A   1      32.391  20.949  25.319  1.00  0.00    -0.477 OA
ATOM     17  C   UNL A   1      32.003  20.881  22.477  1.00  0.00     0.170 C 
ATOM     18  C   UNL A   1      31.827  22.149  23.263  1.00  0.00     0.138 C 
ATOM     19  O   UNL A   1      31.778  20.823  21.272  1.00  0.00    -0.294 OA
ENDBRANCH   6   8
ENDBRANCH   5   6
ENDBRANCH   4   5
ENDBRANCH   3   4
ENDBRANCH   2   3
ENDBRANCH   1   2
BRANCH   1  20
ATOM     20  C   UNL A   1      39.529  19.973  25.600  1.00  0.00     0.261 C 
BRANCH  20  21
ATOM     21  O   UNL A   1      40.556  19.628  26.545  1.00  0.00    -0.460 OA
BRANCH  21  22
ATOM     22  C   UNL A   1      41.828  19.833  26.128  1.00  0.00     0.338 C 
ATOM     23  O   UNL A   1      42.473  19.142  25.353  1.00  0.00    -0.246 OA
BRANCH  22  24
ATOM     24  C   UNL A   1      42.278  21.164  26.575  1.00  0.00     0.060 A 
ATOM     25  C   UNL A   1      42.697  22.136  25.666  1.00  0.00     0.016 A 
ATOM     26  C   UNL A   1      42.241  21.445  27.947  1.00  0.00     0.016 A 
ATOM     27  C   UNL A   1      43.051  23.405  26.134  1.00  0.00     0.010 A 
ATOM     28  C   UNL A   1      42.603  22.708  28.413  1.00  0.00     0.010 A 
ATOM     29  C   UNL A   1      42.991  23.705  27.507  1.00  0.00    -0.014 A 
BRANCH  29  30
ATOM     30  C   UNL A   1      43.211  25.091  27.987  1.00  0.00     0.031 A 
ATOM     31  C   UNL A   1      42.069  26.047  28.167  1.00  0.00     0.074 A 
ATOM     32  C   UNL A   1      44.473  25.495  28.229  1.00  0.00     0.049 A 
ATOM     33  N   UNL A   1      42.100  27.284  28.596  1.00  0.00    -0.248 NA
ATOM     34  C   UNL A   1      40.725  25.561  27.825  1.00  0.00     0.031 C 
ATOM     35  C   UNL A   1      45.662  24.658  28.065  1.00  0.00     0.029 A 
ATOM     36  N   UNL A   1      44.968  26.701  28.660  1.00  0.00    -0.354 N 
ATOM     37  C   UNL A   1      40.783  27.719  28.593  1.00  0.00     0.074 A 
ATOM     38  C   UNL A   1      39.980  26.631  28.077  1.00  0.00     0.031 C 
ATOM     39  C   UNL A   1      46.746  25.367  28.412  1.00  0.00     0.029 A 
ATOM     40  C   UNL A   1      46.337  26.720  28.781  1.00  0.00     0.049 A 
ATOM     41  H   UNL A   1      44.397  27.476  28.863  1.00  0.00     0.167 HD
ATOM     42  C   UNL A   1      40.295  28.914  29.004  1.00  0.00     0.031 A 
ATOM     43  C   UNL A   1      47.177  27.713  29.138  1.00  0.00     0.031 A 
ATOM     44  C   UNL A   1      41.106  29.998  29.498  1.00  0.00     0.049 A 
ATOM     45  C   UNL A   1      46.612  29.049  29.532  1.00  0.00     0.074 A 
ATOM     46  C   UNL A   1      40.687  31.231  29.969  1.00  0.00     0.029 A 
ATOM     47  N   UNL A   1      42.491  29.991  29.574  1.00  0.00    -0.354 N 
ATOM     48  N   UNL A   1      45.356  29.421  29.600  1.00  0.00    -0.248 NA
ATOM     49  C   UNL A   1      47.569  30.100  29.912  1.00  0.00     0.031 C 
ATOM     50  C   UNL A   1      41.817  31.997  30.255  1.00  0.00     0.029 A 
ATOM     51  C   UNL A   1      42.940  31.213  30.048  1.00  0.00     0.049 A 
ATOM     52  H   UNL A   1      43.067  29.231  29.330  1.00  0.00     0.167 HD
ATOM     53  C   UNL A   1      45.371  30.736  30.046  1.00  0.00     0.074 A 
ATOM     54  C   UNL A   1      46.757  31.094  30.253  1.00  0.00     0.031 C 
ATOM     55  C   UNL A   1      44.322  31.568  30.259  1.00  0.00     0.031 A 
BRANCH  42  56
ATOM     56  C   UNL A   1      38.806  29.133  28.968  1.00  0.00    -0.014 A 
ATOM     57  C   UNL A   1      38.204  29.666  27.816  1.00  0.00     0.009 A 
ATOM     58  C   UNL A   1      38.029  28.965  30.124  1.00  0.00     0.009 A 
ATOM     59  C   UNL A   1      36.864  30.057  27.833  1.00  0.00     0.001 A 
ATOM     60  C   UNL A   1      36.680  29.329  30.128  1.00  0.00     0.001 A 
ATOM     61  C   UNL A   1      36.104  29.888  28.989  1.00  0.00     0.000 A 
ENDBRANCH  42  56
BRANCH  43  62
ATOM     62  C   UNL A   1      48.642  27.454  29.149  1.00  0.00    -0.014 A 
ATOM     63  C   UNL A   1      49.272  26.983  30.315  1.00  0.00     0.009 A 
ATOM     64  C   UNL A   1      49.432  27.735  28.024  1.00  0.00     0.009 A 
ATOM     65  C   UNL A   1      50.660  26.835  30.365  1.00  0.00     0.001 A 
ATOM     66  C   UNL A   1      50.816  27.550  28.065  1.00  0.00     0.001 A 
ATOM     67  C   UNL A   1      51.430  27.114  29.239  1.00  0.00     0.000 A 
ENDBRANCH  43  62
BRANCH  55  68
ATOM     68  C   UNL A   1      44.600  32.964  30.748  1.00  0.00    -0.014 A 
ATOM     69  C   UNL A   1      44.866  33.987  29.822  1.00  0.00     0.009 A 
ATOM     70  C   UNL A   1      44.758  33.231  32.116  1.00  0.00     0.009 A 
ATOM     71  C   UNL A   1      45.323  35.235  30.252  1.00  0.00     0.001 A 
ATOM     72  C   UNL A   1      45.182  34.492  32.546  1.00  0.00     0.001 A 
ATOM     73  C   UNL A   1      45.480  35.485  31.613  1.00  0.00     0.000 A 
ENDBRANCH  55  68
ENDBRANCH  29  30
ENDBRANCH  22  24
ENDBRANCH  21  22
ENDBRANCH  20  21
ENDBRANCH   1  20
TORSDOF 14
ENDMDL
