MODEL 1
REMARK VINA RESULT:      -9.1      0.000      0.000
REMARK SMILES O=C(Cc1cn2ccsc2n1)N[C@@H]1C=C[C@H](C(=O)OCCOCCOC(=O)c2ccc(-c3c4nc(c(-c5ccccc5)c5ccc([nH]5)c(-c5ccccc5)c5nc(c(-c6ccccc6)c6ccc3[nH]6)C=C5)C=C4)cc2)C1
REMARK SMILES IDX 21 1 20 2 19 3 17 4 18 5 16 6 13 7 14 8 76 9 15 10 12 11
REMARK SMILES IDX 1 12 2 13 3 15 4 16 5 17 11 18 6 19 10 20 7 21 9 22 8 23
REMARK SMILES IDX 22 24 23 25 24 26 25 27 26 28 27 29 28 30 29 31 75 32 30 33
REMARK SMILES IDX 74 34 31 35 32 36 33 37 68 38 34 39 73 40 67 41 69 42 35 43
REMARK SMILES IDX 72 44 66 45 65 46 36 48 58 49 43 50 57 51 44 52 47 53 56 54
REMARK SMILES IDX 70 55 45 56 46 57 55 59 71 60 48 61 37 62 38 63 42 64 39 65
REMARK SMILES IDX 41 66 40 67 59 68 60 69 64 70 61 71 63 72 62 73 49 74 50 75
REMARK SMILES IDX 54 76 51 77 53 78 52 79
REMARK H PARENT 12 14 69 47 47 58
REMARK Flexibility Score: inf
ROOT
ATOM      1  C   UNL A   1      32.837  35.828  30.055  1.00  0.00     0.202 C 
ENDROOT
BRANCH   1   2
ATOM      2  C   UNL A   1      33.620  36.213  31.317  1.00  0.00     0.261 C 
BRANCH   2   3
ATOM      3  O   UNL A   1      33.629  35.167  32.306  1.00  0.00    -0.463 OA
BRANCH   3   4
ATOM      4  C   UNL A   1      34.890  34.746  32.616  1.00  0.00     0.312 C 
ATOM      5  O   UNL A   1      35.610  35.323  33.428  1.00  0.00    -0.252 OA
BRANCH   4   6
ATOM      6  C   UNL A   1      35.354  33.581  31.731  1.00  0.00     0.124 C 
ATOM      7  C   UNL A   1      36.939  31.899  32.645  1.00  0.00     0.106 C 
ATOM      8  C   UNL A   1      37.638  32.961  31.871  1.00  0.00    -0.006 C 
ATOM      9  C   UNL A   1      35.456  32.170  32.345  1.00  0.00     0.048 C 
ATOM     10  C   UNL A   1      36.781  33.829  31.319  1.00  0.00    -0.014 C 
BRANCH   7  11
ATOM     11  N   UNL A   1      37.348  31.881  34.035  1.00  0.00    -0.350 N 
ATOM     12  O   UNL A   1      38.400  29.852  34.149  1.00  0.00    -0.275 OA
ATOM     13  C   UNL A   1      38.045  30.896  34.688  1.00  0.00     0.226 C 
ATOM     14  H   UNL A   1      37.095  32.666  34.573  1.00  0.00     0.164 HD
BRANCH  13  15
ATOM     15  C   UNL A   1      38.281  31.117  36.174  1.00  0.00     0.157 C 
BRANCH  15  16
ATOM     16  C   UNL A   1      38.791  32.467  36.562  1.00  0.00     0.070 A 
ATOM     17  C   UNL A   1      38.740  33.050  37.828  1.00  0.00     0.118 A 
ATOM     18  N   UNL A   1      39.309  33.361  35.630  1.00  0.00    -0.223 NA
ATOM     19  N   UNL A   1      39.239  34.304  37.654  1.00  0.00    -0.297 N 
ATOM     20  C   UNL A   1      39.582  34.420  36.342  1.00  0.00     0.193 A 
ATOM     21  C   UNL A   1      39.445  35.422  38.429  1.00  0.00     0.104 A 
ATOM     22  S   UNL A   1      40.227  35.997  36.006  1.00  0.00    -0.105 S 
ATOM     23  C   UNL A   1      39.968  36.429  37.708  1.00  0.00     0.087 A 
ENDBRANCH  15  16
ENDBRANCH  13  15
ENDBRANCH   7  11
ENDBRANCH   4   6
ENDBRANCH   3   4
ENDBRANCH   2   3
ENDBRANCH   1   2
BRANCH   1  24
ATOM     24  O   UNL A   1      33.448  36.001  28.775  1.00  0.00    -0.374 OA
BRANCH  24  25
ATOM     25  C   UNL A   1      34.434  35.049  28.399  1.00  0.00     0.202 C 
BRANCH  25  26
ATOM     26  C   UNL A   1      34.031  33.568  28.348  1.00  0.00     0.261 C 
BRANCH  26  27
ATOM     27  O   UNL A   1      35.117  32.675  28.067  1.00  0.00    -0.460 OA
BRANCH  27  28
ATOM     28  C   UNL A   1      34.771  31.366  28.092  1.00  0.00     0.338 C 
ATOM     29  O   UNL A   1      33.674  30.876  27.851  1.00  0.00    -0.246 OA
BRANCH  28  30
ATOM     30  C   UNL A   1      35.968  30.542  28.314  1.00  0.00     0.060 A 
ATOM     31  C   UNL A   1      36.106  29.917  29.561  1.00  0.00     0.016 A 
ATOM     32  C   UNL A   1      36.968  30.438  27.346  1.00  0.00     0.016 A 
ATOM     33  C   UNL A   1      37.270  29.217  29.861  1.00  0.00     0.010 A 
ATOM     34  C   UNL A   1      38.142  29.747  27.655  1.00  0.00     0.010 A 
ATOM     35  C   UNL A   1      38.310  29.166  28.925  1.00  0.00    -0.014 A 
BRANCH  35  36
ATOM     36  C   UNL A   1      39.632  28.645  29.338  1.00  0.00     0.031 A 
ATOM     37  C   UNL A   1      40.482  29.480  30.255  1.00  0.00     0.074 A 
ATOM     38  C   UNL A   1      40.052  27.436  28.929  1.00  0.00     0.049 A 
ATOM     39  N   UNL A   1      41.680  29.240  30.722  1.00  0.00    -0.248 NA
ATOM     40  C   UNL A   1      39.904  30.758  30.703  1.00  0.00     0.031 C 
ATOM     41  C   UNL A   1      39.291  26.518  28.081  1.00  0.00     0.029 A 
ATOM     42  N   UNL A   1      41.228  26.775  29.173  1.00  0.00    -0.354 N 
ATOM     43  C   UNL A   1      42.002  30.338  31.509  1.00  0.00     0.074 A 
ATOM     44  C   UNL A   1      40.889  31.259  31.433  1.00  0.00     0.031 C 
ATOM     45  C   UNL A   1      40.026  25.413  27.871  1.00  0.00     0.029 A 
ATOM     46  C   UNL A   1      41.317  25.562  28.539  1.00  0.00     0.049 A 
ATOM     47  H   UNL A   1      41.940  27.137  29.749  1.00  0.00     0.167 HD
ATOM     48  C   UNL A   1      43.124  30.558  32.234  1.00  0.00     0.031 A 
ATOM     49  C   UNL A   1      42.336  24.684  28.486  1.00  0.00     0.031 A 
ATOM     50  C   UNL A   1      44.235  29.646  32.293  1.00  0.00     0.049 A 
ATOM     51  C   UNL A   1      43.606  24.989  29.235  1.00  0.00     0.074 A 
ATOM     52  C   UNL A   1      45.414  29.767  33.007  1.00  0.00     0.029 A 
ATOM     53  N   UNL A   1      44.304  28.446  31.602  1.00  0.00    -0.354 N 
ATOM     54  N   UNL A   1      43.892  26.019  29.995  1.00  0.00    -0.248 NA
ATOM     55  C   UNL A   1      44.692  24.005  29.123  1.00  0.00     0.031 C 
ATOM     56  C   UNL A   1      46.222  28.669  32.700  1.00  0.00     0.029 A 
ATOM     57  C   UNL A   1      45.519  27.830  31.849  1.00  0.00     0.049 A 
ATOM     58  H   UNL A   1      43.595  28.085  31.023  1.00  0.00     0.167 HD
ATOM     59  C   UNL A   1      45.175  25.792  30.478  1.00  0.00     0.074 A 
ATOM     60  C   UNL A   1      45.606  24.519  29.934  1.00  0.00     0.031 C 
ATOM     61  C   UNL A   1      45.929  26.564  31.298  1.00  0.00     0.031 A 
BRANCH  48  62
ATOM     62  C   UNL A   1      43.219  31.856  32.987  1.00  0.00    -0.014 A 
ATOM     63  C   UNL A   1      42.800  31.961  34.323  1.00  0.00     0.009 A 
ATOM     64  C   UNL A   1      43.762  32.986  32.357  1.00  0.00     0.009 A 
ATOM     65  C   UNL A   1      42.892  33.179  35.001  1.00  0.00     0.001 A 
ATOM     66  C   UNL A   1      43.880  34.196  33.045  1.00  0.00     0.001 A 
ATOM     67  C   UNL A   1      43.436  34.293  34.362  1.00  0.00     0.000 A 
ENDBRANCH  48  62
BRANCH  49  68
ATOM     68  C   UNL A   1      42.209  23.441  27.681  1.00  0.00    -0.014 A 
ATOM     69  C   UNL A   1      42.660  23.396  26.353  1.00  0.00     0.009 A 
ATOM     70  C   UNL A   1      41.617  22.294  28.234  1.00  0.00     0.009 A 
ATOM     71  C   UNL A   1      42.498  22.238  25.588  1.00  0.00     0.001 A 
ATOM     72  C   UNL A   1      41.484  21.127  27.478  1.00  0.00     0.001 A 
ATOM     73  C   UNL A   1      41.915  21.104  26.152  1.00  0.00     0.000 A 
ENDBRANCH  49  68
BRANCH  61  74
ATOM     74  C   UNL A   1      47.281  26.035  31.691  1.00  0.00    -0.014 A 
ATOM     75  C   UNL A   1      48.402  26.202  30.863  1.00  0.00     0.009 A 
ATOM     76  C   UNL A   1      47.440  25.397  32.930  1.00  0.00     0.009 A 
ATOM     77  C   UNL A   1      49.648  25.708  31.255  1.00  0.00     0.001 A 
ATOM     78  C   UNL A   1      48.693  24.934  33.335  1.00  0.00     0.001 A 
ATOM     79  C   UNL A   1      49.793  25.079  32.492  1.00  0.00     0.000 A 
ENDBRANCH  61  74
ENDBRANCH  35  36
ENDBRANCH  28  30
ENDBRANCH  27  28
ENDBRANCH  26  27
ENDBRANCH  25  26
ENDBRANCH  24  25
ENDBRANCH   1  24
TORSDOF 17
ENDMDL
MODEL 2
REMARK VINA RESULT:      -9.1      6.802     12.560
REMARK SMILES O=C(Cc1cn2ccsc2n1)N[C@@H]1C=C[C@H](C(=O)OCCOCCOC(=O)c2ccc(-c3c4nc(c(-c5ccccc5)c5ccc([nH]5)c(-c5ccccc5)c5nc(c(-c6ccccc6)c6ccc3[nH]6)C=C5)C=C4)cc2)C1
REMARK SMILES IDX 21 1 20 2 19 3 17 4 18 5 16 6 13 7 14 8 76 9 15 10 12 11
REMARK SMILES IDX 1 12 2 13 3 15 4 16 5 17 11 18 6 19 10 20 7 21 9 22 8 23
REMARK SMILES IDX 22 24 23 25 24 26 25 27 26 28 27 29 28 30 29 31 75 32 30 33
REMARK SMILES IDX 74 34 31 35 32 36 33 37 68 38 34 39 73 40 67 41 69 42 35 43
REMARK SMILES IDX 72 44 66 45 65 46 36 48 58 49 43 50 57 51 44 52 47 53 56 54
REMARK SMILES IDX 70 55 45 56 46 57 55 59 71 60 48 61 37 62 38 63 42 64 39 65
REMARK SMILES IDX 41 66 40 67 59 68 60 69 64 70 61 71 63 72 62 73 49 74 50 75
REMARK SMILES IDX 54 76 51 77 53 78 52 79
REMARK H PARENT 12 14 69 47 47 58
REMARK Flexibility Score: inf
ROOT
ATOM      1  C   UNL A   1      41.169  22.008  26.104  1.00  0.00     0.202 C 
ENDROOT
BRANCH   1   2
ATOM      2  C   UNL A   1      39.663  22.190  26.336  1.00  0.00     0.261 C 
BRANCH   2   3
ATOM      3  O   UNL A   1      38.907  21.006  26.023  1.00  0.00    -0.463 OA
BRANCH   3   4
ATOM      4  C   UNL A   1      37.761  21.280  25.332  1.00  0.00     0.312 C 
ATOM      5  O   UNL A   1      37.158  20.439  24.670  1.00  0.00    -0.252 OA
BRANCH   4   6
ATOM      6  C   UNL A   1      37.407  22.774  25.353  1.00  0.00     0.124 C 
ATOM      7  C   UNL A   1      35.044  23.480  25.045  1.00  0.00     0.106 C 
ATOM      8  C   UNL A   1      35.811  23.527  23.770  1.00  0.00    -0.006 C 
ATOM      9  C   UNL A   1      36.136  23.231  26.097  1.00  0.00     0.048 C 
ATOM     10  C   UNL A   1      37.100  23.214  23.946  1.00  0.00    -0.014 C 
BRANCH   7  11
ATOM     11  N   UNL A   1      33.946  22.538  24.985  1.00  0.00    -0.350 N 
ATOM     12  O   UNL A   1      32.289  23.738  26.013  1.00  0.00    -0.275 OA
ATOM     13  C   UNL A   1      32.665  22.717  25.446  1.00  0.00     0.226 C 
ATOM     14  H   UNL A   1      34.140  21.668  24.566  1.00  0.00     0.164 HD
BRANCH  13  15
ATOM     15  C   UNL A   1      31.732  21.524  25.306  1.00  0.00     0.157 C 
BRANCH  15  16
ATOM     16  C   UNL A   1      32.356  20.259  24.814  1.00  0.00     0.070 A 
ATOM     17  C   UNL A   1      32.251  19.714  23.534  1.00  0.00     0.118 A 
ATOM     18  N   UNL A   1      33.064  19.404  25.654  1.00  0.00    -0.223 NA
ATOM     19  N   UNL A   1      32.908  18.525  23.607  1.00  0.00    -0.297 N 
ATOM     20  C   UNL A   1      33.388  18.409  24.875  1.00  0.00     0.193 A 
ATOM     21  C   UNL A   1      33.167  17.465  22.769  1.00  0.00     0.104 A 
ATOM     22  S   UNL A   1      34.243  16.911  25.081  1.00  0.00    -0.105 S 
ATOM     23  C   UNL A   1      33.872  16.505  23.393  1.00  0.00     0.087 A 
ENDBRANCH  15  16
ENDBRANCH  13  15
ENDBRANCH   7  11
ENDBRANCH   4   6
ENDBRANCH   3   4
ENDBRANCH   2   3
ENDBRANCH   1   2
BRANCH   1  24
ATOM     24  O   UNL A   1      41.906  21.135  26.962  1.00  0.00    -0.374 OA
BRANCH  24  25
ATOM     25  C   UNL A   1      41.713  19.739  26.779  1.00  0.00     0.202 C 
BRANCH  25  26
ATOM     26  C   UNL A   1      42.766  18.959  25.980  1.00  0.00     0.261 C 
BRANCH  26  27
ATOM     27  O   UNL A   1      43.093  19.544  24.712  1.00  0.00    -0.460 OA
BRANCH  27  28
ATOM     28  C   UNL A   1      44.421  19.696  24.503  1.00  0.00     0.338 C 
ATOM     29  O   UNL A   1      45.203  18.881  24.027  1.00  0.00    -0.246 OA
BRANCH  28  30
ATOM     30  C   UNL A   1      44.814  21.081  24.797  1.00  0.00     0.060 A 
ATOM     31  C   UNL A   1      45.414  21.339  26.037  1.00  0.00     0.016 A 
ATOM     32  C   UNL A   1      44.538  22.120  23.906  1.00  0.00     0.016 A 
ATOM     33  C   UNL A   1      45.703  22.648  26.409  1.00  0.00     0.010 A 
ATOM     34  C   UNL A   1      44.816  23.434  24.287  1.00  0.00     0.010 A 
ATOM     35  C   UNL A   1      45.366  23.704  25.554  1.00  0.00    -0.014 A 
BRANCH  35  36
ATOM     36  C   UNL A   1      45.440  25.094  26.055  1.00  0.00     0.031 A 
ATOM     37  C   UNL A   1      46.763  25.808  26.012  1.00  0.00     0.074 A 
ATOM     38  C   UNL A   1      44.341  25.719  26.510  1.00  0.00     0.049 A 
ATOM     39  N   UNL A   1      47.069  27.011  26.421  1.00  0.00    -0.248 NA
ATOM     40  C   UNL A   1      47.892  25.062  25.432  1.00  0.00     0.031 C 
ATOM     41  C   UNL A   1      42.997  25.143  26.551  1.00  0.00     0.029 A 
ATOM     42  N   UNL A   1      44.186  26.979  27.027  1.00  0.00    -0.354 N 
ATOM     43  C   UNL A   1      48.424  27.164  26.157  1.00  0.00     0.074 A 
ATOM     44  C   UNL A   1      48.889  25.921  25.582  1.00  0.00     0.031 C 
ATOM     45  C   UNL A   1      42.153  26.050  27.073  1.00  0.00     0.029 A 
ATOM     46  C   UNL A   1      42.904  27.250  27.433  1.00  0.00     0.049 A 
ATOM     47  H   UNL A   1      44.924  27.626  27.099  1.00  0.00     0.167 HD
ATOM     48  C   UNL A   1      49.210  28.245  26.371  1.00  0.00     0.031 A 
ATOM     49  C   UNL A   1      42.401  28.338  28.047  1.00  0.00     0.031 A 
ATOM     50  C   UNL A   1      48.745  29.474  26.958  1.00  0.00     0.049 A 
ATOM     51  C   UNL A   1      43.314  29.497  28.350  1.00  0.00     0.074 A 
ATOM     52  C   UNL A   1      49.456  30.634  27.207  1.00  0.00     0.029 A 
ATOM     53  N   UNL A   1      47.448  29.695  27.396  1.00  0.00    -0.354 N 
ATOM     54  N   UNL A   1      44.588  29.640  28.075  1.00  0.00    -0.248 NA
ATOM     55  C   UNL A   1      42.715  30.647  29.041  1.00  0.00     0.031 C 
ATOM     56  C   UNL A   1      48.604  31.536  27.851  1.00  0.00     0.029 A 
ATOM     57  C   UNL A   1      47.344  30.963  27.941  1.00  0.00     0.049 A 
ATOM     58  H   UNL A   1      46.710  29.047  27.328  1.00  0.00     0.167 HD
ATOM     59  C   UNL A   1      44.935  30.906  28.530  1.00  0.00     0.074 A 
ATOM     60  C   UNL A   1      43.733  31.494  29.085  1.00  0.00     0.031 C 
ATOM     61  C   UNL A   1      46.139  31.529  28.490  1.00  0.00     0.031 A 
BRANCH  48  62
ATOM     62  C   UNL A   1      50.664  28.128  26.005  1.00  0.00    -0.014 A 
ATOM     63  C   UNL A   1      51.607  27.612  26.906  1.00  0.00     0.009 A 
ATOM     64  C   UNL A   1      51.090  28.517  24.726  1.00  0.00     0.009 A 
ATOM     65  C   UNL A   1      52.954  27.519  26.545  1.00  0.00     0.001 A 
ATOM     66  C   UNL A   1      52.432  28.397  24.357  1.00  0.00     0.001 A 
ATOM     67  C   UNL A   1      53.363  27.907  25.270  1.00  0.00     0.000 A 
ENDBRANCH  48  62
BRANCH  49  68
ATOM     68  C   UNL A   1      40.967  28.378  28.438  1.00  0.00    -0.014 A 
ATOM     69  C   UNL A   1      40.008  28.955  27.592  1.00  0.00     0.009 A 
ATOM     70  C   UNL A   1      40.552  27.854  29.673  1.00  0.00     0.009 A 
ATOM     71  C   UNL A   1      38.669  29.028  27.985  1.00  0.00     0.001 A 
ATOM     72  C   UNL A   1      39.209  27.900  30.050  1.00  0.00     0.001 A 
ATOM     73  C   UNL A   1      38.270  28.497  29.210  1.00  0.00     0.000 A 
ENDBRANCH  49  68
BRANCH  61  74
ATOM     74  C   UNL A   1      46.206  32.933  29.024  1.00  0.00    -0.014 A 
ATOM     75  C   UNL A   1      46.008  34.045  28.190  1.00  0.00     0.009 A 
ATOM     76  C   UNL A   1      46.430  33.142  30.394  1.00  0.00     0.009 A 
ATOM     77  C   UNL A   1      46.068  35.338  28.714  1.00  0.00     0.001 A 
ATOM     78  C   UNL A   1      46.456  34.434  30.921  1.00  0.00     0.001 A 
ATOM     79  C   UNL A   1      46.286  35.531  30.079  1.00  0.00     0.000 A 
ENDBRANCH  61  74
ENDBRANCH  35  36
ENDBRANCH  28  30
ENDBRANCH  27  28
ENDBRANCH  26  27
ENDBRANCH  25  26
ENDBRANCH  24  25
ENDBRANCH   1  24
TORSDOF 17
ENDMDL
MODEL 3
REMARK VINA RESULT:      -8.9      4.102      8.584
REMARK SMILES O=C(Cc1cn2ccsc2n1)N[C@@H]1C=C[C@H](C(=O)OCCOCCOC(=O)c2ccc(-c3c4nc(c(-c5ccccc5)c5ccc([nH]5)c(-c5ccccc5)c5nc(c(-c6ccccc6)c6ccc3[nH]6)C=C5)C=C4)cc2)C1
REMARK SMILES IDX 21 1 20 2 19 3 17 4 18 5 16 6 13 7 14 8 76 9 15 10 12 11
REMARK SMILES IDX 1 12 2 13 3 15 4 16 5 17 11 18 6 19 10 20 7 21 9 22 8 23
REMARK SMILES IDX 22 24 23 25 24 26 25 27 26 28 27 29 28 30 29 31 75 32 30 33
REMARK SMILES IDX 74 34 31 35 32 36 33 37 68 38 34 39 73 40 67 41 69 42 35 43
REMARK SMILES IDX 72 44 66 45 65 46 36 48 58 49 43 50 57 51 44 52 47 53 56 54
REMARK SMILES IDX 70 55 45 56 46 57 55 59 71 60 48 61 37 62 38 63 42 64 39 65
REMARK SMILES IDX 41 66 40 67 59 68 60 69 64 70 61 71 63 72 62 73 49 74 50 75
REMARK SMILES IDX 54 76 51 77 53 78 52 79
REMARK H PARENT 12 14 69 47 47 58
REMARK Flexibility Score: inf
ROOT
ATOM      1  C   UNL A   1      33.530  33.081  28.029  1.00  0.00     0.202 C 
ENDROOT
BRANCH   1   2
ATOM      2  C   UNL A   1      34.354  31.790  28.125  1.00  0.00     0.261 C 
BRANCH   2   3
ATOM      3  O   UNL A   1      34.211  30.952  26.964  1.00  0.00    -0.463 OA
BRANCH   3   4
ATOM      4  C   UNL A   1      33.794  29.689  27.273  1.00  0.00     0.312 C 
ATOM      5  O   UNL A   1      34.568  28.758  27.479  1.00  0.00    -0.252 OA
BRANCH   4   6
ATOM      6  C   UNL A   1      32.269  29.536  27.180  1.00  0.00     0.124 C 
ATOM      7  C   UNL A   1      31.300  27.801  25.687  1.00  0.00     0.106 C 
ATOM      8  C   UNL A   1      31.354  29.135  25.030  1.00  0.00    -0.006 C 
ATOM      9  C   UNL A   1      31.661  28.119  27.147  1.00  0.00     0.048 C 
ATOM     10  C   UNL A   1      31.812  30.085  25.854  1.00  0.00    -0.014 C 
BRANCH   7  11
ATOM     11  N   UNL A   1      32.110  26.820  24.996  1.00  0.00    -0.350 N 
ATOM     12  O   UNL A   1      33.875  28.113  24.323  1.00  0.00    -0.275 OA
ATOM     13  C   UNL A   1      33.321  27.019  24.381  1.00  0.00     0.226 C 
ATOM     14  H   UNL A   1      31.750  25.904  24.961  1.00  0.00     0.164 HD
BRANCH  13  15
ATOM     15  C   UNL A   1      33.917  25.813  23.673  1.00  0.00     0.157 C 
BRANCH  15  16
ATOM     16  C   UNL A   1      33.933  24.538  24.451  1.00  0.00     0.070 A 
ATOM     17  C   UNL A   1      33.892  23.242  23.939  1.00  0.00     0.118 A 
ATOM     18  N   UNL A   1      33.893  24.517  25.842  1.00  0.00    -0.223 NA
ATOM     19  N   UNL A   1      33.833  22.436  25.033  1.00  0.00    -0.297 N 
ATOM     20  C   UNL A   1      33.864  23.244  26.128  1.00  0.00     0.193 A 
ATOM     21  C   UNL A   1      33.732  21.087  25.286  1.00  0.00     0.104 A 
ATOM     22  S   UNL A   1      33.786  22.311  27.591  1.00  0.00    -0.105 S 
ATOM     23  C   UNL A   1      33.691  20.837  26.606  1.00  0.00     0.087 A 
ENDBRANCH  15  16
ENDBRANCH  13  15
ENDBRANCH   7  11
ENDBRANCH   4   6
ENDBRANCH   3   4
ENDBRANCH   2   3
ENDBRANCH   1   2
BRANCH   1  24
ATOM     24  O   UNL A   1      34.201  34.322  27.804  1.00  0.00    -0.374 OA
BRANCH  24  25
ATOM     25  C   UNL A   1      34.288  35.215  28.907  1.00  0.00     0.202 C 
BRANCH  25  26
ATOM     26  C   UNL A   1      32.983  35.764  29.500  1.00  0.00     0.261 C 
BRANCH  26  27
ATOM     27  O   UNL A   1      32.523  35.057  30.660  1.00  0.00    -0.460 OA
BRANCH  27  28
ATOM     28  C   UNL A   1      32.856  35.647  31.831  1.00  0.00     0.338 C 
ATOM     29  O   UNL A   1      32.264  36.551  32.410  1.00  0.00    -0.246 OA
BRANCH  28  30
ATOM     30  C   UNL A   1      33.994  34.940  32.436  1.00  0.00     0.060 A 
ATOM     31  C   UNL A   1      35.236  35.588  32.439  1.00  0.00     0.016 A 
ATOM     32  C   UNL A   1      33.863  33.640  32.929  1.00  0.00     0.016 A 
ATOM     33  C   UNL A   1      36.367  34.921  32.898  1.00  0.00     0.010 A 
ATOM     34  C   UNL A   1      35.002  32.967  33.377  1.00  0.00     0.010 A 
ATOM     35  C   UNL A   1      36.261  33.593  33.329  1.00  0.00    -0.014 A 
BRANCH  35  36
ATOM     36  C   UNL A   1      37.493  32.810  33.574  1.00  0.00     0.031 A 
ATOM     37  C   UNL A   1      38.251  33.037  34.852  1.00  0.00     0.074 A 
ATOM     38  C   UNL A   1      37.910  31.892  32.686  1.00  0.00     0.049 A 
ATOM     39  N   UNL A   1      39.365  32.490  35.264  1.00  0.00    -0.248 NA
ATOM     40  C   UNL A   1      37.676  34.015  35.791  1.00  0.00     0.031 C 
ATOM     41  C   UNL A   1      37.228  31.550  31.438  1.00  0.00     0.029 A 
ATOM     42  N   UNL A   1      39.013  31.078  32.703  1.00  0.00    -0.354 N 
ATOM     43  C   UNL A   1      39.629  33.062  36.501  1.00  0.00     0.074 A 
ATOM     44  C   UNL A   1      38.578  34.021  36.761  1.00  0.00     0.031 C 
ATOM     45  C   UNL A   1      37.934  30.599  30.805  1.00  0.00     0.029 A 
ATOM     46  C   UNL A   1      39.131  30.292  31.584  1.00  0.00     0.049 A 
ATOM     47  H   UNL A   1      39.658  31.059  33.446  1.00  0.00     0.167 HD
ATOM     48  C   UNL A   1      40.654  32.809  37.348  1.00  0.00     0.031 A 
ATOM     49  C   UNL A   1      40.108  29.440  31.222  1.00  0.00     0.031 A 
ATOM     50  C   UNL A   1      41.706  31.865  37.078  1.00  0.00     0.049 A 
ATOM     51  C   UNL A   1      41.282  29.236  32.144  1.00  0.00     0.074 A 
ATOM     52  C   UNL A   1      42.785  31.524  37.873  1.00  0.00     0.029 A 
ATOM     53  N   UNL A   1      41.813  31.120  35.913  1.00  0.00    -0.354 N 
ATOM     54  N   UNL A   1      41.509  29.764  33.323  1.00  0.00    -0.248 NA
ATOM     55  C   UNL A   1      42.328  28.311  31.687  1.00  0.00     0.031 C 
ATOM     56  C   UNL A   1      43.578  30.617  37.165  1.00  0.00     0.029 A 
ATOM     57  C   UNL A   1      42.957  30.341  35.956  1.00  0.00     0.049 A 
ATOM     58  H   UNL A   1      41.171  31.140  35.167  1.00  0.00     0.167 HD
ATOM     59  C   UNL A   1      42.707  29.212  33.762  1.00  0.00     0.074 A 
ATOM     60  C   UNL A   1      43.149  28.298  32.728  1.00  0.00     0.031 C 
ATOM     61  C   UNL A   1      43.380  29.439  34.917  1.00  0.00     0.031 A 
BRANCH  48  62
ATOM     62  C   UNL A   1      40.706  33.596  38.629  1.00  0.00    -0.014 A 
ATOM     63  C   UNL A   1      41.356  34.838  38.700  1.00  0.00     0.009 A 
ATOM     64  C   UNL A   1      40.070  33.097  39.776  1.00  0.00     0.009 A 
ATOM     65  C   UNL A   1      41.397  35.547  39.903  1.00  0.00     0.001 A 
ATOM     66  C   UNL A   1      40.088  33.821  40.970  1.00  0.00     0.001 A 
ATOM     67  C   UNL A   1      40.759  35.040  41.034  1.00  0.00     0.000 A 
ENDBRANCH  48  62
BRANCH  49  68
ATOM     68  C   UNL A   1      40.034  28.729  29.919  1.00  0.00    -0.014 A 
ATOM     69  C   UNL A   1      39.500  27.434  29.835  1.00  0.00     0.009 A 
ATOM     70  C   UNL A   1      40.516  29.339  28.749  1.00  0.00     0.009 A 
ATOM     71  C   UNL A   1      39.474  26.756  28.614  1.00  0.00     0.001 A 
ATOM     72  C   UNL A   1      40.460  28.671  27.524  1.00  0.00     0.001 A 
ATOM     73  C   UNL A   1      39.949  27.376  27.459  1.00  0.00     0.000 A 
ENDBRANCH  49  68
BRANCH  61  74
ATOM     74  C   UNL A   1      44.643  28.655  35.142  1.00  0.00    -0.014 A 
ATOM     75  C   UNL A   1      45.896  29.158  34.756  1.00  0.00     0.009 A 
ATOM     76  C   UNL A   1      44.580  27.412  35.790  1.00  0.00     0.009 A 
ATOM     77  C   UNL A   1      47.055  28.413  34.984  1.00  0.00     0.001 A 
ATOM     78  C   UNL A   1      45.743  26.684  36.047  1.00  0.00     0.001 A 
ATOM     79  C   UNL A   1      46.978  27.180  35.634  1.00  0.00     0.000 A 
ENDBRANCH  61  74
ENDBRANCH  35  36
ENDBRANCH  28  30
ENDBRANCH  27  28
ENDBRANCH  26  27
ENDBRANCH  25  26
ENDBRANCH  24  25
ENDBRANCH   1  24
TORSDOF 17
ENDMDL
