MODEL 1
REMARK VINA RESULT:     -11.2      0.000      0.000
REMARK SMILES O=C(CCC(=O)N1Cc2[nH]cnc2C[C@H]1C(=O)NCc1ccccc1)OCCOCCOC(=O)c1ccc(-c2c3nc(c(-c4ccccc4)c4ccc([nH]4)c(-c4ccccc4)c4nc(c(-c5ccccc5)c5ccc2[nH]5)C=C4)C=C3)cc1
REMARK SMILES IDX 27 1 26 2 2 3 1 4 3 5 4 6 5 7 6 8 7 9 8 10 15 11 9 12 14 13
REMARK SMILES IDX 10 14 13 15 11 16 12 18 16 19 17 20 18 21 19 23 20 24 21 25
REMARK SMILES IDX 25 26 22 27 24 28 23 29 28 30 29 31 30 32 31 33 32 34 33 35
REMARK SMILES IDX 34 36 35 37 36 38 82 39 37 40 81 41 38 42 39 43 40 44 75 45
REMARK SMILES IDX 41 46 80 47 74 48 76 49 42 50 79 51 73 52 72 53 43 55 65 56
REMARK SMILES IDX 50 57 64 58 51 59 54 60 63 61 77 62 52 63 53 64 62 66 78 67
REMARK SMILES IDX 55 68 44 69 45 70 49 71 46 72 48 73 47 74 66 75 67 76 71 77
REMARK SMILES IDX 68 78 70 79 69 80 56 81 57 82 61 83 58 84 60 85 59 86
REMARK H PARENT 10 17 18 22 76 54 54 65
REMARK Flexibility Score: inf
ROOT
ATOM      1  C   UNL A   1      34.221  32.436  28.230  1.00  0.00     0.261 C 
ENDROOT
BRANCH   1   2
ATOM      2  O   UNL A   1      34.726  31.199  27.693  1.00  0.00    -0.463 OA
BRANCH   2   3
ATOM      3  C   UNL A   1      33.973  30.256  27.086  1.00  0.00     0.306 C 
ATOM      4  O   UNL A   1      34.509  29.263  26.597  1.00  0.00    -0.252 OA
BRANCH   3   5
ATOM      5  C   UNL A   1      32.479  30.387  27.130  1.00  0.00     0.132 C 
BRANCH   5   6
ATOM      6  C   UNL A   1      31.815  29.414  26.170  1.00  0.00     0.112 C 
BRANCH   6   7
ATOM      7  C   UNL A   1      31.567  28.049  26.781  1.00  0.00     0.224 C 
ATOM      8  O   UNL A   1      31.208  28.003  27.964  1.00  0.00    -0.275 OA
BRANCH   7   9
ATOM      9  N   UNL A   1      31.768  26.887  26.041  1.00  0.00    -0.324 N 
ATOM     10  C   UNL A   1      30.669  25.906  26.119  1.00  0.00     0.176 C 
ATOM     11  C   UNL A   1      32.992  26.584  25.211  1.00  0.00     0.180 C 
ATOM     12  C   UNL A   1      31.145  24.557  25.783  1.00  0.00     0.058 A 
ATOM     13  C   UNL A   1      33.524  25.135  25.295  1.00  0.00     0.093 C 
ATOM     14  N   UNL A   1      30.401  23.413  25.719  1.00  0.00    -0.347 N 
ATOM     15  C   UNL A   1      32.411  24.182  25.419  1.00  0.00     0.066 A 
ATOM     16  C   UNL A   1      31.244  22.412  25.312  1.00  0.00     0.197 A 
ATOM     17  H   UNL A   1      29.442  23.325  25.925  1.00  0.00     0.167 HD
ATOM     18  N   UNL A   1      32.468  22.853  25.114  1.00  0.00    -0.242 NA
BRANCH  11  19
ATOM     19  C   UNL A   1      33.088  27.216  23.801  1.00  0.00     0.243 C 
ATOM     20  O   UNL A   1      34.074  27.906  23.505  1.00  0.00    -0.273 OA
ATOM     21  N   UNL A   1      32.148  27.137  22.836  1.00  0.00    -0.350 N 
ATOM     22  H   UNL A   1      32.465  27.409  21.944  1.00  0.00     0.163 HD
BRANCH  21  23
ATOM     23  C   UNL A   1      30.766  26.729  22.867  1.00  0.00     0.151 C 
BRANCH  23  24
ATOM     24  C   UNL A   1      29.802  27.890  22.814  1.00  0.00    -0.029 A 
ATOM     25  C   UNL A   1      30.268  29.128  22.347  1.00  0.00     0.005 A 
ATOM     26  C   UNL A   1      28.455  27.788  23.205  1.00  0.00     0.005 A 
ATOM     27  C   UNL A   1      29.411  30.228  22.268  1.00  0.00     0.000 A 
ATOM     28  C   UNL A   1      27.598  28.884  23.112  1.00  0.00     0.000 A 
ATOM     29  C   UNL A   1      28.076  30.104  22.646  1.00  0.00     0.000 A 
ENDBRANCH  23  24
ENDBRANCH  21  23
ENDBRANCH  11  19
ENDBRANCH   7   9
ENDBRANCH   6   7
ENDBRANCH   5   6
ENDBRANCH   3   5
ENDBRANCH   2   3
ENDBRANCH   1   2
BRANCH   1  30
ATOM     30  C   UNL A   1      35.190  33.592  27.996  1.00  0.00     0.202 C 
BRANCH  30  31
ATOM     31  O   UNL A   1      35.090  34.741  28.834  1.00  0.00    -0.374 OA
BRANCH  31  32
ATOM     32  C   UNL A   1      33.978  35.625  28.734  1.00  0.00     0.202 C 
BRANCH  32  33
ATOM     33  C   UNL A   1      32.935  35.650  29.850  1.00  0.00     0.261 C 
BRANCH  33  34
ATOM     34  O   UNL A   1      33.244  34.785  30.937  1.00  0.00    -0.460 OA
BRANCH  34  35
ATOM     35  C   UNL A   1      33.602  35.435  32.059  1.00  0.00     0.338 C 
ATOM     36  O   UNL A   1      33.503  36.642  32.271  1.00  0.00    -0.246 OA
BRANCH  35  37
ATOM     37  C   UNL A   1      34.309  34.535  32.979  1.00  0.00     0.060 A 
ATOM     38  C   UNL A   1      35.434  35.106  33.576  1.00  0.00     0.016 A 
ATOM     39  C   UNL A   1      34.198  33.154  32.761  1.00  0.00     0.016 A 
ATOM     40  C   UNL A   1      36.586  34.360  33.591  1.00  0.00     0.010 A 
ATOM     41  C   UNL A   1      35.352  32.405  32.791  1.00  0.00     0.010 A 
ATOM     42  C   UNL A   1      36.549  33.061  33.069  1.00  0.00    -0.014 A 
BRANCH  42  43
ATOM     43  C   UNL A   1      37.827  32.471  32.733  1.00  0.00     0.031 A 
ATOM     44  C   UNL A   1      38.801  32.425  33.836  1.00  0.00     0.074 A 
ATOM     45  C   UNL A   1      38.106  31.977  31.513  1.00  0.00     0.049 A 
ATOM     46  N   UNL A   1      39.961  32.989  33.898  1.00  0.00    -0.248 NA
ATOM     47  C   UNL A   1      38.384  31.721  35.053  1.00  0.00     0.031 C 
ATOM     48  C   UNL A   1      37.176  31.695  30.416  1.00  0.00     0.029 A 
ATOM     49  N   UNL A   1      39.298  31.510  31.045  1.00  0.00    -0.354 N 
ATOM     50  C   UNL A   1      40.499  32.579  35.110  1.00  0.00     0.074 A 
ATOM     51  C   UNL A   1      39.448  31.905  35.830  1.00  0.00     0.031 C 
ATOM     52  C   UNL A   1      37.791  30.896  29.515  1.00  0.00     0.029 A 
ATOM     53  C   UNL A   1      39.181  30.726  29.910  1.00  0.00     0.049 A 
ATOM     54  H   UNL A   1      40.160  31.711  31.474  1.00  0.00     0.167 HD
ATOM     55  C   UNL A   1      41.834  32.624  35.354  1.00  0.00     0.031 A 
ATOM     56  C   UNL A   1      40.137  29.925  29.385  1.00  0.00     0.031 A 
ATOM     57  C   UNL A   1      42.532  33.528  34.482  1.00  0.00     0.049 A 
ATOM     58  C   UNL A   1      41.449  30.351  29.923  1.00  0.00     0.074 A 
ATOM     59  C   UNL A   1      42.458  34.882  34.219  1.00  0.00     0.029 A 
ATOM     60  N   UNL A   1      43.280  32.990  33.464  1.00  0.00    -0.354 N 
ATOM     61  N   UNL A   1      42.048  31.459  29.594  1.00  0.00    -0.248 NA
ATOM     62  C   UNL A   1      41.956  29.705  31.124  1.00  0.00     0.031 C 
ATOM     63  C   UNL A   1      42.785  35.018  32.839  1.00  0.00     0.029 A 
ATOM     64  C   UNL A   1      43.042  33.740  32.341  1.00  0.00     0.049 A 
ATOM     65  H   UNL A   1      43.877  32.209  33.529  1.00  0.00     0.167 HD
ATOM     66  C   UNL A   1      42.706  31.865  30.746  1.00  0.00     0.074 A 
ATOM     67  C   UNL A   1      42.728  30.685  31.602  1.00  0.00     0.031 C 
ATOM     68  C   UNL A   1      42.918  33.189  31.008  1.00  0.00     0.031 A 
BRANCH  55  69
ATOM     69  C   UNL A   1      42.531  31.549  36.142  1.00  0.00    -0.014 A 
ATOM     70  C   UNL A   1      43.451  31.918  37.136  1.00  0.00     0.009 A 
ATOM     71  C   UNL A   1      42.513  30.192  35.760  1.00  0.00     0.009 A 
ATOM     72  C   UNL A   1      44.336  30.981  37.684  1.00  0.00     0.001 A 
ATOM     73  C   UNL A   1      43.360  29.247  36.339  1.00  0.00     0.001 A 
ATOM     74  C   UNL A   1      44.291  29.648  37.285  1.00  0.00     0.000 A 
ENDBRANCH  55  69
BRANCH  56  75
ATOM     75  C   UNL A   1      39.953  28.655  28.655  1.00  0.00    -0.014 A 
ATOM     76  C   UNL A   1      40.508  28.470  27.382  1.00  0.00     0.009 A 
ATOM     77  C   UNL A   1      39.429  27.527  29.314  1.00  0.00     0.009 A 
ATOM     78  C   UNL A   1      40.557  27.197  26.799  1.00  0.00     0.001 A 
ATOM     79  C   UNL A   1      39.469  26.259  28.731  1.00  0.00     0.001 A 
ATOM     80  C   UNL A   1      40.046  26.092  27.477  1.00  0.00     0.000 A 
ENDBRANCH  56  75
BRANCH  68  81
ATOM     81  C   UNL A   1      42.679  34.173  29.889  1.00  0.00    -0.014 A 
ATOM     82  C   UNL A   1      41.404  34.684  29.594  1.00  0.00     0.009 A 
ATOM     83  C   UNL A   1      43.783  34.705  29.207  1.00  0.00     0.009 A 
ATOM     84  C   UNL A   1      41.231  35.667  28.616  1.00  0.00     0.001 A 
ATOM     85  C   UNL A   1      43.613  35.705  28.243  1.00  0.00     0.001 A 
ATOM     86  C   UNL A   1      42.337  36.180  27.943  1.00  0.00     0.000 A 
ENDBRANCH  68  81
ENDBRANCH  42  43
ENDBRANCH  35  37
ENDBRANCH  34  35
ENDBRANCH  33  34
ENDBRANCH  32  33
ENDBRANCH  31  32
ENDBRANCH  30  31
ENDBRANCH   1  30
TORSDOF 20
ENDMDL
MODEL 2
REMARK VINA RESULT:     -11.2      5.458     10.803
REMARK SMILES O=C(CCC(=O)N1Cc2[nH]cnc2C[C@H]1C(=O)NCc1ccccc1)OCCOCCOC(=O)c1ccc(-c2c3nc(c(-c4ccccc4)c4ccc([nH]4)c(-c4ccccc4)c4nc(c(-c5ccccc5)c5ccc2[nH]5)C=C4)C=C3)cc1
REMARK SMILES IDX 27 1 26 2 2 3 1 4 3 5 4 6 5 7 6 8 7 9 8 10 15 11 9 12 14 13
REMARK SMILES IDX 10 14 13 15 11 16 12 18 16 19 17 20 18 21 19 23 20 24 21 25
REMARK SMILES IDX 25 26 22 27 24 28 23 29 28 30 29 31 30 32 31 33 32 34 33 35
REMARK SMILES IDX 34 36 35 37 36 38 82 39 37 40 81 41 38 42 39 43 40 44 75 45
REMARK SMILES IDX 41 46 80 47 74 48 76 49 42 50 79 51 73 52 72 53 43 55 65 56
REMARK SMILES IDX 50 57 64 58 51 59 54 60 63 61 77 62 52 63 53 64 62 66 78 67
REMARK SMILES IDX 55 68 44 69 45 70 49 71 46 72 48 73 47 74 66 75 67 76 71 77
REMARK SMILES IDX 68 78 70 79 69 80 56 81 57 82 61 83 58 84 60 85 59 86
REMARK H PARENT 10 17 18 22 76 54 54 65
REMARK Flexibility Score: inf
ROOT
ATOM      1  C   UNL A   1      40.245  21.266  26.125  1.00  0.00     0.261 C 
ENDROOT
BRANCH   1   2
ATOM      2  O   UNL A   1      38.860  21.175  25.745  1.00  0.00    -0.463 OA
BRANCH   2   3
ATOM      3  C   UNL A   1      38.053  22.233  25.509  1.00  0.00     0.306 C 
ATOM      4  O   UNL A   1      38.230  23.288  26.115  1.00  0.00    -0.252 OA
BRANCH   3   5
ATOM      5  C   UNL A   1      37.030  22.130  24.416  1.00  0.00     0.132 C 
BRANCH   5   6
ATOM      6  C   UNL A   1      35.692  21.661  24.962  1.00  0.00     0.112 C 
BRANCH   6   7
ATOM      7  C   UNL A   1      34.771  22.803  25.345  1.00  0.00     0.224 C 
ATOM      8  O   UNL A   1      34.820  23.219  26.509  1.00  0.00    -0.275 OA
BRANCH   7   9
ATOM      9  N   UNL A   1      33.879  23.342  24.422  1.00  0.00    -0.324 N 
ATOM     10  C   UNL A   1      34.371  24.539  23.713  1.00  0.00     0.176 C 
ATOM     11  C   UNL A   1      32.500  22.804  24.127  1.00  0.00     0.180 C 
ATOM     12  C   UNL A   1      33.252  25.334  23.187  1.00  0.00     0.058 A 
ATOM     13  C   UNL A   1      31.386  23.861  23.948  1.00  0.00     0.093 C 
ATOM     14  N   UNL A   1      33.333  26.483  22.452  1.00  0.00    -0.347 N 
ATOM     15  C   UNL A   1      31.914  25.061  23.282  1.00  0.00     0.066 A 
ATOM     16  C   UNL A   1      32.049  26.841  22.131  1.00  0.00     0.197 A 
ATOM     17  H   UNL A   1      34.156  26.962  22.201  1.00  0.00     0.167 HD
ATOM     18  N   UNL A   1      31.169  25.989  22.614  1.00  0.00    -0.242 NA
BRANCH  11  19
ATOM     19  C   UNL A   1      32.383  21.590  23.173  1.00  0.00     0.243 C 
ATOM     20  O   UNL A   1      32.194  21.778  21.962  1.00  0.00    -0.273 OA
ATOM     21  N   UNL A   1      32.410  20.292  23.542  1.00  0.00    -0.350 N 
ATOM     22  H   UNL A   1      32.538  19.665  22.793  1.00  0.00     0.163 HD
BRANCH  21  23
ATOM     23  C   UNL A   1      32.287  19.652  24.827  1.00  0.00     0.151 C 
BRANCH  23  24
ATOM     24  C   UNL A   1      33.087  18.377  24.935  1.00  0.00    -0.029 A 
ATOM     25  C   UNL A   1      32.553  17.310  25.674  1.00  0.00     0.005 A 
ATOM     26  C   UNL A   1      34.342  18.203  24.325  1.00  0.00     0.005 A 
ATOM     27  C   UNL A   1      33.250  16.105  25.793  1.00  0.00     0.000 A 
ATOM     28  C   UNL A   1      35.030  16.994  24.433  1.00  0.00     0.000 A 
ATOM     29  C   UNL A   1      34.486  15.948  25.169  1.00  0.00     0.000 A 
ENDBRANCH  23  24
ENDBRANCH  21  23
ENDBRANCH  11  19
ENDBRANCH   7   9
ENDBRANCH   6   7
ENDBRANCH   5   6
ENDBRANCH   3   5
ENDBRANCH   2   3
ENDBRANCH   1   2
BRANCH   1  30
ATOM     30  C   UNL A   1      40.847  19.890  26.403  1.00  0.00     0.202 C 
BRANCH  30  31
ATOM     31  O   UNL A   1      41.807  19.372  25.486  1.00  0.00    -0.374 OA
BRANCH  31  32
ATOM     32  C   UNL A   1      43.190  19.320  25.826  1.00  0.00     0.202 C 
BRANCH  32  33
ATOM     33  C   UNL A   1      44.214  18.949  24.755  1.00  0.00     0.261 C 
BRANCH  33  34
ATOM     34  O   UNL A   1      44.573  20.037  23.911  1.00  0.00    -0.460 OA
BRANCH  34  35
ATOM     35  C   UNL A   1      45.461  20.882  24.466  1.00  0.00     0.338 C 
ATOM     36  O   UNL A   1      46.335  20.594  25.282  1.00  0.00    -0.246 OA
BRANCH  35  37
ATOM     37  C   UNL A   1      45.152  22.271  24.107  1.00  0.00     0.060 A 
ATOM     38  C   UNL A   1      46.203  23.162  24.334  1.00  0.00     0.016 A 
ATOM     39  C   UNL A   1      43.810  22.676  24.141  1.00  0.00     0.016 A 
ATOM     40  C   UNL A   1      45.904  24.340  24.972  1.00  0.00     0.010 A 
ATOM     41  C   UNL A   1      43.513  23.864  24.768  1.00  0.00     0.010 A 
ATOM     42  C   UNL A   1      44.569  24.604  25.297  1.00  0.00    -0.014 A 
BRANCH  42  43
ATOM     43  C   UNL A   1      44.346  25.624  26.300  1.00  0.00     0.031 A 
ATOM     44  C   UNL A   1      45.403  26.644  26.397  1.00  0.00     0.074 A 
ATOM     45  C   UNL A   1      43.245  25.660  27.074  1.00  0.00     0.049 A 
ATOM     46  N   UNL A   1      46.154  26.918  27.411  1.00  0.00    -0.248 NA
ATOM     47  C   UNL A   1      45.706  27.395  25.174  1.00  0.00     0.031 C 
ATOM     48  C   UNL A   1      42.000  24.905  26.913  1.00  0.00     0.029 A 
ATOM     49  N   UNL A   1      42.979  26.490  28.121  1.00  0.00    -0.354 N 
ATOM     50  C   UNL A   1      46.929  27.996  27.007  1.00  0.00     0.074 A 
ATOM     51  C   UNL A   1      46.702  28.171  25.594  1.00  0.00     0.031 C 
ATOM     52  C   UNL A   1      41.040  25.478  27.673  1.00  0.00     0.029 A 
ATOM     53  C   UNL A   1      41.638  26.544  28.461  1.00  0.00     0.049 A 
ATOM     54  H   UNL A   1      43.674  27.002  28.592  1.00  0.00     0.167 HD
ATOM     55  C   UNL A   1      47.537  28.817  27.901  1.00  0.00     0.031 A 
ATOM     56  C   UNL A   1      41.049  27.461  29.265  1.00  0.00     0.031 A 
ATOM     57  C   UNL A   1      47.691  28.216  29.197  1.00  0.00     0.049 A 
ATOM     58  C   UNL A   1      42.100  28.108  30.081  1.00  0.00     0.074 A 
ATOM     59  C   UNL A   1      48.331  27.092  29.681  1.00  0.00     0.029 A 
ATOM     60  N   UNL A   1      46.851  28.630  30.201  1.00  0.00    -0.354 N 
ATOM     61  N   UNL A   1      42.742  27.516  31.047  1.00  0.00    -0.248 NA
ATOM     62  C   UNL A   1      42.710  29.335  29.593  1.00  0.00     0.031 C 
ATOM     63  C   UNL A   1      47.526  26.636  30.765  1.00  0.00     0.029 A 
ATOM     64  C   UNL A   1      46.445  27.511  30.881  1.00  0.00     0.049 A 
ATOM     65  H   UNL A   1      46.589  29.559  30.397  1.00  0.00     0.167 HD
ATOM     66  C   UNL A   1      44.022  28.050  31.004  1.00  0.00     0.074 A 
ATOM     67  C   UNL A   1      43.903  29.252  30.189  1.00  0.00     0.031 C 
ATOM     68  C   UNL A   1      45.106  27.315  31.396  1.00  0.00     0.031 A 
BRANCH  55  69
ATOM     69  C   UNL A   1      47.639  30.300  27.672  1.00  0.00    -0.014 A 
ATOM     70  C   UNL A   1      46.481  31.025  27.350  1.00  0.00     0.009 A 
ATOM     71  C   UNL A   1      48.874  30.960  27.502  1.00  0.00     0.009 A 
ATOM     72  C   UNL A   1      46.561  32.326  26.841  1.00  0.00     0.001 A 
ATOM     73  C   UNL A   1      48.955  32.274  27.041  1.00  0.00     0.001 A 
ATOM     74  C   UNL A   1      47.797  32.950  26.686  1.00  0.00     0.000 A 
ENDBRANCH  55  69
BRANCH  56  75
ATOM     75  C   UNL A   1      39.673  27.987  29.179  1.00  0.00    -0.014 A 
ATOM     76  C   UNL A   1      38.845  28.023  30.309  1.00  0.00     0.009 A 
ATOM     77  C   UNL A   1      39.249  28.683  28.031  1.00  0.00     0.009 A 
ATOM     78  C   UNL A   1      37.646  28.749  30.297  1.00  0.00     0.001 A 
ATOM     79  C   UNL A   1      38.050  29.399  28.014  1.00  0.00     0.001 A 
ATOM     80  C   UNL A   1      37.255  29.443  29.153  1.00  0.00     0.000 A 
ENDBRANCH  56  75
BRANCH  68  81
ATOM     81  C   UNL A   1      44.849  26.028  32.140  1.00  0.00    -0.014 A 
ATOM     82  C   UNL A   1      44.688  25.984  33.536  1.00  0.00     0.009 A 
ATOM     83  C   UNL A   1      44.626  24.853  31.408  1.00  0.00     0.009 A 
ATOM     84  C   UNL A   1      44.355  24.792  34.184  1.00  0.00     0.001 A 
ATOM     85  C   UNL A   1      44.271  23.664  32.054  1.00  0.00     0.001 A 
ATOM     86  C   UNL A   1      44.143  23.633  33.442  1.00  0.00     0.000 A 
ENDBRANCH  68  81
ENDBRANCH  42  43
ENDBRANCH  35  37
ENDBRANCH  34  35
ENDBRANCH  33  34
ENDBRANCH  32  33
ENDBRANCH  31  32
ENDBRANCH  30  31
ENDBRANCH   1  30
TORSDOF 20
ENDMDL
MODEL 3
REMARK VINA RESULT:     -11.0      1.261      2.191
REMARK SMILES O=C(CCC(=O)N1Cc2[nH]cnc2C[C@H]1C(=O)NCc1ccccc1)OCCOCCOC(=O)c1ccc(-c2c3nc(c(-c4ccccc4)c4ccc([nH]4)c(-c4ccccc4)c4nc(c(-c5ccccc5)c5ccc2[nH]5)C=C4)C=C3)cc1
REMARK SMILES IDX 27 1 26 2 2 3 1 4 3 5 4 6 5 7 6 8 7 9 8 10 15 11 9 12 14 13
REMARK SMILES IDX 10 14 13 15 11 16 12 18 16 19 17 20 18 21 19 23 20 24 21 25
REMARK SMILES IDX 25 26 22 27 24 28 23 29 28 30 29 31 30 32 31 33 32 34 33 35
REMARK SMILES IDX 34 36 35 37 36 38 82 39 37 40 81 41 38 42 39 43 40 44 75 45
REMARK SMILES IDX 41 46 80 47 74 48 76 49 42 50 79 51 73 52 72 53 43 55 65 56
REMARK SMILES IDX 50 57 64 58 51 59 54 60 63 61 77 62 52 63 53 64 62 66 78 67
REMARK SMILES IDX 55 68 44 69 45 70 49 71 46 72 48 73 47 74 66 75 67 76 71 77
REMARK SMILES IDX 68 78 70 79 69 80 56 81 57 82 61 83 58 84 60 85 59 86
REMARK H PARENT 10 17 18 22 76 54 54 65
REMARK Flexibility Score: inf
ROOT
ATOM      1  C   UNL A   1      33.724  30.719  27.317  1.00  0.00     0.261 C 
ENDROOT
BRANCH   1   2
ATOM      2  O   UNL A   1      34.280  29.488  26.818  1.00  0.00    -0.463 OA
BRANCH   2   3
ATOM      3  C   UNL A   1      33.728  28.730  25.846  1.00  0.00     0.306 C 
ATOM      4  O   UNL A   1      33.591  29.188  24.713  1.00  0.00    -0.252 OA
BRANCH   3   5
ATOM      5  C   UNL A   1      33.405  27.296  26.146  1.00  0.00     0.132 C 
BRANCH   5   6
ATOM      6  C   UNL A   1      33.721  26.403  24.957  1.00  0.00     0.112 C 
BRANCH   6   7
ATOM      7  C   UNL A   1      34.306  25.063  25.356  1.00  0.00     0.224 C 
ATOM      8  O   UNL A   1      35.526  24.999  25.545  1.00  0.00    -0.275 OA
BRANCH   7   9
ATOM      9  N   UNL A   1      33.496  23.937  25.475  1.00  0.00    -0.324 N 
ATOM     10  C   UNL A   1      34.113  22.803  26.191  1.00  0.00     0.176 C 
ATOM     11  C   UNL A   1      32.093  23.811  24.931  1.00  0.00     0.180 C 
ATOM     12  C   UNL A   1      33.460  21.537  25.830  1.00  0.00     0.058 A 
ATOM     13  C   UNL A   1      31.743  22.458  24.269  1.00  0.00     0.093 C 
ATOM     14  N   UNL A   1      33.746  20.294  26.321  1.00  0.00    -0.347 N 
ATOM     15  C   UNL A   1      32.408  21.351  24.973  1.00  0.00     0.066 A 
ATOM     16  C   UNL A   1      32.852  19.426  25.750  1.00  0.00     0.197 A 
ATOM     17  H   UNL A   1      34.457  20.067  26.963  1.00  0.00     0.167 HD
ATOM     18  N   UNL A   1      32.023  20.043  24.935  1.00  0.00    -0.242 NA
BRANCH  11  19
ATOM     19  C   UNL A   1      30.937  24.436  25.750  1.00  0.00     0.243 C 
ATOM     20  O   UNL A   1      30.805  24.140  26.946  1.00  0.00    -0.273 OA
ATOM     21  N   UNL A   1      29.984  25.260  25.267  1.00  0.00    -0.350 N 
ATOM     22  H   UNL A   1      29.466  25.725  25.963  1.00  0.00     0.163 HD
BRANCH  21  23
ATOM     23  C   UNL A   1      29.584  25.587  23.921  1.00  0.00     0.151 C 
BRANCH  23  24
ATOM     24  C   UNL A   1      29.473  27.073  23.679  1.00  0.00    -0.029 A 
ATOM     25  C   UNL A   1      28.211  27.613  23.387  1.00  0.00     0.005 A 
ATOM     26  C   UNL A   1      30.574  27.945  23.738  1.00  0.00     0.005 A 
ATOM     27  C   UNL A   1      28.055  28.984  23.167  1.00  0.00     0.000 A 
ATOM     28  C   UNL A   1      30.414  29.315  23.532  1.00  0.00     0.000 A 
ATOM     29  C   UNL A   1      29.156  29.834  23.244  1.00  0.00     0.000 A 
ENDBRANCH  23  24
ENDBRANCH  21  23
ENDBRANCH  11  19
ENDBRANCH   7   9
ENDBRANCH   6   7
ENDBRANCH   5   6
ENDBRANCH   3   5
ENDBRANCH   2   3
ENDBRANCH   1   2
BRANCH   1  30
ATOM     30  C   UNL A   1      34.717  31.472  28.200  1.00  0.00     0.202 C 
BRANCH  30  31
ATOM     31  O   UNL A   1      34.231  32.539  29.009  1.00  0.00    -0.374 OA
BRANCH  31  32
ATOM     32  C   UNL A   1      33.820  33.772  28.425  1.00  0.00     0.202 C 
BRANCH  32  33
ATOM     33  C   UNL A   1      33.296  34.891  29.322  1.00  0.00     0.261 C 
BRANCH  33  34
ATOM     34  O   UNL A   1      34.098  35.120  30.475  1.00  0.00    -0.460 OA
BRANCH  34  35
ATOM     35  C   UNL A   1      33.411  35.064  31.631  1.00  0.00     0.338 C 
ATOM     36  O   UNL A   1      32.290  35.523  31.840  1.00  0.00    -0.246 OA
BRANCH  35  37
ATOM     37  C   UNL A   1      34.248  34.521  32.708  1.00  0.00     0.060 A 
ATOM     38  C   UNL A   1      35.326  35.337  33.053  1.00  0.00     0.016 A 
ATOM     39  C   UNL A   1      34.281  33.129  32.876  1.00  0.00     0.016 A 
ATOM     40  C   UNL A   1      36.552  34.737  33.190  1.00  0.00     0.010 A 
ATOM     41  C   UNL A   1      35.510  32.530  33.027  1.00  0.00     0.010 A 
ATOM     42  C   UNL A   1      36.637  33.348  33.039  1.00  0.00    -0.014 A 
BRANCH  42  43
ATOM     43  C   UNL A   1      37.959  32.813  32.788  1.00  0.00     0.031 A 
ATOM     44  C   UNL A   1      38.887  32.882  33.928  1.00  0.00     0.074 A 
ATOM     45  C   UNL A   1      38.316  32.269  31.609  1.00  0.00     0.049 A 
ATOM     46  N   UNL A   1      40.011  33.513  34.004  1.00  0.00    -0.248 NA
ATOM     47  C   UNL A   1      38.456  32.224  35.167  1.00  0.00     0.031 C 
ATOM     48  C   UNL A   1      37.449  31.875  30.495  1.00  0.00     0.029 A 
ATOM     49  N   UNL A   1      39.550  31.844  31.217  1.00  0.00    -0.354 N 
ATOM     50  C   UNL A   1      40.518  33.202  35.257  1.00  0.00     0.074 A 
ATOM     51  C   UNL A   1      39.475  32.510  35.973  1.00  0.00     0.031 C 
ATOM     52  C   UNL A   1      38.145  31.064  29.666  1.00  0.00     0.029 A 
ATOM     53  C   UNL A   1      39.523  30.994  30.124  1.00  0.00     0.049 A 
ATOM     54  H   UNL A   1      40.381  32.117  31.666  1.00  0.00     0.167 HD
ATOM     55  C   UNL A   1      41.837  33.335  35.550  1.00  0.00     0.031 A 
ATOM     56  C   UNL A   1      40.543  30.220  29.684  1.00  0.00     0.031 A 
ATOM     57  C   UNL A   1      42.522  34.227  34.656  1.00  0.00     0.049 A 
ATOM     58  C   UNL A   1      41.806  30.748  30.248  1.00  0.00     0.074 A 
ATOM     59  C   UNL A   1      42.386  35.558  34.314  1.00  0.00     0.029 A 
ATOM     60  N   UNL A   1      43.340  33.676  33.701  1.00  0.00    -0.354 N 
ATOM     61  N   UNL A   1      42.357  31.868  29.879  1.00  0.00    -0.248 NA
ATOM     62  C   UNL A   1      42.296  30.199  31.503  1.00  0.00     0.031 C 
ATOM     63  C   UNL A   1      42.764  35.636  32.942  1.00  0.00     0.029 A 
ATOM     64  C   UNL A   1      43.110  34.349  32.528  1.00  0.00     0.049 A 
ATOM     65  H   UNL A   1      43.975  32.936  33.834  1.00  0.00     0.167 HD
ATOM     66  C   UNL A   1      42.943  32.373  31.031  1.00  0.00     0.074 A 
ATOM     67  C   UNL A   1      42.992  31.246  31.954  1.00  0.00     0.031 C 
ATOM     68  C   UNL A   1      43.072  33.720  31.225  1.00  0.00     0.031 A 
BRANCH  55  69
ATOM     69  C   UNL A   1      42.557  32.346  36.426  1.00  0.00    -0.014 A 
ATOM     70  C   UNL A   1      43.166  32.795  37.608  1.00  0.00     0.009 A 
ATOM     71  C   UNL A   1      42.883  31.044  35.994  1.00  0.00     0.009 A 
ATOM     72  C   UNL A   1      44.088  31.996  38.295  1.00  0.00     0.001 A 
ATOM     73  C   UNL A   1      43.764  30.226  36.702  1.00  0.00     0.001 A 
ATOM     74  C   UNL A   1      44.387  30.714  37.842  1.00  0.00     0.000 A 
ENDBRANCH  55  69
BRANCH  56  75
ATOM     75  C   UNL A   1      40.458  28.903  29.022  1.00  0.00    -0.014 A 
ATOM     76  C   UNL A   1      39.913  27.797  29.687  1.00  0.00     0.009 A 
ATOM     77  C   UNL A   1      40.694  28.789  27.639  1.00  0.00     0.009 A 
ATOM     78  C   UNL A   1      39.595  26.625  28.988  1.00  0.00     0.001 A 
ATOM     79  C   UNL A   1      40.386  27.618  26.942  1.00  0.00     0.001 A 
ATOM     80  C   UNL A   1      39.824  26.540  27.615  1.00  0.00     0.000 A 
ENDBRANCH  56  75
BRANCH  68  81
ATOM     81  C   UNL A   1      42.829  34.626  30.044  1.00  0.00    -0.014 A 
ATOM     82  C   UNL A   1      43.876  35.139  29.259  1.00  0.00     0.009 A 
ATOM     83  C   UNL A   1      41.511  34.855  29.624  1.00  0.00     0.009 A 
ATOM     84  C   UNL A   1      43.613  35.896  28.114  1.00  0.00     0.001 A 
ATOM     85  C   UNL A   1      41.247  35.593  28.466  1.00  0.00     0.001 A 
ATOM     86  C   UNL A   1      42.298  36.119  27.716  1.00  0.00     0.000 A 
ENDBRANCH  68  81
ENDBRANCH  42  43
ENDBRANCH  35  37
ENDBRANCH  34  35
ENDBRANCH  33  34
ENDBRANCH  32  33
ENDBRANCH  31  32
ENDBRANCH  30  31
ENDBRANCH   1  30
TORSDOF 20
ENDMDL
