MODEL 1
REMARK VINA RESULT:     -12.3      0.000      0.000
REMARK SMILES COc1ccc(-c2[nH]nc3nc(-c4ccc(C(F)(F)F)cc4)cc(C(=O)OCCOCCOC(=O)c4ccc(-c5c6nc(c(-c7ccccc7)c7ccc([nH]7)c(-c7ccccc7)c7nc(c(-c8ccccc8)c8ccc5[nH]8)C=C7)C=C6)cc4)c23)cc1
REMARK SMILES IDX 30 1 29 2 28 3 27 4 25 5 26 6 24 7 7 8 8 9 84 10 9 11 10 13
REMARK SMILES IDX 11 14 23 15 12 16 6 17 3 18 4 19 86 20 5 21 85 22 2 23 1 24
REMARK SMILES IDX 13 25 14 26 22 27 15 28 21 29 16 30 17 31 18 32 19 33 20 34
REMARK SMILES IDX 31 35 32 36 33 37 34 38 35 39 36 40 37 41 83 42 38 43 82 44
REMARK SMILES IDX 39 45 40 46 41 47 76 48 42 49 81 50 75 51 77 52 43 53 80 54
REMARK SMILES IDX 74 55 73 56 44 58 66 59 51 60 65 61 52 62 55 63 64 64 78 65
REMARK SMILES IDX 53 66 54 67 63 69 79 70 56 71 45 72 46 73 50 74 47 75 49 76
REMARK SMILES IDX 48 77 67 78 68 79 72 80 69 81 71 82 70 83 57 84 58 85 62 86
REMARK SMILES IDX 59 87 61 88 60 89
REMARK H PARENT 8 12 77 57 55 68
REMARK Flexibility Score: inf
ROOT
ATOM      1  O   UNL A   1      36.586  22.869  25.560  1.00  0.00    -0.374 OA
ENDROOT
BRANCH   1   2
ATOM      2  C   UNL A   1      36.064  22.030  24.528  1.00  0.00     0.202 C 
BRANCH   2   3
ATOM      3  C   UNL A   1      35.378  22.795  23.393  1.00  0.00     0.261 C 
BRANCH   3   4
ATOM      4  O   UNL A   1      35.107  24.155  23.790  1.00  0.00    -0.460 OA
BRANCH   4   5
ATOM      5  C   UNL A   1      33.932  24.675  23.342  1.00  0.00     0.339 C 
ATOM      6  O   UNL A   1      33.542  24.701  22.193  1.00  0.00    -0.246 OA
BRANCH   5   7
ATOM      7  C   UNL A   1      33.169  25.193  24.490  1.00  0.00     0.075 A 
ATOM      8  C   UNL A   1      31.496  23.338  24.979  1.00  0.00     0.075 A 
ATOM      9  N   UNL A   1      30.361  23.383  25.758  1.00  0.00    -0.275 N 
ATOM     10  C   UNL A   1      32.031  24.618  25.080  1.00  0.00     0.061 A 
ATOM     11  N   UNL A   1      30.223  24.500  26.487  1.00  0.00    -0.154 NA
ATOM     12  H   UNL A   1      29.702  22.651  25.778  1.00  0.00     0.190 HD
ATOM     13  C   UNL A   1      31.253  25.253  26.108  1.00  0.00     0.182 A 
ATOM     14  N   UNL A   1      31.576  26.460  26.633  1.00  0.00    -0.226 NA
ATOM     15  C   UNL A   1      33.492  26.431  25.081  1.00  0.00     0.045 A 
ATOM     16  C   UNL A   1      32.699  27.018  26.098  1.00  0.00     0.074 A 
BRANCH   8  17
ATOM     17  C   UNL A   1      31.953  22.059  24.436  1.00  0.00     0.001 A 
ATOM     18  C   UNL A   1      32.514  19.517  23.349  1.00  0.00     0.118 A 
ATOM     19  C   UNL A   1      32.748  19.790  24.700  1.00  0.00     0.047 A 
ATOM     20  C   UNL A   1      32.083  20.548  22.519  1.00  0.00     0.047 A 
ATOM     21  C   UNL A   1      32.472  21.051  25.244  1.00  0.00     0.014 A 
ATOM     22  C   UNL A   1      31.836  21.818  23.056  1.00  0.00     0.014 A 
BRANCH  18  23
ATOM     23  O   UNL A   1      32.738  18.222  22.971  1.00  0.00    -0.497 OA
ATOM     24  C   UNL A   1      32.925  17.267  24.010  1.00  0.00     0.278 C 
ENDBRANCH  18  23
ENDBRANCH   8  17
BRANCH  16  25
ATOM     25  C   UNL A   1      33.030  28.363  26.629  1.00  0.00     0.000 A 
ATOM     26  C   UNL A   1      32.057  29.373  26.735  1.00  0.00     0.011 A 
ATOM     27  C   UNL A   1      34.344  28.690  27.007  1.00  0.00     0.011 A 
ATOM     28  C   UNL A   1      32.385  30.656  27.197  1.00  0.00     0.014 A 
ATOM     29  C   UNL A   1      34.677  29.969  27.466  1.00  0.00     0.014 A 
ATOM     30  C   UNL A   1      33.702  30.969  27.562  1.00  0.00     0.056 A 
BRANCH  30  31
ATOM     31  C   UNL A   1      34.059  32.361  28.026  1.00  0.00     0.416 C 
ATOM     32  F   UNL A   1      34.207  32.442  29.376  1.00  0.00    -0.166 F 
ATOM     33  F   UNL A   1      35.231  32.803  27.491  1.00  0.00    -0.166 F 
ATOM     34  F   UNL A   1      33.125  33.298  27.698  1.00  0.00    -0.166 F 
ENDBRANCH  30  31
ENDBRANCH  16  25
ENDBRANCH   5   7
ENDBRANCH   4   5
ENDBRANCH   3   4
ENDBRANCH   2   3
ENDBRANCH   1   2
BRANCH   1  35
ATOM     35  C   UNL A   1      37.978  22.702  25.814  1.00  0.00     0.202 C 
BRANCH  35  36
ATOM     36  C   UNL A   1      38.476  21.311  25.458  1.00  0.00     0.261 C 
BRANCH  36  37
ATOM     37  O   UNL A   1      39.402  20.930  26.463  1.00  0.00    -0.460 OA
BRANCH  37  38
ATOM     38  C   UNL A   1      40.469  20.232  26.012  1.00  0.00     0.338 C 
ATOM     39  O   UNL A   1      40.487  19.141  25.472  1.00  0.00    -0.246 OA
BRANCH  38  40
ATOM     40  C   UNL A   1      41.641  21.006  26.427  1.00  0.00     0.060 A 
ATOM     41  C   UNL A   1      41.966  20.835  27.764  1.00  0.00     0.016 A 
ATOM     42  C   UNL A   1      41.975  22.159  25.694  1.00  0.00     0.016 A 
ATOM     43  C   UNL A   1      42.251  21.974  28.468  1.00  0.00     0.010 A 
ATOM     44  C   UNL A   1      42.245  23.298  26.403  1.00  0.00     0.010 A 
ATOM     45  C   UNL A   1      42.250  23.202  27.789  1.00  0.00    -0.014 A 
BRANCH  45  46
ATOM     46  C   UNL A   1      42.390  24.394  28.584  1.00  0.00     0.031 A 
ATOM     47  C   UNL A   1      41.294  25.332  28.301  1.00  0.00     0.074 A 
ATOM     48  C   UNL A   1      43.368  24.583  29.487  1.00  0.00     0.049 A 
ATOM     49  N   UNL A   1      41.344  26.359  27.523  1.00  0.00    -0.248 NA
ATOM     50  C   UNL A   1      39.935  24.923  28.694  1.00  0.00     0.031 C 
ATOM     51  C   UNL A   1      44.336  23.625  30.023  1.00  0.00     0.029 A 
ATOM     52  N   UNL A   1      43.633  25.708  30.193  1.00  0.00    -0.354 N 
ATOM     53  C   UNL A   1      40.053  26.861  27.517  1.00  0.00     0.074 A 
ATOM     54  C   UNL A   1      39.207  25.806  28.014  1.00  0.00     0.031 C 
ATOM     55  C   UNL A   1      44.904  24.149  31.137  1.00  0.00     0.029 A 
ATOM     56  C   UNL A   1      44.440  25.518  31.305  1.00  0.00     0.049 A 
ATOM     57  H   UNL A   1      43.282  26.591  29.939  1.00  0.00     0.167 HD
ATOM     58  C   UNL A   1      39.833  28.200  27.446  1.00  0.00     0.031 A 
ATOM     59  C   UNL A   1      44.628  26.410  32.311  1.00  0.00     0.031 A 
ATOM     60  C   UNL A   1      41.008  28.904  26.997  1.00  0.00     0.049 A 
ATOM     61  C   UNL A   1      44.226  27.745  31.800  1.00  0.00     0.074 A 
ATOM     62  C   UNL A   1      41.784  28.881  25.855  1.00  0.00     0.029 A 
ATOM     63  N   UNL A   1      41.783  29.493  27.972  1.00  0.00    -0.354 N 
ATOM     64  N   UNL A   1      44.881  28.374  30.864  1.00  0.00    -0.248 NA
ATOM     65  C   UNL A   1      42.836  28.151  31.965  1.00  0.00     0.031 C 
ATOM     66  C   UNL A   1      43.124  29.041  26.312  1.00  0.00     0.029 A 
ATOM     67  C   UNL A   1      43.098  29.226  27.695  1.00  0.00     0.049 A 
ATOM     68  H   UNL A   1      41.448  30.016  28.735  1.00  0.00     0.167 HD
ATOM     69  C   UNL A   1      43.899  28.908  30.041  1.00  0.00     0.074 A 
ATOM     70  C   UNL A   1      42.662  28.817  30.818  1.00  0.00     0.031 C 
ATOM     71  C   UNL A   1      44.126  29.092  28.706  1.00  0.00     0.031 A 
BRANCH  58  72
ATOM     72  C   UNL A   1      38.749  28.874  28.248  1.00  0.00    -0.014 A 
ATOM     73  C   UNL A   1      38.313  30.144  27.838  1.00  0.00     0.009 A 
ATOM     74  C   UNL A   1      38.346  28.454  29.532  1.00  0.00     0.009 A 
ATOM     75  C   UNL A   1      37.590  30.975  28.700  1.00  0.00     0.001 A 
ATOM     76  C   UNL A   1      37.590  29.262  30.380  1.00  0.00     0.001 A 
ATOM     77  C   UNL A   1      37.238  30.537  29.974  1.00  0.00     0.000 A 
ENDBRANCH  58  72
BRANCH  59  78
ATOM     78  C   UNL A   1      44.783  26.132  33.759  1.00  0.00    -0.014 A 
ATOM     79  C   UNL A   1      45.843  26.681  34.497  1.00  0.00     0.009 A 
ATOM     80  C   UNL A   1      43.726  25.544  34.479  1.00  0.00     0.009 A 
ATOM     81  C   UNL A   1      45.833  26.663  35.901  1.00  0.00     0.001 A 
ATOM     82  C   UNL A   1      43.714  25.526  35.878  1.00  0.00     0.001 A 
ATOM     83  C   UNL A   1      44.762  26.095  36.590  1.00  0.00     0.000 A 
ENDBRANCH  59  78
BRANCH  71  84
ATOM     84  C   UNL A   1      45.539  28.911  28.201  1.00  0.00    -0.014 A 
ATOM     85  C   UNL A   1      46.079  27.660  27.847  1.00  0.00     0.009 A 
ATOM     86  C   UNL A   1      46.291  30.061  27.924  1.00  0.00     0.009 A 
ATOM     87  C   UNL A   1      47.344  27.568  27.254  1.00  0.00     0.001 A 
ATOM     88  C   UNL A   1      47.544  29.970  27.315  1.00  0.00     0.001 A 
ATOM     89  C   UNL A   1      48.072  28.725  26.984  1.00  0.00     0.000 A 
ENDBRANCH  71  84
ENDBRANCH  45  46
ENDBRANCH  38  40
ENDBRANCH  37  38
ENDBRANCH  36  37
ENDBRANCH  35  36
ENDBRANCH   1  35
TORSDOF 18
ENDMDL
MODEL 2
REMARK VINA RESULT:     -12.2      4.403      8.887
REMARK SMILES COc1ccc(-c2[nH]nc3nc(-c4ccc(C(F)(F)F)cc4)cc(C(=O)OCCOCCOC(=O)c4ccc(-c5c6nc(c(-c7ccccc7)c7ccc([nH]7)c(-c7ccccc7)c7nc(c(-c8ccccc8)c8ccc5[nH]8)C=C7)C=C6)cc4)c23)cc1
REMARK SMILES IDX 30 1 29 2 28 3 27 4 25 5 26 6 24 7 7 8 8 9 84 10 9 11 10 13
REMARK SMILES IDX 11 14 23 15 12 16 6 17 3 18 4 19 86 20 5 21 85 22 2 23 1 24
REMARK SMILES IDX 13 25 14 26 22 27 15 28 21 29 16 30 17 31 18 32 19 33 20 34
REMARK SMILES IDX 31 35 32 36 33 37 34 38 35 39 36 40 37 41 83 42 38 43 82 44
REMARK SMILES IDX 39 45 40 46 41 47 76 48 42 49 81 50 75 51 77 52 43 53 80 54
REMARK SMILES IDX 74 55 73 56 44 58 66 59 51 60 65 61 52 62 55 63 64 64 78 65
REMARK SMILES IDX 53 66 54 67 63 69 79 70 56 71 45 72 46 73 50 74 47 75 49 76
REMARK SMILES IDX 48 77 67 78 68 79 72 80 69 81 71 82 70 83 57 84 58 85 62 86
REMARK SMILES IDX 59 87 61 88 60 89
REMARK H PARENT 8 12 77 57 55 68
REMARK Flexibility Score: inf
ROOT
ATOM      1  O   UNL A   1      33.750  29.709  26.929  1.00  0.00    -0.374 OA
ENDROOT
BRANCH   1   2
ATOM      2  C   UNL A   1      34.025  28.623  26.041  1.00  0.00     0.202 C 
BRANCH   2   3
ATOM      3  C   UNL A   1      32.798  27.774  25.700  1.00  0.00     0.261 C 
BRANCH   3   4
ATOM      4  O   UNL A   1      32.694  26.650  26.598  1.00  0.00    -0.460 OA
BRANCH   4   5
ATOM      5  C   UNL A   1      32.122  25.531  26.076  1.00  0.00     0.339 C 
ATOM      6  O   UNL A   1      31.041  25.064  26.373  1.00  0.00    -0.246 OA
BRANCH   5   7
ATOM      7  C   UNL A   1      33.017  24.969  25.051  1.00  0.00     0.075 A 
ATOM      8  C   UNL A   1      31.762  25.374  22.875  1.00  0.00     0.075 A 
ATOM      9  N   UNL A   1      31.985  24.822  21.633  1.00  0.00    -0.275 N 
ATOM     10  C   UNL A   1      32.746  24.814  23.682  1.00  0.00     0.061 A 
ATOM     11  N   UNL A   1      33.119  24.113  21.529  1.00  0.00    -0.154 NA
ATOM     12  H   UNL A   1      31.361  24.938  20.881  1.00  0.00     0.190 HD
ATOM     13  C   UNL A   1      33.614  24.126  22.765  1.00  0.00     0.182 A 
ATOM     14  N   UNL A   1      34.803  23.593  23.140  1.00  0.00    -0.226 NA
ATOM     15  C   UNL A   1      34.273  24.431  25.397  1.00  0.00     0.045 A 
ATOM     16  C   UNL A   1      35.100  23.765  24.458  1.00  0.00     0.074 A 
BRANCH   8  17
ATOM     17  C   UNL A   1      30.784  26.452  23.024  1.00  0.00     0.001 A 
ATOM     18  C   UNL A   1      28.721  28.376  23.074  1.00  0.00     0.118 A 
ATOM     19  C   UNL A   1      29.986  28.690  22.567  1.00  0.00     0.047 A 
ATOM     20  C   UNL A   1      28.515  27.122  23.641  1.00  0.00     0.047 A 
ATOM     21  C   UNL A   1      31.013  27.737  22.541  1.00  0.00     0.014 A 
ATOM     22  C   UNL A   1      29.551  26.180  23.643  1.00  0.00     0.014 A 
BRANCH  18  23
ATOM     23  O   UNL A   1      27.786  29.366  22.953  1.00  0.00    -0.497 OA
ATOM     24  C   UNL A   1      28.205  30.694  23.254  1.00  0.00     0.278 C 
ENDBRANCH  18  23
ENDBRANCH   8  17
BRANCH  16  25
ATOM     25  C   UNL A   1      36.374  23.140  24.888  1.00  0.00     0.000 A 
ATOM     26  C   UNL A   1      36.687  21.807  24.563  1.00  0.00     0.011 A 
ATOM     27  C   UNL A   1      37.301  23.846  25.674  1.00  0.00     0.011 A 
ATOM     28  C   UNL A   1      37.874  21.207  25.009  1.00  0.00     0.014 A 
ATOM     29  C   UNL A   1      38.485  23.252  26.124  1.00  0.00     0.014 A 
ATOM     30  C   UNL A   1      38.783  21.923  25.800  1.00  0.00     0.056 A 
BRANCH  30  31
ATOM     31  C   UNL A   1      40.043  21.264  26.307  1.00  0.00     0.416 C 
ATOM     32  F   UNL A   1      40.240  21.461  27.639  1.00  0.00    -0.166 F 
ATOM     33  F   UNL A   1      40.035  19.915  26.123  1.00  0.00    -0.166 F 
ATOM     34  F   UNL A   1      41.175  21.715  25.693  1.00  0.00    -0.166 F 
ENDBRANCH  30  31
ENDBRANCH  16  25
ENDBRANCH   5   7
ENDBRANCH   4   5
ENDBRANCH   3   4
ENDBRANCH   2   3
ENDBRANCH   1   2
BRANCH   1  35
ATOM     35  C   UNL A   1      32.402  30.168  26.905  1.00  0.00     0.202 C 
BRANCH  35  36
ATOM     36  C   UNL A   1      32.297  31.683  26.908  1.00  0.00     0.261 C 
BRANCH  36  37
ATOM     37  O   UNL A   1      33.324  32.171  27.757  1.00  0.00    -0.460 OA
BRANCH  37  38
ATOM     38  C   UNL A   1      33.115  33.418  28.237  1.00  0.00     0.338 C 
ATOM     39  O   UNL A   1      32.262  34.222  27.907  1.00  0.00    -0.246 OA
BRANCH  38  40
ATOM     40  C   UNL A   1      34.220  33.667  29.164  1.00  0.00     0.060 A 
ATOM     41  C   UNL A   1      35.212  34.477  28.631  1.00  0.00     0.016 A 
ATOM     42  C   UNL A   1      34.456  32.733  30.189  1.00  0.00     0.016 A 
ATOM     43  C   UNL A   1      36.501  34.064  28.829  1.00  0.00     0.010 A 
ATOM     44  C   UNL A   1      35.746  32.314  30.373  1.00  0.00     0.010 A 
ATOM     45  C   UNL A   1      36.728  32.907  29.589  1.00  0.00    -0.014 A 
BRANCH  45  46
ATOM     46  C   UNL A   1      38.077  32.407  29.642  1.00  0.00     0.031 A 
ATOM     47  C   UNL A   1      38.115  30.988  29.258  1.00  0.00     0.074 A 
ATOM     48  C   UNL A   1      39.144  33.162  29.955  1.00  0.00     0.049 A 
ATOM     49  N   UNL A   1      38.164  29.979  30.058  1.00  0.00    -0.248 NA
ATOM     50  C   UNL A   1      37.775  30.655  27.865  1.00  0.00     0.031 C 
ATOM     51  C   UNL A   1      39.247  34.615  30.094  1.00  0.00     0.029 A 
ATOM     52  N   UNL A   1      40.424  32.750  30.131  1.00  0.00    -0.354 N 
ATOM     53  C   UNL A   1      38.092  28.870  29.231  1.00  0.00     0.074 A 
ATOM     54  C   UNL A   1      37.589  29.340  27.966  1.00  0.00     0.031 C 
ATOM     55  C   UNL A   1      40.557  34.968  30.083  1.00  0.00     0.029 A 
ATOM     56  C   UNL A   1      41.370  33.762  30.076  1.00  0.00     0.049 A 
ATOM     57  H   UNL A   1      40.663  31.809  30.287  1.00  0.00     0.167 HD
ATOM     58  C   UNL A   1      38.779  27.737  29.533  1.00  0.00     0.031 A 
ATOM     59  C   UNL A   1      42.711  33.587  29.951  1.00  0.00     0.031 A 
ATOM     60  C   UNL A   1      39.202  27.728  30.912  1.00  0.00     0.049 A 
ATOM     61  C   UNL A   1      43.016  32.191  30.355  1.00  0.00     0.074 A 
ATOM     62  C   UNL A   1      38.556  27.768  32.131  1.00  0.00     0.029 A 
ATOM     63  N   UNL A   1      40.505  28.100  31.158  1.00  0.00    -0.354 N 
ATOM     64  N   UNL A   1      42.881  31.761  31.579  1.00  0.00    -0.248 NA
ATOM     65  C   UNL A   1      42.985  31.159  29.328  1.00  0.00     0.031 C 
ATOM     66  C   UNL A   1      39.377  28.587  32.960  1.00  0.00     0.029 A 
ATOM     67  C   UNL A   1      40.514  28.946  32.235  1.00  0.00     0.049 A 
ATOM     68  H   UNL A   1      41.294  27.808  30.647  1.00  0.00     0.167 HD
ATOM     69  C   UNL A   1      42.305  30.503  31.452  1.00  0.00     0.074 A 
ATOM     70  C   UNL A   1      42.478  30.149  30.042  1.00  0.00     0.031 C 
ATOM     71  C   UNL A   1      41.483  30.006  32.424  1.00  0.00     0.031 A 
BRANCH  58  72
ATOM     72  C   UNL A   1      39.473  26.918  28.474  1.00  0.00    -0.014 A 
ATOM     73  C   UNL A   1      39.683  25.553  28.722  1.00  0.00     0.009 A 
ATOM     74  C   UNL A   1      40.177  27.476  27.387  1.00  0.00     0.009 A 
ATOM     75  C   UNL A   1      40.608  24.815  27.978  1.00  0.00     0.001 A 
ATOM     76  C   UNL A   1      41.070  26.734  26.614  1.00  0.00     0.001 A 
ATOM     77  C   UNL A   1      41.308  25.408  26.931  1.00  0.00     0.000 A 
ENDBRANCH  58  72
BRANCH  59  78
ATOM     78  C   UNL A   1      43.671  34.413  29.181  1.00  0.00    -0.014 A 
ATOM     79  C   UNL A   1      44.867  34.868  29.757  1.00  0.00     0.009 A 
ATOM     80  C   UNL A   1      43.537  34.526  27.784  1.00  0.00     0.009 A 
ATOM     81  C   UNL A   1      45.899  35.393  28.962  1.00  0.00     0.001 A 
ATOM     82  C   UNL A   1      44.565  35.049  26.990  1.00  0.00     0.001 A 
ATOM     83  C   UNL A   1      45.751  35.472  27.578  1.00  0.00     0.000 A 
ENDBRANCH  59  78
BRANCH  71  84
ATOM     84  C   UNL A   1      41.400  30.761  33.730  1.00  0.00    -0.014 A 
ATOM     85  C   UNL A   1      42.234  30.493  34.832  1.00  0.00     0.009 A 
ATOM     86  C   UNL A   1      40.564  31.884  33.789  1.00  0.00     0.009 A 
ATOM     87  C   UNL A   1      42.209  31.313  35.966  1.00  0.00     0.001 A 
ATOM     88  C   UNL A   1      40.554  32.714  34.912  1.00  0.00     0.001 A 
ATOM     89  C   UNL A   1      41.373  32.427  36.001  1.00  0.00     0.000 A 
ENDBRANCH  71  84
ENDBRANCH  45  46
ENDBRANCH  38  40
ENDBRANCH  37  38
ENDBRANCH  36  37
ENDBRANCH  35  36
ENDBRANCH   1  35
TORSDOF 18
ENDMDL
MODEL 3
REMARK VINA RESULT:     -12.2      4.720      9.198
REMARK SMILES COc1ccc(-c2[nH]nc3nc(-c4ccc(C(F)(F)F)cc4)cc(C(=O)OCCOCCOC(=O)c4ccc(-c5c6nc(c(-c7ccccc7)c7ccc([nH]7)c(-c7ccccc7)c7nc(c(-c8ccccc8)c8ccc5[nH]8)C=C7)C=C6)cc4)c23)cc1
REMARK SMILES IDX 30 1 29 2 28 3 27 4 25 5 26 6 24 7 7 8 8 9 84 10 9 11 10 13
REMARK SMILES IDX 11 14 23 15 12 16 6 17 3 18 4 19 86 20 5 21 85 22 2 23 1 24
REMARK SMILES IDX 13 25 14 26 22 27 15 28 21 29 16 30 17 31 18 32 19 33 20 34
REMARK SMILES IDX 31 35 32 36 33 37 34 38 35 39 36 40 37 41 83 42 38 43 82 44
REMARK SMILES IDX 39 45 40 46 41 47 76 48 42 49 81 50 75 51 77 52 43 53 80 54
REMARK SMILES IDX 74 55 73 56 44 58 66 59 51 60 65 61 52 62 55 63 64 64 78 65
REMARK SMILES IDX 53 66 54 67 63 69 79 70 56 71 45 72 46 73 50 74 47 75 49 76
REMARK SMILES IDX 48 77 67 78 68 79 72 80 69 81 71 82 70 83 57 84 58 85 62 86
REMARK SMILES IDX 59 87 61 88 60 89
REMARK H PARENT 8 12 77 57 55 68
REMARK Flexibility Score: inf
ROOT
ATOM      1  O   UNL A   1      33.958  29.185  25.030  1.00  0.00    -0.374 OA
ENDROOT
BRANCH   1   2
ATOM      2  C   UNL A   1      33.872  27.832  24.575  1.00  0.00     0.202 C 
BRANCH   2   3
ATOM      3  C   UNL A   1      33.631  27.698  23.069  1.00  0.00     0.261 C 
BRANCH   3   4
ATOM      4  O   UNL A   1      33.619  26.310  22.679  1.00  0.00    -0.460 OA
BRANCH   4   5
ATOM      5  C   UNL A   1      32.405  25.810  22.321  1.00  0.00     0.339 C 
ATOM      6  O   UNL A   1      31.761  26.109  21.336  1.00  0.00    -0.246 OA
BRANCH   5   7
ATOM      7  C   UNL A   1      31.987  24.808  23.315  1.00  0.00     0.075 A 
ATOM      8  C   UNL A   1      30.400  26.098  24.831  1.00  0.00     0.075 A 
ATOM      9  N   UNL A   1      29.925  25.752  26.076  1.00  0.00    -0.275 N 
ATOM     10  C   UNL A   1      31.208  25.027  24.464  1.00  0.00     0.061 A 
ATOM     11  N   UNL A   1      30.201  24.496  26.455  1.00  0.00    -0.154 NA
ATOM     12  H   UNL A   1      29.421  26.379  26.644  1.00  0.00     0.190 HD
ATOM     13  C   UNL A   1      30.958  24.027  25.465  1.00  0.00     0.182 A 
ATOM     14  N   UNL A   1      31.424  22.758  25.368  1.00  0.00    -0.226 NA
ATOM     15  C   UNL A   1      32.427  23.472  23.232  1.00  0.00     0.045 A 
ATOM     16  C   UNL A   1      32.151  22.516  24.241  1.00  0.00     0.074 A 
BRANCH   8  17
ATOM     17  C   UNL A   1      29.866  27.278  24.152  1.00  0.00     0.001 A 
ATOM     18  C   UNL A   1      28.769  29.675  23.145  1.00  0.00     0.118 A 
ATOM     19  C   UNL A   1      28.102  28.457  22.988  1.00  0.00     0.047 A 
ATOM     20  C   UNL A   1      30.033  29.681  23.729  1.00  0.00     0.047 A 
ATOM     21  C   UNL A   1      28.643  27.264  23.486  1.00  0.00     0.014 A 
ATOM     22  C   UNL A   1      30.588  28.483  24.199  1.00  0.00     0.014 A 
BRANCH  18  23
ATOM     23  O   UNL A   1      28.087  30.772  22.698  1.00  0.00    -0.497 OA
ATOM     24  C   UNL A   1      28.243  31.116  21.325  1.00  0.00     0.278 C 
ENDBRANCH  18  23
ENDBRANCH   8  17
BRANCH  16  25
ATOM     25  C   UNL A   1      32.709  21.145  24.152  1.00  0.00     0.000 A 
ATOM     26  C   UNL A   1      32.072  20.136  23.407  1.00  0.00     0.011 A 
ATOM     27  C   UNL A   1      33.879  20.792  24.847  1.00  0.00     0.011 A 
ATOM     28  C   UNL A   1      32.581  18.830  23.362  1.00  0.00     0.014 A 
ATOM     29  C   UNL A   1      34.390  19.490  24.807  1.00  0.00     0.014 A 
ATOM     30  C   UNL A   1      33.744  18.492  24.068  1.00  0.00     0.056 A 
BRANCH  30  31
ATOM     31  C   UNL A   1      34.271  17.078  24.045  1.00  0.00     0.416 C 
ATOM     32  F   UNL A   1      35.409  16.929  24.775  1.00  0.00    -0.166 F 
ATOM     33  F   UNL A   1      33.379  16.182  24.552  1.00  0.00    -0.166 F 
ATOM     34  F   UNL A   1      34.572  16.631  22.792  1.00  0.00    -0.166 F 
ENDBRANCH  30  31
ENDBRANCH  16  25
ENDBRANCH   5   7
ENDBRANCH   4   5
ENDBRANCH   3   4
ENDBRANCH   2   3
ENDBRANCH   1   2
BRANCH   1  35
ATOM     35  C   UNL A   1      33.585  29.377  26.391  1.00  0.00     0.202 C 
BRANCH  35  36
ATOM     36  C   UNL A   1      32.784  30.650  26.606  1.00  0.00     0.261 C 
BRANCH  36  37
ATOM     37  O   UNL A   1      33.289  31.268  27.779  1.00  0.00    -0.460 OA
BRANCH  37  38
ATOM     38  C   UNL A   1      33.032  32.592  27.874  1.00  0.00     0.338 C 
ATOM     39  O   UNL A   1      32.147  33.232  27.336  1.00  0.00    -0.246 OA
BRANCH  38  40
ATOM     40  C   UNL A   1      34.131  33.144  28.670  1.00  0.00     0.060 A 
ATOM     41  C   UNL A   1      35.086  33.799  27.907  1.00  0.00     0.016 A 
ATOM     42  C   UNL A   1      34.409  32.561  29.920  1.00  0.00     0.016 A 
ATOM     43  C   UNL A   1      36.392  33.511  28.196  1.00  0.00     0.010 A 
ATOM     44  C   UNL A   1      35.716  32.264  30.197  1.00  0.00     0.010 A 
ATOM     45  C   UNL A   1      36.669  32.637  29.258  1.00  0.00    -0.014 A 
BRANCH  45  46
ATOM     46  C   UNL A   1      38.038  32.226  29.433  1.00  0.00     0.031 A 
ATOM     47  C   UNL A   1      38.181  30.788  29.165  1.00  0.00     0.074 A 
ATOM     48  C   UNL A   1      39.038  33.066  29.753  1.00  0.00     0.049 A 
ATOM     49  N   UNL A   1      38.234  29.845  30.042  1.00  0.00    -0.248 NA
ATOM     50  C   UNL A   1      37.954  30.332  27.783  1.00  0.00     0.031 C 
ATOM     51  C   UNL A   1      39.049  34.529  29.784  1.00  0.00     0.029 A 
ATOM     52  N   UNL A   1      40.324  32.748  30.039  1.00  0.00    -0.354 N 
ATOM     53  C   UNL A   1      38.280  28.676  29.301  1.00  0.00     0.074 A 
ATOM     54  C   UNL A   1      37.836  29.019  27.974  1.00  0.00     0.031 C 
ATOM     55  C   UNL A   1      40.334  34.959  29.827  1.00  0.00     0.029 A 
ATOM     56  C   UNL A   1      41.213  33.808  29.964  1.00  0.00     0.049 A 
ATOM     57  H   UNL A   1      40.604  31.836  30.282  1.00  0.00     0.167 HD
ATOM     58  C   UNL A   1      39.008  27.612  29.732  1.00  0.00     0.031 A 
ATOM     59  C   UNL A   1      42.567  33.707  29.937  1.00  0.00     0.031 A 
ATOM     60  C   UNL A   1      39.338  27.732  31.131  1.00  0.00     0.049 A 
ATOM     61  C   UNL A   1      42.923  32.366  30.467  1.00  0.00     0.074 A 
ATOM     62  C   UNL A   1      38.611  27.822  32.301  1.00  0.00     0.029 A 
ATOM     63  N   UNL A   1      40.599  28.200  31.428  1.00  0.00    -0.354 N 
ATOM     64  N   UNL A   1      42.731  32.020  31.709  1.00  0.00    -0.248 NA
ATOM     65  C   UNL A   1      43.018  31.261  29.523  1.00  0.00     0.031 C 
ATOM     66  C   UNL A   1      39.327  28.748  33.113  1.00  0.00     0.029 A 
ATOM     67  C   UNL A   1      40.488  29.122  32.434  1.00  0.00     0.049 A 
ATOM     68  H   UNL A   1      41.435  27.919  30.991  1.00  0.00     0.167 HD
ATOM     69  C   UNL A   1      42.236  30.724  31.645  1.00  0.00     0.074 A 
ATOM     70  C   UNL A   1      42.522  30.277  30.281  1.00  0.00     0.031 C 
ATOM     71  C   UNL A   1      41.381  30.251  32.600  1.00  0.00     0.031 A 
BRANCH  58  72
ATOM     72  C   UNL A   1      39.816  26.761  28.785  1.00  0.00    -0.014 A 
ATOM     73  C   UNL A   1      40.799  27.388  28.004  1.00  0.00     0.009 A 
ATOM     74  C   UNL A   1      39.466  25.445  28.420  1.00  0.00     0.009 A 
ATOM     75  C   UNL A   1      41.334  26.762  26.874  1.00  0.00     0.001 A 
ATOM     76  C   UNL A   1      40.027  24.800  27.318  1.00  0.00     0.001 A 
ATOM     77  C   UNL A   1      40.941  25.473  26.527  1.00  0.00     0.000 A 
ENDBRANCH  58  72
BRANCH  59  78
ATOM     78  C   UNL A   1      43.528  34.531  29.165  1.00  0.00    -0.014 A 
ATOM     79  C   UNL A   1      44.803  34.830  29.672  1.00  0.00     0.009 A 
ATOM     80  C   UNL A   1      43.290  34.798  27.804  1.00  0.00     0.009 A 
ATOM     81  C   UNL A   1      45.806  35.352  28.841  1.00  0.00     0.001 A 
ATOM     82  C   UNL A   1      44.291  35.317  26.974  1.00  0.00     0.001 A 
ATOM     83  C   UNL A   1      45.553  35.584  27.490  1.00  0.00     0.000 A 
ENDBRANCH  59  78
BRANCH  71  84
ATOM     84  C   UNL A   1      41.170  31.094  33.835  1.00  0.00    -0.014 A 
ATOM     85  C   UNL A   1      41.936  30.953  35.007  1.00  0.00     0.009 A 
ATOM     86  C   UNL A   1      40.275  32.170  33.753  1.00  0.00     0.009 A 
ATOM     87  C   UNL A   1      41.791  31.853  36.071  1.00  0.00     0.001 A 
ATOM     88  C   UNL A   1      40.145  33.078  34.805  1.00  0.00     0.001 A 
ATOM     89  C   UNL A   1      40.899  32.917  35.965  1.00  0.00     0.000 A 
ENDBRANCH  71  84
ENDBRANCH  45  46
ENDBRANCH  38  40
ENDBRANCH  37  38
ENDBRANCH  36  37
ENDBRANCH  35  36
ENDBRANCH   1  35
TORSDOF 18
ENDMDL
