MODEL 1
REMARK VINA RESULT:      -9.9      0.000      0.000
REMARK SMILES CC[C@@](O)(C(=O)OCCOCCOC(=O)c1ccc(-c2c3nc(c(-c4ccccc4)c4ccc([nH]4)c(-c4ccccc4)c4nc(c(-c5ccccc5)c5ccc2[nH]5)C=C4)C=C3)cc1)[C@@H](c1ccccc1)C(C)C
REMARK SMILES IDX 10 1 9 2 8 3 7 4 5 5 6 6 3 7 2 8 1 9 4 10 64 12 65 13 66 14
REMARK SMILES IDX 70 15 67 16 69 17 68 18 71 19 72 20 73 21 11 22 12 23 13 24
REMARK SMILES IDX 14 25 15 26 16 27 17 28 63 29 18 30 62 31 19 32 20 33 21 34
REMARK SMILES IDX 56 35 22 36 61 37 55 38 57 39 23 40 60 41 54 42 53 43 24 45
REMARK SMILES IDX 46 46 31 47 45 48 32 49 35 50 44 51 58 52 33 53 34 54 43 56
REMARK SMILES IDX 59 57 36 58 25 59 26 60 30 61 27 62 29 63 28 64 47 65 48 66
REMARK SMILES IDX 52 67 49 68 51 69 50 70 37 71 38 72 42 73 39 74 41 75 40 76
REMARK H PARENT 4 11 57 44 35 55
REMARK Flexibility Score: inf
ROOT
ATOM      1  O   UNL A   1      35.422  21.329  26.120  1.00  0.00    -0.374 OA
ENDROOT
BRANCH   1   2
ATOM      2  C   UNL A   1      34.000  21.258  26.247  1.00  0.00     0.202 C 
BRANCH   2   3
ATOM      3  C   UNL A   1      33.339  22.355  27.084  1.00  0.00     0.261 C 
BRANCH   3   4
ATOM      4  O   UNL A   1      32.865  23.439  26.260  1.00  0.00    -0.461 OA
BRANCH   4   5
ATOM      5  C   UNL A   1      31.581  23.862  26.484  1.00  0.00     0.338 C 
ATOM      6  O   UNL A   1      30.940  23.576  27.487  1.00  0.00    -0.249 OA
BRANCH   5   7
ATOM      7  C   UNL A   1      31.019  24.629  25.252  1.00  0.00     0.168 C 
BRANCH   7   8
ATOM      8  C   UNL A   1      30.873  23.709  24.007  1.00  0.00     0.044 C 
ATOM      9  C   UNL A   1      32.031  23.694  23.020  1.00  0.00     0.007 C 
ENDBRANCH   7   8
BRANCH   7  10
ATOM     10  O   UNL A   1      29.660  24.888  25.697  1.00  0.00    -0.378 OA
ATOM     11  H   UNL A   1      29.539  25.841  25.827  1.00  0.00     0.212 HD
ENDBRANCH   7  10
BRANCH   7  12
ATOM     12  C   UNL A   1      31.813  26.015  25.114  1.00  0.00     0.065 C 
BRANCH  12  13
ATOM     13  C   UNL A   1      31.230  27.061  24.124  1.00  0.00    -0.041 A 
ATOM     14  C   UNL A   1      32.117  27.886  23.399  1.00  0.00     0.004 A 
ATOM     15  C   UNL A   1      29.865  27.284  23.900  1.00  0.00     0.004 A 
ATOM     16  C   UNL A   1      31.668  28.906  22.550  1.00  0.00     0.000 A 
ATOM     17  C   UNL A   1      29.412  28.263  22.998  1.00  0.00     0.000 A 
ATOM     18  C   UNL A   1      30.311  29.086  22.336  1.00  0.00     0.000 A 
ENDBRANCH  12  13
BRANCH  12  19
ATOM     19  C   UNL A   1      32.317  26.692  26.464  1.00  0.00    -0.006 C 
ATOM     20  C   UNL A   1      33.677  27.399  26.352  1.00  0.00     0.008 C 
ATOM     21  C   UNL A   1      31.344  27.760  27.008  1.00  0.00     0.008 C 
ENDBRANCH  12  19
ENDBRANCH   7  12
ENDBRANCH   5   7
ENDBRANCH   4   5
ENDBRANCH   3   4
ENDBRANCH   2   3
ENDBRANCH   1   2
BRANCH   1  22
ATOM     22  C   UNL A   1      36.003  20.730  24.964  1.00  0.00     0.202 C 
BRANCH  22  23
ATOM     23  C   UNL A   1      37.505  20.438  25.046  1.00  0.00     0.261 C 
BRANCH  23  24
ATOM     24  O   UNL A   1      38.272  21.618  25.302  1.00  0.00    -0.460 OA
BRANCH  24  25
ATOM     25  C   UNL A   1      39.371  21.396  26.053  1.00  0.00     0.338 C 
ATOM     26  O   UNL A   1      40.062  20.382  26.095  1.00  0.00    -0.246 OA
BRANCH  25  27
ATOM     27  C   UNL A   1      39.754  22.629  26.746  1.00  0.00     0.060 A 
ATOM     28  C   UNL A   1      39.120  23.808  26.340  1.00  0.00     0.016 A 
ATOM     29  C   UNL A   1      40.757  22.646  27.719  1.00  0.00     0.016 A 
ATOM     30  C   UNL A   1      39.541  25.026  26.852  1.00  0.00     0.010 A 
ATOM     31  C   UNL A   1      41.180  23.872  28.232  1.00  0.00     0.010 A 
ATOM     32  C   UNL A   1      40.606  25.064  27.760  1.00  0.00    -0.014 A 
BRANCH  32  33
ATOM     33  C   UNL A   1      41.226  26.369  28.067  1.00  0.00     0.031 A 
ATOM     34  C   UNL A   1      42.558  26.692  27.449  1.00  0.00     0.074 A 
ATOM     35  C   UNL A   1      40.574  27.267  28.822  1.00  0.00     0.049 A 
ATOM     36  N   UNL A   1      43.268  27.787  27.536  1.00  0.00    -0.248 NA
ATOM     37  C   UNL A   1      43.170  25.641  26.617  1.00  0.00     0.031 C 
ATOM     38  C   UNL A   1      39.257  27.064  29.426  1.00  0.00     0.029 A 
ATOM     39  N   UNL A   1      40.928  28.535  29.200  1.00  0.00    -0.354 N 
ATOM     40  C   UNL A   1      44.409  27.553  26.779  1.00  0.00     0.074 A 
ATOM     41  C   UNL A   1      44.315  26.206  26.265  1.00  0.00     0.031 C 
ATOM     42  C   UNL A   1      38.910  28.177  30.094  1.00  0.00     0.029 A 
ATOM     43  C   UNL A   1      39.990  29.155  29.987  1.00  0.00     0.049 A 
ATOM     44  H   UNL A   1      41.775  28.961  28.932  1.00  0.00     0.167 HD
ATOM     45  C   UNL A   1      45.440  28.393  26.529  1.00  0.00     0.031 A 
ATOM     46  C   UNL A   1      40.012  30.371  30.561  1.00  0.00     0.031 A 
ATOM     47  C   UNL A   1      45.527  29.727  27.058  1.00  0.00     0.049 A 
ATOM     48  C   UNL A   1      41.202  31.261  30.324  1.00  0.00     0.074 A 
ATOM     49  C   UNL A   1      46.519  30.672  26.865  1.00  0.00     0.029 A 
ATOM     50  N   UNL A   1      44.580  30.301  27.895  1.00  0.00    -0.354 N 
ATOM     51  N   UNL A   1      42.264  31.041  29.584  1.00  0.00    -0.248 NA
ATOM     52  C   UNL A   1      41.192  32.568  30.991  1.00  0.00     0.031 C 
ATOM     53  C   UNL A   1      46.199  31.798  27.631  1.00  0.00     0.029 A 
ATOM     54  C   UNL A   1      44.979  31.576  28.252  1.00  0.00     0.049 A 
ATOM     55  H   UNL A   1      43.749  29.865  28.190  1.00  0.00     0.167 HD
ATOM     56  C   UNL A   1      43.037  32.190  29.677  1.00  0.00     0.074 A 
ATOM     57  C   UNL A   1      42.311  33.111  30.532  1.00  0.00     0.031 C 
ATOM     58  C   UNL A   1      44.236  32.465  29.108  1.00  0.00     0.031 A 
BRANCH  45  59
ATOM     59  C   UNL A   1      46.569  27.873  25.683  1.00  0.00    -0.014 A 
ATOM     60  C   UNL A   1      46.575  28.031  24.288  1.00  0.00     0.009 A 
ATOM     61  C   UNL A   1      47.653  27.224  26.295  1.00  0.00     0.009 A 
ATOM     62  C   UNL A   1      47.625  27.519  23.521  1.00  0.00     0.001 A 
ATOM     63  C   UNL A   1      48.714  26.737  25.529  1.00  0.00     0.001 A 
ATOM     64  C   UNL A   1      48.695  26.877  24.143  1.00  0.00     0.000 A 
ENDBRANCH  45  59
BRANCH  46  65
ATOM     65  C   UNL A   1      38.881  30.810  31.417  1.00  0.00    -0.014 A 
ATOM     66  C   UNL A   1      37.792  31.506  30.870  1.00  0.00     0.009 A 
ATOM     67  C   UNL A   1      38.885  30.535  32.795  1.00  0.00     0.009 A 
ATOM     68  C   UNL A   1      36.741  31.932  31.687  1.00  0.00     0.001 A 
ATOM     69  C   UNL A   1      37.819  30.936  33.603  1.00  0.00     0.001 A 
ATOM     70  C   UNL A   1      36.753  31.641  33.051  1.00  0.00     0.000 A 
ENDBRANCH  46  65
BRANCH  58  71
ATOM     71  C   UNL A   1      44.819  33.824  29.370  1.00  0.00    -0.014 A 
ATOM     72  C   UNL A   1      45.685  34.050  30.451  1.00  0.00     0.009 A 
ATOM     73  C   UNL A   1      44.528  34.883  28.495  1.00  0.00     0.009 A 
ATOM     74  C   UNL A   1      46.221  35.320  30.670  1.00  0.00     0.001 A 
ATOM     75  C   UNL A   1      45.090  36.143  28.699  1.00  0.00     0.001 A 
ATOM     76  C   UNL A   1      45.928  36.363  29.792  1.00  0.00     0.000 A 
ENDBRANCH  58  71
ENDBRANCH  32  33
ENDBRANCH  25  27
ENDBRANCH  24  25
ENDBRANCH  23  24
ENDBRANCH  22  23
ENDBRANCH   1  22
TORSDOF 19
ENDMDL
MODEL 2
REMARK VINA RESULT:      -9.6      3.679      8.328
REMARK SMILES CC[C@@](O)(C(=O)OCCOCCOC(=O)c1ccc(-c2c3nc(c(-c4ccccc4)c4ccc([nH]4)c(-c4ccccc4)c4nc(c(-c5ccccc5)c5ccc2[nH]5)C=C4)C=C3)cc1)[C@@H](c1ccccc1)C(C)C
REMARK SMILES IDX 10 1 9 2 8 3 7 4 5 5 6 6 3 7 2 8 1 9 4 10 64 12 65 13 66 14
REMARK SMILES IDX 70 15 67 16 69 17 68 18 71 19 72 20 73 21 11 22 12 23 13 24
REMARK SMILES IDX 14 25 15 26 16 27 17 28 63 29 18 30 62 31 19 32 20 33 21 34
REMARK SMILES IDX 56 35 22 36 61 37 55 38 57 39 23 40 60 41 54 42 53 43 24 45
REMARK SMILES IDX 46 46 31 47 45 48 32 49 35 50 44 51 58 52 33 53 34 54 43 56
REMARK SMILES IDX 59 57 36 58 25 59 26 60 30 61 27 62 29 63 28 64 47 65 48 66
REMARK SMILES IDX 52 67 49 68 51 69 50 70 37 71 38 72 42 73 39 74 41 75 40 76
REMARK H PARENT 4 11 57 44 35 55
REMARK Flexibility Score: inf
ROOT
ATOM      1  O   UNL A   1      32.564  29.722  26.274  1.00  0.00    -0.374 OA
ENDROOT
BRANCH   1   2
ATOM      2  C   UNL A   1      32.627  28.526  27.054  1.00  0.00     0.202 C 
BRANCH   2   3
ATOM      3  C   UNL A   1      31.394  27.620  27.005  1.00  0.00     0.261 C 
BRANCH   3   4
ATOM      4  O   UNL A   1      31.752  26.248  26.743  1.00  0.00    -0.461 OA
BRANCH   4   5
ATOM      5  C   UNL A   1      30.785  25.462  26.176  1.00  0.00     0.338 C 
ATOM      6  O   UNL A   1      29.620  25.443  26.551  1.00  0.00    -0.249 OA
BRANCH   5   7
ATOM      7  C   UNL A   1      31.391  24.518  25.096  1.00  0.00     0.168 C 
BRANCH   7   8
ATOM      8  C   UNL A   1      31.565  23.064  25.621  1.00  0.00     0.044 C 
ATOM      9  C   UNL A   1      32.079  22.902  27.044  1.00  0.00     0.007 C 
ENDBRANCH   7   8
BRANCH   7  10
ATOM     10  O   UNL A   1      30.289  24.453  24.150  1.00  0.00    -0.378 OA
ATOM     11  H   UNL A   1      29.689  23.735  24.403  1.00  0.00     0.212 HD
ENDBRANCH   7  10
BRANCH   7  12
ATOM     12  C   UNL A   1      32.639  25.262  24.418  1.00  0.00     0.065 C 
BRANCH  12  13
ATOM     13  C   UNL A   1      33.977  24.473  24.360  1.00  0.00    -0.041 A 
ATOM     14  C   UNL A   1      34.936  24.677  25.377  1.00  0.00     0.004 A 
ATOM     15  C   UNL A   1      34.341  23.576  23.348  1.00  0.00     0.004 A 
ATOM     16  C   UNL A   1      36.196  24.067  25.353  1.00  0.00     0.000 A 
ATOM     17  C   UNL A   1      35.579  22.911  23.355  1.00  0.00     0.000 A 
ATOM     18  C   UNL A   1      36.514  23.169  24.347  1.00  0.00     0.000 A 
ENDBRANCH  12  13
BRANCH  12  19
ATOM     19  C   UNL A   1      32.357  26.052  23.066  1.00  0.00    -0.006 C 
ATOM     20  C   UNL A   1      31.487  27.309  23.233  1.00  0.00     0.008 C 
ATOM     21  C   UNL A   1      33.644  26.537  22.365  1.00  0.00     0.008 C 
ENDBRANCH  12  19
ENDBRANCH   7  12
ENDBRANCH   5   7
ENDBRANCH   4   5
ENDBRANCH   3   4
ENDBRANCH   2   3
ENDBRANCH   1   2
BRANCH   1  22
ATOM     22  C   UNL A   1      32.145  30.910  26.940  1.00  0.00     0.202 C 
BRANCH  22  23
ATOM     23  C   UNL A   1      33.254  31.731  27.606  1.00  0.00     0.261 C 
BRANCH  23  24
ATOM     24  O   UNL A   1      33.092  33.136  27.390  1.00  0.00    -0.460 OA
BRANCH  24  25
ATOM     25  C   UNL A   1      33.272  33.879  28.502  1.00  0.00     0.338 C 
ATOM     26  O   UNL A   1      32.463  34.621  29.050  1.00  0.00    -0.246 OA
BRANCH  25  27
ATOM     27  C   UNL A   1      34.575  33.569  29.099  1.00  0.00     0.060 A 
ATOM     28  C   UNL A   1      35.710  33.910  28.356  1.00  0.00     0.016 A 
ATOM     29  C   UNL A   1      34.684  32.898  30.320  1.00  0.00     0.016 A 
ATOM     30  C   UNL A   1      36.964  33.513  28.796  1.00  0.00     0.010 A 
ATOM     31  C   UNL A   1      35.945  32.499  30.761  1.00  0.00     0.010 A 
ATOM     32  C   UNL A   1      37.079  32.763  29.973  1.00  0.00    -0.014 A 
BRANCH  32  33
ATOM     33  C   UNL A   1      38.368  32.106  30.269  1.00  0.00     0.031 A 
ATOM     34  C   UNL A   1      39.307  32.774  31.234  1.00  0.00     0.074 A 
ATOM     35  C   UNL A   1      38.653  30.906  29.738  1.00  0.00     0.049 A 
ATOM     36  N   UNL A   1      40.466  32.364  31.680  1.00  0.00    -0.248 NA
ATOM     37  C   UNL A   1      38.880  34.076  31.775  1.00  0.00     0.031 C 
ATOM     38  C   UNL A   1      37.785  30.158  28.829  1.00  0.00     0.029 A 
ATOM     39  N   UNL A   1      39.751  30.102  29.899  1.00  0.00    -0.354 N 
ATOM     40  C   UNL A   1      40.907  33.360  32.543  1.00  0.00     0.074 A 
ATOM     41  C   UNL A   1      39.911  34.406  32.537  1.00  0.00     0.031 C 
ATOM     42  C   UNL A   1      38.383  28.995  28.518  1.00  0.00     0.029 A 
ATOM     43  C   UNL A   1      39.682  28.933  29.183  1.00  0.00     0.049 A 
ATOM     44  H   UNL A   1      40.515  30.340  30.473  1.00  0.00     0.167 HD
ATOM     45  C   UNL A   1      42.041  33.392  33.281  1.00  0.00     0.031 A 
ATOM     46  C   UNL A   1      40.577  27.934  29.073  1.00  0.00     0.031 A 
ATOM     47  C   UNL A   1      43.032  32.349  33.267  1.00  0.00     0.049 A 
ATOM     48  C   UNL A   1      41.861  28.026  29.851  1.00  0.00     0.074 A 
ATOM     49  C   UNL A   1      44.214  32.269  33.979  1.00  0.00     0.029 A 
ATOM     50  N   UNL A   1      42.950  31.204  32.488  1.00  0.00    -0.354 N 
ATOM     51  N   UNL A   1      42.257  28.959  30.685  1.00  0.00    -0.248 NA
ATOM     52  C   UNL A   1      42.817  26.925  29.680  1.00  0.00     0.031 C 
ATOM     53  C   UNL A   1      44.876  31.100  33.588  1.00  0.00     0.029 A 
ATOM     54  C   UNL A   1      44.077  30.424  32.679  1.00  0.00     0.049 A 
ATOM     55  H   UNL A   1      42.203  30.980  31.889  1.00  0.00     0.167 HD
ATOM     56  C   UNL A   1      43.495  28.546  31.157  1.00  0.00     0.074 A 
ATOM     57  C   UNL A   1      43.776  27.269  30.528  1.00  0.00     0.031 C 
ATOM     58  C   UNL A   1      44.327  29.161  32.033  1.00  0.00     0.031 A 
BRANCH  45  59
ATOM     59  C   UNL A   1      42.284  34.612  34.126  1.00  0.00    -0.014 A 
ATOM     60  C   UNL A   1      41.919  34.650  35.481  1.00  0.00     0.009 A 
ATOM     61  C   UNL A   1      42.901  35.737  33.559  1.00  0.00     0.009 A 
ATOM     62  C   UNL A   1      42.135  35.804  36.240  1.00  0.00     0.001 A 
ATOM     63  C   UNL A   1      43.141  36.879  34.326  1.00  0.00     0.001 A 
ATOM     64  C   UNL A   1      42.749  36.915  35.663  1.00  0.00     0.000 A 
ENDBRANCH  45  59
BRANCH  46  65
ATOM     65  C   UNL A   1      40.292  26.774  28.191  1.00  0.00    -0.014 A 
ATOM     66  C   UNL A   1      39.519  25.696  28.647  1.00  0.00     0.009 A 
ATOM     67  C   UNL A   1      40.796  26.739  26.880  1.00  0.00     0.009 A 
ATOM     68  C   UNL A   1      39.272  24.600  27.816  1.00  0.00     0.001 A 
ATOM     69  C   UNL A   1      40.524  25.655  26.043  1.00  0.00     0.001 A 
ATOM     70  C   UNL A   1      39.769  24.583  26.513  1.00  0.00     0.000 A 
ENDBRANCH  46  65
BRANCH  58  71
ATOM     71  C   UNL A   1      45.601  28.445  32.381  1.00  0.00    -0.014 A 
ATOM     72  C   UNL A   1      45.652  27.519  33.434  1.00  0.00     0.009 A 
ATOM     73  C   UNL A   1      46.756  28.673  31.615  1.00  0.00     0.009 A 
ATOM     74  C   UNL A   1      46.846  26.860  33.734  1.00  0.00     0.001 A 
ATOM     75  C   UNL A   1      47.938  27.991  31.898  1.00  0.00     0.001 A 
ATOM     76  C   UNL A   1      47.985  27.092  32.963  1.00  0.00     0.000 A 
ENDBRANCH  58  71
ENDBRANCH  32  33
ENDBRANCH  25  27
ENDBRANCH  24  25
ENDBRANCH  23  24
ENDBRANCH  22  23
ENDBRANCH   1  22
TORSDOF 19
ENDMDL
MODEL 3
REMARK VINA RESULT:      -9.6      2.354      3.995
REMARK SMILES CC[C@@](O)(C(=O)OCCOCCOC(=O)c1ccc(-c2c3nc(c(-c4ccccc4)c4ccc([nH]4)c(-c4ccccc4)c4nc(c(-c5ccccc5)c5ccc2[nH]5)C=C4)C=C3)cc1)[C@@H](c1ccccc1)C(C)C
REMARK SMILES IDX 10 1 9 2 8 3 7 4 5 5 6 6 3 7 2 8 1 9 4 10 64 12 65 13 66 14
REMARK SMILES IDX 70 15 67 16 69 17 68 18 71 19 72 20 73 21 11 22 12 23 13 24
REMARK SMILES IDX 14 25 15 26 16 27 17 28 63 29 18 30 62 31 19 32 20 33 21 34
REMARK SMILES IDX 56 35 22 36 61 37 55 38 57 39 23 40 60 41 54 42 53 43 24 45
REMARK SMILES IDX 46 46 31 47 45 48 32 49 35 50 44 51 58 52 33 53 34 54 43 56
REMARK SMILES IDX 59 57 36 58 25 59 26 60 30 61 27 62 29 63 28 64 47 65 48 66
REMARK SMILES IDX 52 67 49 68 51 69 50 70 37 71 38 72 42 73 39 74 41 75 40 76
REMARK H PARENT 4 11 57 44 35 55
REMARK Flexibility Score: inf
ROOT
ATOM      1  O   UNL A   1      37.990  21.573  25.336  1.00  0.00    -0.374 OA
ENDROOT
BRANCH   1   2
ATOM      2  C   UNL A   1      36.879  22.329  25.824  1.00  0.00     0.202 C 
BRANCH   2   3
ATOM      3  C   UNL A   1      36.664  23.704  25.186  1.00  0.00     0.261 C 
BRANCH   3   4
ATOM      4  O   UNL A   1      35.324  23.848  24.673  1.00  0.00    -0.461 OA
BRANCH   4   5
ATOM      5  C   UNL A   1      35.113  23.426  23.388  1.00  0.00     0.338 C 
ATOM      6  O   UNL A   1      35.975  22.898  22.697  1.00  0.00    -0.249 OA
BRANCH   5   7
ATOM      7  C   UNL A   1      33.691  23.823  22.892  1.00  0.00     0.168 C 
BRANCH   7   8
ATOM      8  C   UNL A   1      33.508  25.366  22.817  1.00  0.00     0.044 C 
ATOM      9  C   UNL A   1      32.803  25.917  21.586  1.00  0.00     0.007 C 
ENDBRANCH   7   8
BRANCH   7  10
ATOM     10  O   UNL A   1      33.756  23.378  21.511  1.00  0.00    -0.378 OA
ATOM     11  H   UNL A   1      33.610  24.133  20.921  1.00  0.00     0.212 HD
ENDBRANCH   7  10
BRANCH   7  12
ATOM     12  C   UNL A   1      32.614  22.943  23.691  1.00  0.00     0.065 C 
BRANCH  12  13
ATOM     13  C   UNL A   1      32.896  21.418  23.794  1.00  0.00    -0.041 A 
ATOM     14  C   UNL A   1      32.173  20.531  22.967  1.00  0.00     0.004 A 
ATOM     15  C   UNL A   1      33.806  20.825  24.678  1.00  0.00     0.004 A 
ATOM     16  C   UNL A   1      32.310  19.140  23.058  1.00  0.00     0.000 A 
ATOM     17  C   UNL A   1      33.994  19.433  24.726  1.00  0.00     0.000 A 
ATOM     18  C   UNL A   1      33.235  18.588  23.929  1.00  0.00     0.000 A 
ENDBRANCH  12  13
BRANCH  12  19
ATOM     19  C   UNL A   1      32.072  23.541  25.062  1.00  0.00    -0.006 C 
ATOM     20  C   UNL A   1      31.035  24.665  24.900  1.00  0.00     0.008 C 
ATOM     21  C   UNL A   1      31.391  22.485  25.959  1.00  0.00     0.008 C 
ENDBRANCH  12  19
ENDBRANCH   7  12
ENDBRANCH   5   7
ENDBRANCH   4   5
ENDBRANCH   3   4
ENDBRANCH   2   3
ENDBRANCH   1   2
BRANCH   1  22
ATOM     22  C   UNL A   1      37.754  20.204  25.016  1.00  0.00     0.202 C 
BRANCH  22  23
ATOM     23  C   UNL A   1      38.868  19.226  25.400  1.00  0.00     0.261 C 
BRANCH  23  24
ATOM     24  O   UNL A   1      39.704  19.739  26.442  1.00  0.00    -0.460 OA
BRANCH  24  25
ATOM     25  C   UNL A   1      41.021  19.542  26.225  1.00  0.00     0.338 C 
ATOM     26  O   UNL A   1      41.564  18.558  25.731  1.00  0.00    -0.246 OA
BRANCH  25  27
ATOM     27  C   UNL A   1      41.762  20.769  26.532  1.00  0.00     0.060 A 
ATOM     28  C   UNL A   1      41.987  21.053  27.883  1.00  0.00     0.016 A 
ATOM     29  C   UNL A   1      42.166  21.655  25.530  1.00  0.00     0.016 A 
ATOM     30  C   UNL A   1      42.551  22.267  28.246  1.00  0.00     0.010 A 
ATOM     31  C   UNL A   1      42.733  22.876  25.896  1.00  0.00     0.010 A 
ATOM     32  C   UNL A   1      42.878  23.201  27.255  1.00  0.00    -0.014 A 
BRANCH  32  33
ATOM     33  C   UNL A   1      43.200  24.583  27.666  1.00  0.00     0.031 A 
ATOM     34  C   UNL A   1      44.635  25.027  27.626  1.00  0.00     0.074 A 
ATOM     35  C   UNL A   1      42.217  25.436  27.998  1.00  0.00     0.049 A 
ATOM     36  N   UNL A   1      45.148  26.200  27.894  1.00  0.00    -0.248 NA
ATOM     37  C   UNL A   1      45.627  24.014  27.223  1.00  0.00     0.031 C 
ATOM     38  C   UNL A   1      40.791  25.112  28.021  1.00  0.00     0.029 A 
ATOM     39  N   UNL A   1      42.272  26.754  28.367  1.00  0.00    -0.354 N 
ATOM     40  C   UNL A   1      46.517  26.062  27.701  1.00  0.00     0.074 A 
ATOM     41  C   UNL A   1      46.761  24.689  27.323  1.00  0.00     0.031 C 
ATOM     42  C   UNL A   1      40.102  26.209  28.378  1.00  0.00     0.029 A 
ATOM     43  C   UNL A   1      41.041  27.299  28.635  1.00  0.00     0.049 A 
ATOM     44  H   UNL A   1      43.114  27.261  28.433  1.00  0.00     0.167 HD
ATOM     45  C   UNL A   1      47.482  27.003  27.821  1.00  0.00     0.031 A 
ATOM     46  C   UNL A   1      40.717  28.537  29.050  1.00  0.00     0.031 A 
ATOM     47  C   UNL A   1      47.226  28.363  28.210  1.00  0.00     0.049 A 
ATOM     48  C   UNL A   1      41.817  29.546  29.241  1.00  0.00     0.074 A 
ATOM     49  C   UNL A   1      48.123  29.405  28.355  1.00  0.00     0.029 A 
ATOM     50  N   UNL A   1      45.971  28.863  28.524  1.00  0.00    -0.354 N 
ATOM     51  N   UNL A   1      43.106  29.413  29.030  1.00  0.00    -0.248 NA
ATOM     52  C   UNL A   1      41.417  30.875  29.719  1.00  0.00     0.031 C 
ATOM     53  C   UNL A   1      47.417  30.523  28.812  1.00  0.00     0.029 A 
ATOM     54  C   UNL A   1      46.073  30.193  28.892  1.00  0.00     0.049 A 
ATOM     55  H   UNL A   1      45.133  28.350  28.490  1.00  0.00     0.167 HD
ATOM     56  C   UNL A   1      43.667  30.648  29.325  1.00  0.00     0.074 A 
ATOM     57  C   UNL A   1      42.575  31.520  29.714  1.00  0.00     0.031 C 
ATOM     58  C   UNL A   1      44.966  31.032  29.278  1.00  0.00     0.031 A 
BRANCH  45  59
ATOM     59  C   UNL A   1      48.902  26.575  27.569  1.00  0.00    -0.014 A 
ATOM     60  C   UNL A   1      49.702  26.047  28.595  1.00  0.00     0.009 A 
ATOM     61  C   UNL A   1      49.443  26.690  26.280  1.00  0.00     0.009 A 
ATOM     62  C   UNL A   1      51.026  25.678  28.341  1.00  0.00     0.001 A 
ATOM     63  C   UNL A   1      50.757  26.295  26.022  1.00  0.00     0.001 A 
ATOM     64  C   UNL A   1      51.550  25.798  27.055  1.00  0.00     0.000 A 
ENDBRANCH  45  59
BRANCH  46  65
ATOM     65  C   UNL A   1      39.298  28.884  29.317  1.00  0.00    -0.014 A 
ATOM     66  C   UNL A   1      38.481  29.405  28.303  1.00  0.00     0.009 A 
ATOM     67  C   UNL A   1      38.751  28.696  30.597  1.00  0.00     0.009 A 
ATOM     68  C   UNL A   1      37.152  29.747  28.569  1.00  0.00     0.001 A 
ATOM     69  C   UNL A   1      37.415  29.011  30.853  1.00  0.00     0.001 A 
ATOM     70  C   UNL A   1      36.619  29.544  29.841  1.00  0.00     0.000 A 
ENDBRANCH  46  65
BRANCH  58  71
ATOM     71  C   UNL A   1      45.269  32.460  29.628  1.00  0.00    -0.014 A 
ATOM     72  C   UNL A   1      45.237  33.471  28.654  1.00  0.00     0.009 A 
ATOM     73  C   UNL A   1      45.549  32.804  30.960  1.00  0.00     0.009 A 
ATOM     74  C   UNL A   1      45.514  34.794  29.003  1.00  0.00     0.001 A 
ATOM     75  C   UNL A   1      45.795  34.131  31.311  1.00  0.00     0.001 A 
ATOM     76  C   UNL A   1      45.787  35.123  30.331  1.00  0.00     0.000 A 
ENDBRANCH  58  71
ENDBRANCH  32  33
ENDBRANCH  25  27
ENDBRANCH  24  25
ENDBRANCH  23  24
ENDBRANCH  22  23
ENDBRANCH   1  22
TORSDOF 19
ENDMDL
