MODEL 1
REMARK VINA RESULT:      -8.0      0.000      0.000
REMARK SMILES C[C@H]([NH2+]C1CC1)[C@H](C)C(=O)OCCOCCOC(=O)c1ccc(-c2c3nc(c(-c4ccccc4)c4ccc([nH]4)c(-c4ccccc4)c4nc(c(-c5ccccc5)c5ccc2[nH]5)C=C4)C=C3)cc1
REMARK SMILES IDX 13 1 12 2 11 3 9 4 10 5 7 6 8 7 2 8 1 9 3 10 4 13 5 14 6 15
REMARK SMILES IDX 14 16 15 17 16 18 17 19 18 20 19 21 20 22 21 23 67 24 22 25
REMARK SMILES IDX 66 26 23 27 24 28 25 29 60 30 26 31 65 32 59 33 61 34 27 35
REMARK SMILES IDX 64 36 58 37 57 38 28 40 50 41 35 42 49 43 36 44 39 45 48 46
REMARK SMILES IDX 62 47 37 48 38 49 47 51 63 52 40 53 29 54 30 55 34 56 31 57
REMARK SMILES IDX 33 58 32 59 51 60 52 61 56 62 53 63 55 64 54 65 41 66 42 67
REMARK SMILES IDX 46 68 43 69 45 70 44 71
REMARK H PARENT 3 11 3 12 61 39 39 50
REMARK Flexibility Score: inf
ROOT
ATOM      1  C   UNL A   1      33.742  34.748  32.410  1.00  0.00     0.202 C 
ENDROOT
BRANCH   1   2
ATOM      2  C   UNL A   1      35.029  35.553  32.602  1.00  0.00     0.261 C 
BRANCH   2   3
ATOM      3  O   UNL A   1      35.614  35.303  33.892  1.00  0.00    -0.463 OA
BRANCH   3   4
ATOM      4  C   UNL A   1      36.030  34.028  34.131  1.00  0.00     0.314 C 
ATOM      5  O   UNL A   1      35.415  33.201  34.793  1.00  0.00    -0.252 OA
BRANCH   4   6
ATOM      6  C   UNL A   1      37.405  33.755  33.542  1.00  0.00     0.154 C 
ATOM      7  C   UNL A   1      38.543  33.844  34.566  1.00  0.00     0.026 C 
BRANCH   6   8
ATOM      8  C   UNL A   1      37.351  32.430  32.745  1.00  0.00     0.193 C 
ATOM      9  C   UNL A   1      38.406  31.412  33.201  1.00  0.00     0.076 C 
BRANCH   8  10
ATOM     10  N   UNL A   1      37.497  32.725  31.307  1.00  0.00    -0.341 N 
ATOM     11  H   UNL A   1      36.589  32.596  30.862  1.00  0.00     0.346 HD
ATOM     12  H   UNL A   1      38.210  32.088  30.952  1.00  0.00     0.346 HD
BRANCH  10  13
ATOM     13  C   UNL A   1      37.965  34.079  31.011  1.00  0.00     0.183 C 
ATOM     14  C   UNL A   1      39.369  34.247  30.497  1.00  0.00     0.071 C 
ATOM     15  C   UNL A   1      38.204  34.513  29.592  1.00  0.00     0.071 C 
ENDBRANCH  10  13
ENDBRANCH   8  10
ENDBRANCH   6   8
ENDBRANCH   4   6
ENDBRANCH   3   4
ENDBRANCH   2   3
ENDBRANCH   1   2
BRANCH   1  16
ATOM     16  O   UNL A   1      33.375  34.466  31.062  1.00  0.00    -0.374 OA
BRANCH  16  17
ATOM     17  C   UNL A   1      34.410  34.462  30.080  1.00  0.00     0.202 C 
BRANCH  17  18
ATOM     18  C   UNL A   1      34.335  33.355  29.021  1.00  0.00     0.261 C 
BRANCH  18  19
ATOM     19  O   UNL A   1      35.069  32.173  29.397  1.00  0.00    -0.460 OA
BRANCH  19  20
ATOM     20  C   UNL A   1      34.909  31.117  28.567  1.00  0.00     0.338 C 
ATOM     21  O   UNL A   1      33.982  30.917  27.788  1.00  0.00    -0.246 OA
BRANCH  20  22
ATOM     22  C   UNL A   1      36.094  30.244  28.593  1.00  0.00     0.060 A 
ATOM     23  C   UNL A   1      36.445  29.658  29.817  1.00  0.00     0.016 A 
ATOM     24  C   UNL A   1      36.927  30.115  27.480  1.00  0.00     0.016 A 
ATOM     25  C   UNL A   1      37.662  28.990  29.949  1.00  0.00     0.010 A 
ATOM     26  C   UNL A   1      38.152  29.454  27.618  1.00  0.00     0.010 A 
ATOM     27  C   UNL A   1      38.544  28.926  28.863  1.00  0.00    -0.014 A 
BRANCH  27  28
ATOM     28  C   UNL A   1      39.944  28.482  29.072  1.00  0.00     0.031 A 
ATOM     29  C   UNL A   1      40.916  29.434  29.714  1.00  0.00     0.074 A 
ATOM     30  C   UNL A   1      40.345  27.248  28.721  1.00  0.00     0.049 A 
ATOM     31  N   UNL A   1      42.203  29.299  29.912  1.00  0.00    -0.248 NA
ATOM     32  C   UNL A   1      40.362  30.709  30.202  1.00  0.00     0.031 C 
ATOM     33  C   UNL A   1      39.490  26.203  28.160  1.00  0.00     0.029 A 
ATOM     34  N   UNL A   1      41.589  26.669  28.781  1.00  0.00    -0.354 N 
ATOM     35  C   UNL A   1      42.612  30.472  30.536  1.00  0.00     0.074 A 
ATOM     36  C   UNL A   1      41.444  31.315  30.667  1.00  0.00     0.031 C 
ATOM     37  C   UNL A   1      40.238  25.113  27.918  1.00  0.00     0.029 A 
ATOM     38  C   UNL A   1      41.629  25.397  28.268  1.00  0.00     0.049 A 
ATOM     39  H   UNL A   1      42.376  27.124  29.159  1.00  0.00     0.167 HD
ATOM     40  C   UNL A   1      43.849  30.816  30.965  1.00  0.00     0.031 A 
ATOM     41  C   UNL A   1      42.674  24.569  28.076  1.00  0.00     0.031 A 
ATOM     42  C   UNL A   1      45.017  29.990  30.826  1.00  0.00     0.049 A 
ATOM     43  C   UNL A   1      44.058  25.016  28.467  1.00  0.00     0.074 A 
ATOM     44  C   UNL A   1      46.318  30.263  31.208  1.00  0.00     0.029 A 
ATOM     45  N   UNL A   1      45.020  28.726  30.260  1.00  0.00    -0.354 N 
ATOM     46  N   UNL A   1      44.436  26.134  29.038  1.00  0.00    -0.248 NA
ATOM     47  C   UNL A   1      45.161  24.084  28.186  1.00  0.00     0.031 C 
ATOM     48  C   UNL A   1      47.119  29.177  30.837  1.00  0.00     0.029 A 
ATOM     49  C   UNL A   1      46.304  28.210  30.271  1.00  0.00     0.049 A 
ATOM     50  H   UNL A   1      44.228  28.262  29.904  1.00  0.00     0.167 HD
ATOM     51  C   UNL A   1      45.810  26.023  29.219  1.00  0.00     0.074 A 
ATOM     52  C   UNL A   1      46.199  24.729  28.699  1.00  0.00     0.031 C 
ATOM     53  C   UNL A   1      46.671  26.912  29.769  1.00  0.00     0.031 A 
BRANCH  40  54
ATOM     54  C   UNL A   1      44.007  32.168  31.600  1.00  0.00    -0.014 A 
ATOM     55  C   UNL A   1      44.203  33.318  30.819  1.00  0.00     0.009 A 
ATOM     56  C   UNL A   1      43.924  32.298  32.995  1.00  0.00     0.009 A 
ATOM     57  C   UNL A   1      44.338  34.568  31.426  1.00  0.00     0.001 A 
ATOM     58  C   UNL A   1      44.036  33.552  33.597  1.00  0.00     0.001 A 
ATOM     59  C   UNL A   1      44.250  34.685  32.812  1.00  0.00     0.000 A 
ENDBRANCH  40  54
BRANCH  41  60
ATOM     60  C   UNL A   1      42.469  23.235  27.453  1.00  0.00    -0.014 A 
ATOM     61  C   UNL A   1      42.071  22.137  28.230  1.00  0.00     0.009 A 
ATOM     62  C   UNL A   1      42.711  23.045  26.084  1.00  0.00     0.009 A 
ATOM     63  C   UNL A   1      41.948  20.870  27.655  1.00  0.00     0.001 A 
ATOM     64  C   UNL A   1      42.560  21.783  25.505  1.00  0.00     0.001 A 
ATOM     65  C   UNL A   1      42.190  20.696  26.293  1.00  0.00     0.000 A 
ENDBRANCH  41  60
BRANCH  53  66
ATOM     66  C   UNL A   1      48.108  26.496  29.901  1.00  0.00    -0.014 A 
ATOM     67  C   UNL A   1      49.051  26.799  28.908  1.00  0.00     0.009 A 
ATOM     68  C   UNL A   1      48.531  25.839  31.068  1.00  0.00     0.009 A 
ATOM     69  C   UNL A   1      50.389  26.432  29.073  1.00  0.00     0.001 A 
ATOM     70  C   UNL A   1      49.872  25.495  31.240  1.00  0.00     0.001 A 
ATOM     71  C   UNL A   1      50.799  25.785  30.240  1.00  0.00     0.000 A 
ENDBRANCH  53  66
ENDBRANCH  27  28
ENDBRANCH  20  22
ENDBRANCH  19  20
ENDBRANCH  18  19
ENDBRANCH  17  18
ENDBRANCH  16  17
ENDBRANCH   1  16
TORSDOF 17
ENDMDL
MODEL 2
REMARK VINA RESULT:      -7.9      4.848     10.415
REMARK SMILES C[C@H]([NH2+]C1CC1)[C@H](C)C(=O)OCCOCCOC(=O)c1ccc(-c2c3nc(c(-c4ccccc4)c4ccc([nH]4)c(-c4ccccc4)c4nc(c(-c5ccccc5)c5ccc2[nH]5)C=C4)C=C3)cc1
REMARK SMILES IDX 13 1 12 2 11 3 9 4 10 5 7 6 8 7 2 8 1 9 3 10 4 13 5 14 6 15
REMARK SMILES IDX 14 16 15 17 16 18 17 19 18 20 19 21 20 22 21 23 67 24 22 25
REMARK SMILES IDX 66 26 23 27 24 28 25 29 60 30 26 31 65 32 59 33 61 34 27 35
REMARK SMILES IDX 64 36 58 37 57 38 28 40 50 41 35 42 49 43 36 44 39 45 48 46
REMARK SMILES IDX 62 47 37 48 38 49 47 51 63 52 40 53 29 54 30 55 34 56 31 57
REMARK SMILES IDX 33 58 32 59 51 60 52 61 56 62 53 63 55 64 54 65 41 66 42 67
REMARK SMILES IDX 46 68 43 69 45 70 44 71
REMARK H PARENT 3 11 3 12 61 39 39 50
REMARK Flexibility Score: inf
ROOT
ATOM      1  C   UNL A   1      46.140  20.233  24.621  1.00  0.00     0.202 C 
ENDROOT
BRANCH   1   2
ATOM      2  C   UNL A   1      45.547  21.339  25.497  1.00  0.00     0.261 C 
BRANCH   2   3
ATOM      3  O   UNL A   1      46.410  22.488  25.544  1.00  0.00    -0.463 OA
BRANCH   3   4
ATOM      4  C   UNL A   1      45.941  23.622  24.951  1.00  0.00     0.314 C 
ATOM      5  O   UNL A   1      45.347  23.658  23.881  1.00  0.00    -0.252 OA
BRANCH   4   6
ATOM      6  C   UNL A   1      46.305  24.871  25.736  1.00  0.00     0.154 C 
ATOM      7  C   UNL A   1      47.792  24.959  26.100  1.00  0.00     0.026 C 
BRANCH   6   8
ATOM      8  C   UNL A   1      45.744  26.107  24.994  1.00  0.00     0.193 C 
ATOM      9  C   UNL A   1      46.829  27.128  24.624  1.00  0.00     0.076 C 
BRANCH   8  10
ATOM     10  N   UNL A   1      44.698  26.734  25.822  1.00  0.00    -0.341 N 
ATOM     11  H   UNL A   1      45.144  27.410  26.441  1.00  0.00     0.346 HD
ATOM     12  H   UNL A   1      44.234  25.977  26.325  1.00  0.00     0.346 HD
BRANCH  10  13
ATOM     13  C   UNL A   1      43.657  27.427  25.063  1.00  0.00     0.183 C 
ATOM     14  C   UNL A   1      42.283  26.814  25.021  1.00  0.00     0.071 C 
ATOM     15  C   UNL A   1      42.510  28.094  25.768  1.00  0.00     0.071 C 
ENDBRANCH  10  13
ENDBRANCH   8  10
ENDBRANCH   6   8
ENDBRANCH   4   6
ENDBRANCH   3   4
ENDBRANCH   2   3
ENDBRANCH   1   2
BRANCH   1  16
ATOM     16  O   UNL A   1      45.477  18.972  24.670  1.00  0.00    -0.374 OA
BRANCH  16  17
ATOM     17  C   UNL A   1      44.455  18.799  25.649  1.00  0.00     0.202 C 
BRANCH  17  18
ATOM     18  C   UNL A   1      43.009  18.858  25.138  1.00  0.00     0.261 C 
BRANCH  18  19
ATOM     19  O   UNL A   1      42.041  18.886  26.206  1.00  0.00    -0.460 OA
BRANCH  19  20
ATOM     20  C   UNL A   1      41.193  19.939  26.175  1.00  0.00     0.338 C 
ATOM     21  O   UNL A   1      40.007  19.931  25.862  1.00  0.00    -0.246 OA
BRANCH  20  22
ATOM     22  C   UNL A   1      41.838  21.147  26.717  1.00  0.00     0.060 A 
ATOM     23  C   UNL A   1      41.909  21.279  28.111  1.00  0.00     0.016 A 
ATOM     24  C   UNL A   1      42.236  22.194  25.884  1.00  0.00     0.016 A 
ATOM     25  C   UNL A   1      42.323  22.483  28.679  1.00  0.00     0.010 A 
ATOM     26  C   UNL A   1      42.641  23.405  26.456  1.00  0.00     0.010 A 
ATOM     27  C   UNL A   1      42.645  23.569  27.854  1.00  0.00    -0.014 A 
BRANCH  27  28
ATOM     28  C   UNL A   1      42.800  24.923  28.441  1.00  0.00     0.031 A 
ATOM     29  C   UNL A   1      44.140  25.318  29.001  1.00  0.00     0.074 A 
ATOM     30  C   UNL A   1      41.780  25.798  28.457  1.00  0.00     0.049 A 
ATOM     31  N   UNL A   1      44.484  26.406  29.643  1.00  0.00    -0.248 NA
ATOM     32  C   UNL A   1      45.241  24.357  28.811  1.00  0.00     0.031 C 
ATOM     33  C   UNL A   1      40.456  25.572  27.882  1.00  0.00     0.029 A 
ATOM     34  N   UNL A   1      41.705  27.061  28.992  1.00  0.00    -0.354 N 
ATOM     35  C   UNL A   1      45.833  26.257  29.939  1.00  0.00     0.074 A 
ATOM     36  C   UNL A   1      46.243  24.967  29.428  1.00  0.00     0.031 C 
ATOM     37  C   UNL A   1      39.695  26.658  28.104  1.00  0.00     0.029 A 
ATOM     38  C   UNL A   1      40.465  27.636  28.870  1.00  0.00     0.049 A 
ATOM     39  H   UNL A   1      42.469  27.511  29.420  1.00  0.00     0.167 HD
ATOM     40  C   UNL A   1      46.661  27.117  30.578  1.00  0.00     0.031 A 
ATOM     41  C   UNL A   1      39.997  28.805  29.350  1.00  0.00     0.031 A 
ATOM     42  C   UNL A   1      46.258  28.394  31.102  1.00  0.00     0.049 A 
ATOM     43  C   UNL A   1      40.910  29.699  30.148  1.00  0.00     0.074 A 
ATOM     44  C   UNL A   1      47.019  29.326  31.785  1.00  0.00     0.029 A 
ATOM     45  N   UNL A   1      44.981  28.918  30.995  1.00  0.00    -0.354 N 
ATOM     46  N   UNL A   1      42.178  29.539  30.439  1.00  0.00    -0.248 NA
ATOM     47  C   UNL A   1      40.323  30.937  30.683  1.00  0.00     0.031 C 
ATOM     48  C   UNL A   1      46.190  30.399  32.128  1.00  0.00     0.029 A 
ATOM     49  C   UNL A   1      44.928  30.156  31.612  1.00  0.00     0.049 A 
ATOM     50  H   UNL A   1      44.223  28.477  30.547  1.00  0.00     0.167 HD
ATOM     51  C   UNL A   1      42.549  30.670  31.156  1.00  0.00     0.074 A 
ATOM     52  C   UNL A   1      41.373  31.510  31.255  1.00  0.00     0.031 C 
ATOM     53  C   UNL A   1      43.756  30.988  31.683  1.00  0.00     0.031 A 
BRANCH  40  54
ATOM     54  C   UNL A   1      48.085  26.686  30.776  1.00  0.00    -0.014 A 
ATOM     55  C   UNL A   1      49.073  26.985  29.824  1.00  0.00     0.009 A 
ATOM     56  C   UNL A   1      48.451  26.002  31.945  1.00  0.00     0.009 A 
ATOM     57  C   UNL A   1      50.395  26.584  30.029  1.00  0.00     0.001 A 
ATOM     58  C   UNL A   1      49.778  25.623  32.158  1.00  0.00     0.001 A 
ATOM     59  C   UNL A   1      50.747  25.908  31.196  1.00  0.00     0.000 A 
ENDBRANCH  40  54
BRANCH  41  60
ATOM     60  C   UNL A   1      38.582  29.197  29.122  1.00  0.00    -0.014 A 
ATOM     61  C   UNL A   1      37.625  29.041  30.136  1.00  0.00     0.009 A 
ATOM     62  C   UNL A   1      38.173  29.690  27.873  1.00  0.00     0.009 A 
ATOM     63  C   UNL A   1      36.283  29.344  29.896  1.00  0.00     0.001 A 
ATOM     64  C   UNL A   1      36.835  30.019  27.644  1.00  0.00     0.001 A 
ATOM     65  C   UNL A   1      35.891  29.835  28.651  1.00  0.00     0.000 A 
ENDBRANCH  41  60
BRANCH  53  66
ATOM     66  C   UNL A   1      43.891  32.323  32.356  1.00  0.00    -0.014 A 
ATOM     67  C   UNL A   1      43.669  32.475  33.732  1.00  0.00     0.009 A 
ATOM     68  C   UNL A   1      44.303  33.435  31.604  1.00  0.00     0.009 A 
ATOM     69  C   UNL A   1      43.836  33.722  34.339  1.00  0.00     0.001 A 
ATOM     70  C   UNL A   1      44.493  34.674  32.217  1.00  0.00     0.001 A 
ATOM     71  C   UNL A   1      44.253  34.818  33.582  1.00  0.00     0.000 A 
ENDBRANCH  53  66
ENDBRANCH  27  28
ENDBRANCH  20  22
ENDBRANCH  19  20
ENDBRANCH  18  19
ENDBRANCH  17  18
ENDBRANCH  16  17
ENDBRANCH   1  16
TORSDOF 17
ENDMDL
MODEL 3
REMARK VINA RESULT:      -7.7      2.858      4.822
REMARK SMILES C[C@H]([NH2+]C1CC1)[C@H](C)C(=O)OCCOCCOC(=O)c1ccc(-c2c3nc(c(-c4ccccc4)c4ccc([nH]4)c(-c4ccccc4)c4nc(c(-c5ccccc5)c5ccc2[nH]5)C=C4)C=C3)cc1
REMARK SMILES IDX 13 1 12 2 11 3 9 4 10 5 7 6 8 7 2 8 1 9 3 10 4 13 5 14 6 15
REMARK SMILES IDX 14 16 15 17 16 18 17 19 18 20 19 21 20 22 21 23 67 24 22 25
REMARK SMILES IDX 66 26 23 27 24 28 25 29 60 30 26 31 65 32 59 33 61 34 27 35
REMARK SMILES IDX 64 36 58 37 57 38 28 40 50 41 35 42 49 43 36 44 39 45 48 46
REMARK SMILES IDX 62 47 37 48 38 49 47 51 63 52 40 53 29 54 30 55 34 56 31 57
REMARK SMILES IDX 33 58 32 59 51 60 52 61 56 62 53 63 55 64 54 65 41 66 42 67
REMARK SMILES IDX 46 68 43 69 45 70 44 71
REMARK H PARENT 3 11 3 12 61 39 39 50
REMARK Flexibility Score: inf
ROOT
ATOM      1  C   UNL A   1      33.654  32.543  28.020  1.00  0.00     0.202 C 
ENDROOT
BRANCH   1   2
ATOM      2  C   UNL A   1      34.044  31.309  27.204  1.00  0.00     0.261 C 
BRANCH   2   3
ATOM      3  O   UNL A   1      33.288  30.154  27.609  1.00  0.00    -0.463 OA
BRANCH   3   4
ATOM      4  C   UNL A   1      33.850  28.941  27.345  1.00  0.00     0.314 C 
ATOM      5  O   UNL A   1      35.044  28.747  27.155  1.00  0.00    -0.252 OA
BRANCH   4   6
ATOM      6  C   UNL A   1      32.808  27.839  27.236  1.00  0.00     0.154 C 
ATOM      7  C   UNL A   1      31.407  28.270  27.687  1.00  0.00     0.026 C 
BRANCH   6   8
ATOM      8  C   UNL A   1      32.875  27.228  25.817  1.00  0.00     0.193 C 
ATOM      9  C   UNL A   1      33.744  25.963  25.750  1.00  0.00     0.076 C 
BRANCH   8  10
ATOM     10  N   UNL A   1      33.366  28.249  24.874  1.00  0.00    -0.341 N 
ATOM     11  H   UNL A   1      34.338  28.455  25.105  1.00  0.00     0.346 HD
ATOM     12  H   UNL A   1      32.751  29.057  24.976  1.00  0.00     0.346 HD
BRANCH  10  13
ATOM     13  C   UNL A   1      33.304  27.854  23.467  1.00  0.00     0.183 C 
ATOM     14  C   UNL A   1      32.620  28.784  22.500  1.00  0.00     0.071 C 
ATOM     15  C   UNL A   1      34.105  28.589  22.429  1.00  0.00     0.071 C 
ENDBRANCH  10  13
ENDBRANCH   8  10
ENDBRANCH   6   8
ENDBRANCH   4   6
ENDBRANCH   3   4
ENDBRANCH   2   3
ENDBRANCH   1   2
BRANCH   1  16
ATOM     16  O   UNL A   1      34.519  33.670  27.902  1.00  0.00    -0.374 OA
BRANCH  16  17
ATOM     17  C   UNL A   1      34.446  34.670  28.917  1.00  0.00     0.202 C 
BRANCH  17  18
ATOM     18  C   UNL A   1      34.427  34.165  30.366  1.00  0.00     0.261 C 
BRANCH  18  19
ATOM     19  O   UNL A   1      35.691  33.607  30.778  1.00  0.00    -0.460 OA
BRANCH  19  20
ATOM     20  C   UNL A   1      35.606  32.413  31.408  1.00  0.00     0.338 C 
ATOM     21  O   UNL A   1      34.767  32.065  32.233  1.00  0.00    -0.246 OA
BRANCH  20  22
ATOM     22  C   UNL A   1      36.601  31.467  30.876  1.00  0.00     0.060 A 
ATOM     23  C   UNL A   1      37.406  30.781  31.796  1.00  0.00     0.016 A 
ATOM     24  C   UNL A   1      36.842  31.360  29.505  1.00  0.00     0.016 A 
ATOM     25  C   UNL A   1      38.493  30.030  31.351  1.00  0.00     0.010 A 
ATOM     26  C   UNL A   1      37.940  30.615  29.062  1.00  0.00     0.010 A 
ATOM     27  C   UNL A   1      38.795  29.983  29.984  1.00  0.00    -0.014 A 
BRANCH  27  28
ATOM     28  C   UNL A   1      40.099  29.439  29.533  1.00  0.00     0.031 A 
ATOM     29  C   UNL A   1      41.294  30.353  29.505  1.00  0.00     0.074 A 
ATOM     30  C   UNL A   1      40.232  28.149  29.175  1.00  0.00     0.049 A 
ATOM     31  N   UNL A   1      42.505  30.125  29.064  1.00  0.00    -0.248 NA
ATOM     32  C   UNL A   1      41.097  31.707  30.051  1.00  0.00     0.031 C 
ATOM     33  C   UNL A   1      39.177  27.140  29.227  1.00  0.00     0.029 A 
ATOM     34  N   UNL A   1      41.323  27.473  28.688  1.00  0.00    -0.354 N 
ATOM     35  C   UNL A   1      43.209  31.306  29.270  1.00  0.00     0.074 A 
ATOM     36  C   UNL A   1      42.287  32.255  29.856  1.00  0.00     0.031 C 
ATOM     37  C   UNL A   1      39.670  25.973  28.778  1.00  0.00     0.029 A 
ATOM     38  C   UNL A   1      41.061  26.164  28.370  1.00  0.00     0.049 A 
ATOM     39  H   UNL A   1      42.209  27.888  28.578  1.00  0.00     0.167 HD
ATOM     40  C   UNL A   1      44.507  31.577  28.998  1.00  0.00     0.031 A 
ATOM     41  C   UNL A   1      41.845  25.235  27.789  1.00  0.00     0.031 A 
ATOM     42  C   UNL A   1      45.424  30.644  28.403  1.00  0.00     0.049 A 
ATOM     43  C   UNL A   1      43.257  25.593  27.401  1.00  0.00     0.074 A 
ATOM     44  C   UNL A   1      46.753  30.834  28.068  1.00  0.00     0.029 A 
ATOM     45  N   UNL A   1      45.104  29.342  28.057  1.00  0.00    -0.354 N 
ATOM     46  N   UNL A   1      43.905  26.718  27.582  1.00  0.00    -0.248 NA
ATOM     47  C   UNL A   1      44.044  24.549  26.727  1.00  0.00     0.031 C 
ATOM     48  C   UNL A   1      47.228  29.657  27.481  1.00  0.00     0.029 A 
ATOM     49  C   UNL A   1      46.208  28.719  27.499  1.00  0.00     0.049 A 
ATOM     50  H   UNL A   1      44.224  28.920  28.188  1.00  0.00     0.167 HD
ATOM     51  C   UNL A   1      45.183  26.504  27.081  1.00  0.00     0.074 A 
ATOM     52  C   UNL A   1      45.221  25.143  26.590  1.00  0.00     0.031 C 
ATOM     53  C   UNL A   1      46.234  27.358  27.035  1.00  0.00     0.031 A 
BRANCH  40  54
ATOM     54  C   UNL A   1      45.004  32.958  29.315  1.00  0.00    -0.014 A 
ATOM     55  C   UNL A   1      45.603  33.247  30.551  1.00  0.00     0.009 A 
ATOM     56  C   UNL A   1      44.904  33.974  28.352  1.00  0.00     0.009 A 
ATOM     57  C   UNL A   1      46.068  34.536  30.825  1.00  0.00     0.001 A 
ATOM     58  C   UNL A   1      45.391  35.254  28.620  1.00  0.00     0.001 A 
ATOM     59  C   UNL A   1      45.966  35.535  29.859  1.00  0.00     0.000 A 
ENDBRANCH  40  54
BRANCH  41  60
ATOM     60  C   UNL A   1      41.314  23.877  27.503  1.00  0.00    -0.014 A 
ATOM     61  C   UNL A   1      40.387  23.676  26.470  1.00  0.00     0.009 A 
ATOM     62  C   UNL A   1      41.702  22.782  28.290  1.00  0.00     0.009 A 
ATOM     63  C   UNL A   1      39.837  22.411  26.249  1.00  0.00     0.001 A 
ATOM     64  C   UNL A   1      41.172  21.513  28.049  1.00  0.00     0.001 A 
ATOM     65  C   UNL A   1      40.232  21.331  27.037  1.00  0.00     0.000 A 
ENDBRANCH  41  60
BRANCH  53  66
ATOM     66  C   UNL A   1      47.533  26.832  26.496  1.00  0.00    -0.014 A 
ATOM     67  C   UNL A   1      47.849  26.921  25.132  1.00  0.00     0.009 A 
ATOM     68  C   UNL A   1      48.479  26.291  27.382  1.00  0.00     0.009 A 
ATOM     69  C   UNL A   1      49.079  26.456  24.663  1.00  0.00     0.001 A 
ATOM     70  C   UNL A   1      49.717  25.849  26.914  1.00  0.00     0.001 A 
ATOM     71  C   UNL A   1      50.014  25.926  25.555  1.00  0.00     0.000 A 
ENDBRANCH  53  66
ENDBRANCH  27  28
ENDBRANCH  20  22
ENDBRANCH  19  20
ENDBRANCH  18  19
ENDBRANCH  17  18
ENDBRANCH  16  17
ENDBRANCH   1  16
TORSDOF 17
ENDMDL
