MODEL 1
REMARK VINA RESULT:     -11.4      0.000      0.000
REMARK SMILES Cc1cccc(O[C@H](C)C(=O)N2CCC[C@@H](C(=O)OCCOCCOC(=O)c3ccc(-c4c5nc(c(-c6ccccc6)c6ccc([nH]6)c(-c6ccccc6)c6nc(c(-c7ccccc7)c7ccc4[nH]7)C=C6)C=C5)cc3)C2)c1
REMARK SMILES IDX 21 1 20 2 19 3 17 4 18 5 16 6 12 7 13 8 76 9 14 10 15 11
REMARK SMILES IDX 10 12 11 13 8 14 9 15 7 16 6 17 1 18 2 19 3 20 77 21 4 22
REMARK SMILES IDX 5 23 22 24 23 25 24 26 25 27 26 28 27 29 28 30 29 31 75 32
REMARK SMILES IDX 30 33 74 34 31 35 32 36 33 37 68 38 34 39 73 40 67 41 69 42
REMARK SMILES IDX 35 43 72 44 66 45 65 46 36 48 58 49 43 50 57 51 44 52 47 53
REMARK SMILES IDX 56 54 70 55 45 56 46 57 55 59 71 60 48 61 37 62 38 63 42 64
REMARK SMILES IDX 39 65 41 66 40 67 59 68 60 69 64 70 61 71 63 72 62 73 49 74
REMARK SMILES IDX 50 75 54 76 51 77 53 78 52 79
REMARK H PARENT 69 47 47 58
REMARK Flexibility Score: inf
ROOT
ATOM      1  C   UNL A   1      33.591  33.651  27.956  1.00  0.00     0.202 C 
ENDROOT
BRANCH   1   2
ATOM      2  C   UNL A   1      33.888  32.238  28.361  1.00  0.00     0.261 C 
BRANCH   2   3
ATOM      3  O   UNL A   1      33.365  31.202  27.503  1.00  0.00    -0.463 OA
BRANCH   3   4
ATOM      4  C   UNL A   1      34.028  30.020  27.328  1.00  0.00     0.310 C 
ATOM      5  O   UNL A   1      35.181  29.788  27.615  1.00  0.00    -0.252 OA
BRANCH   4   6
ATOM      6  C   UNL A   1      33.105  29.029  26.674  1.00  0.00     0.119 C 
ATOM      7  N   UNL A   1      33.113  26.932  25.426  1.00  0.00    -0.339 N 
ATOM      8  C   UNL A   1      31.983  26.404  26.181  1.00  0.00     0.119 C 
ATOM      9  C   UNL A   1      33.939  27.867  26.125  1.00  0.00     0.134 C 
ATOM     10  C   UNL A   1      31.153  27.495  26.867  1.00  0.00     0.022 C 
ATOM     11  C   UNL A   1      32.024  28.510  27.616  1.00  0.00     0.019 C 
BRANCH   7  12
ATOM     12  C   UNL A   1      33.266  26.711  24.075  1.00  0.00     0.263 C 
ATOM     13  O   UNL A   1      33.758  25.658  23.661  1.00  0.00    -0.271 OA
BRANCH  12  14
ATOM     14  C   UNL A   1      32.844  27.843  23.073  1.00  0.00     0.259 C 
ATOM     15  C   UNL A   1      34.003  28.580  22.405  1.00  0.00     0.064 C 
BRANCH  14  16
ATOM     16  O   UNL A   1      31.604  27.646  22.395  1.00  0.00    -0.481 OA
BRANCH  16  17
ATOM     17  C   UNL A   1      30.361  28.138  22.610  1.00  0.00     0.120 A 
ATOM     18  C   UNL A   1      28.718  31.457  21.618  1.00  0.00     0.044 C 
ATOM     19  C   UNL A   1      28.914  30.081  22.179  1.00  0.00    -0.047 A 
ATOM     20  C   UNL A   1      27.857  29.443  22.825  1.00  0.00     0.003 A 
ATOM     21  C   UNL A   1      30.160  29.430  22.099  1.00  0.00     0.049 A 
ATOM     22  C   UNL A   1      28.036  28.163  23.328  1.00  0.00     0.004 A 
ATOM     23  C   UNL A   1      29.270  27.512  23.186  1.00  0.00     0.046 A 
ENDBRANCH  16  17
ENDBRANCH  14  16
ENDBRANCH  12  14
ENDBRANCH   7  12
ENDBRANCH   4   6
ENDBRANCH   3   4
ENDBRANCH   2   3
ENDBRANCH   1   2
BRANCH   1  24
ATOM     24  O   UNL A   1      32.808  34.310  28.924  1.00  0.00    -0.374 OA
BRANCH  24  25
ATOM     25  C   UNL A   1      33.150  35.670  29.146  1.00  0.00     0.202 C 
BRANCH  25  26
ATOM     26  C   UNL A   1      32.715  36.184  30.529  1.00  0.00     0.261 C 
BRANCH  26  27
ATOM     27  O   UNL A   1      32.939  35.178  31.546  1.00  0.00    -0.460 OA
BRANCH  27  28
ATOM     28  C   UNL A   1      34.182  35.143  32.112  1.00  0.00     0.338 C 
ATOM     29  O   UNL A   1      34.735  36.093  32.645  1.00  0.00    -0.246 OA
BRANCH  28  30
ATOM     30  C   UNL A   1      34.892  33.889  31.705  1.00  0.00     0.060 A 
ATOM     31  C   UNL A   1      34.726  32.702  32.448  1.00  0.00     0.016 A 
ATOM     32  C   UNL A   1      35.997  34.034  30.879  1.00  0.00     0.016 A 
ATOM     33  C   UNL A   1      35.762  31.749  32.499  1.00  0.00     0.010 A 
ATOM     34  C   UNL A   1      37.072  33.205  31.099  1.00  0.00     0.010 A 
ATOM     35  C   UNL A   1      36.980  32.053  31.898  1.00  0.00    -0.014 A 
BRANCH  35  36
ATOM     36  C   UNL A   1      38.249  31.320  32.014  1.00  0.00     0.031 A 
ATOM     37  C   UNL A   1      38.385  30.085  31.203  1.00  0.00     0.074 A 
ATOM     38  C   UNL A   1      39.362  31.880  32.551  1.00  0.00     0.049 A 
ATOM     39  N   UNL A   1      39.401  29.298  31.257  1.00  0.00    -0.248 NA
ATOM     40  C   UNL A   1      37.355  29.589  30.283  1.00  0.00     0.031 C 
ATOM     41  C   UNL A   1      40.766  31.642  32.193  1.00  0.00     0.029 A 
ATOM     42  N   UNL A   1      39.467  32.843  33.549  1.00  0.00    -0.354 N 
ATOM     43  C   UNL A   1      39.349  28.495  30.147  1.00  0.00     0.074 A 
ATOM     44  C   UNL A   1      37.998  28.597  29.665  1.00  0.00     0.031 C 
ATOM     45  C   UNL A   1      41.576  32.236  33.092  1.00  0.00     0.029 A 
ATOM     46  C   UNL A   1      40.732  32.767  34.147  1.00  0.00     0.049 A 
ATOM     47  H   UNL A   1      38.760  33.482  33.797  1.00  0.00     0.167 HD
ATOM     48  C   UNL A   1      40.513  27.974  29.676  1.00  0.00     0.031 A 
ATOM     49  C   UNL A   1      40.840  32.571  35.489  1.00  0.00     0.031 A 
ATOM     50  C   UNL A   1      41.613  28.207  30.626  1.00  0.00     0.049 A 
ATOM     51  C   UNL A   1      41.411  31.203  35.683  1.00  0.00     0.074 A 
ATOM     52  C   UNL A   1      42.734  29.017  30.601  1.00  0.00     0.029 A 
ATOM     53  N   UNL A   1      41.450  27.813  31.960  1.00  0.00    -0.354 N 
ATOM     54  N   UNL A   1      41.325  30.287  34.757  1.00  0.00    -0.248 NA
ATOM     55  C   UNL A   1      42.204  30.781  36.830  1.00  0.00     0.031 C 
ATOM     56  C   UNL A   1      43.165  29.201  31.951  1.00  0.00     0.029 A 
ATOM     57  C   UNL A   1      42.343  28.462  32.792  1.00  0.00     0.049 A 
ATOM     58  H   UNL A   1      40.783  27.156  32.266  1.00  0.00     0.167 HD
ATOM     59  C   UNL A   1      42.127  29.249  35.083  1.00  0.00     0.074 A 
ATOM     60  C   UNL A   1      42.607  29.563  36.420  1.00  0.00     0.031 C 
ATOM     61  C   UNL A   1      42.350  28.210  34.234  1.00  0.00     0.031 A 
BRANCH  48  62
ATOM     62  C   UNL A   1      40.694  27.456  28.264  1.00  0.00    -0.014 A 
ATOM     63  C   UNL A   1      40.287  26.148  27.952  1.00  0.00     0.009 A 
ATOM     64  C   UNL A   1      41.332  28.154  27.217  1.00  0.00     0.009 A 
ATOM     65  C   UNL A   1      40.497  25.582  26.684  1.00  0.00     0.001 A 
ATOM     66  C   UNL A   1      41.519  27.609  25.938  1.00  0.00     0.001 A 
ATOM     67  C   UNL A   1      41.104  26.316  25.672  1.00  0.00     0.000 A 
ENDBRANCH  48  62
BRANCH  49  68
ATOM     68  C   UNL A   1      39.739  33.255  36.233  1.00  0.00    -0.014 A 
ATOM     69  C   UNL A   1      38.883  32.414  36.980  1.00  0.00     0.009 A 
ATOM     70  C   UNL A   1      39.865  34.594  36.638  1.00  0.00     0.009 A 
ATOM     71  C   UNL A   1      38.318  32.850  38.184  1.00  0.00     0.001 A 
ATOM     72  C   UNL A   1      39.296  35.023  37.849  1.00  0.00     0.001 A 
ATOM     73  C   UNL A   1      38.563  34.140  38.643  1.00  0.00     0.000 A 
ENDBRANCH  49  68
BRANCH  61  74
ATOM     74  C   UNL A   1      42.644  26.847  34.767  1.00  0.00    -0.014 A 
ATOM     75  C   UNL A   1      41.661  26.056  35.384  1.00  0.00     0.009 A 
ATOM     76  C   UNL A   1      43.884  26.247  34.494  1.00  0.00     0.009 A 
ATOM     77  C   UNL A   1      41.935  24.755  35.799  1.00  0.00     0.001 A 
ATOM     78  C   UNL A   1      44.139  24.925  34.849  1.00  0.00     0.001 A 
ATOM     79  C   UNL A   1      43.173  24.189  35.525  1.00  0.00     0.000 A 
ENDBRANCH  61  74
ENDBRANCH  35  36
ENDBRANCH  28  30
ENDBRANCH  27  28
ENDBRANCH  26  27
ENDBRANCH  25  26
ENDBRANCH  24  25
ENDBRANCH   1  24
TORSDOF 18
ENDMDL
MODEL 2
REMARK VINA RESULT:     -10.9      1.201      2.233
REMARK SMILES Cc1cccc(O[C@H](C)C(=O)N2CCC[C@@H](C(=O)OCCOCCOC(=O)c3ccc(-c4c5nc(c(-c6ccccc6)c6ccc([nH]6)c(-c6ccccc6)c6nc(c(-c7ccccc7)c7ccc4[nH]7)C=C6)C=C5)cc3)C2)c1
REMARK SMILES IDX 21 1 20 2 19 3 17 4 18 5 16 6 12 7 13 8 76 9 14 10 15 11
REMARK SMILES IDX 10 12 11 13 8 14 9 15 7 16 6 17 1 18 2 19 3 20 77 21 4 22
REMARK SMILES IDX 5 23 22 24 23 25 24 26 25 27 26 28 27 29 28 30 29 31 75 32
REMARK SMILES IDX 30 33 74 34 31 35 32 36 33 37 68 38 34 39 73 40 67 41 69 42
REMARK SMILES IDX 35 43 72 44 66 45 65 46 36 48 58 49 43 50 57 51 44 52 47 53
REMARK SMILES IDX 56 54 70 55 45 56 46 57 55 59 71 60 48 61 37 62 38 63 42 64
REMARK SMILES IDX 39 65 41 66 40 67 59 68 60 69 64 70 61 71 63 72 62 73 49 74
REMARK SMILES IDX 50 75 54 76 51 77 53 78 52 79
REMARK H PARENT 69 47 47 58
REMARK Flexibility Score: inf
ROOT
ATOM      1  C   UNL A   1      33.545  33.929  28.005  1.00  0.00     0.202 C 
ENDROOT
BRANCH   1   2
ATOM      2  C   UNL A   1      33.580  32.458  28.296  1.00  0.00     0.261 C 
BRANCH   2   3
ATOM      3  O   UNL A   1      33.411  31.578  27.164  1.00  0.00    -0.463 OA
BRANCH   3   4
ATOM      4  C   UNL A   1      32.170  31.226  26.714  1.00  0.00     0.310 C 
ATOM      5  O   UNL A   1      31.195  31.941  26.647  1.00  0.00    -0.252 OA
BRANCH   4   6
ATOM      6  C   UNL A   1      32.176  29.771  26.337  1.00  0.00     0.119 C 
ATOM      7  N   UNL A   1      32.613  28.276  24.458  1.00  0.00    -0.339 N 
ATOM      8  C   UNL A   1      33.331  27.325  25.298  1.00  0.00     0.119 C 
ATOM      9  C   UNL A   1      32.660  29.639  24.890  1.00  0.00     0.134 C 
ATOM     10  C   UNL A   1      32.996  27.462  26.787  1.00  0.00     0.022 C 
ATOM     11  C   UNL A   1      33.035  28.919  27.264  1.00  0.00     0.019 C 
BRANCH   7  12
ATOM     12  C   UNL A   1      31.777  27.876  23.437  1.00  0.00     0.263 C 
ATOM     13  O   UNL A   1      32.239  27.506  22.355  1.00  0.00    -0.271 OA
BRANCH  12  14
ATOM     14  C   UNL A   1      30.226  27.943  23.663  1.00  0.00     0.259 C 
ATOM     15  C   UNL A   1      29.480  28.903  22.739  1.00  0.00     0.064 C 
BRANCH  14  16
ATOM     16  O   UNL A   1      29.612  26.744  24.137  1.00  0.00    -0.481 OA
BRANCH  16  17
ATOM     17  C   UNL A   1      30.121  25.620  24.692  1.00  0.00     0.120 A 
ATOM     18  C   UNL A   1      31.856  22.567  23.154  1.00  0.00     0.044 C 
ATOM     19  C   UNL A   1      31.281  23.517  24.161  1.00  0.00    -0.047 A 
ATOM     20  C   UNL A   1      31.331  23.196  25.517  1.00  0.00     0.003 A 
ATOM     21  C   UNL A   1      30.657  24.714  23.764  1.00  0.00     0.049 A 
ATOM     22  C   UNL A   1      30.814  24.084  26.448  1.00  0.00     0.004 A 
ATOM     23  C   UNL A   1      30.248  25.297  26.032  1.00  0.00     0.046 A 
ENDBRANCH  16  17
ENDBRANCH  14  16
ENDBRANCH  12  14
ENDBRANCH   7  12
ENDBRANCH   4   6
ENDBRANCH   3   4
ENDBRANCH   2   3
ENDBRANCH   1   2
BRANCH   1  24
ATOM     24  O   UNL A   1      32.763  34.621  28.950  1.00  0.00    -0.374 OA
BRANCH  24  25
ATOM     25  C   UNL A   1      33.203  35.939  29.241  1.00  0.00     0.202 C 
BRANCH  25  26
ATOM     26  C   UNL A   1      32.767  36.427  30.634  1.00  0.00     0.261 C 
BRANCH  26  27
ATOM     27  O   UNL A   1      32.956  35.390  31.626  1.00  0.00    -0.460 OA
BRANCH  27  28
ATOM     28  C   UNL A   1      34.184  35.326  32.221  1.00  0.00     0.338 C 
ATOM     29  O   UNL A   1      34.775  36.278  32.709  1.00  0.00    -0.246 OA
BRANCH  28  30
ATOM     30  C   UNL A   1      34.836  34.015  31.905  1.00  0.00     0.060 A 
ATOM     31  C   UNL A   1      34.707  32.923  32.789  1.00  0.00     0.016 A 
ATOM     32  C   UNL A   1      35.874  34.036  30.986  1.00  0.00     0.016 A 
ATOM     33  C   UNL A   1      35.725  31.954  32.868  1.00  0.00     0.010 A 
ATOM     34  C   UNL A   1      36.948  33.207  31.216  1.00  0.00     0.010 A 
ATOM     35  C   UNL A   1      36.897  32.155  32.145  1.00  0.00    -0.014 A 
BRANCH  35  36
ATOM     36  C   UNL A   1      38.157  31.403  32.246  1.00  0.00     0.031 A 
ATOM     37  C   UNL A   1      38.252  30.147  31.463  1.00  0.00     0.074 A 
ATOM     38  C   UNL A   1      39.293  31.959  32.739  1.00  0.00     0.049 A 
ATOM     39  N   UNL A   1      39.256  29.345  31.511  1.00  0.00    -0.248 NA
ATOM     40  C   UNL A   1      37.189  29.645  30.583  1.00  0.00     0.031 C 
ATOM     41  C   UNL A   1      40.683  31.689  32.351  1.00  0.00     0.029 A 
ATOM     42  N   UNL A   1      39.440  32.945  33.710  1.00  0.00    -0.354 N 
ATOM     43  C   UNL A   1      39.162  28.516  30.422  1.00  0.00     0.074 A 
ATOM     44  C   UNL A   1      37.800  28.628  29.974  1.00  0.00     0.031 C 
ATOM     45  C   UNL A   1      41.526  32.292  33.212  1.00  0.00     0.029 A 
ATOM     46  C   UNL A   1      40.719  32.863  34.275  1.00  0.00     0.049 A 
ATOM     47  H   UNL A   1      38.749  33.600  33.960  1.00  0.00     0.167 HD
ATOM     48  C   UNL A   1      40.304  27.965  29.934  1.00  0.00     0.031 A 
ATOM     49  C   UNL A   1      40.860  32.698  35.618  1.00  0.00     0.031 A 
ATOM     50  C   UNL A   1      41.433  28.202  30.849  1.00  0.00     0.049 A 
ATOM     51  C   UNL A   1      41.414  31.326  35.832  1.00  0.00     0.074 A 
ATOM     52  C   UNL A   1      42.565  28.994  30.774  1.00  0.00     0.029 A 
ATOM     53  N   UNL A   1      41.300  27.844  32.196  1.00  0.00    -0.354 N 
ATOM     54  N   UNL A   1      41.289  30.389  34.932  1.00  0.00    -0.248 NA
ATOM     55  C   UNL A   1      42.231  30.920  36.967  1.00  0.00     0.031 C 
ATOM     56  C   UNL A   1      43.036  29.204  32.107  1.00  0.00     0.029 A 
ATOM     57  C   UNL A   1      42.225  28.500  32.988  1.00  0.00     0.049 A 
ATOM     58  H   UNL A   1      40.631  27.207  32.536  1.00  0.00     0.167 HD
ATOM     59  C   UNL A   1      42.083  29.346  35.262  1.00  0.00     0.074 A 
ATOM     60  C   UNL A   1      42.603  29.685  36.578  1.00  0.00     0.031 C 
ATOM     61  C   UNL A   1      42.266  28.283  34.435  1.00  0.00     0.031 A 
BRANCH  48  62
ATOM     62  C   UNL A   1      40.440  27.408  28.531  1.00  0.00    -0.014 A 
ATOM     63  C   UNL A   1      40.090  26.070  28.284  1.00  0.00     0.009 A 
ATOM     64  C   UNL A   1      40.981  28.104  27.430  1.00  0.00     0.009 A 
ATOM     65  C   UNL A   1      40.264  25.472  27.024  1.00  0.00     0.001 A 
ATOM     66  C   UNL A   1      41.130  27.526  26.160  1.00  0.00     0.001 A 
ATOM     67  C   UNL A   1      40.775  26.204  25.958  1.00  0.00     0.000 A 
ENDBRANCH  48  62
BRANCH  49  68
ATOM     68  C   UNL A   1      39.790  33.418  36.374  1.00  0.00    -0.014 A 
ATOM     69  C   UNL A   1      38.925  32.608  37.144  1.00  0.00     0.009 A 
ATOM     70  C   UNL A   1      39.959  34.757  36.763  1.00  0.00     0.009 A 
ATOM     71  C   UNL A   1      38.393  33.071  38.352  1.00  0.00     0.001 A 
ATOM     72  C   UNL A   1      39.421  35.213  37.978  1.00  0.00     0.001 A 
ATOM     73  C   UNL A   1      38.680  34.358  38.794  1.00  0.00     0.000 A 
ENDBRANCH  49  68
BRANCH  61  74
ATOM     74  C   UNL A   1      42.553  26.929  34.994  1.00  0.00    -0.014 A 
ATOM     75  C   UNL A   1      41.533  26.064  35.424  1.00  0.00     0.009 A 
ATOM     76  C   UNL A   1      43.858  26.414  34.931  1.00  0.00     0.009 A 
ATOM     77  C   UNL A   1      41.816  24.774  35.864  1.00  0.00     0.001 A 
ATOM     78  C   UNL A   1      44.134  25.102  35.309  1.00  0.00     0.001 A 
ATOM     79  C   UNL A   1      43.117  24.292  35.800  1.00  0.00     0.000 A 
ENDBRANCH  61  74
ENDBRANCH  35  36
ENDBRANCH  28  30
ENDBRANCH  27  28
ENDBRANCH  26  27
ENDBRANCH  25  26
ENDBRANCH  24  25
ENDBRANCH   1  24
TORSDOF 18
ENDMDL
MODEL 3
REMARK VINA RESULT:     -10.5      2.415      3.807
REMARK SMILES Cc1cccc(O[C@H](C)C(=O)N2CCC[C@@H](C(=O)OCCOCCOC(=O)c3ccc(-c4c5nc(c(-c6ccccc6)c6ccc([nH]6)c(-c6ccccc6)c6nc(c(-c7ccccc7)c7ccc4[nH]7)C=C6)C=C5)cc3)C2)c1
REMARK SMILES IDX 21 1 20 2 19 3 17 4 18 5 16 6 12 7 13 8 76 9 14 10 15 11
REMARK SMILES IDX 10 12 11 13 8 14 9 15 7 16 6 17 1 18 2 19 3 20 77 21 4 22
REMARK SMILES IDX 5 23 22 24 23 25 24 26 25 27 26 28 27 29 28 30 29 31 75 32
REMARK SMILES IDX 30 33 74 34 31 35 32 36 33 37 68 38 34 39 73 40 67 41 69 42
REMARK SMILES IDX 35 43 72 44 66 45 65 46 36 48 58 49 43 50 57 51 44 52 47 53
REMARK SMILES IDX 56 54 70 55 45 56 46 57 55 59 71 60 48 61 37 62 38 63 42 64
REMARK SMILES IDX 39 65 41 66 40 67 59 68 60 69 64 70 61 71 63 72 62 73 49 74
REMARK SMILES IDX 50 75 54 76 51 77 53 78 52 79
REMARK H PARENT 69 47 47 58
REMARK Flexibility Score: inf
ROOT
ATOM      1  C   UNL A   1      32.849  28.174  26.721  1.00  0.00     0.202 C 
ENDROOT
BRANCH   1   2
ATOM      2  C   UNL A   1      31.547  27.749  27.333  1.00  0.00     0.261 C 
BRANCH   2   3
ATOM      3  O   UNL A   1      30.807  26.733  26.624  1.00  0.00    -0.463 OA
BRANCH   3   4
ATOM      4  C   UNL A   1      31.305  25.471  26.462  1.00  0.00     0.310 C 
ATOM      5  O   UNL A   1      31.666  24.717  27.339  1.00  0.00    -0.252 OA
BRANCH   4   6
ATOM      6  C   UNL A   1      31.380  25.155  24.994  1.00  0.00     0.119 C 
ATOM      7  N   UNL A   1      32.884  25.286  23.076  1.00  0.00    -0.339 N 
ATOM      8  C   UNL A   1      32.516  23.953  22.615  1.00  0.00     0.119 C 
ATOM      9  C   UNL A   1      32.784  25.500  24.487  1.00  0.00     0.134 C 
ATOM     10  C   UNL A   1      31.171  23.473  23.170  1.00  0.00     0.022 C 
ATOM     11  C   UNL A   1      31.045  23.701  24.680  1.00  0.00     0.019 C 
BRANCH   7  12
ATOM     12  C   UNL A   1      33.115  26.332  22.208  1.00  0.00     0.263 C 
ATOM     13  O   UNL A   1      33.408  26.117  21.029  1.00  0.00    -0.271 OA
BRANCH  12  14
ATOM     14  C   UNL A   1      33.041  27.799  22.759  1.00  0.00     0.259 C 
ATOM     15  C   UNL A   1      34.392  28.445  23.060  1.00  0.00     0.064 C 
BRANCH  14  16
ATOM     16  O   UNL A   1      31.932  28.579  22.312  1.00  0.00    -0.481 OA
BRANCH  16  17
ATOM     17  C   UNL A   1      30.610  28.529  22.602  1.00  0.00     0.120 A 
ATOM     18  C   UNL A   1      27.769  31.037  22.020  1.00  0.00     0.044 C 
ATOM     19  C   UNL A   1      28.509  29.795  22.418  1.00  0.00    -0.047 A 
ATOM     20  C   UNL A   1      27.815  28.737  23.002  1.00  0.00     0.003 A 
ATOM     21  C   UNL A   1      29.901  29.687  22.244  1.00  0.00     0.049 A 
ATOM     22  C   UNL A   1      28.498  27.583  23.353  1.00  0.00     0.004 A 
ATOM     23  C   UNL A   1      29.877  27.477  23.119  1.00  0.00     0.046 A 
ENDBRANCH  16  17
ENDBRANCH  14  16
ENDBRANCH  12  14
ENDBRANCH   7  12
ENDBRANCH   4   6
ENDBRANCH   3   4
ENDBRANCH   2   3
ENDBRANCH   1   2
BRANCH   1  24
ATOM     24  O   UNL A   1      32.727  29.414  26.064  1.00  0.00    -0.374 OA
BRANCH  24  25
ATOM     25  C   UNL A   1      32.194  30.463  26.859  1.00  0.00     0.202 C 
BRANCH  25  26
ATOM     26  C   UNL A   1      33.199  31.601  27.108  1.00  0.00     0.261 C 
BRANCH  26  27
ATOM     27  O   UNL A   1      34.054  31.296  28.236  1.00  0.00    -0.460 OA
BRANCH  27  28
ATOM     28  C   UNL A   1      35.381  31.591  28.098  1.00  0.00     0.338 C 
ATOM     29  O   UNL A   1      35.822  32.623  27.614  1.00  0.00    -0.246 OA
BRANCH  28  30
ATOM     30  C   UNL A   1      36.202  30.358  28.317  1.00  0.00     0.060 A 
ATOM     31  C   UNL A   1      36.169  29.690  29.559  1.00  0.00     0.016 A 
ATOM     32  C   UNL A   1      37.271  30.156  27.457  1.00  0.00     0.016 A 
ATOM     33  C   UNL A   1      37.294  28.970  30.005  1.00  0.00     0.010 A 
ATOM     34  C   UNL A   1      38.428  29.631  27.986  1.00  0.00     0.010 A 
ATOM     35  C   UNL A   1      38.464  29.026  29.254  1.00  0.00    -0.014 A 
BRANCH  35  36
ATOM     36  C   UNL A   1      39.801  28.546  29.633  1.00  0.00     0.031 A 
ATOM     37  C   UNL A   1      40.249  27.266  29.030  1.00  0.00     0.074 A 
ATOM     38  C   UNL A   1      40.720  29.352  30.222  1.00  0.00     0.049 A 
ATOM     39  N   UNL A   1      41.356  26.683  29.325  1.00  0.00    -0.248 NA
ATOM     40  C   UNL A   1      39.458  26.492  28.067  1.00  0.00     0.031 C 
ATOM     41  C   UNL A   1      42.181  29.324  30.083  1.00  0.00     0.029 A 
ATOM     42  N   UNL A   1      40.522  30.431  31.079  1.00  0.00    -0.354 N 
ATOM     43  C   UNL A   1      41.597  25.756  28.342  1.00  0.00     0.074 A 
ATOM     44  C   UNL A   1      40.334  25.562  27.683  1.00  0.00     0.031 C 
ATOM     45  C   UNL A   1      42.745  30.153  30.983  1.00  0.00     0.029 A 
ATOM     46  C   UNL A   1      41.680  30.650  31.837  1.00  0.00     0.049 A 
ATOM     47  H   UNL A   1      39.694  30.960  31.141  1.00  0.00     0.167 HD
ATOM     48  C   UNL A   1      42.885  25.396  28.101  1.00  0.00     0.031 A 
ATOM     49  C   UNL A   1      41.616  30.637  33.195  1.00  0.00     0.031 A 
ATOM     50  C   UNL A   1      43.782  25.929  29.141  1.00  0.00     0.049 A 
ATOM     51  C   UNL A   1      42.360  29.423  33.653  1.00  0.00     0.074 A 
ATOM     52  C   UNL A   1      44.752  26.915  29.144  1.00  0.00     0.029 A 
ATOM     53  N   UNL A   1      43.485  25.674  30.485  1.00  0.00    -0.354 N 
ATOM     54  N   UNL A   1      42.558  28.402  32.864  1.00  0.00    -0.248 NA
ATOM     55  C   UNL A   1      43.030  29.286  34.940  1.00  0.00     0.031 C 
ATOM     56  C   UNL A   1      44.943  27.330  30.497  1.00  0.00     0.029 A 
ATOM     57  C   UNL A   1      44.131  26.564  31.324  1.00  0.00     0.049 A 
ATOM     58  H   UNL A   1      42.892  24.952  30.795  1.00  0.00     0.167 HD
ATOM     59  C   UNL A   1      43.456  27.568  33.433  1.00  0.00     0.074 A 
ATOM     60  C   UNL A   1      43.675  28.117  34.762  1.00  0.00     0.031 C 
ATOM     61  C   UNL A   1      43.962  26.490  32.776  1.00  0.00     0.031 A 
BRANCH  48  62
ATOM     62  C   UNL A   1      43.355  24.753  26.812  1.00  0.00    -0.014 A 
ATOM     63  C   UNL A   1      42.627  23.679  26.273  1.00  0.00     0.009 A 
ATOM     64  C   UNL A   1      44.540  25.085  26.123  1.00  0.00     0.009 A 
ATOM     65  C   UNL A   1      43.050  22.991  25.123  1.00  0.00     0.001 A 
ATOM     66  C   UNL A   1      44.956  24.425  24.957  1.00  0.00     0.001 A 
ATOM     67  C   UNL A   1      44.211  23.371  24.458  1.00  0.00     0.000 A 
ENDBRANCH  48  62
BRANCH  49  68
ATOM     68  C   UNL A   1      40.323  31.200  33.689  1.00  0.00    -0.014 A 
ATOM     69  C   UNL A   1      39.500  30.312  34.419  1.00  0.00     0.009 A 
ATOM     70  C   UNL A   1      40.181  32.577  33.928  1.00  0.00     0.009 A 
ATOM     71  C   UNL A   1      38.697  30.773  35.467  1.00  0.00     0.001 A 
ATOM     72  C   UNL A   1      39.373  33.031  34.984  1.00  0.00     0.001 A 
ATOM     73  C   UNL A   1      38.670  32.128  35.782  1.00  0.00     0.000 A 
ENDBRANCH  49  68
BRANCH  61  74
ATOM     74  C   UNL A   1      44.384  25.273  33.530  1.00  0.00    -0.014 A 
ATOM     75  C   UNL A   1      43.470  24.479  34.242  1.00  0.00     0.009 A 
ATOM     76  C   UNL A   1      45.695  24.789  33.390  1.00  0.00     0.009 A 
ATOM     77  C   UNL A   1      43.870  23.302  34.869  1.00  0.00     0.001 A 
ATOM     78  C   UNL A   1      46.081  23.579  33.961  1.00  0.00     0.001 A 
ATOM     79  C   UNL A   1      45.175  22.850  34.723  1.00  0.00     0.000 A 
ENDBRANCH  61  74
ENDBRANCH  35  36
ENDBRANCH  28  30
ENDBRANCH  27  28
ENDBRANCH  26  27
ENDBRANCH  25  26
ENDBRANCH  24  25
ENDBRANCH   1  24
TORSDOF 18
ENDMDL
