MODEL 1
REMARK VINA RESULT:     -11.8      0.000      0.000
REMARK SMILES NS(=O)(=O)c1ccc(-n2nc(NC(=O)NCCCC(=O)OCCOCCOC(=O)c3ccc(-c4c5nc(c(-c6ccccc6)c6ccc([nH]6)c(-c6ccccc6)c6nc(c(-c7ccccc7)c7ccc4[nH]7)C=C6)C=C5)cc3)cc2-c2ccccc2)cc1
REMARK SMILES IDX 22 1 21 2 19 3 20 4 18 5 17 6 16 7 15 8 12 9 13 10 14 12
REMARK SMILES IDX 11 14 9 15 10 16 79 17 78 18 8 19 5 20 6 21 87 22 7 23 86 24
REMARK SMILES IDX 2 25 3 26 4 27 1 28 80 31 81 32 85 33 82 34 84 35 83 36
REMARK SMILES IDX 23 37 24 38 25 39 26 40 27 41 28 42 29 43 30 44 31 45 77 46
REMARK SMILES IDX 32 47 76 48 33 49 34 50 35 51 70 52 36 53 75 54 69 55 71 56
REMARK SMILES IDX 37 57 74 58 68 59 67 60 38 62 60 63 45 64 59 65 46 66 49 67
REMARK SMILES IDX 58 68 72 69 47 70 48 71 57 73 73 74 50 75 39 76 40 77 44 78
REMARK SMILES IDX 41 79 43 80 42 81 61 82 62 83 66 84 63 85 65 86 64 87 51 88
REMARK SMILES IDX 52 89 56 90 53 91 55 92 54 93
REMARK H PARENT 12 11 15 13 1 29 1 30 71 61 49 72
REMARK Flexibility Score: inf
ROOT
ATOM      1  C   UNL A   1      38.299  21.946  25.923  1.00  0.00     0.261 C 
ENDROOT
BRANCH   1   2
ATOM      2  O   UNL A   1      37.668  21.175  24.886  1.00  0.00    -0.463 OA
BRANCH   2   3
ATOM      3  C   UNL A   1      36.319  21.054  25.008  1.00  0.00     0.305 C 
ATOM      4  O   UNL A   1      35.704  19.995  24.962  1.00  0.00    -0.252 OA
BRANCH   3   5
ATOM      5  C   UNL A   1      35.605  22.382  25.102  1.00  0.00     0.124 C 
BRANCH   5   6
ATOM      6  C   UNL A   1      35.075  23.021  23.830  1.00  0.00     0.033 C 
BRANCH   6   7
ATOM      7  C   UNL A   1      33.671  22.668  23.354  1.00  0.00     0.118 C 
BRANCH   7   8
ATOM      8  N   UNL A   1      33.123  21.410  23.807  1.00  0.00    -0.338 N 
ATOM      9  N   UNL A   1      31.675  22.003  25.629  1.00  0.00    -0.291 N 
ATOM     10  C   UNL A   1      32.233  21.119  24.776  1.00  0.00     0.320 C 
ATOM     11  H   UNL A   1      31.223  21.565  26.386  1.00  0.00     0.173 HD
ATOM     12  O   UNL A   1      31.966  19.923  24.947  1.00  0.00    -0.248 OA
ATOM     13  H   UNL A   1      33.462  20.624  23.321  1.00  0.00     0.165 HD
BRANCH   9  14
ATOM     14  C   UNL A   1      31.593  23.377  25.682  1.00  0.00     0.157 A 
ATOM     15  N   UNL A   1      31.125  25.383  25.154  1.00  0.00    -0.231 N 
ATOM     16  N   UNL A   1      30.635  24.125  25.142  1.00  0.00    -0.149 NA
ATOM     17  C   UNL A   1      32.151  25.510  26.089  1.00  0.00     0.076 A 
ATOM     18  C   UNL A   1      32.491  24.205  26.410  1.00  0.00     0.078 A 
BRANCH  15  19
ATOM     19  C   UNL A   1      30.391  26.423  24.522  1.00  0.00     0.065 A 
ATOM     20  C   UNL A   1      29.199  28.521  23.115  1.00  0.00     0.082 A 
ATOM     21  C   UNL A   1      28.444  27.394  23.485  1.00  0.00     0.024 A 
ATOM     22  C   UNL A   1      30.555  28.568  23.377  1.00  0.00     0.024 A 
ATOM     23  C   UNL A   1      29.050  26.318  24.166  1.00  0.00     0.030 A 
ATOM     24  C   UNL A   1      31.117  27.528  24.093  1.00  0.00     0.030 A 
BRANCH  20  25
ATOM     25  S   UNL A   1      28.437  29.964  22.433  1.00  0.00     0.238 S 
ATOM     26  O   UNL A   1      28.218  29.724  21.018  1.00  0.00    -0.207 OA
ATOM     27  O   UNL A   1      29.107  31.120  22.949  1.00  0.00    -0.207 OA
BRANCH  25  28
ATOM     28  N   UNL A   1      26.902  29.946  23.125  1.00  0.00    -0.225 NA
ATOM     29  H   UNL A   1      26.926  30.439  24.018  1.00  0.00     0.137 HD
ATOM     30  H   UNL A   1      26.607  28.982  23.276  1.00  0.00     0.137 HD
ENDBRANCH  25  28
ENDBRANCH  20  25
ENDBRANCH  15  19
BRANCH  17  31
ATOM     31  C   UNL A   1      32.673  26.811  26.505  1.00  0.00     0.000 A 
ATOM     32  C   UNL A   1      31.875  27.618  27.316  1.00  0.00     0.010 A 
ATOM     33  C   UNL A   1      33.857  27.350  26.017  1.00  0.00     0.010 A 
ATOM     34  C   UNL A   1      32.100  28.979  27.457  1.00  0.00     0.001 A 
ATOM     35  C   UNL A   1      34.152  28.702  26.253  1.00  0.00     0.001 A 
ATOM     36  C   UNL A   1      33.258  29.522  26.941  1.00  0.00     0.000 A 
ENDBRANCH  17  31
ENDBRANCH   9  14
ENDBRANCH   7   8
ENDBRANCH   6   7
ENDBRANCH   5   6
ENDBRANCH   3   5
ENDBRANCH   2   3
ENDBRANCH   1   2
BRANCH   1  37
ATOM     37  C   UNL A   1      39.715  21.507  26.315  1.00  0.00     0.202 C 
BRANCH  37  38
ATOM     38  O   UNL A   1      40.166  20.231  25.886  1.00  0.00    -0.374 OA
BRANCH  38  39
ATOM     39  C   UNL A   1      41.321  19.705  26.518  1.00  0.00     0.202 C 
BRANCH  39  40
ATOM     40  C   UNL A   1      42.433  19.154  25.635  1.00  0.00     0.261 C 
BRANCH  40  41
ATOM     41  O   UNL A   1      43.751  19.694  25.830  1.00  0.00    -0.460 OA
BRANCH  41  42
ATOM     42  C   UNL A   1      44.117  20.635  24.910  1.00  0.00     0.338 C 
ATOM     43  O   UNL A   1      44.658  20.410  23.838  1.00  0.00    -0.246 OA
BRANCH  42  44
ATOM     44  C   UNL A   1      44.084  21.988  25.521  1.00  0.00     0.060 A 
ATOM     45  C   UNL A   1      45.049  22.249  26.508  1.00  0.00     0.016 A 
ATOM     46  C   UNL A   1      42.972  22.820  25.397  1.00  0.00     0.016 A 
ATOM     47  C   UNL A   1      44.797  23.185  27.513  1.00  0.00     0.010 A 
ATOM     48  C   UNL A   1      42.717  23.739  26.417  1.00  0.00     0.010 A 
ATOM     49  C   UNL A   1      43.579  23.860  27.528  1.00  0.00    -0.014 A 
BRANCH  49  50
ATOM     50  C   UNL A   1      43.271  24.861  28.558  1.00  0.00     0.031 A 
ATOM     51  C   UNL A   1      42.018  25.559  28.242  1.00  0.00     0.074 A 
ATOM     52  C   UNL A   1      43.957  25.295  29.641  1.00  0.00     0.049 A 
ATOM     53  N   UNL A   1      41.995  26.698  27.636  1.00  0.00    -0.248 NA
ATOM     54  C   UNL A   1      40.718  24.902  28.392  1.00  0.00     0.031 C 
ATOM     55  C   UNL A   1      45.277  24.909  30.126  1.00  0.00     0.029 A 
ATOM     56  N   UNL A   1      43.538  26.180  30.611  1.00  0.00    -0.354 N 
ATOM     57  C   UNL A   1      40.661  27.002  27.505  1.00  0.00     0.074 A 
ATOM     58  C   UNL A   1      39.942  25.774  27.747  1.00  0.00     0.031 C 
ATOM     59  C   UNL A   1      45.450  25.372  31.392  1.00  0.00     0.029 A 
ATOM     60  C   UNL A   1      44.296  26.158  31.776  1.00  0.00     0.049 A 
ATOM     61  H   UNL A   1      42.766  26.778  30.490  1.00  0.00     0.167 HD
ATOM     62  C   UNL A   1      40.247  28.294  27.527  1.00  0.00     0.031 A 
ATOM     63  C   UNL A   1      44.125  26.870  32.919  1.00  0.00     0.031 A 
ATOM     64  C   UNL A   1      41.341  29.228  27.376  1.00  0.00     0.049 A 
ATOM     65  C   UNL A   1      43.585  28.176  32.519  1.00  0.00     0.074 A 
ATOM     66  C   UNL A   1      42.332  29.439  26.436  1.00  0.00     0.029 A 
ATOM     67  N   UNL A   1      41.750  29.896  28.507  1.00  0.00    -0.354 N 
ATOM     68  N   UNL A   1      44.305  29.064  31.902  1.00  0.00    -0.248 NA
ATOM     69  C   UNL A   1      42.150  28.362  32.441  1.00  0.00     0.031 C 
ATOM     70  C   UNL A   1      43.475  29.880  27.169  1.00  0.00     0.029 A 
ATOM     71  C   UNL A   1      43.120  29.953  28.514  1.00  0.00     0.049 A 
ATOM     72  H   UNL A   1      41.156  30.272  29.196  1.00  0.00     0.167 HD
ATOM     73  C   UNL A   1      43.445  29.571  30.946  1.00  0.00     0.074 A 
ATOM     74  C   UNL A   1      42.108  29.234  31.430  1.00  0.00     0.031 C 
ATOM     75  C   UNL A   1      43.918  29.939  29.720  1.00  0.00     0.031 A 
BRANCH  62  76
ATOM     76  C   UNL A   1      38.922  28.680  28.118  1.00  0.00    -0.014 A 
ATOM     77  C   UNL A   1      38.086  29.541  27.396  1.00  0.00     0.009 A 
ATOM     78  C   UNL A   1      38.567  28.420  29.459  1.00  0.00     0.009 A 
ATOM     79  C   UNL A   1      36.969  30.130  27.997  1.00  0.00     0.001 A 
ATOM     80  C   UNL A   1      37.427  28.962  30.046  1.00  0.00     0.001 A 
ATOM     81  C   UNL A   1      36.638  29.837  29.319  1.00  0.00     0.000 A 
ENDBRANCH  62  76
BRANCH  63  82
ATOM     82  C   UNL A   1      44.171  26.462  34.342  1.00  0.00    -0.014 A 
ATOM     83  C   UNL A   1      43.278  27.013  35.279  1.00  0.00     0.009 A 
ATOM     84  C   UNL A   1      44.867  25.302  34.718  1.00  0.00     0.009 A 
ATOM     85  C   UNL A   1      43.063  26.407  36.527  1.00  0.00     0.001 A 
ATOM     86  C   UNL A   1      44.657  24.697  35.967  1.00  0.00     0.001 A 
ATOM     87  C   UNL A   1      43.744  25.242  36.865  1.00  0.00     0.000 A 
ENDBRANCH  63  82
BRANCH  75  88
ATOM     88  C   UNL A   1      45.420  30.073  29.572  1.00  0.00    -0.014 A 
ATOM     89  C   UNL A   1      46.239  29.054  29.051  1.00  0.00     0.009 A 
ATOM     90  C   UNL A   1      46.020  31.297  29.899  1.00  0.00     0.009 A 
ATOM     91  C   UNL A   1      47.621  29.233  28.913  1.00  0.00     0.001 A 
ATOM     92  C   UNL A   1      47.398  31.486  29.739  1.00  0.00     0.001 A 
ATOM     93  C   UNL A   1      48.198  30.453  29.256  1.00  0.00     0.000 A 
ENDBRANCH  75  88
ENDBRANCH  49  50
ENDBRANCH  42  44
ENDBRANCH  41  42
ENDBRANCH  40  41
ENDBRANCH  39  40
ENDBRANCH  38  39
ENDBRANCH  37  38
ENDBRANCH   1  37
TORSDOF 22
ENDMDL
MODEL 2
REMARK VINA RESULT:     -10.8      5.040     10.723
REMARK SMILES NS(=O)(=O)c1ccc(-n2nc(NC(=O)NCCCC(=O)OCCOCCOC(=O)c3ccc(-c4c5nc(c(-c6ccccc6)c6ccc([nH]6)c(-c6ccccc6)c6nc(c(-c7ccccc7)c7ccc4[nH]7)C=C6)C=C5)cc3)cc2-c2ccccc2)cc1
REMARK SMILES IDX 22 1 21 2 19 3 20 4 18 5 17 6 16 7 15 8 12 9 13 10 14 12
REMARK SMILES IDX 11 14 9 15 10 16 79 17 78 18 8 19 5 20 6 21 87 22 7 23 86 24
REMARK SMILES IDX 2 25 3 26 4 27 1 28 80 31 81 32 85 33 82 34 84 35 83 36
REMARK SMILES IDX 23 37 24 38 25 39 26 40 27 41 28 42 29 43 30 44 31 45 77 46
REMARK SMILES IDX 32 47 76 48 33 49 34 50 35 51 70 52 36 53 75 54 69 55 71 56
REMARK SMILES IDX 37 57 74 58 68 59 67 60 38 62 60 63 45 64 59 65 46 66 49 67
REMARK SMILES IDX 58 68 72 69 47 70 48 71 57 73 73 74 50 75 39 76 40 77 44 78
REMARK SMILES IDX 41 79 43 80 42 81 61 82 62 83 66 84 63 85 65 86 64 87 51 88
REMARK SMILES IDX 52 89 56 90 53 91 55 92 54 93
REMARK H PARENT 12 11 15 13 1 29 1 30 71 61 49 72
REMARK Flexibility Score: inf
ROOT
ATOM      1  C   UNL A   1      42.500  22.261  28.384  1.00  0.00     0.261 C 
ENDROOT
BRANCH   1   2
ATOM      2  O   UNL A   1      41.082  22.021  28.399  1.00  0.00    -0.463 OA
BRANCH   2   3
ATOM      3  C   UNL A   1      40.460  22.209  27.205  1.00  0.00     0.305 C 
ATOM      4  O   UNL A   1      39.963  21.319  26.526  1.00  0.00    -0.252 OA
BRANCH   3   5
ATOM      5  C   UNL A   1      40.524  23.638  26.716  1.00  0.00     0.124 C 
BRANCH   5   6
ATOM      6  C   UNL A   1      39.848  24.724  27.534  1.00  0.00     0.033 C 
BRANCH   6   7
ATOM      7  C   UNL A   1      40.624  25.993  27.867  1.00  0.00     0.118 C 
BRANCH   7   8
ATOM      8  N   UNL A   1      39.971  27.251  27.590  1.00  0.00    -0.338 N 
ATOM      9  N   UNL A   1      41.642  28.569  26.477  1.00  0.00    -0.291 N 
ATOM     10  C   UNL A   1      40.399  28.363  26.960  1.00  0.00     0.320 C 
ATOM     11  H   UNL A   1      41.807  29.512  26.248  1.00  0.00     0.173 HD
ATOM     12  O   UNL A   1      39.602  29.307  26.891  1.00  0.00    -0.248 OA
ATOM     13  H   UNL A   1      39.046  27.307  27.922  1.00  0.00     0.165 HD
BRANCH   9  14
ATOM     14  C   UNL A   1      42.730  27.762  26.230  1.00  0.00     0.157 A 
ATOM     15  N   UNL A   1      43.936  26.022  26.032  1.00  0.00    -0.231 N 
ATOM     16  N   UNL A   1      42.689  26.495  25.827  1.00  0.00    -0.149 NA
ATOM     17  C   UNL A   1      44.858  27.065  26.118  1.00  0.00     0.076 A 
ATOM     18  C   UNL A   1      44.081  28.200  26.287  1.00  0.00     0.078 A 
BRANCH  15  19
ATOM     19  C   UNL A   1      44.202  24.642  25.821  1.00  0.00     0.065 A 
ATOM     20  C   UNL A   1      44.685  21.984  25.111  1.00  0.00     0.082 A 
ATOM     21  C   UNL A   1      45.396  22.577  26.169  1.00  0.00     0.024 A 
ATOM     22  C   UNL A   1      43.797  22.733  24.363  1.00  0.00     0.024 A 
ATOM     23  C   UNL A   1      45.179  23.929  26.509  1.00  0.00     0.030 A 
ATOM     24  C   UNL A   1      43.559  24.039  24.747  1.00  0.00     0.030 A 
BRANCH  20  25
ATOM     25  S   UNL A   1      44.791  20.250  24.780  1.00  0.00     0.238 S 
ATOM     26  O   UNL A   1      43.504  19.658  25.095  1.00  0.00    -0.207 OA
ATOM     27  O   UNL A   1      46.038  19.764  25.292  1.00  0.00    -0.207 OA
BRANCH  25  28
ATOM     28  N   UNL A   1      44.903  20.190  23.100  1.00  0.00    -0.225 NA
ATOM     29  H   UNL A   1      43.999  20.427  22.691  1.00  0.00     0.137 HD
ATOM     30  H   UNL A   1      45.172  19.250  22.811  1.00  0.00     0.137 HD
ENDBRANCH  25  28
ENDBRANCH  20  25
ENDBRANCH  15  19
BRANCH  17  31
ATOM     31  C   UNL A   1      46.302  26.839  26.066  1.00  0.00     0.000 A 
ATOM     32  C   UNL A   1      46.883  26.542  24.833  1.00  0.00     0.010 A 
ATOM     33  C   UNL A   1      47.103  26.757  27.198  1.00  0.00     0.010 A 
ATOM     34  C   UNL A   1      48.136  25.958  24.727  1.00  0.00     0.001 A 
ATOM     35  C   UNL A   1      48.416  26.275  27.084  1.00  0.00     0.001 A 
ATOM     36  C   UNL A   1      48.918  25.842  25.857  1.00  0.00     0.000 A 
ENDBRANCH  17  31
ENDBRANCH   9  14
ENDBRANCH   7   8
ENDBRANCH   6   7
ENDBRANCH   5   6
ENDBRANCH   3   5
ENDBRANCH   2   3
ENDBRANCH   1   2
BRANCH   1  37
ATOM     37  C   UNL A   1      42.998  23.385  29.299  1.00  0.00     0.202 C 
BRANCH  37  38
ATOM     38  O   UNL A   1      44.169  23.155  30.069  1.00  0.00    -0.374 OA
BRANCH  38  39
ATOM     39  C   UNL A   1      44.031  23.168  31.479  1.00  0.00     0.202 C 
BRANCH  39  40
ATOM     40  C   UNL A   1      44.417  24.438  32.226  1.00  0.00     0.261 C 
BRANCH  40  41
ATOM     41  O   UNL A   1      45.770  24.900  32.072  1.00  0.00    -0.460 OA
BRANCH  41  42
ATOM     42  C   UNL A   1      45.890  26.075  31.386  1.00  0.00     0.338 C 
ATOM     43  O   UNL A   1      46.940  26.637  31.115  1.00  0.00    -0.246 OA
BRANCH  42  44
ATOM     44  C   UNL A   1      44.574  26.757  31.304  1.00  0.00     0.060 A 
ATOM     45  C   UNL A   1      43.916  26.691  30.064  1.00  0.00     0.016 A 
ATOM     46  C   UNL A   1      44.173  27.693  32.257  1.00  0.00     0.016 A 
ATOM     47  C   UNL A   1      43.026  27.697  29.682  1.00  0.00     0.010 A 
ATOM     48  C   UNL A   1      43.299  28.707  31.860  1.00  0.00     0.010 A 
ATOM     49  C   UNL A   1      42.795  28.768  30.543  1.00  0.00    -0.014 A 
BRANCH  49  50
ATOM     50  C   UNL A   1      41.859  29.845  30.191  1.00  0.00     0.031 A 
ATOM     51  C   UNL A   1      42.590  31.039  29.748  1.00  0.00     0.074 A 
ATOM     52  C   UNL A   1      40.514  29.951  30.290  1.00  0.00     0.049 A 
ATOM     53  N   UNL A   1      42.859  32.019  30.544  1.00  0.00    -0.248 NA
ATOM     54  C   UNL A   1      43.252  31.091  28.443  1.00  0.00     0.031 C 
ATOM     55  C   UNL A   1      39.539  29.007  30.823  1.00  0.00     0.029 A 
ATOM     56  N   UNL A   1      39.710  30.976  29.840  1.00  0.00    -0.354 N 
ATOM     57  C   UNL A   1      43.561  32.917  29.775  1.00  0.00     0.074 A 
ATOM     58  C   UNL A   1      43.985  32.195  28.600  1.00  0.00     0.031 C 
ATOM     59  C   UNL A   1      38.287  29.393  30.463  1.00  0.00     0.029 A 
ATOM     60  C   UNL A   1      38.360  30.653  29.753  1.00  0.00     0.049 A 
ATOM     61  H   UNL A   1      40.061  31.864  29.599  1.00  0.00     0.167 HD
ATOM     62  C   UNL A   1      43.461  34.248  30.013  1.00  0.00     0.031 A 
ATOM     63  C   UNL A   1      37.326  31.416  29.315  1.00  0.00     0.031 A 
ATOM     64  C   UNL A   1      42.840  34.538  31.287  1.00  0.00     0.049 A 
ATOM     65  C   UNL A   1      37.640  32.800  29.695  1.00  0.00     0.074 A 
ATOM     66  C   UNL A   1      43.094  34.203  32.604  1.00  0.00     0.029 A 
ATOM     67  N   UNL A   1      41.540  34.985  31.259  1.00  0.00    -0.354 N 
ATOM     68  N   UNL A   1      37.606  33.204  30.930  1.00  0.00    -0.248 NA
ATOM     69  C   UNL A   1      38.375  33.644  28.775  1.00  0.00     0.031 C 
ATOM     70  C   UNL A   1      41.816  34.080  33.227  1.00  0.00     0.029 A 
ATOM     71  C   UNL A   1      40.844  34.380  32.275  1.00  0.00     0.049 A 
ATOM     72  H   UNL A   1      41.171  35.632  30.616  1.00  0.00     0.167 HD
ATOM     73  C   UNL A   1      38.723  34.011  31.036  1.00  0.00     0.074 A 
ATOM     74  C   UNL A   1      39.052  34.379  29.661  1.00  0.00     0.031 C 
ATOM     75  C   UNL A   1      39.439  34.047  32.198  1.00  0.00     0.031 A 
BRANCH  62  76
ATOM     76  C   UNL A   1      43.533  35.249  28.896  1.00  0.00    -0.014 A 
ATOM     77  C   UNL A   1      44.483  36.275  28.971  1.00  0.00     0.009 A 
ATOM     78  C   UNL A   1      42.549  35.361  27.891  1.00  0.00     0.009 A 
ATOM     79  C   UNL A   1      44.430  37.369  28.100  1.00  0.00     0.001 A 
ATOM     80  C   UNL A   1      42.524  36.420  26.988  1.00  0.00     0.001 A 
ATOM     81  C   UNL A   1      43.455  37.438  27.108  1.00  0.00     0.000 A 
ENDBRANCH  62  76
BRANCH  63  82
ATOM     82  C   UNL A   1      36.198  31.107  28.408  1.00  0.00    -0.014 A 
ATOM     83  C   UNL A   1      36.038  29.817  27.868  1.00  0.00     0.009 A 
ATOM     84  C   UNL A   1      35.102  31.981  28.326  1.00  0.00     0.009 A 
ATOM     85  C   UNL A   1      34.820  29.407  27.305  1.00  0.00     0.001 A 
ATOM     86  C   UNL A   1      33.884  31.574  27.760  1.00  0.00     0.001 A 
ATOM     87  C   UNL A   1      33.739  30.281  27.263  1.00  0.00     0.000 A 
ENDBRANCH  63  82
BRANCH  75  88
ATOM     88  C   UNL A   1      38.791  33.440  33.426  1.00  0.00    -0.014 A 
ATOM     89  C   UNL A   1      38.145  34.205  34.415  1.00  0.00     0.009 A 
ATOM     90  C   UNL A   1      38.766  32.045  33.553  1.00  0.00     0.009 A 
ATOM     91  C   UNL A   1      37.540  33.597  35.522  1.00  0.00     0.001 A 
ATOM     92  C   UNL A   1      38.141  31.434  34.646  1.00  0.00     0.001 A 
ATOM     93  C   UNL A   1      37.538  32.210  35.634  1.00  0.00     0.000 A 
ENDBRANCH  75  88
ENDBRANCH  49  50
ENDBRANCH  42  44
ENDBRANCH  41  42
ENDBRANCH  40  41
ENDBRANCH  39  40
ENDBRANCH  38  39
ENDBRANCH  37  38
ENDBRANCH   1  37
TORSDOF 22
ENDMDL
MODEL 3
REMARK VINA RESULT:     -10.8      3.024      6.359
REMARK SMILES NS(=O)(=O)c1ccc(-n2nc(NC(=O)NCCCC(=O)OCCOCCOC(=O)c3ccc(-c4c5nc(c(-c6ccccc6)c6ccc([nH]6)c(-c6ccccc6)c6nc(c(-c7ccccc7)c7ccc4[nH]7)C=C6)C=C5)cc3)cc2-c2ccccc2)cc1
REMARK SMILES IDX 22 1 21 2 19 3 20 4 18 5 17 6 16 7 15 8 12 9 13 10 14 12
REMARK SMILES IDX 11 14 9 15 10 16 79 17 78 18 8 19 5 20 6 21 87 22 7 23 86 24
REMARK SMILES IDX 2 25 3 26 4 27 1 28 80 31 81 32 85 33 82 34 84 35 83 36
REMARK SMILES IDX 23 37 24 38 25 39 26 40 27 41 28 42 29 43 30 44 31 45 77 46
REMARK SMILES IDX 32 47 76 48 33 49 34 50 35 51 70 52 36 53 75 54 69 55 71 56
REMARK SMILES IDX 37 57 74 58 68 59 67 60 38 62 60 63 45 64 59 65 46 66 49 67
REMARK SMILES IDX 58 68 72 69 47 70 48 71 57 73 73 74 50 75 39 76 40 77 44 78
REMARK SMILES IDX 41 79 43 80 42 81 61 82 62 83 66 84 63 85 65 86 64 87 51 88
REMARK SMILES IDX 52 89 56 90 53 91 55 92 54 93
REMARK H PARENT 12 11 15 13 1 29 1 30 71 61 49 72
REMARK Flexibility Score: inf
ROOT
ATOM      1  C   UNL A   1      37.657  23.883  26.147  1.00  0.00     0.261 C 
ENDROOT
BRANCH   1   2
ATOM      2  O   UNL A   1      37.551  23.639  24.734  1.00  0.00    -0.463 OA
BRANCH   2   3
ATOM      3  C   UNL A   1      36.754  22.592  24.395  1.00  0.00     0.305 C 
ATOM      4  O   UNL A   1      37.154  21.465  24.127  1.00  0.00    -0.252 OA
BRANCH   3   5
ATOM      5  C   UNL A   1      35.295  22.967  24.269  1.00  0.00     0.124 C 
BRANCH   5   6
ATOM      6  C   UNL A   1      34.840  23.738  23.042  1.00  0.00     0.033 C 
BRANCH   6   7
ATOM      7  C   UNL A   1      33.554  23.321  22.339  1.00  0.00     0.118 C 
BRANCH   7   8
ATOM      8  N   UNL A   1      33.083  21.976  22.581  1.00  0.00    -0.338 N 
ATOM      9  N   UNL A   1      31.667  22.170  24.511  1.00  0.00    -0.291 N 
ATOM     10  C   UNL A   1      32.240  21.477  23.506  1.00  0.00     0.320 C 
ATOM     11  H   UNL A   1      31.261  21.585  25.191  1.00  0.00     0.173 HD
ATOM     12  O   UNL A   1      32.037  20.256  23.474  1.00  0.00    -0.248 OA
ATOM     13  H   UNL A   1      33.444  21.304  21.959  1.00  0.00     0.165 HD
BRANCH   9  14
ATOM     14  C   UNL A   1      31.520  23.508  24.803  1.00  0.00     0.157 A 
ATOM     15  N   UNL A   1      30.994  25.559  24.611  1.00  0.00    -0.231 N 
ATOM     16  N   UNL A   1      30.563  24.308  24.341  1.00  0.00    -0.149 NA
ATOM     17  C   UNL A   1      31.955  25.550  25.620  1.00  0.00     0.076 A 
ATOM     18  C   UNL A   1      32.334  24.221  25.725  1.00  0.00     0.078 A 
BRANCH  15  19
ATOM     19  C   UNL A   1      30.253  26.671  24.126  1.00  0.00     0.065 A 
ATOM     20  C   UNL A   1      29.019  28.894  22.970  1.00  0.00     0.082 A 
ATOM     21  C   UNL A   1      28.247  27.822  23.450  1.00  0.00     0.024 A 
ATOM     22  C   UNL A   1      30.399  28.825  22.995  1.00  0.00     0.024 A 
ATOM     23  C   UNL A   1      28.867  26.683  24.004  1.00  0.00     0.030 A 
ATOM     24  C   UNL A   1      30.986  27.725  23.592  1.00  0.00     0.030 A 
BRANCH  20  25
ATOM     25  S   UNL A   1      28.276  30.411  22.445  1.00  0.00     0.238 S 
ATOM     26  O   UNL A   1      29.331  31.397  22.300  1.00  0.00    -0.207 OA
ATOM     27  O   UNL A   1      27.088  30.626  23.217  1.00  0.00    -0.207 OA
BRANCH  25  28
ATOM     28  N   UNL A   1      27.776  30.066  20.875  1.00  0.00    -0.225 NA
ATOM     29  H   UNL A   1      26.774  29.870  20.872  1.00  0.00     0.137 HD
ATOM     30  H   UNL A   1      28.283  29.253  20.527  1.00  0.00     0.137 HD
ENDBRANCH  25  28
ENDBRANCH  20  25
ENDBRANCH  15  19
BRANCH  17  31
ATOM     31  C   UNL A   1      32.392  26.771  26.295  1.00  0.00     0.000 A 
ATOM     32  C   UNL A   1      31.481  27.440  27.112  1.00  0.00     0.010 A 
ATOM     33  C   UNL A   1      33.616  27.383  26.051  1.00  0.00     0.010 A 
ATOM     34  C   UNL A   1      31.656  28.763  27.489  1.00  0.00     0.001 A 
ATOM     35  C   UNL A   1      33.849  28.681  26.529  1.00  0.00     0.001 A 
ATOM     36  C   UNL A   1      32.857  29.383  27.215  1.00  0.00     0.000 A 
ENDBRANCH  17  31
ENDBRANCH   9  14
ENDBRANCH   7   8
ENDBRANCH   6   7
ENDBRANCH   5   6
ENDBRANCH   3   5
ENDBRANCH   2   3
ENDBRANCH   1   2
BRANCH   1  37
ATOM     37  C   UNL A   1      39.009  23.548  26.786  1.00  0.00     0.202 C 
BRANCH  37  38
ATOM     38  O   UNL A   1      39.755  22.464  26.250  1.00  0.00    -0.374 OA
BRANCH  38  39
ATOM     39  C   UNL A   1      40.558  21.721  27.152  1.00  0.00     0.202 C 
BRANCH  39  40
ATOM     40  C   UNL A   1      41.461  20.636  26.580  1.00  0.00     0.261 C 
BRANCH  40  41
ATOM     41  O   UNL A   1      42.877  20.879  26.616  1.00  0.00    -0.460 OA
BRANCH  41  42
ATOM     42  C   UNL A   1      43.485  20.859  25.393  1.00  0.00     0.338 C 
ATOM     43  O   UNL A   1      43.607  19.879  24.674  1.00  0.00    -0.246 OA
BRANCH  42  44
ATOM     44  C   UNL A   1      44.274  22.100  25.194  1.00  0.00     0.060 A 
ATOM     45  C   UNL A   1      45.536  22.140  25.813  1.00  0.00     0.016 A 
ATOM     46  C   UNL A   1      43.685  23.278  24.737  1.00  0.00     0.016 A 
ATOM     47  C   UNL A   1      46.102  23.361  26.185  1.00  0.00     0.010 A 
ATOM     48  C   UNL A   1      44.247  24.495  25.132  1.00  0.00     0.010 A 
ATOM     49  C   UNL A   1      45.405  24.542  25.938  1.00  0.00    -0.014 A 
BRANCH  49  50
ATOM     50  C   UNL A   1      45.963  25.851  26.301  1.00  0.00     0.031 A 
ATOM     51  C   UNL A   1      47.361  25.956  25.864  1.00  0.00     0.074 A 
ATOM     52  C   UNL A   1      45.465  26.887  27.016  1.00  0.00     0.049 A 
ATOM     53  N   UNL A   1      48.352  25.714  26.654  1.00  0.00    -0.248 NA
ATOM     54  C   UNL A   1      47.711  26.119  24.452  1.00  0.00     0.031 C 
ATOM     55  C   UNL A   1      44.183  27.021  27.698  1.00  0.00     0.029 A 
ATOM     56  N   UNL A   1      46.035  28.125  27.223  1.00  0.00    -0.354 N 
ATOM     57  C   UNL A   1      49.474  25.894  25.881  1.00  0.00     0.074 A 
ATOM     58  C   UNL A   1      49.023  25.886  24.510  1.00  0.00     0.031 C 
ATOM     59  C   UNL A   1      43.982  28.321  28.038  1.00  0.00     0.029 A 
ATOM     60  C   UNL A   1      45.152  29.096  27.681  1.00  0.00     0.049 A 
ATOM     61  H   UNL A   1      46.989  28.307  27.061  1.00  0.00     0.167 HD
ATOM     62  C   UNL A   1      50.623  26.353  26.436  1.00  0.00     0.031 A 
ATOM     63  C   UNL A   1      45.385  30.407  27.942  1.00  0.00     0.031 A 
ATOM     64  C   UNL A   1      50.599  26.301  27.882  1.00  0.00     0.049 A 
ATOM     65  C   UNL A   1      46.763  30.492  28.447  1.00  0.00     0.074 A 
ATOM     66  C   UNL A   1      50.398  25.314  28.827  1.00  0.00     0.029 A 
ATOM     67  N   UNL A   1      50.427  27.494  28.544  1.00  0.00    -0.354 N 
ATOM     68  N   UNL A   1      47.100  30.048  29.620  1.00  0.00    -0.248 NA
ATOM     69  C   UNL A   1      47.853  30.703  27.515  1.00  0.00     0.031 C 
ATOM     70  C   UNL A   1      49.719  25.947  29.912  1.00  0.00     0.029 A 
ATOM     71  C   UNL A   1      49.569  27.295  29.596  1.00  0.00     0.049 A 
ATOM     72  H   UNL A   1      50.852  28.349  28.304  1.00  0.00     0.167 HD
ATOM     73  C   UNL A   1      48.315  29.429  29.395  1.00  0.00     0.074 A 
ATOM     74  C   UNL A   1      48.803  30.006  28.144  1.00  0.00     0.031 C 
ATOM     75  C   UNL A   1      48.652  28.300  30.085  1.00  0.00     0.031 A 
BRANCH  62  76
ATOM     76  C   UNL A   1      51.564  27.236  25.669  1.00  0.00    -0.014 A 
ATOM     77  C   UNL A   1      51.266  28.599  25.553  1.00  0.00     0.009 A 
ATOM     78  C   UNL A   1      52.604  26.738  24.856  1.00  0.00     0.009 A 
ATOM     79  C   UNL A   1      51.958  29.413  24.649  1.00  0.00     0.001 A 
ATOM     80  C   UNL A   1      53.331  27.554  23.994  1.00  0.00     0.001 A 
ATOM     81  C   UNL A   1      52.992  28.891  23.875  1.00  0.00     0.000 A 
ENDBRANCH  62  76
BRANCH  63  82
ATOM     82  C   UNL A   1      44.620  31.625  27.595  1.00  0.00    -0.014 A 
ATOM     83  C   UNL A   1      44.183  32.513  28.595  1.00  0.00     0.009 A 
ATOM     84  C   UNL A   1      44.596  32.086  26.268  1.00  0.00     0.009 A 
ATOM     85  C   UNL A   1      43.775  33.820  28.286  1.00  0.00     0.001 A 
ATOM     86  C   UNL A   1      44.185  33.391  25.956  1.00  0.00     0.001 A 
ATOM     87  C   UNL A   1      43.789  34.263  26.967  1.00  0.00     0.000 A 
ENDBRANCH  63  82
BRANCH  75  88
ATOM     88  C   UNL A   1      47.811  27.956  31.297  1.00  0.00    -0.014 A 
ATOM     89  C   UNL A   1      46.614  27.221  31.223  1.00  0.00     0.009 A 
ATOM     90  C   UNL A   1      48.281  28.322  32.566  1.00  0.00     0.009 A 
ATOM     91  C   UNL A   1      45.882  26.908  32.374  1.00  0.00     0.001 A 
ATOM     92  C   UNL A   1      47.563  27.989  33.720  1.00  0.00     0.001 A 
ATOM     93  C   UNL A   1      46.360  27.292  33.624  1.00  0.00     0.000 A 
ENDBRANCH  75  88
ENDBRANCH  49  50
ENDBRANCH  42  44
ENDBRANCH  41  42
ENDBRANCH  40  41
ENDBRANCH  39  40
ENDBRANCH  38  39
ENDBRANCH  37  38
ENDBRANCH   1  37
TORSDOF 22
ENDMDL
