MODEL 1
REMARK VINA RESULT:     -11.5      0.000      0.000
REMARK SMILES O=C(OCCOCCOC(=O)[C@@H]1c2[nH]cnc2CCN1C(=O)CCCc1c[nH]c2ccccc12)c1ccc(-c2c3nc(c(-c4ccccc4)c4ccc([nH]4)c(-c4ccccc4)c4nc(c(-c5ccccc5)c5ccc2[nH]5)C=C4)C=C3)cc1
REMARK SMILES IDX 7 1 6 2 5 3 4 4 3 5 2 6 1 7 35 8 36 9 82 10 37 11 81 12
REMARK SMILES IDX 38 13 39 14 40 15 75 16 41 17 80 18 74 19 76 20 42 21 79 22
REMARK SMILES IDX 73 23 72 24 43 26 65 27 50 28 64 29 51 30 54 31 63 32 77 33
REMARK SMILES IDX 52 34 53 35 62 37 78 38 55 39 44 40 45 41 49 42 46 43 48 44
REMARK SMILES IDX 47 45 66 46 67 47 71 48 68 49 70 50 69 51 56 52 57 53 61 54
REMARK SMILES IDX 58 55 60 56 59 57 8 58 9 59 10 60 11 61 12 62 13 63 20 64
REMARK SMILES IDX 14 65 17 66 19 67 15 68 16 70 18 71 21 72 22 73 23 74 24 75
REMARK SMILES IDX 25 76 26 77 27 78 34 79 28 80 29 81 33 82 30 84 32 85 31 86
REMARK H PARENT 76 25 54 36 14 69 28 83
REMARK Flexibility Score: inf
ROOT
ATOM      1  C   UNL A   1      36.172  19.997  24.657  1.00  0.00     0.202 C 
ENDROOT
BRANCH   1   2
ATOM      2  O   UNL A   1      37.456  20.381  25.163  1.00  0.00    -0.374 OA
BRANCH   2   3
ATOM      3  C   UNL A   1      38.610  19.577  24.951  1.00  0.00     0.202 C 
BRANCH   3   4
ATOM      4  C   UNL A   1      39.733  19.621  25.992  1.00  0.00     0.261 C 
BRANCH   4   5
ATOM      5  O   UNL A   1      40.939  18.932  25.617  1.00  0.00    -0.460 OA
BRANCH   5   6
ATOM      6  C   UNL A   1      42.187  19.445  25.657  1.00  0.00     0.338 C 
ATOM      7  O   UNL A   1      43.039  19.026  24.886  1.00  0.00    -0.246 OA
BRANCH   6   8
ATOM      8  C   UNL A   1      42.456  20.660  26.483  1.00  0.00     0.060 A 
ATOM      9  C   UNL A   1      42.233  20.754  27.855  1.00  0.00     0.016 A 
ATOM     10  C   UNL A   1      42.951  21.784  25.802  1.00  0.00     0.016 A 
ATOM     11  C   UNL A   1      42.271  21.971  28.495  1.00  0.00     0.010 A 
ATOM     12  C   UNL A   1      43.064  23.003  26.456  1.00  0.00     0.010 A 
ATOM     13  C   UNL A   1      42.633  23.102  27.777  1.00  0.00    -0.014 A 
BRANCH  13  14
ATOM     14  C   UNL A   1      42.530  24.357  28.498  1.00  0.00     0.031 A 
ATOM     15  C   UNL A   1      41.413  25.252  28.100  1.00  0.00     0.074 A 
ATOM     16  C   UNL A   1      43.401  24.680  29.469  1.00  0.00     0.049 A 
ATOM     17  N   UNL A   1      41.477  26.476  27.686  1.00  0.00    -0.248 NA
ATOM     18  C   UNL A   1      40.062  24.672  28.079  1.00  0.00     0.031 C 
ATOM     19  C   UNL A   1      44.398  23.809  30.097  1.00  0.00     0.029 A 
ATOM     20  N   UNL A   1      43.484  25.830  30.193  1.00  0.00    -0.354 N 
ATOM     21  C   UNL A   1      40.156  26.889  27.526  1.00  0.00     0.074 A 
ATOM     22  C   UNL A   1      39.338  25.709  27.658  1.00  0.00     0.031 C 
ATOM     23  C   UNL A   1      44.781  24.361  31.265  1.00  0.00     0.029 A 
ATOM     24  C   UNL A   1      44.156  25.666  31.392  1.00  0.00     0.049 A 
ATOM     25  H   UNL A   1      43.103  26.688  29.896  1.00  0.00     0.167 HD
ATOM     26  C   UNL A   1      39.809  28.203  27.557  1.00  0.00     0.031 A 
ATOM     27  C   UNL A   1      44.116  26.493  32.461  1.00  0.00     0.031 A 
ATOM     28  C   UNL A   1      40.906  29.074  27.227  1.00  0.00     0.049 A 
ATOM     29  C   UNL A   1      43.638  27.818  32.010  1.00  0.00     0.074 A 
ATOM     30  C   UNL A   1      41.755  29.218  26.146  1.00  0.00     0.029 A 
ATOM     31  N   UNL A   1      41.473  29.806  28.241  1.00  0.00    -0.354 N 
ATOM     32  N   UNL A   1      44.340  28.631  31.273  1.00  0.00    -0.248 NA
ATOM     33  C   UNL A   1      42.211  28.099  32.059  1.00  0.00     0.031 C 
ATOM     34  C   UNL A   1      43.000  29.634  26.701  1.00  0.00     0.029 A 
ATOM     35  C   UNL A   1      42.829  29.742  28.081  1.00  0.00     0.049 A 
ATOM     36  H   UNL A   1      40.991  30.287  28.952  1.00  0.00     0.167 HD
ATOM     37  C   UNL A   1      43.415  29.241  30.439  1.00  0.00     0.074 A 
ATOM     38  C   UNL A   1      42.119  28.979  31.059  1.00  0.00     0.031 C 
ATOM     39  C   UNL A   1      43.762  29.649  29.182  1.00  0.00     0.031 A 
BRANCH  26  40
ATOM     40  C   UNL A   1      38.609  28.686  28.347  1.00  0.00    -0.014 A 
ATOM     41  C   UNL A   1      37.785  29.678  27.787  1.00  0.00     0.009 A 
ATOM     42  C   UNL A   1      38.455  28.444  29.726  1.00  0.00     0.009 A 
ATOM     43  C   UNL A   1      36.945  30.464  28.588  1.00  0.00     0.001 A 
ATOM     44  C   UNL A   1      37.583  29.191  30.520  1.00  0.00     0.001 A 
ATOM     45  C   UNL A   1      36.857  30.229  29.957  1.00  0.00     0.000 A 
ENDBRANCH  26  40
BRANCH  27  46
ATOM     46  C   UNL A   1      44.225  26.116  33.884  1.00  0.00    -0.014 A 
ATOM     47  C   UNL A   1      45.099  26.798  34.741  1.00  0.00     0.009 A 
ATOM     48  C   UNL A   1      43.300  25.225  34.462  1.00  0.00     0.009 A 
ATOM     49  C   UNL A   1      45.036  26.606  36.127  1.00  0.00     0.001 A 
ATOM     50  C   UNL A   1      43.246  25.022  35.842  1.00  0.00     0.001 A 
ATOM     51  C   UNL A   1      44.106  25.724  36.677  1.00  0.00     0.000 A 
ENDBRANCH  27  46
BRANCH  39  52
ATOM     52  C   UNL A   1      45.226  29.701  28.832  1.00  0.00    -0.014 A 
ATOM     53  C   UNL A   1      45.930  28.587  28.344  1.00  0.00     0.009 A 
ATOM     54  C   UNL A   1      45.883  30.940  28.869  1.00  0.00     0.009 A 
ATOM     55  C   UNL A   1      47.265  28.699  27.950  1.00  0.00     0.001 A 
ATOM     56  C   UNL A   1      47.212  31.056  28.453  1.00  0.00     0.001 A 
ATOM     57  C   UNL A   1      47.905  29.935  28.004  1.00  0.00     0.000 A 
ENDBRANCH  39  52
ENDBRANCH  13  14
ENDBRANCH   6   8
ENDBRANCH   5   6
ENDBRANCH   4   5
ENDBRANCH   3   4
ENDBRANCH   2   3
ENDBRANCH   1   2
BRANCH   1  58
ATOM     58  C   UNL A   1      34.852  20.495  25.261  1.00  0.00     0.261 C 
BRANCH  58  59
ATOM     59  O   UNL A   1      33.694  20.047  24.546  1.00  0.00    -0.461 OA
BRANCH  59  60
ATOM     60  C   UNL A   1      32.927  21.091  24.124  1.00  0.00     0.335 C 
ATOM     61  O   UNL A   1      32.145  21.023  23.177  1.00  0.00    -0.249 OA
BRANCH  60  62
ATOM     62  C   UNL A   1      33.004  22.316  25.040  1.00  0.00     0.244 C 
ATOM     63  C   UNL A   1      31.794  22.791  25.783  1.00  0.00     0.072 A 
ATOM     64  N   UNL A   1      33.698  23.530  24.501  1.00  0.00    -0.323 N 
ATOM     65  N   UNL A   1      30.705  22.098  26.234  1.00  0.00    -0.346 N 
ATOM     66  C   UNL A   1      31.644  24.062  26.302  1.00  0.00     0.066 A 
ATOM     67  C   UNL A   1      33.946  24.525  25.557  1.00  0.00     0.127 C 
ATOM     68  C   UNL A   1      29.955  22.978  26.979  1.00  0.00     0.197 A 
ATOM     69  H   UNL A   1      30.498  21.152  26.060  1.00  0.00     0.167 HD
ATOM     70  N   UNL A   1      30.499  24.175  27.031  1.00  0.00    -0.242 NA
ATOM     71  C   UNL A   1      32.634  25.147  26.090  1.00  0.00     0.080 C 
BRANCH  64  72
ATOM     72  C   UNL A   1      33.631  23.821  23.144  1.00  0.00     0.223 C 
ATOM     73  O   UNL A   1      34.569  23.529  22.395  1.00  0.00    -0.275 OA
BRANCH  72  74
ATOM     74  C   UNL A   1      32.539  24.685  22.505  1.00  0.00     0.100 C 
BRANCH  74  75
ATOM     75  C   UNL A   1      32.827  25.985  21.789  1.00  0.00     0.015 C 
BRANCH  75  76
ATOM     76  C   UNL A   1      33.648  27.076  22.450  1.00  0.00     0.038 C 
BRANCH  76  77
ATOM     77  C   UNL A   1      33.042  28.177  23.298  1.00  0.00    -0.023 A 
ATOM     78  C   UNL A   1      31.917  28.850  22.842  1.00  0.00     0.087 A 
ATOM     79  C   UNL A   1      33.239  28.639  24.669  1.00  0.00     0.003 A 
ATOM     80  N   UNL A   1      31.384  29.584  23.859  1.00  0.00    -0.361 N 
ATOM     81  C   UNL A   1      32.139  29.441  24.994  1.00  0.00     0.046 A 
ATOM     82  C   UNL A   1      34.160  28.426  25.729  1.00  0.00     0.010 A 
ATOM     83  H   UNL A   1      30.573  30.137  23.789  1.00  0.00     0.166 HD
ATOM     84  C   UNL A   1      31.899  29.951  26.281  1.00  0.00     0.026 A 
ATOM     85  C   UNL A   1      33.967  28.963  27.007  1.00  0.00     0.001 A 
ATOM     86  C   UNL A   1      32.833  29.698  27.284  1.00  0.00     0.002 A 
ENDBRANCH  76  77
ENDBRANCH  75  76
ENDBRANCH  74  75
ENDBRANCH  72  74
ENDBRANCH  64  72
ENDBRANCH  60  62
ENDBRANCH  59  60
ENDBRANCH  58  59
ENDBRANCH   1  58
TORSDOF 19
ENDMDL
MODEL 2
REMARK VINA RESULT:     -11.5      2.503      5.747
REMARK SMILES O=C(OCCOCCOC(=O)[C@@H]1c2[nH]cnc2CCN1C(=O)CCCc1c[nH]c2ccccc12)c1ccc(-c2c3nc(c(-c4ccccc4)c4ccc([nH]4)c(-c4ccccc4)c4nc(c(-c5ccccc5)c5ccc2[nH]5)C=C4)C=C3)cc1
REMARK SMILES IDX 7 1 6 2 5 3 4 4 3 5 2 6 1 7 35 8 36 9 82 10 37 11 81 12
REMARK SMILES IDX 38 13 39 14 40 15 75 16 41 17 80 18 74 19 76 20 42 21 79 22
REMARK SMILES IDX 73 23 72 24 43 26 65 27 50 28 64 29 51 30 54 31 63 32 77 33
REMARK SMILES IDX 52 34 53 35 62 37 78 38 55 39 44 40 45 41 49 42 46 43 48 44
REMARK SMILES IDX 47 45 66 46 67 47 71 48 68 49 70 50 69 51 56 52 57 53 61 54
REMARK SMILES IDX 58 55 60 56 59 57 8 58 9 59 10 60 11 61 12 62 13 63 20 64
REMARK SMILES IDX 14 65 17 66 19 67 15 68 16 70 18 71 21 72 22 73 23 74 24 75
REMARK SMILES IDX 25 76 26 77 27 78 34 79 28 80 29 81 33 82 30 84 32 85 31 86
REMARK H PARENT 76 25 54 36 14 69 28 83
REMARK Flexibility Score: inf
ROOT
ATOM      1  C   UNL A   1      33.887  21.474  26.760  1.00  0.00     0.202 C 
ENDROOT
BRANCH   1   2
ATOM      2  O   UNL A   1      35.315  21.424  26.654  1.00  0.00    -0.374 OA
BRANCH   2   3
ATOM      3  C   UNL A   1      35.959  21.079  25.434  1.00  0.00     0.202 C 
BRANCH   3   4
ATOM      4  C   UNL A   1      37.434  21.451  25.255  1.00  0.00     0.261 C 
BRANCH   4   5
ATOM      5  O   UNL A   1      37.933  22.430  26.183  1.00  0.00    -0.460 OA
BRANCH   5   6
ATOM      6  C   UNL A   1      39.204  22.519  26.631  1.00  0.00     0.338 C 
ATOM      7  O   UNL A   1      39.962  21.570  26.492  1.00  0.00    -0.246 OA
BRANCH   6   8
ATOM      8  C   UNL A   1      39.731  23.839  27.089  1.00  0.00     0.060 A 
ATOM      9  C   UNL A   1      40.984  24.040  27.662  1.00  0.00     0.016 A 
ATOM     10  C   UNL A   1      38.875  24.942  26.938  1.00  0.00     0.016 A 
ATOM     11  C   UNL A   1      41.298  25.229  28.278  1.00  0.00     0.010 A 
ATOM     12  C   UNL A   1      39.212  26.169  27.493  1.00  0.00     0.010 A 
ATOM     13  C   UNL A   1      40.384  26.272  28.239  1.00  0.00    -0.014 A 
BRANCH  13  14
ATOM     14  C   UNL A   1      40.743  27.445  29.014  1.00  0.00     0.031 A 
ATOM     15  C   UNL A   1      41.855  28.270  28.477  1.00  0.00     0.074 A 
ATOM     16  C   UNL A   1      40.098  27.758  30.151  1.00  0.00     0.049 A 
ATOM     17  N   UNL A   1      42.963  28.597  29.059  1.00  0.00    -0.248 NA
ATOM     18  C   UNL A   1      41.750  28.712  27.078  1.00  0.00     0.031 C 
ATOM     19  C   UNL A   1      38.863  27.162  30.667  1.00  0.00     0.029 A 
ATOM     20  N   UNL A   1      40.346  28.776  31.020  1.00  0.00    -0.354 N 
ATOM     21  C   UNL A   1      43.622  29.441  28.169  1.00  0.00     0.074 A 
ATOM     22  C   UNL A   1      42.896  29.375  26.925  1.00  0.00     0.031 C 
ATOM     23  C   UNL A   1      38.331  27.993  31.585  1.00  0.00     0.029 A 
ATOM     24  C   UNL A   1      39.250  29.096  31.803  1.00  0.00     0.049 A 
ATOM     25  H   UNL A   1      41.213  29.237  31.084  1.00  0.00     0.167 HD
ATOM     26  C   UNL A   1      44.559  30.333  28.589  1.00  0.00     0.031 A 
ATOM     27  C   UNL A   1      39.060  30.241  32.498  1.00  0.00     0.031 A 
ATOM     28  C   UNL A   1      45.161  29.955  29.841  1.00  0.00     0.049 A 
ATOM     29  C   UNL A   1      40.372  30.897  32.686  1.00  0.00     0.074 A 
ATOM     30  C   UNL A   1      45.853  28.853  30.304  1.00  0.00     0.029 A 
ATOM     31  N   UNL A   1      44.823  30.677  30.959  1.00  0.00    -0.354 N 
ATOM     32  N   UNL A   1      41.303  30.446  33.478  1.00  0.00    -0.248 NA
ATOM     33  C   UNL A   1      40.815  31.870  31.699  1.00  0.00     0.031 C 
ATOM     34  C   UNL A   1      45.491  28.734  31.678  1.00  0.00     0.029 A 
ATOM     35  C   UNL A   1      44.620  29.783  31.974  1.00  0.00     0.049 A 
ATOM     36  H   UNL A   1      44.742  31.656  31.018  1.00  0.00     0.167 HD
ATOM     37  C   UNL A   1      42.493  30.733  32.826  1.00  0.00     0.074 A 
ATOM     38  C   UNL A   1      42.138  31.724  31.814  1.00  0.00     0.031 C 
ATOM     39  C   UNL A   1      43.589  29.931  32.977  1.00  0.00     0.031 A 
BRANCH  26  40
ATOM     40  C   UNL A   1      44.567  31.765  28.093  1.00  0.00    -0.014 A 
ATOM     41  C   UNL A   1      43.783  32.718  28.766  1.00  0.00     0.009 A 
ATOM     42  C   UNL A   1      45.048  32.130  26.820  1.00  0.00     0.009 A 
ATOM     43  C   UNL A   1      43.402  33.915  28.145  1.00  0.00     0.001 A 
ATOM     44  C   UNL A   1      44.712  33.343  26.218  1.00  0.00     0.001 A 
ATOM     45  C   UNL A   1      43.855  34.220  26.865  1.00  0.00     0.000 A 
ENDBRANCH  26  40
BRANCH  27  46
ATOM     46  C   UNL A   1      37.775  30.912  32.776  1.00  0.00    -0.014 A 
ATOM     47  C   UNL A   1      37.656  31.820  33.836  1.00  0.00     0.009 A 
ATOM     48  C   UNL A   1      36.711  30.831  31.857  1.00  0.00     0.009 A 
ATOM     49  C   UNL A   1      36.520  32.630  33.959  1.00  0.00     0.001 A 
ATOM     50  C   UNL A   1      35.571  31.627  31.987  1.00  0.00     0.001 A 
ATOM     51  C   UNL A   1      35.482  32.538  33.032  1.00  0.00     0.000 A 
ENDBRANCH  27  46
BRANCH  39  52
ATOM     52  C   UNL A   1      43.577  28.914  34.088  1.00  0.00    -0.014 A 
ATOM     53  C   UNL A   1      44.093  29.182  35.367  1.00  0.00     0.009 A 
ATOM     54  C   UNL A   1      42.906  27.700  33.881  1.00  0.00     0.009 A 
ATOM     55  C   UNL A   1      43.984  28.242  36.395  1.00  0.00     0.001 A 
ATOM     56  C   UNL A   1      42.776  26.770  34.915  1.00  0.00     0.001 A 
ATOM     57  C   UNL A   1      43.324  27.037  36.168  1.00  0.00     0.000 A 
ENDBRANCH  39  52
ENDBRANCH  13  14
ENDBRANCH   6   8
ENDBRANCH   5   6
ENDBRANCH   4   5
ENDBRANCH   3   4
ENDBRANCH   2   3
ENDBRANCH   1   2
BRANCH   1  58
ATOM     58  C   UNL A   1      33.145  22.542  27.574  1.00  0.00     0.261 C 
BRANCH  58  59
ATOM     59  O   UNL A   1      32.819  23.712  26.815  1.00  0.00    -0.461 OA
BRANCH  59  60
ATOM     60  C   UNL A   1      31.497  23.745  26.484  1.00  0.00     0.335 C 
ATOM     61  O   UNL A   1      30.590  23.502  27.278  1.00  0.00    -0.249 OA
BRANCH  60  62
ATOM     62  C   UNL A   1      31.233  24.276  25.072  1.00  0.00     0.244 C 
ATOM     63  C   UNL A   1      32.237  24.072  23.980  1.00  0.00     0.072 A 
ATOM     64  N   UNL A   1      30.728  25.682  24.954  1.00  0.00    -0.323 N 
ATOM     65  N   UNL A   1      33.160  23.081  23.801  1.00  0.00    -0.346 N 
ATOM     66  C   UNL A   1      32.290  24.819  22.819  1.00  0.00     0.066 A 
ATOM     67  C   UNL A   1      30.257  25.976  23.591  1.00  0.00     0.127 C 
ATOM     68  C   UNL A   1      33.729  23.285  22.566  1.00  0.00     0.197 A 
ATOM     69  H   UNL A   1      33.376  22.359  24.434  1.00  0.00     0.167 HD
ATOM     70  N   UNL A   1      33.223  24.334  21.953  1.00  0.00    -0.242 NA
ATOM     71  C   UNL A   1      31.415  25.991  22.566  1.00  0.00     0.080 C 
BRANCH  64  72
ATOM     72  C   UNL A   1      31.136  26.644  25.871  1.00  0.00     0.223 C 
ATOM     73  O   UNL A   1      30.625  26.692  26.994  1.00  0.00    -0.275 OA
BRANCH  72  74
ATOM     74  C   UNL A   1      32.057  27.819  25.529  1.00  0.00     0.100 C 
BRANCH  74  75
ATOM     75  C   UNL A   1      33.537  27.827  25.840  1.00  0.00     0.015 C 
BRANCH  75  76
ATOM     76  C   UNL A   1      34.053  28.346  27.170  1.00  0.00     0.038 C 
BRANCH  76  77
ATOM     77  C   UNL A   1      34.687  29.713  27.341  1.00  0.00    -0.023 A 
ATOM     78  C   UNL A   1      33.890  30.848  27.287  1.00  0.00     0.087 A 
ATOM     79  C   UNL A   1      36.004  30.184  27.759  1.00  0.00     0.003 A 
ATOM     80  N   UNL A   1      34.600  31.922  27.736  1.00  0.00    -0.361 N 
ATOM     81  C   UNL A   1      35.873  31.543  28.072  1.00  0.00     0.046 A 
ATOM     82  C   UNL A   1      37.290  29.634  28.002  1.00  0.00     0.010 A 
ATOM     83  H   UNL A   1      34.248  32.837  27.808  1.00  0.00     0.166 HD
ATOM     84  C   UNL A   1      36.896  32.311  28.652  1.00  0.00     0.026 A 
ATOM     85  C   UNL A   1      38.339  30.392  28.536  1.00  0.00     0.001 A 
ATOM     86  C   UNL A   1      38.134  31.713  28.879  1.00  0.00     0.002 A 
ENDBRANCH  76  77
ENDBRANCH  75  76
ENDBRANCH  74  75
ENDBRANCH  72  74
ENDBRANCH  64  72
ENDBRANCH  60  62
ENDBRANCH  59  60
ENDBRANCH  58  59
ENDBRANCH   1  58
TORSDOF 19
ENDMDL
MODEL 3
REMARK VINA RESULT:     -11.5      2.966      7.639
REMARK SMILES O=C(OCCOCCOC(=O)[C@@H]1c2[nH]cnc2CCN1C(=O)CCCc1c[nH]c2ccccc12)c1ccc(-c2c3nc(c(-c4ccccc4)c4ccc([nH]4)c(-c4ccccc4)c4nc(c(-c5ccccc5)c5ccc2[nH]5)C=C4)C=C3)cc1
REMARK SMILES IDX 7 1 6 2 5 3 4 4 3 5 2 6 1 7 35 8 36 9 82 10 37 11 81 12
REMARK SMILES IDX 38 13 39 14 40 15 75 16 41 17 80 18 74 19 76 20 42 21 79 22
REMARK SMILES IDX 73 23 72 24 43 26 65 27 50 28 64 29 51 30 54 31 63 32 77 33
REMARK SMILES IDX 52 34 53 35 62 37 78 38 55 39 44 40 45 41 49 42 46 43 48 44
REMARK SMILES IDX 47 45 66 46 67 47 71 48 68 49 70 50 69 51 56 52 57 53 61 54
REMARK SMILES IDX 58 55 60 56 59 57 8 58 9 59 10 60 11 61 12 62 13 63 20 64
REMARK SMILES IDX 14 65 17 66 19 67 15 68 16 70 18 71 21 72 22 73 23 74 24 75
REMARK SMILES IDX 25 76 26 77 27 78 34 79 28 80 29 81 33 82 30 84 32 85 31 86
REMARK H PARENT 76 25 54 36 14 69 28 83
REMARK Flexibility Score: inf
ROOT
ATOM      1  C   UNL A   1      32.204  30.013  25.330  1.00  0.00     0.202 C 
ENDROOT
BRANCH   1   2
ATOM      2  O   UNL A   1      32.591  29.187  26.435  1.00  0.00    -0.374 OA
BRANCH   2   3
ATOM      3  C   UNL A   1      33.382  29.694  27.501  1.00  0.00     0.202 C 
BRANCH   3   4
ATOM      4  C   UNL A   1      33.735  31.185  27.506  1.00  0.00     0.261 C 
BRANCH   4   5
ATOM      5  O   UNL A   1      34.673  31.587  28.519  1.00  0.00    -0.460 OA
BRANCH   5   6
ATOM      6  C   UNL A   1      35.970  31.904  28.314  1.00  0.00     0.338 C 
ATOM      7  O   UNL A   1      36.257  32.986  27.821  1.00  0.00    -0.246 OA
BRANCH   6   8
ATOM      8  C   UNL A   1      37.039  31.033  28.886  1.00  0.00     0.060 A 
ATOM      9  C   UNL A   1      38.322  31.463  29.219  1.00  0.00     0.016 A 
ATOM     10  C   UNL A   1      36.711  29.681  29.075  1.00  0.00     0.016 A 
ATOM     11  C   UNL A   1      39.318  30.559  29.506  1.00  0.00     0.010 A 
ATOM     12  C   UNL A   1      37.692  28.769  29.437  1.00  0.00     0.010 A 
ATOM     13  C   UNL A   1      39.009  29.207  29.558  1.00  0.00    -0.014 A 
BRANCH  13  14
ATOM     14  C   UNL A   1      40.139  28.317  29.748  1.00  0.00     0.031 A 
ATOM     15  C   UNL A   1      40.738  28.299  31.107  1.00  0.00     0.074 A 
ATOM     16  C   UNL A   1      40.607  27.555  28.744  1.00  0.00     0.049 A 
ATOM     17  N   UNL A   1      41.963  28.542  31.445  1.00  0.00    -0.248 NA
ATOM     18  C   UNL A   1      39.829  28.066  32.240  1.00  0.00     0.031 C 
ATOM     19  C   UNL A   1      39.983  27.319  27.440  1.00  0.00     0.029 A 
ATOM     20  N   UNL A   1      41.684  26.721  28.737  1.00  0.00    -0.354 N 
ATOM     21  C   UNL A   1      42.028  28.313  32.818  1.00  0.00     0.074 A 
ATOM     22  C   UNL A   1      40.670  28.148  33.272  1.00  0.00     0.031 C 
ATOM     23  C   UNL A   1      40.530  26.217  26.891  1.00  0.00     0.029 A 
ATOM     24  C   UNL A   1      41.615  25.760  27.743  1.00  0.00     0.049 A 
ATOM     25  H   UNL A   1      42.432  26.793  29.372  1.00  0.00     0.167 HD
ATOM     26  C   UNL A   1      43.200  28.015  33.439  1.00  0.00     0.031 A 
ATOM     27  C   UNL A   1      42.323  24.610  27.680  1.00  0.00     0.031 A 
ATOM     28  C   UNL A   1      44.348  28.482  32.707  1.00  0.00     0.049 A 
ATOM     29  C   UNL A   1      43.506  24.742  28.557  1.00  0.00     0.074 A 
ATOM     30  C   UNL A   1      44.786  29.707  32.244  1.00  0.00     0.029 A 
ATOM     31  N   UNL A   1      45.127  27.547  32.071  1.00  0.00    -0.354 N 
ATOM     32  N   UNL A   1      44.525  25.508  28.292  1.00  0.00    -0.248 NA
ATOM     33  C   UNL A   1      43.402  24.303  29.941  1.00  0.00     0.031 C 
ATOM     34  C   UNL A   1      45.472  29.425  31.026  1.00  0.00     0.029 A 
ATOM     35  C   UNL A   1      45.431  28.044  30.834  1.00  0.00     0.049 A 
ATOM     36  H   UNL A   1      45.414  26.680  32.438  1.00  0.00     0.167 HD
ATOM     37  C   UNL A   1      44.931  25.996  29.526  1.00  0.00     0.074 A 
ATOM     38  C   UNL A   1      44.297  25.118  30.505  1.00  0.00     0.031 C 
ATOM     39  C   UNL A   1      45.505  27.231  29.641  1.00  0.00     0.031 A 
BRANCH  26  40
ATOM     40  C   UNL A   1      43.295  26.895  34.455  1.00  0.00    -0.014 A 
ATOM     41  C   UNL A   1      43.179  25.566  34.008  1.00  0.00     0.009 A 
ATOM     42  C   UNL A   1      43.167  27.106  35.841  1.00  0.00     0.009 A 
ATOM     43  C   UNL A   1      42.832  24.531  34.887  1.00  0.00     0.001 A 
ATOM     44  C   UNL A   1      42.870  26.070  36.728  1.00  0.00     0.001 A 
ATOM     45  C   UNL A   1      42.663  24.788  36.244  1.00  0.00     0.000 A 
ENDBRANCH  26  40
BRANCH  27  46
ATOM     46  C   UNL A   1      41.886  23.325  27.101  1.00  0.00    -0.014 A 
ATOM     47  C   UNL A   1      42.676  22.659  26.155  1.00  0.00     0.009 A 
ATOM     48  C   UNL A   1      40.789  22.629  27.647  1.00  0.00     0.009 A 
ATOM     49  C   UNL A   1      42.387  21.341  25.782  1.00  0.00     0.001 A 
ATOM     50  C   UNL A   1      40.491  21.319  27.266  1.00  0.00     0.001 A 
ATOM     51  C   UNL A   1      41.300  20.670  26.342  1.00  0.00     0.000 A 
ENDBRANCH  27  46
BRANCH  39  52
ATOM     52  C   UNL A   1      45.962  27.920  28.381  1.00  0.00    -0.014 A 
ATOM     53  C   UNL A   1      47.307  27.942  27.973  1.00  0.00     0.009 A 
ATOM     54  C   UNL A   1      44.994  28.445  27.512  1.00  0.00     0.009 A 
ATOM     55  C   UNL A   1      47.677  28.517  26.755  1.00  0.00     0.001 A 
ATOM     56  C   UNL A   1      45.362  28.999  26.284  1.00  0.00     0.001 A 
ATOM     57  C   UNL A   1      46.703  29.044  25.911  1.00  0.00     0.000 A 
ENDBRANCH  39  52
ENDBRANCH  13  14
ENDBRANCH   6   8
ENDBRANCH   5   6
ENDBRANCH   4   5
ENDBRANCH   3   4
ENDBRANCH   2   3
ENDBRANCH   1   2
BRANCH   1  58
ATOM     58  C   UNL A   1      31.362  29.498  24.155  1.00  0.00     0.261 C 
BRANCH  58  59
ATOM     59  O   UNL A   1      30.288  28.640  24.557  1.00  0.00    -0.461 OA
BRANCH  59  60
ATOM     60  C   UNL A   1      30.312  27.455  23.885  1.00  0.00     0.335 C 
ATOM     61  O   UNL A   1      29.311  26.921  23.409  1.00  0.00    -0.249 OA
BRANCH  60  62
ATOM     62  C   UNL A   1      31.726  26.925  23.628  1.00  0.00     0.244 C 
ATOM     63  C   UNL A   1      32.057  26.220  22.350  1.00  0.00     0.072 A 
ATOM     64  N   UNL A   1      32.382  26.162  24.739  1.00  0.00    -0.323 N 
ATOM     65  N   UNL A   1      31.512  26.347  21.103  1.00  0.00    -0.346 N 
ATOM     66  C   UNL A   1      33.141  25.382  22.178  1.00  0.00     0.066 A 
ATOM     67  C   UNL A   1      33.815  25.950  24.479  1.00  0.00     0.127 C 
ATOM     68  C   UNL A   1      32.274  25.578  20.255  1.00  0.00     0.197 A 
ATOM     69  H   UNL A   1      30.726  26.887  20.859  1.00  0.00     0.167 HD
ATOM     70  N   UNL A   1      33.264  24.978  20.883  1.00  0.00    -0.242 NA
ATOM     71  C   UNL A   1      34.054  24.998  23.284  1.00  0.00     0.080 C 
BRANCH  64  72
ATOM     72  C   UNL A   1      31.611  25.378  25.589  1.00  0.00     0.223 C 
ATOM     73  O   UNL A   1      31.609  25.591  26.806  1.00  0.00    -0.275 OA
BRANCH  72  74
ATOM     74  C   UNL A   1      30.891  24.096  25.157  1.00  0.00     0.100 C 
BRANCH  74  75
ATOM     75  C   UNL A   1      31.619  22.822  24.793  1.00  0.00     0.015 C 
BRANCH  75  76
ATOM     76  C   UNL A   1      32.284  21.971  25.858  1.00  0.00     0.038 C 
BRANCH  76  77
ATOM     77  C   UNL A   1      33.700  21.441  25.738  1.00  0.00    -0.023 A 
ATOM     78  C   UNL A   1      33.908  20.141  25.299  1.00  0.00     0.087 A 
ATOM     79  C   UNL A   1      35.027  22.047  25.798  1.00  0.00     0.003 A 
ATOM     80  N   UNL A   1      35.227  19.969  25.001  1.00  0.00    -0.361 N 
ATOM     81  C   UNL A   1      35.925  21.121  25.251  1.00  0.00     0.046 A 
ATOM     82  C   UNL A   1      35.599  23.293  26.165  1.00  0.00     0.010 A 
ATOM     83  H   UNL A   1      35.621  19.136  24.657  1.00  0.00     0.166 HD
ATOM     84  C   UNL A   1      37.279  21.402  25.004  1.00  0.00     0.026 A 
ATOM     85  C   UNL A   1      36.955  23.579  25.971  1.00  0.00     0.001 A 
ATOM     86  C   UNL A   1      37.781  22.648  25.373  1.00  0.00     0.002 A 
ENDBRANCH  76  77
ENDBRANCH  75  76
ENDBRANCH  74  75
ENDBRANCH  72  74
ENDBRANCH  64  72
ENDBRANCH  60  62
ENDBRANCH  59  60
ENDBRANCH  58  59
ENDBRANCH   1  58
TORSDOF 19
ENDMDL
