MODEL 1
REMARK VINA RESULT:     -10.1      0.000      0.000
REMARK SMILES O=C(OCCOCCOC(=O)c1ccc(-n2cnc3ccccc32)nc1)c1ccc(-c2c3nc(c(-c4ccccc4)c4ccc([nH]4)c(-c4ccccc4)c4nc(c(-c5ccccc5)c5ccc2[nH]5)C=C4)C=C3)cc1
REMARK SMILES IDX 5 1 4 2 3 3 2 4 1 5 27 6 28 7 74 8 29 9 73 10 30 11 31 12
REMARK SMILES IDX 32 13 67 14 33 15 72 16 66 17 68 18 34 19 71 20 65 21 64 22
REMARK SMILES IDX 35 24 57 25 42 26 56 27 43 28 46 29 55 30 69 31 44 32 45 33
REMARK SMILES IDX 54 35 70 36 47 37 36 38 37 39 41 40 38 41 40 42 39 43 58 44
REMARK SMILES IDX 59 45 63 46 60 47 62 48 61 49 48 50 49 51 53 52 50 53 52 54
REMARK SMILES IDX 51 55 6 56 7 57 8 58 9 59 10 60 11 61 12 62 13 63 26 64
REMARK SMILES IDX 14 65 25 66 15 67 16 68 17 69 24 70 18 71 19 72 23 73 20 74
REMARK SMILES IDX 22 75 21 76
REMARK H PARENT 68 23 46 34
REMARK Flexibility Score: inf
ROOT
ATOM      1  C   UNL A   1      33.173  34.820  28.356  1.00  0.00     0.202 C 
ENDROOT
BRANCH   1   2
ATOM      2  C   UNL A   1      34.459  34.031  28.099  1.00  0.00     0.261 C 
BRANCH   2   3
ATOM      3  O   UNL A   1      34.549  32.716  28.700  1.00  0.00    -0.460 OA
BRANCH   3   4
ATOM      4  C   UNL A   1      34.825  31.521  28.102  1.00  0.00     0.338 C 
ATOM      5  O   UNL A   1      33.930  30.866  27.579  1.00  0.00    -0.246 OA
BRANCH   4   6
ATOM      6  C   UNL A   1      36.188  30.933  28.180  1.00  0.00     0.060 A 
ATOM      7  C   UNL A   1      36.350  29.592  27.790  1.00  0.00     0.016 A 
ATOM      8  C   UNL A   1      37.250  31.613  28.771  1.00  0.00     0.016 A 
ATOM      9  C   UNL A   1      37.512  28.894  28.134  1.00  0.00     0.010 A 
ATOM     10  C   UNL A   1      38.369  30.895  29.185  1.00  0.00     0.010 A 
ATOM     11  C   UNL A   1      38.499  29.525  28.900  1.00  0.00    -0.014 A 
BRANCH  11  12
ATOM     12  C   UNL A   1      39.823  28.902  29.069  1.00  0.00     0.031 A 
ATOM     13  C   UNL A   1      40.110  28.709  30.506  1.00  0.00     0.074 A 
ATOM     14  C   UNL A   1      40.733  28.441  28.180  1.00  0.00     0.049 A 
ATOM     15  N   UNL A   1      41.003  29.362  31.170  1.00  0.00    -0.248 NA
ATOM     16  C   UNL A   1      39.220  27.874  31.325  1.00  0.00     0.031 C 
ATOM     17  C   UNL A   1      40.725  28.475  26.727  1.00  0.00     0.029 A 
ATOM     18  N   UNL A   1      41.880  27.733  28.427  1.00  0.00    -0.354 N 
ATOM     19  C   UNL A   1      40.888  28.918  32.471  1.00  0.00     0.074 A 
ATOM     20  C   UNL A   1      39.666  28.161  32.546  1.00  0.00     0.031 C 
ATOM     21  C   UNL A   1      41.593  27.573  26.215  1.00  0.00     0.029 A 
ATOM     22  C   UNL A   1      42.394  27.077  27.315  1.00  0.00     0.049 A 
ATOM     23  H   UNL A   1      42.304  27.693  29.315  1.00  0.00     0.167 HD
ATOM     24  C   UNL A   1      41.929  29.000  33.336  1.00  0.00     0.031 A 
ATOM     25  C   UNL A   1      43.504  26.307  27.231  1.00  0.00     0.031 A 
ATOM     26  C   UNL A   1      42.946  29.909  32.875  1.00  0.00     0.049 A 
ATOM     27  C   UNL A   1      44.417  26.772  28.288  1.00  0.00     0.074 A 
ATOM     28  C   UNL A   1      42.990  31.264  32.618  1.00  0.00     0.029 A 
ATOM     29  N   UNL A   1      44.022  29.353  32.226  1.00  0.00    -0.354 N 
ATOM     30  N   UNL A   1      45.003  27.935  28.261  1.00  0.00    -0.248 NA
ATOM     31  C   UNL A   1      44.410  26.100  29.574  1.00  0.00     0.031 C 
ATOM     32  C   UNL A   1      43.874  31.414  31.512  1.00  0.00     0.029 A 
ATOM     33  C   UNL A   1      44.363  30.154  31.163  1.00  0.00     0.049 A 
ATOM     34  H   UNL A   1      44.475  28.517  32.481  1.00  0.00     0.167 HD
ATOM     35  C   UNL A   1      45.014  28.339  29.585  1.00  0.00     0.074 A 
ATOM     36  C   UNL A   1      44.791  27.118  30.351  1.00  0.00     0.031 C 
ATOM     37  C   UNL A   1      44.921  29.660  29.917  1.00  0.00     0.031 A 
BRANCH  24  38
ATOM     38  C   UNL A   1      42.160  27.961  34.394  1.00  0.00    -0.014 A 
ATOM     39  C   UNL A   1      41.657  28.074  35.708  1.00  0.00     0.009 A 
ATOM     40  C   UNL A   1      42.702  26.722  34.028  1.00  0.00     0.009 A 
ATOM     41  C   UNL A   1      41.728  27.027  36.626  1.00  0.00     0.001 A 
ATOM     42  C   UNL A   1      42.729  25.653  34.932  1.00  0.00     0.001 A 
ATOM     43  C   UNL A   1      42.250  25.808  36.230  1.00  0.00     0.000 A 
ENDBRANCH  24  38
BRANCH  25  44
ATOM     44  C   UNL A   1      43.689  25.021  26.526  1.00  0.00    -0.014 A 
ATOM     45  C   UNL A   1      44.763  24.852  25.633  1.00  0.00     0.009 A 
ATOM     46  C   UNL A   1      42.649  24.077  26.486  1.00  0.00     0.009 A 
ATOM     47  C   UNL A   1      44.763  23.816  24.691  1.00  0.00     0.001 A 
ATOM     48  C   UNL A   1      42.651  23.041  25.542  1.00  0.00     0.001 A 
ATOM     49  C   UNL A   1      43.697  22.924  24.631  1.00  0.00     0.000 A 
ENDBRANCH  25  44
BRANCH  37  50
ATOM     50  C   UNL A   1      45.168  30.689  28.833  1.00  0.00    -0.014 A 
ATOM     51  C   UNL A   1      44.116  30.987  27.953  1.00  0.00     0.009 A 
ATOM     52  C   UNL A   1      46.430  31.250  28.565  1.00  0.00     0.009 A 
ATOM     53  C   UNL A   1      44.316  31.800  26.834  1.00  0.00     0.001 A 
ATOM     54  C   UNL A   1      46.624  32.089  27.459  1.00  0.00     0.001 A 
ATOM     55  C   UNL A   1      45.569  32.352  26.588  1.00  0.00     0.000 A 
ENDBRANCH  37  50
ENDBRANCH  11  12
ENDBRANCH   4   6
ENDBRANCH   3   4
ENDBRANCH   2   3
ENDBRANCH   1   2
BRANCH   1  56
ATOM     56  O   UNL A   1      33.461  36.093  28.892  1.00  0.00    -0.374 OA
BRANCH  56  57
ATOM     57  C   UNL A   1      32.584  36.664  29.841  1.00  0.00     0.202 C 
BRANCH  57  58
ATOM     58  C   UNL A   1      33.372  37.312  30.980  1.00  0.00     0.261 C 
BRANCH  58  59
ATOM     59  O   UNL A   1      32.719  37.034  32.230  1.00  0.00    -0.460 OA
BRANCH  59  60
ATOM     60  C   UNL A   1      32.540  35.731  32.510  1.00  0.00     0.339 C 
ATOM     61  O   UNL A   1      31.486  35.112  32.621  1.00  0.00    -0.246 OA
BRANCH  60  62
ATOM     62  C   UNL A   1      33.797  35.026  32.579  1.00  0.00     0.078 A 
ATOM     63  C   UNL A   1      34.028  33.841  31.893  1.00  0.00     0.021 A 
ATOM     64  C   UNL A   1      34.787  35.572  33.390  1.00  0.00     0.129 A 
ATOM     65  C   UNL A   1      35.272  33.259  32.024  1.00  0.00     0.048 A 
ATOM     66  N   UNL A   1      35.980  34.989  33.593  1.00  0.00    -0.238 NA
ATOM     67  C   UNL A   1      36.204  33.872  32.866  1.00  0.00     0.138 A 
BRANCH  67  68
ATOM     68  N   UNL A   1      37.525  33.428  32.783  1.00  0.00    -0.283 N 
ATOM     69  C   UNL A   1      38.218  32.716  33.719  1.00  0.00     0.206 A 
ATOM     70  C   UNL A   1      38.387  33.739  31.757  1.00  0.00     0.074 A 
ATOM     71  N   UNL A   1      39.412  32.382  33.276  1.00  0.00    -0.236 NA
ATOM     72  C   UNL A   1      39.538  33.031  32.068  1.00  0.00     0.089 A 
ATOM     73  C   UNL A   1      38.274  34.598  30.652  1.00  0.00     0.029 A 
ATOM     74  C   UNL A   1      40.620  33.096  31.182  1.00  0.00     0.030 A 
ATOM     75  C   UNL A   1      39.375  34.680  29.806  1.00  0.00     0.002 A 
ATOM     76  C   UNL A   1      40.522  33.926  30.053  1.00  0.00     0.002 A 
ENDBRANCH  67  68
ENDBRANCH  60  62
ENDBRANCH  59  60
ENDBRANCH  58  59
ENDBRANCH  57  58
ENDBRANCH  56  57
ENDBRANCH   1  56
TORSDOF 15
ENDMDL
MODEL 2
REMARK VINA RESULT:     -10.0      4.446     11.492
REMARK SMILES O=C(OCCOCCOC(=O)c1ccc(-n2cnc3ccccc32)nc1)c1ccc(-c2c3nc(c(-c4ccccc4)c4ccc([nH]4)c(-c4ccccc4)c4nc(c(-c5ccccc5)c5ccc2[nH]5)C=C4)C=C3)cc1
REMARK SMILES IDX 5 1 4 2 3 3 2 4 1 5 27 6 28 7 74 8 29 9 73 10 30 11 31 12
REMARK SMILES IDX 32 13 67 14 33 15 72 16 66 17 68 18 34 19 71 20 65 21 64 22
REMARK SMILES IDX 35 24 57 25 42 26 56 27 43 28 46 29 55 30 69 31 44 32 45 33
REMARK SMILES IDX 54 35 70 36 47 37 36 38 37 39 41 40 38 41 40 42 39 43 58 44
REMARK SMILES IDX 59 45 63 46 60 47 62 48 61 49 48 50 49 51 53 52 50 53 52 54
REMARK SMILES IDX 51 55 6 56 7 57 8 58 9 59 10 60 11 61 12 62 13 63 26 64
REMARK SMILES IDX 14 65 25 66 15 67 16 68 17 69 24 70 18 71 19 72 23 73 20 74
REMARK SMILES IDX 22 75 21 76
REMARK H PARENT 68 23 46 34
REMARK Flexibility Score: inf
ROOT
ATOM      1  C   UNL A   1      41.116  19.909  26.405  1.00  0.00     0.202 C 
ENDROOT
BRANCH   1   2
ATOM      2  C   UNL A   1      41.077  21.421  26.167  1.00  0.00     0.261 C 
BRANCH   2   3
ATOM      3  O   UNL A   1      40.736  22.252  27.304  1.00  0.00    -0.460 OA
BRANCH   3   4
ATOM      4  C   UNL A   1      41.550  23.051  28.052  1.00  0.00     0.338 C 
ATOM      5  O   UNL A   1      42.456  22.562  28.721  1.00  0.00    -0.246 OA
BRANCH   4   6
ATOM      6  C   UNL A   1      41.281  24.508  28.170  1.00  0.00     0.060 A 
ATOM      7  C   UNL A   1      42.274  25.316  28.753  1.00  0.00     0.016 A 
ATOM      8  C   UNL A   1      40.034  25.052  27.874  1.00  0.00     0.016 A 
ATOM      9  C   UNL A   1      41.965  26.611  29.179  1.00  0.00     0.010 A 
ATOM     10  C   UNL A   1      39.707  26.309  28.374  1.00  0.00     0.010 A 
ATOM     11  C   UNL A   1      40.656  27.089  29.058  1.00  0.00    -0.014 A 
BRANCH  11  12
ATOM     12  C   UNL A   1      40.359  28.516  29.272  1.00  0.00     0.031 A 
ATOM     13  C   UNL A   1      41.396  29.349  28.629  1.00  0.00     0.074 A 
ATOM     14  C   UNL A   1      39.320  29.150  29.863  1.00  0.00     0.049 A 
ATOM     15  N   UNL A   1      42.266  30.057  29.267  1.00  0.00    -0.248 NA
ATOM     16  C   UNL A   1      41.621  29.250  27.181  1.00  0.00     0.031 C 
ATOM     17  C   UNL A   1      38.162  28.610  30.555  1.00  0.00     0.029 A 
ATOM     18  N   UNL A   1      39.046  30.493  29.885  1.00  0.00    -0.354 N 
ATOM     19  C   UNL A   1      43.069  30.613  28.291  1.00  0.00     0.074 A 
ATOM     20  C   UNL A   1      42.755  29.938  27.060  1.00  0.00     0.031 C 
ATOM     21  C   UNL A   1      37.174  29.530  30.642  1.00  0.00     0.029 A 
ATOM     22  C   UNL A   1      37.734  30.800  30.226  1.00  0.00     0.049 A 
ATOM     23  H   UNL A   1      39.719  31.181  29.678  1.00  0.00     0.167 HD
ATOM     24  C   UNL A   1      43.762  31.756  28.519  1.00  0.00     0.031 A 
ATOM     25  C   UNL A   1      37.157  32.019  30.338  1.00  0.00     0.031 A 
ATOM     26  C   UNL A   1      43.862  32.058  29.923  1.00  0.00     0.049 A 
ATOM     27  C   UNL A   1      38.236  32.963  30.673  1.00  0.00     0.074 A 
ATOM     28  C   UNL A   1      44.441  31.434  31.010  1.00  0.00     0.029 A 
ATOM     29  N   UNL A   1      42.954  32.957  30.428  1.00  0.00    -0.354 N 
ATOM     30  N   UNL A   1      38.860  32.954  31.816  1.00  0.00    -0.248 NA
ATOM     31  C   UNL A   1      38.888  33.699  29.606  1.00  0.00     0.031 C 
ATOM     32  C   UNL A   1      43.584  31.713  32.112  1.00  0.00     0.029 A 
ATOM     33  C   UNL A   1      42.540  32.526  31.664  1.00  0.00     0.049 A 
ATOM     34  H   UNL A   1      42.649  33.777  29.976  1.00  0.00     0.167 HD
ATOM     35  C   UNL A   1      40.168  33.267  31.490  1.00  0.00     0.074 A 
ATOM     36  C   UNL A   1      40.090  33.867  30.163  1.00  0.00     0.031 C 
ATOM     37  C   UNL A   1      41.212  32.754  32.205  1.00  0.00     0.031 A 
BRANCH  24  38
ATOM     38  C   UNL A   1      44.002  32.763  27.433  1.00  0.00    -0.014 A 
ATOM     39  C   UNL A   1      44.513  32.420  26.163  1.00  0.00     0.009 A 
ATOM     40  C   UNL A   1      43.502  34.063  27.584  1.00  0.00     0.009 A 
ATOM     41  C   UNL A   1      44.566  33.331  25.109  1.00  0.00     0.001 A 
ATOM     42  C   UNL A   1      43.507  34.965  26.513  1.00  0.00     0.001 A 
ATOM     43  C   UNL A   1      44.045  34.602  25.281  1.00  0.00     0.000 A 
ENDBRANCH  24  38
BRANCH  25  44
ATOM     44  C   UNL A   1      35.826  32.461  29.872  1.00  0.00    -0.014 A 
ATOM     45  C   UNL A   1      35.296  31.961  28.668  1.00  0.00     0.009 A 
ATOM     46  C   UNL A   1      35.215  33.594  30.436  1.00  0.00     0.009 A 
ATOM     47  C   UNL A   1      34.239  32.611  28.018  1.00  0.00     0.001 A 
ATOM     48  C   UNL A   1      34.159  34.244  29.784  1.00  0.00     0.001 A 
ATOM     49  C   UNL A   1      33.685  33.765  28.565  1.00  0.00     0.000 A 
ENDBRANCH  25  44
BRANCH  37  50
ATOM     50  C   UNL A   1      40.919  32.140  33.559  1.00  0.00    -0.014 A 
ATOM     51  C   UNL A   1      41.138  32.926  34.701  1.00  0.00     0.009 A 
ATOM     52  C   UNL A   1      40.586  30.785  33.744  1.00  0.00     0.009 A 
ATOM     53  C   UNL A   1      41.048  32.379  35.984  1.00  0.00     0.001 A 
ATOM     54  C   UNL A   1      40.467  30.244  35.031  1.00  0.00     0.001 A 
ATOM     55  C   UNL A   1      40.710  31.039  36.150  1.00  0.00     0.000 A 
ENDBRANCH  37  50
ENDBRANCH  11  12
ENDBRANCH   4   6
ENDBRANCH   3   4
ENDBRANCH   2   3
ENDBRANCH   1   2
BRANCH   1  56
ATOM     56  O   UNL A   1      41.862  19.260  25.400  1.00  0.00    -0.374 OA
BRANCH  56  57
ATOM     57  C   UNL A   1      43.112  18.684  25.722  1.00  0.00     0.202 C 
BRANCH  57  58
ATOM     58  C   UNL A   1      44.232  19.349  24.923  1.00  0.00     0.261 C 
BRANCH  58  59
ATOM     59  O   UNL A   1      44.454  20.677  25.427  1.00  0.00    -0.460 OA
BRANCH  59  60
ATOM     60  C   UNL A   1      45.673  21.190  25.184  1.00  0.00     0.339 C 
ATOM     61  O   UNL A   1      46.696  20.600  24.850  1.00  0.00    -0.246 OA
BRANCH  60  62
ATOM     62  C   UNL A   1      45.665  22.631  25.252  1.00  0.00     0.078 A 
ATOM     63  C   UNL A   1      44.844  23.334  26.123  1.00  0.00     0.021 A 
ATOM     64  C   UNL A   1      46.511  23.312  24.381  1.00  0.00     0.129 A 
ATOM     65  C   UNL A   1      44.928  24.711  26.109  1.00  0.00     0.048 A 
ATOM     66  N   UNL A   1      46.560  24.651  24.296  1.00  0.00    -0.238 NA
ATOM     67  C   UNL A   1      45.799  25.312  25.196  1.00  0.00     0.138 A 
BRANCH  67  68
ATOM     68  N   UNL A   1      46.069  26.670  25.372  1.00  0.00    -0.283 N 
ATOM     69  C   UNL A   1      46.400  27.579  24.409  1.00  0.00     0.206 A 
ATOM     70  C   UNL A   1      46.142  27.296  26.595  1.00  0.00     0.074 A 
ATOM     71  N   UNL A   1      46.493  28.793  24.910  1.00  0.00    -0.236 NA
ATOM     72  C   UNL A   1      46.358  28.627  26.271  1.00  0.00     0.089 A 
ATOM     73  C   UNL A   1      46.097  26.811  27.912  1.00  0.00     0.029 A 
ATOM     74  C   UNL A   1      46.439  29.562  27.310  1.00  0.00     0.030 A 
ATOM     75  C   UNL A   1      46.220  27.751  28.931  1.00  0.00     0.002 A 
ATOM     76  C   UNL A   1      46.368  29.107  28.637  1.00  0.00     0.002 A 
ENDBRANCH  67  68
ENDBRANCH  60  62
ENDBRANCH  59  60
ENDBRANCH  58  59
ENDBRANCH  57  58
ENDBRANCH  56  57
ENDBRANCH   1  56
TORSDOF 15
ENDMDL
MODEL 3
REMARK VINA RESULT:      -9.9      4.074      7.121
REMARK SMILES O=C(OCCOCCOC(=O)c1ccc(-n2cnc3ccccc32)nc1)c1ccc(-c2c3nc(c(-c4ccccc4)c4ccc([nH]4)c(-c4ccccc4)c4nc(c(-c5ccccc5)c5ccc2[nH]5)C=C4)C=C3)cc1
REMARK SMILES IDX 5 1 4 2 3 3 2 4 1 5 27 6 28 7 74 8 29 9 73 10 30 11 31 12
REMARK SMILES IDX 32 13 67 14 33 15 72 16 66 17 68 18 34 19 71 20 65 21 64 22
REMARK SMILES IDX 35 24 57 25 42 26 56 27 43 28 46 29 55 30 69 31 44 32 45 33
REMARK SMILES IDX 54 35 70 36 47 37 36 38 37 39 41 40 38 41 40 42 39 43 58 44
REMARK SMILES IDX 59 45 63 46 60 47 62 48 61 49 48 50 49 51 53 52 50 53 52 54
REMARK SMILES IDX 51 55 6 56 7 57 8 58 9 59 10 60 11 61 12 62 13 63 26 64
REMARK SMILES IDX 14 65 25 66 15 67 16 68 17 69 24 70 18 71 19 72 23 73 20 74
REMARK SMILES IDX 22 75 21 76
REMARK H PARENT 68 23 46 34
REMARK Flexibility Score: inf
ROOT
ATOM      1  C   UNL A   1      33.751  30.371  27.320  1.00  0.00     0.202 C 
ENDROOT
BRANCH   1   2
ATOM      2  C   UNL A   1      33.967  31.862  27.590  1.00  0.00     0.261 C 
BRANCH   2   3
ATOM      3  O   UNL A   1      35.333  32.295  27.804  1.00  0.00    -0.460 OA
BRANCH   3   4
ATOM      4  C   UNL A   1      36.054  32.305  28.962  1.00  0.00     0.338 C 
ATOM      5  O   UNL A   1      35.971  33.253  29.736  1.00  0.00    -0.246 OA
BRANCH   4   6
ATOM      6  C   UNL A   1      37.042  31.233  29.248  1.00  0.00     0.060 A 
ATOM      7  C   UNL A   1      38.357  31.617  29.566  1.00  0.00     0.016 A 
ATOM      8  C   UNL A   1      36.744  29.886  29.053  1.00  0.00     0.016 A 
ATOM      9  C   UNL A   1      39.393  30.678  29.531  1.00  0.00     0.010 A 
ATOM     10  C   UNL A   1      37.787  28.971  28.938  1.00  0.00     0.010 A 
ATOM     11  C   UNL A   1      39.122  29.360  29.143  1.00  0.00    -0.014 A 
BRANCH  11  12
ATOM     12  C   UNL A   1      40.133  28.305  29.328  1.00  0.00     0.031 A 
ATOM     13  C   UNL A   1      40.459  28.164  30.763  1.00  0.00     0.074 A 
ATOM     14  C   UNL A   1      40.724  27.449  28.463  1.00  0.00     0.049 A 
ATOM     15  N   UNL A   1      41.586  28.497  31.295  1.00  0.00    -0.248 NA
ATOM     16  C   UNL A   1      39.403  27.813  31.722  1.00  0.00     0.031 C 
ATOM     17  C   UNL A   1      40.596  27.337  27.020  1.00  0.00     0.029 A 
ATOM     18  N   UNL A   1      41.548  26.390  28.744  1.00  0.00    -0.354 N 
ATOM     19  C   UNL A   1      41.436  28.261  32.646  1.00  0.00     0.074 A 
ATOM     20  C   UNL A   1      40.033  28.032  32.874  1.00  0.00     0.031 C 
ATOM     21  C   UNL A   1      41.021  26.128  26.586  1.00  0.00     0.029 A 
ATOM     22  C   UNL A   1      41.679  25.480  27.701  1.00  0.00     0.049 A 
ATOM     23  H   UNL A   1      42.006  26.283  29.609  1.00  0.00     0.167 HD
ATOM     24  C   UNL A   1      42.508  28.032  33.443  1.00  0.00     0.031 A 
ATOM     25  C   UNL A   1      42.415  24.345  27.664  1.00  0.00     0.031 A 
ATOM     26  C   UNL A   1      43.741  28.440  32.823  1.00  0.00     0.049 A 
ATOM     27  C   UNL A   1      43.528  24.536  28.609  1.00  0.00     0.074 A 
ATOM     28  C   UNL A   1      44.257  29.645  32.393  1.00  0.00     0.029 A 
ATOM     29  N   UNL A   1      44.473  27.458  32.200  1.00  0.00    -0.354 N 
ATOM     30  N   UNL A   1      44.496  25.383  28.407  1.00  0.00    -0.248 NA
ATOM     31  C   UNL A   1      43.391  24.049  29.969  1.00  0.00     0.031 C 
ATOM     32  C   UNL A   1      45.030  29.340  31.236  1.00  0.00     0.029 A 
ATOM     33  C   UNL A   1      44.986  27.959  31.029  1.00  0.00     0.049 A 
ATOM     34  H   UNL A   1      44.607  26.542  32.538  1.00  0.00     0.167 HD
ATOM     35  C   UNL A   1      44.776  25.884  29.666  1.00  0.00     0.074 A 
ATOM     36  C   UNL A   1      44.190  24.921  30.591  1.00  0.00     0.031 C 
ATOM     37  C   UNL A   1      45.207  27.169  29.831  1.00  0.00     0.031 A 
BRANCH  24  38
ATOM     38  C   UNL A   1      42.436  27.094  34.613  1.00  0.00    -0.014 A 
ATOM     39  C   UNL A   1      42.001  27.493  35.895  1.00  0.00     0.009 A 
ATOM     40  C   UNL A   1      42.589  25.719  34.397  1.00  0.00     0.009 A 
ATOM     41  C   UNL A   1      41.772  26.580  36.923  1.00  0.00     0.001 A 
ATOM     42  C   UNL A   1      42.311  24.795  35.411  1.00  0.00     0.001 A 
ATOM     43  C   UNL A   1      41.911  25.226  36.674  1.00  0.00     0.000 A 
ENDBRANCH  24  38
BRANCH  25  44
ATOM     44  C   UNL A   1      42.048  23.020  27.120  1.00  0.00    -0.014 A 
ATOM     45  C   UNL A   1      40.992  22.288  27.693  1.00  0.00     0.009 A 
ATOM     46  C   UNL A   1      42.920  22.342  26.253  1.00  0.00     0.009 A 
ATOM     47  C   UNL A   1      40.856  20.914  27.461  1.00  0.00     0.001 A 
ATOM     48  C   UNL A   1      42.783  20.967  26.021  1.00  0.00     0.001 A 
ATOM     49  C   UNL A   1      41.764  20.249  26.642  1.00  0.00     0.000 A 
ENDBRANCH  25  44
BRANCH  37  50
ATOM     50  C   UNL A   1      45.715  27.915  28.614  1.00  0.00    -0.014 A 
ATOM     51  C   UNL A   1      44.773  28.536  27.778  1.00  0.00     0.009 A 
ATOM     52  C   UNL A   1      47.057  27.894  28.193  1.00  0.00     0.009 A 
ATOM     53  C   UNL A   1      45.149  29.100  26.557  1.00  0.00     0.001 A 
ATOM     54  C   UNL A   1      47.440  28.486  26.982  1.00  0.00     0.001 A 
ATOM     55  C   UNL A   1      46.483  29.078  26.159  1.00  0.00     0.000 A 
ENDBRANCH  37  50
ENDBRANCH  11  12
ENDBRANCH   4   6
ENDBRANCH   3   4
ENDBRANCH   2   3
ENDBRANCH   1   2
BRANCH   1  56
ATOM     56  O   UNL A   1      32.614  30.165  26.510  1.00  0.00    -0.374 OA
BRANCH  56  57
ATOM     57  C   UNL A   1      32.760  29.545  25.248  1.00  0.00     0.202 C 
BRANCH  57  58
ATOM     58  C   UNL A   1      31.393  29.219  24.649  1.00  0.00     0.261 C 
BRANCH  58  59
ATOM     59  O   UNL A   1      31.158  27.804  24.740  1.00  0.00    -0.460 OA
BRANCH  59  60
ATOM     60  C   UNL A   1      31.202  27.135  23.574  1.00  0.00     0.339 C 
ATOM     61  O   UNL A   1      30.788  27.491  22.474  1.00  0.00    -0.246 OA
BRANCH  60  62
ATOM     62  C   UNL A   1      31.930  25.896  23.699  1.00  0.00     0.078 A 
ATOM     63  C   UNL A   1      32.660  25.349  22.653  1.00  0.00     0.021 A 
ATOM     64  C   UNL A   1      31.859  25.240  24.924  1.00  0.00     0.129 A 
ATOM     65  C   UNL A   1      33.326  24.164  22.890  1.00  0.00     0.048 A 
ATOM     66  N   UNL A   1      32.437  24.051  25.160  1.00  0.00    -0.238 NA
ATOM     67  C   UNL A   1      33.192  23.569  24.148  1.00  0.00     0.138 A 
BRANCH  67  68
ATOM     68  N   UNL A   1      34.070  22.529  24.457  1.00  0.00    -0.283 N 
ATOM     69  C   UNL A   1      33.784  21.195  24.513  1.00  0.00     0.206 A 
ATOM     70  C   UNL A   1      35.372  22.705  24.863  1.00  0.00     0.074 A 
ATOM     71  N   UNL A   1      34.869  20.484  24.740  1.00  0.00    -0.236 NA
ATOM     72  C   UNL A   1      35.857  21.411  24.983  1.00  0.00     0.089 A 
ATOM     73  C   UNL A   1      36.120  23.851  25.180  1.00  0.00     0.029 A 
ATOM     74  C   UNL A   1      37.197  21.232  25.347  1.00  0.00     0.030 A 
ATOM     75  C   UNL A   1      37.437  23.650  25.579  1.00  0.00     0.002 A 
ATOM     76  C   UNL A   1      37.976  22.365  25.642  1.00  0.00     0.002 A 
ENDBRANCH  67  68
ENDBRANCH  60  62
ENDBRANCH  59  60
ENDBRANCH  58  59
ENDBRANCH  57  58
ENDBRANCH  56  57
ENDBRANCH   1  56
TORSDOF 15
ENDMDL
