MODEL 1
REMARK VINA RESULT:      -9.2      0.000      0.000
REMARK SMILES CCCNC(=O)CN(C)C(=O)C[N@H+]1CCCC[C@H]1C(=O)OCCOCCOC(=O)c1ccc(-c2c3nc(c(-c4ccccc4)c4ccc([nH]4)c(-c4ccccc4)c4nc(c(-c5ccccc5)c5ccc2[nH]5)C=C4)C=C3)cc1
REMARK SMILES IDX 22 1 21 2 19 3 20 4 18 5 13 6 14 7 15 9 17 10 16 11 12 12
REMARK SMILES IDX 10 13 11 14 8 15 9 16 7 17 5 18 4 19 6 21 3 22 2 23 1 24
REMARK SMILES IDX 23 25 24 26 25 27 26 28 27 29 28 30 29 31 30 32 31 33 77 34
REMARK SMILES IDX 32 35 76 36 33 37 34 38 35 39 70 40 36 41 75 42 69 43 71 44
REMARK SMILES IDX 37 45 74 46 68 47 67 48 38 50 60 51 45 52 59 53 46 54 49 55
REMARK SMILES IDX 58 56 72 57 47 58 48 59 57 61 73 62 50 63 39 64 40 65 44 66
REMARK SMILES IDX 41 67 43 68 42 69 61 70 62 71 66 72 63 73 65 74 64 75 51 76
REMARK SMILES IDX 52 77 56 78 53 79 55 80 54 81
REMARK H PARENT 13 8 4 20 71 49 49 60
REMARK Flexibility Score: inf
ROOT
ATOM      1  C   UNL A   1      29.891  24.855  26.488  1.00  0.00     0.261 C 
ENDROOT
BRANCH   1   2
ATOM      2  O   UNL A   1      30.476  23.770  25.750  1.00  0.00    -0.459 OA
BRANCH   2   3
ATOM      3  C   UNL A   1      31.638  23.294  26.281  1.00  0.00     0.365 C 
ATOM      4  O   UNL A   1      31.907  23.331  27.477  1.00  0.00    -0.245 OA
BRANCH   3   5
ATOM      5  C   UNL A   1      32.542  22.671  25.189  1.00  0.00     0.295 C 
ATOM      6  N   UNL A   1      33.822  23.416  25.009  1.00  0.00    -0.315 N 
ATOM      7  C   UNL A   1      34.689  23.363  26.193  1.00  0.00     0.263 C 
ATOM      8  H   UNL A   1      34.334  22.937  24.267  1.00  0.00     0.349 HD
ATOM      9  C   UNL A   1      34.985  21.922  26.622  1.00  0.00     0.062 C 
ATOM     10  C   UNL A   1      32.873  21.203  25.496  1.00  0.00     0.078 C 
ATOM     11  C   UNL A   1      33.733  21.060  26.745  1.00  0.00     0.013 C 
BRANCH   6  12
ATOM     12  C   UNL A   1      33.582  24.802  24.559  1.00  0.00     0.364 C 
BRANCH  12  13
ATOM     13  C   UNL A   1      33.650  24.877  23.022  1.00  0.00     0.277 C 
ATOM     14  O   UNL A   1      34.472  24.193  22.407  1.00  0.00    -0.268 OA
BRANCH  13  15
ATOM     15  N   UNL A   1      32.769  25.739  22.369  1.00  0.00    -0.332 N 
ATOM     16  C   UNL A   1      32.553  25.702  20.931  1.00  0.00     0.147 C 
BRANCH  15  17
ATOM     17  C   UNL A   1      32.196  26.842  23.145  1.00  0.00     0.219 C 
BRANCH  17  18
ATOM     18  C   UNL A   1      32.525  28.284  22.717  1.00  0.00     0.239 C 
ATOM     19  N   UNL A   1      31.549  29.181  22.397  1.00  0.00    -0.355 N 
ATOM     20  H   UNL A   1      31.877  30.069  22.125  1.00  0.00     0.163 HD
ATOM     21  O   UNL A   1      33.689  28.623  22.475  1.00  0.00    -0.273 OA
BRANCH  19  22
ATOM     22  C   UNL A   1      30.111  29.038  22.395  1.00  0.00     0.115 C 
BRANCH  22  23
ATOM     23  C   UNL A   1      29.422  30.326  22.825  1.00  0.00     0.018 C 
ATOM     24  C   UNL A   1      27.907  30.266  22.669  1.00  0.00     0.006 C 
ENDBRANCH  22  23
ENDBRANCH  19  22
ENDBRANCH  17  18
ENDBRANCH  15  17
ENDBRANCH  13  15
ENDBRANCH  12  13
ENDBRANCH   6  12
ENDBRANCH   3   5
ENDBRANCH   2   3
ENDBRANCH   1   2
BRANCH   1  25
ATOM     25  C   UNL A   1      30.396  26.231  26.041  1.00  0.00     0.202 C 
BRANCH  25  26
ATOM     26  O   UNL A   1      31.224  26.976  26.931  1.00  0.00    -0.374 OA
BRANCH  26  27
ATOM     27  C   UNL A   1      31.788  28.189  26.438  1.00  0.00     0.202 C 
BRANCH  27  28
ATOM     28  C   UNL A   1      33.315  28.320  26.418  1.00  0.00     0.261 C 
BRANCH  28  29
ATOM     29  O   UNL A   1      33.837  28.748  27.687  1.00  0.00    -0.460 OA
BRANCH  29  30
ATOM     30  C   UNL A   1      34.439  29.959  27.662  1.00  0.00     0.338 C 
ATOM     31  O   UNL A   1      33.922  31.041  27.421  1.00  0.00    -0.246 OA
BRANCH  30  32
ATOM     32  C   UNL A   1      35.816  29.846  28.173  1.00  0.00     0.060 A 
ATOM     33  C   UNL A   1      36.855  30.096  27.267  1.00  0.00     0.016 A 
ATOM     34  C   UNL A   1      36.090  29.441  29.480  1.00  0.00     0.016 A 
ATOM     35  C   UNL A   1      38.175  29.879  27.644  1.00  0.00     0.010 A 
ATOM     36  C   UNL A   1      37.417  29.206  29.854  1.00  0.00     0.010 A 
ATOM     37  C   UNL A   1      38.456  29.382  28.922  1.00  0.00    -0.014 A 
BRANCH  37  38
ATOM     38  C   UNL A   1      39.813  28.859  29.201  1.00  0.00     0.031 A 
ATOM     39  C   UNL A   1      40.776  29.738  29.952  1.00  0.00     0.074 A 
ATOM     40  C   UNL A   1      40.160  27.612  28.842  1.00  0.00     0.049 A 
ATOM     41  N   UNL A   1      42.011  29.498  30.310  1.00  0.00    -0.248 NA
ATOM     42  C   UNL A   1      40.278  31.064  30.358  1.00  0.00     0.031 C 
ATOM     43  C   UNL A   1      39.293  26.656  28.157  1.00  0.00     0.029 A 
ATOM     44  N   UNL A   1      41.343  26.940  29.011  1.00  0.00    -0.354 N 
ATOM     45  C   UNL A   1      42.438  30.643  30.972  1.00  0.00     0.074 A 
ATOM     46  C   UNL A   1      41.343  31.586  30.949  1.00  0.00     0.031 C 
ATOM     47  C   UNL A   1      39.980  25.517  27.952  1.00  0.00     0.029 A 
ATOM     48  C   UNL A   1      41.337  25.678  28.467  1.00  0.00     0.049 A 
ATOM     49  H   UNL A   1      42.121  27.323  29.476  1.00  0.00     0.167 HD
ATOM     50  C   UNL A   1      43.638  30.884  31.550  1.00  0.00     0.031 A 
ATOM     51  C   UNL A   1      42.327  24.770  28.379  1.00  0.00     0.031 A 
ATOM     52  C   UNL A   1      44.728  29.948  31.565  1.00  0.00     0.049 A 
ATOM     53  C   UNL A   1      43.675  25.093  28.969  1.00  0.00     0.074 A 
ATOM     54  C   UNL A   1      45.979  30.091  32.135  1.00  0.00     0.029 A 
ATOM     55  N   UNL A   1      44.695  28.696  30.973  1.00  0.00    -0.354 N 
ATOM     56  N   UNL A   1      44.058  26.166  29.618  1.00  0.00    -0.248 NA
ATOM     57  C   UNL A   1      44.724  24.074  28.821  1.00  0.00     0.031 C 
ATOM     58  C   UNL A   1      46.723  28.943  31.845  1.00  0.00     0.029 A 
ATOM     59  C   UNL A   1      45.914  28.064  31.142  1.00  0.00     0.049 A 
ATOM     60  H   UNL A   1      43.919  28.312  30.502  1.00  0.00     0.167 HD
ATOM     61  C   UNL A   1      45.381  25.940  29.979  1.00  0.00     0.074 A 
ATOM     62  C   UNL A   1      45.728  24.621  29.491  1.00  0.00     0.031 C 
ATOM     63  C   UNL A   1      46.233  26.749  30.653  1.00  0.00     0.031 A 
BRANCH  50  64
ATOM     64  C   UNL A   1      43.844  32.230  32.186  1.00  0.00    -0.014 A 
ATOM     65  C   UNL A   1      44.329  33.319  31.447  1.00  0.00     0.009 A 
ATOM     66  C   UNL A   1      43.503  32.418  33.535  1.00  0.00     0.009 A 
ATOM     67  C   UNL A   1      44.490  34.567  32.054  1.00  0.00     0.001 A 
ATOM     68  C   UNL A   1      43.643  33.672  34.131  1.00  0.00     0.001 A 
ATOM     69  C   UNL A   1      44.141  34.744  33.393  1.00  0.00     0.000 A 
ENDBRANCH  50  64
BRANCH  51  70
ATOM     70  C   UNL A   1      42.100  23.478  27.681  1.00  0.00    -0.014 A 
ATOM     71  C   UNL A   1      42.445  23.317  26.330  1.00  0.00     0.009 A 
ATOM     72  C   UNL A   1      41.499  22.403  28.358  1.00  0.00     0.009 A 
ATOM     73  C   UNL A   1      42.166  22.121  25.665  1.00  0.00     0.001 A 
ATOM     74  C   UNL A   1      41.249  21.199  27.698  1.00  0.00     0.001 A 
ATOM     75  C   UNL A   1      41.572  21.062  26.350  1.00  0.00     0.000 A 
ENDBRANCH  51  70
BRANCH  63  76
ATOM     76  C   UNL A   1      47.609  26.215  30.938  1.00  0.00    -0.014 A 
ATOM     77  C   UNL A   1      48.626  26.270  29.974  1.00  0.00     0.009 A 
ATOM     78  C   UNL A   1      47.900  25.692  32.208  1.00  0.00     0.009 A 
ATOM     79  C   UNL A   1      49.900  25.780  30.266  1.00  0.00     0.001 A 
ATOM     80  C   UNL A   1      49.181  25.231  32.506  1.00  0.00     0.001 A 
ATOM     81  C   UNL A   1      50.178  25.266  31.532  1.00  0.00     0.000 A 
ENDBRANCH  63  76
ENDBRANCH  37  38
ENDBRANCH  30  32
ENDBRANCH  29  30
ENDBRANCH  28  29
ENDBRANCH  27  28
ENDBRANCH  26  27
ENDBRANCH  25  26
ENDBRANCH   1  25
TORSDOF 21
ENDMDL
MODEL 2
REMARK VINA RESULT:      -9.1      3.198      5.279
REMARK SMILES CCCNC(=O)CN(C)C(=O)C[N@H+]1CCCC[C@H]1C(=O)OCCOCCOC(=O)c1ccc(-c2c3nc(c(-c4ccccc4)c4ccc([nH]4)c(-c4ccccc4)c4nc(c(-c5ccccc5)c5ccc2[nH]5)C=C4)C=C3)cc1
REMARK SMILES IDX 22 1 21 2 19 3 20 4 18 5 13 6 14 7 15 9 17 10 16 11 12 12
REMARK SMILES IDX 10 13 11 14 8 15 9 16 7 17 5 18 4 19 6 21 3 22 2 23 1 24
REMARK SMILES IDX 23 25 24 26 25 27 26 28 27 29 28 30 29 31 30 32 31 33 77 34
REMARK SMILES IDX 32 35 76 36 33 37 34 38 35 39 70 40 36 41 75 42 69 43 71 44
REMARK SMILES IDX 37 45 74 46 68 47 67 48 38 50 60 51 45 52 59 53 46 54 49 55
REMARK SMILES IDX 58 56 72 57 47 58 48 59 57 61 73 62 50 63 39 64 40 65 44 66
REMARK SMILES IDX 41 67 43 68 42 69 61 70 62 71 66 72 63 73 65 74 64 75 51 76
REMARK SMILES IDX 52 77 56 78 53 79 55 80 54 81
REMARK H PARENT 13 8 4 20 71 49 49 60
REMARK Flexibility Score: inf
ROOT
ATOM      1  C   UNL A   1      32.126  28.954  27.456  1.00  0.00     0.261 C 
ENDROOT
BRANCH   1   2
ATOM      2  O   UNL A   1      32.684  27.792  26.821  1.00  0.00    -0.459 OA
BRANCH   2   3
ATOM      3  C   UNL A   1      31.778  27.043  26.128  1.00  0.00     0.365 C 
ATOM      4  O   UNL A   1      30.929  26.337  26.658  1.00  0.00    -0.245 OA
BRANCH   3   5
ATOM      5  C   UNL A   1      31.941  27.238  24.600  1.00  0.00     0.295 C 
ATOM      6  N   UNL A   1      32.116  25.947  23.872  1.00  0.00    -0.315 N 
ATOM      7  C   UNL A   1      30.933  25.081  23.948  1.00  0.00     0.263 C 
ATOM      8  H   UNL A   1      32.225  26.183  22.886  1.00  0.00     0.349 HD
ATOM      9  C   UNL A   1      29.670  25.790  23.448  1.00  0.00     0.062 C 
ATOM     10  C   UNL A   1      30.743  27.981  23.992  1.00  0.00     0.078 C 
ATOM     11  C   UNL A   1      29.460  27.163  24.077  1.00  0.00     0.013 C 
BRANCH   6  12
ATOM     12  C   UNL A   1      33.344  25.247  24.300  1.00  0.00     0.364 C 
BRANCH  12  13
ATOM     13  C   UNL A   1      33.775  24.233  23.224  1.00  0.00     0.277 C 
ATOM     14  O   UNL A   1      33.923  24.598  22.055  1.00  0.00    -0.268 OA
BRANCH  13  15
ATOM     15  N   UNL A   1      33.979  22.910  23.616  1.00  0.00    -0.332 N 
ATOM     16  C   UNL A   1      35.268  22.417  24.079  1.00  0.00     0.147 C 
BRANCH  15  17
ATOM     17  C   UNL A   1      32.901  21.950  23.364  1.00  0.00     0.219 C 
BRANCH  17  18
ATOM     18  C   UNL A   1      32.631  20.863  24.420  1.00  0.00     0.239 C 
ATOM     19  N   UNL A   1      32.118  21.162  25.647  1.00  0.00    -0.355 N 
ATOM     20  H   UNL A   1      32.000  20.389  26.246  1.00  0.00     0.163 HD
ATOM     21  O   UNL A   1      33.036  19.706  24.257  1.00  0.00    -0.273 OA
BRANCH  19  22
ATOM     22  C   UNL A   1      31.721  22.432  26.211  1.00  0.00     0.115 C 
BRANCH  22  23
ATOM     23  C   UNL A   1      32.511  22.754  27.472  1.00  0.00     0.018 C 
ATOM     24  C   UNL A   1      33.888  22.102  27.489  1.00  0.00     0.006 C 
ENDBRANCH  22  23
ENDBRANCH  19  22
ENDBRANCH  17  18
ENDBRANCH  15  17
ENDBRANCH  13  15
ENDBRANCH  12  13
ENDBRANCH   6  12
ENDBRANCH   3   5
ENDBRANCH   2   3
ENDBRANCH   1   2
BRANCH   1  25
ATOM     25  C   UNL A   1      32.509  30.264  26.760  1.00  0.00     0.202 C 
BRANCH  25  26
ATOM     26  O   UNL A   1      31.480  31.037  26.147  1.00  0.00    -0.374 OA
BRANCH  26  27
ATOM     27  C   UNL A   1      31.373  32.406  26.532  1.00  0.00     0.202 C 
BRANCH  27  28
ATOM     28  C   UNL A   1      32.607  33.084  27.138  1.00  0.00     0.261 C 
BRANCH  28  29
ATOM     29  O   UNL A   1      32.257  34.012  28.178  1.00  0.00    -0.460 OA
BRANCH  29  30
ATOM     30  C   UNL A   1      33.302  34.709  28.678  1.00  0.00     0.338 C 
ATOM     31  O   UNL A   1      33.298  35.861  29.090  1.00  0.00    -0.246 OA
BRANCH  30  32
ATOM     32  C   UNL A   1      34.461  33.817  28.859  1.00  0.00     0.060 A 
ATOM     33  C   UNL A   1      34.229  32.592  29.498  1.00  0.00     0.016 A 
ATOM     34  C   UNL A   1      35.750  34.192  28.477  1.00  0.00     0.016 A 
ATOM     35  C   UNL A   1      35.297  31.762  29.819  1.00  0.00     0.010 A 
ATOM     36  C   UNL A   1      36.825  33.364  28.815  1.00  0.00     0.010 A 
ATOM     37  C   UNL A   1      36.603  32.172  29.527  1.00  0.00    -0.014 A 
BRANCH  37  38
ATOM     38  C   UNL A   1      37.733  31.444  30.147  1.00  0.00     0.031 A 
ATOM     39  C   UNL A   1      38.054  31.722  31.591  1.00  0.00     0.074 A 
ATOM     40  C   UNL A   1      38.422  30.519  29.458  1.00  0.00     0.049 A 
ATOM     41  N   UNL A   1      38.992  31.209  32.345  1.00  0.00    -0.248 NA
ATOM     42  C   UNL A   1      37.200  32.706  32.278  1.00  0.00     0.031 C 
ATOM     43  C   UNL A   1      38.166  30.132  28.072  1.00  0.00     0.029 A 
ATOM     44  N   UNL A   1      39.480  29.736  29.841  1.00  0.00    -0.354 N 
ATOM     45  C   UNL A   1      38.847  31.815  33.587  1.00  0.00     0.074 A 
ATOM     46  C   UNL A   1      37.747  32.747  33.484  1.00  0.00     0.031 C 
ATOM     47  C   UNL A   1      39.055  29.188  27.715  1.00  0.00     0.029 A 
ATOM     48  C   UNL A   1      39.954  28.928  28.836  1.00  0.00     0.049 A 
ATOM     49  H   UNL A   1      39.864  29.752  30.747  1.00  0.00     0.167 HD
ATOM     50  C   UNL A   1      39.565  31.608  34.716  1.00  0.00     0.031 A 
ATOM     51  C   UNL A   1      41.009  28.091  28.824  1.00  0.00     0.031 A 
ATOM     52  C   UNL A   1      40.663  30.685  34.813  1.00  0.00     0.049 A 
ATOM     53  C   UNL A   1      41.835  27.934  30.074  1.00  0.00     0.074 A 
ATOM     54  C   UNL A   1      41.447  30.393  35.915  1.00  0.00     0.029 A 
ATOM     55  N   UNL A   1      41.134  29.912  33.765  1.00  0.00    -0.354 N 
ATOM     56  N   UNL A   1      41.671  28.489  31.250  1.00  0.00    -0.248 NA
ATOM     57  C   UNL A   1      42.990  27.027  29.994  1.00  0.00     0.031 C 
ATOM     58  C   UNL A   1      42.427  29.478  35.519  1.00  0.00     0.029 A 
ATOM     59  C   UNL A   1      42.217  29.160  34.185  1.00  0.00     0.049 A 
ATOM     60  H   UNL A   1      40.756  29.899  32.856  1.00  0.00     0.167 HD
ATOM     61  C   UNL A   1      42.681  27.978  32.056  1.00  0.00     0.074 A 
ATOM     62  C   UNL A   1      43.442  27.056  31.239  1.00  0.00     0.031 C 
ATOM     63  C   UNL A   1      42.955  28.245  33.356  1.00  0.00     0.031 A 
BRANCH  50  64
ATOM     64  C   UNL A   1      39.206  32.421  35.927  1.00  0.00    -0.014 A 
ATOM     65  C   UNL A   1      38.279  31.955  36.870  1.00  0.00     0.009 A 
ATOM     66  C   UNL A   1      39.843  33.652  36.148  1.00  0.00     0.009 A 
ATOM     67  C   UNL A   1      37.978  32.718  38.001  1.00  0.00     0.001 A 
ATOM     68  C   UNL A   1      39.559  34.401  37.291  1.00  0.00     0.001 A 
ATOM     69  C   UNL A   1      38.623  33.936  38.213  1.00  0.00     0.000 A 
ENDBRANCH  50  64
BRANCH  51  70
ATOM     70  C   UNL A   1      41.370  27.358  27.583  1.00  0.00    -0.014 A 
ATOM     71  C   UNL A   1      40.896  26.057  27.350  1.00  0.00     0.009 A 
ATOM     72  C   UNL A   1      42.224  27.946  26.636  1.00  0.00     0.009 A 
ATOM     73  C   UNL A   1      41.295  25.351  26.213  1.00  0.00     0.001 A 
ATOM     74  C   UNL A   1      42.596  27.249  25.485  1.00  0.00     0.001 A 
ATOM     75  C   UNL A   1      42.141  25.948  25.279  1.00  0.00     0.000 A 
ENDBRANCH  51  70
BRANCH  63  76
ATOM     76  C   UNL A   1      44.100  27.502  33.984  1.00  0.00    -0.014 A 
ATOM     77  C   UNL A   1      45.392  28.047  34.016  1.00  0.00     0.009 A 
ATOM     78  C   UNL A   1      43.868  26.260  34.595  1.00  0.00     0.009 A 
ATOM     79  C   UNL A   1      46.438  27.345  34.618  1.00  0.00     0.001 A 
ATOM     80  C   UNL A   1      44.908  25.574  35.221  1.00  0.00     0.001 A 
ATOM     81  C   UNL A   1      46.194  26.113  35.224  1.00  0.00     0.000 A 
ENDBRANCH  63  76
ENDBRANCH  37  38
ENDBRANCH  30  32
ENDBRANCH  29  30
ENDBRANCH  28  29
ENDBRANCH  27  28
ENDBRANCH  26  27
ENDBRANCH  25  26
ENDBRANCH   1  25
TORSDOF 21
ENDMDL
MODEL 3
REMARK VINA RESULT:      -9.0      2.083      6.980
REMARK SMILES CCCNC(=O)CN(C)C(=O)C[N@H+]1CCCC[C@H]1C(=O)OCCOCCOC(=O)c1ccc(-c2c3nc(c(-c4ccccc4)c4ccc([nH]4)c(-c4ccccc4)c4nc(c(-c5ccccc5)c5ccc2[nH]5)C=C4)C=C3)cc1
REMARK SMILES IDX 22 1 21 2 19 3 20 4 18 5 13 6 14 7 15 9 17 10 16 11 12 12
REMARK SMILES IDX 10 13 11 14 8 15 9 16 7 17 5 18 4 19 6 21 3 22 2 23 1 24
REMARK SMILES IDX 23 25 24 26 25 27 26 28 27 29 28 30 29 31 30 32 31 33 77 34
REMARK SMILES IDX 32 35 76 36 33 37 34 38 35 39 70 40 36 41 75 42 69 43 71 44
REMARK SMILES IDX 37 45 74 46 68 47 67 48 38 50 60 51 45 52 59 53 46 54 49 55
REMARK SMILES IDX 58 56 72 57 47 58 48 59 57 61 73 62 50 63 39 64 40 65 44 66
REMARK SMILES IDX 41 67 43 68 42 69 61 70 62 71 66 72 63 73 65 74 64 75 51 76
REMARK SMILES IDX 52 77 56 78 53 79 55 80 54 81
REMARK H PARENT 13 8 4 20 71 49 49 60
REMARK Flexibility Score: inf
ROOT
ATOM      1  C   UNL A   1      34.514  21.531  24.622  1.00  0.00     0.261 C 
ENDROOT
BRANCH   1   2
ATOM      2  O   UNL A   1      33.959  22.353  25.661  1.00  0.00    -0.459 OA
BRANCH   2   3
ATOM      3  C   UNL A   1      34.395  23.646  25.645  1.00  0.00     0.365 C 
ATOM      4  O   UNL A   1      35.560  23.970  25.449  1.00  0.00    -0.245 OA
BRANCH   3   5
ATOM      5  C   UNL A   1      33.225  24.637  25.866  1.00  0.00     0.295 C 
ATOM      6  N   UNL A   1      32.756  25.264  24.596  1.00  0.00    -0.315 N 
ATOM      7  C   UNL A   1      32.169  24.297  23.661  1.00  0.00     0.263 C 
ATOM      8  H   UNL A   1      32.000  25.900  24.849  1.00  0.00     0.349 HD
ATOM      9  C   UNL A   1      31.024  23.504  24.300  1.00  0.00     0.062 C 
ATOM     10  C   UNL A   1      32.027  23.957  26.544  1.00  0.00     0.078 C 
ATOM     11  C   UNL A   1      31.389  22.899  25.651  1.00  0.00     0.013 C 
BRANCH   6  12
ATOM     12  C   UNL A   1      33.821  26.068  23.965  1.00  0.00     0.364 C 
BRANCH  12  13
ATOM     13  C   UNL A   1      33.310  26.683  22.649  1.00  0.00     0.277 C 
ATOM     14  O   UNL A   1      33.722  26.257  21.568  1.00  0.00    -0.268 OA
BRANCH  13  15
ATOM     15  N   UNL A   1      32.387  27.726  22.729  1.00  0.00    -0.332 N 
ATOM     16  C   UNL A   1      32.630  28.934  23.503  1.00  0.00     0.147 C 
BRANCH  15  17
ATOM     17  C   UNL A   1      31.051  27.498  22.170  1.00  0.00     0.219 C 
BRANCH  17  18
ATOM     18  C   UNL A   1      29.828  27.803  23.055  1.00  0.00     0.239 C 
ATOM     19  N   UNL A   1      29.068  28.920  22.872  1.00  0.00    -0.355 N 
ATOM     20  H   UNL A   1      28.320  29.019  23.505  1.00  0.00     0.163 HD
ATOM     21  O   UNL A   1      29.601  27.140  24.073  1.00  0.00    -0.273 OA
BRANCH  19  22
ATOM     22  C   UNL A   1      29.184  29.983  21.899  1.00  0.00     0.115 C 
BRANCH  22  23
ATOM     23  C   UNL A   1      28.221  31.123  22.200  1.00  0.00     0.018 C 
ATOM     24  C   UNL A   1      27.628  31.041  23.602  1.00  0.00     0.006 C 
ENDBRANCH  22  23
ENDBRANCH  19  22
ENDBRANCH  17  18
ENDBRANCH  15  17
ENDBRANCH  13  15
ENDBRANCH  12  13
ENDBRANCH   6  12
ENDBRANCH   3   5
ENDBRANCH   2   3
ENDBRANCH   1   2
BRANCH   1  25
ATOM     25  C   UNL A   1      35.694  20.676  25.094  1.00  0.00     0.202 C 
BRANCH  25  26
ATOM     26  O   UNL A   1      37.012  21.058  24.706  1.00  0.00    -0.374 OA
BRANCH  26  27
ATOM     27  C   UNL A   1      38.086  20.222  25.129  1.00  0.00     0.202 C 
BRANCH  27  28
ATOM     28  C   UNL A   1      39.343  20.892  25.696  1.00  0.00     0.261 C 
BRANCH  28  29
ATOM     29  O   UNL A   1      40.179  19.962  26.403  1.00  0.00    -0.460 OA
BRANCH  29  30
ATOM     30  C   UNL A   1      41.483  20.002  26.048  1.00  0.00     0.338 C 
ATOM     31  O   UNL A   1      42.070  19.243  25.288  1.00  0.00    -0.246 OA
BRANCH  30  32
ATOM     32  C   UNL A   1      42.104  21.238  26.552  1.00  0.00     0.060 A 
ATOM     33  C   UNL A   1      42.070  21.450  27.937  1.00  0.00     0.016 A 
ATOM     34  C   UNL A   1      42.644  22.199  25.695  1.00  0.00     0.016 A 
ATOM     35  C   UNL A   1      42.518  22.654  28.468  1.00  0.00     0.010 A 
ATOM     36  C   UNL A   1      43.078  23.416  26.228  1.00  0.00     0.010 A 
ATOM     37  C   UNL A   1      42.973  23.662  27.609  1.00  0.00    -0.014 A 
BRANCH  37  38
ATOM     38  C   UNL A   1      43.144  25.031  28.145  1.00  0.00     0.031 A 
ATOM     39  C   UNL A   1      44.527  25.480  28.530  1.00  0.00     0.074 A 
ATOM     40  C   UNL A   1      42.100  25.873  28.235  1.00  0.00     0.049 A 
ATOM     41  N   UNL A   1      44.920  26.628  29.019  1.00  0.00    -0.248 NA
ATOM     42  C   UNL A   1      45.614  24.505  28.334  1.00  0.00     0.031 C 
ATOM     43  C   UNL A   1      40.726  25.563  27.843  1.00  0.00     0.029 A 
ATOM     44  N   UNL A   1      42.042  27.166  28.686  1.00  0.00    -0.354 N 
ATOM     45  C   UNL A   1      46.293  26.509  29.198  1.00  0.00     0.074 A 
ATOM     46  C   UNL A   1      46.665  25.174  28.786  1.00  0.00     0.031 C 
ATOM     47  C   UNL A   1      39.955  26.639  28.082  1.00  0.00     0.029 A 
ATOM     48  C   UNL A   1      40.775  27.696  28.667  1.00  0.00     0.049 A 
ATOM     49  H   UNL A   1      42.832  27.667  28.994  1.00  0.00     0.167 HD
ATOM     50  C   UNL A   1      47.166  27.434  29.660  1.00  0.00     0.031 A 
ATOM     51  C   UNL A   1      40.332  28.893  29.095  1.00  0.00     0.031 A 
ATOM     52  C   UNL A   1      46.793  28.758  30.075  1.00  0.00     0.049 A 
ATOM     53  C   UNL A   1      41.316  29.877  29.672  1.00  0.00     0.074 A 
ATOM     54  C   UNL A   1      47.604  29.774  30.547  1.00  0.00     0.029 A 
ATOM     55  N   UNL A   1      45.496  29.244  30.074  1.00  0.00    -0.354 N 
ATOM     56  N   UNL A   1      42.615  29.764  29.808  1.00  0.00    -0.248 NA
ATOM     57  C   UNL A   1      40.770  31.157  30.148  1.00  0.00     0.031 C 
ATOM     58  C   UNL A   1      46.789  30.860  30.879  1.00  0.00     0.029 A 
ATOM     59  C   UNL A   1      45.478  30.538  30.562  1.00  0.00     0.049 A 
ATOM     60  H   UNL A   1      44.703  28.743  29.772  1.00  0.00     0.167 HD
ATOM     61  C   UNL A   1      43.045  30.967  30.357  1.00  0.00     0.074 A 
ATOM     62  C   UNL A   1      41.870  31.799  30.513  1.00  0.00     0.031 C 
ATOM     63  C   UNL A   1      44.298  31.350  30.701  1.00  0.00     0.031 A 
BRANCH  50  64
ATOM     64  C   UNL A   1      48.609  27.031  29.773  1.00  0.00    -0.014 A 
ATOM     65  C   UNL A   1      49.521  27.284  28.738  1.00  0.00     0.009 A 
ATOM     66  C   UNL A   1      49.070  26.429  30.955  1.00  0.00     0.009 A 
ATOM     67  C   UNL A   1      50.863  26.922  28.876  1.00  0.00     0.001 A 
ATOM     68  C   UNL A   1      50.416  26.090  31.099  1.00  0.00     0.001 A 
ATOM     69  C   UNL A   1      51.310  26.332  30.057  1.00  0.00     0.000 A 
ENDBRANCH  50  64
BRANCH  51  70
ATOM     70  C   UNL A   1      38.885  29.224  29.028  1.00  0.00    -0.014 A 
ATOM     71  C   UNL A   1      38.052  29.048  30.143  1.00  0.00     0.009 A 
ATOM     72  C   UNL A   1      38.320  29.689  27.828  1.00  0.00     0.009 A 
ATOM     73  C   UNL A   1      36.680  29.299  30.050  1.00  0.00     0.001 A 
ATOM     74  C   UNL A   1      36.955  29.968  27.747  1.00  0.00     0.001 A 
ATOM     75  C   UNL A   1      36.133  29.762  28.854  1.00  0.00     0.000 A 
ENDBRANCH  51  70
BRANCH  63  76
ATOM     76  C   UNL A   1      44.468  32.741  31.241  1.00  0.00    -0.014 A 
ATOM     77  C   UNL A   1      44.408  33.001  32.618  1.00  0.00     0.009 A 
ATOM     78  C   UNL A   1      44.741  33.799  30.358  1.00  0.00     0.009 A 
ATOM     79  C   UNL A   1      44.584  34.300  33.098  1.00  0.00     0.001 A 
ATOM     80  C   UNL A   1      44.944  35.090  30.843  1.00  0.00     0.001 A 
ATOM     81  C   UNL A   1      44.856  35.342  32.212  1.00  0.00     0.000 A 
ENDBRANCH  63  76
ENDBRANCH  37  38
ENDBRANCH  30  32
ENDBRANCH  29  30
ENDBRANCH  28  29
ENDBRANCH  27  28
ENDBRANCH  26  27
ENDBRANCH  25  26
ENDBRANCH   1  25
TORSDOF 21
ENDMDL
